MODEL 1
REMARK VINA RESULT:    -5.007      0.000      0.000
REMARK INTER + INTRA:          -8.371
REMARK INTER:                  -7.933
REMARK INTRA:                  -0.438
REMARK UNBOUND:                -0.438
REMARK SMILES CCCCCCCCCCCC(=O)[O-]
REMARK SMILES IDX 7 1 8 2 9 3 10 4 11 5 12 6 13 7 14 8 6 9 5 10 4 11 3 12 2 13
REMARK SMILES IDX 1 14
REMARK H PARENT
REMARK Flexibility Score: inf
ROOT
ATOM      1  C   UNL     1      58.849 143.621 -30.974  1.00  0.00     0.000 C 
ENDROOT
BRANCH   1   2
ATOM      2  C   UNL     1      57.940 144.116 -29.838  1.00  0.00     0.000 C 
BRANCH   2   3
ATOM      3  C   UNL     1      56.465 143.730 -30.049  1.00  0.00     0.000 C 
BRANCH   3   4
ATOM      4  C   UNL     1      55.619 143.919 -28.781  1.00  0.00     0.006 C 
BRANCH   4   5
ATOM      5  C   UNL     1      56.472 144.232 -27.545  1.00  0.00     0.053 C 
BRANCH   5   6
ATOM      6  C   UNL     1      55.732 143.871 -26.295  1.00  0.00     0.041 C 
ATOM      7  O   UNL     1      54.728 144.541 -25.937  1.00  0.00    -0.550 OA
ATOM      8  O   UNL     1      56.182 142.825 -25.500  1.00  0.00    -0.550 OA
ENDBRANCH   5   6
ENDBRANCH   4   5
ENDBRANCH   3   4
ENDBRANCH   2   3
ENDBRANCH   1   2
BRANCH   1   9
ATOM      9  C   UNL     1      58.810 144.540 -32.205  1.00  0.00     0.000 C 
BRANCH   9  10
ATOM     10  C   UNL     1      60.038 144.315 -33.099  1.00  0.00    -0.000 C 
BRANCH  10  11
ATOM     11  C   UNL     1      60.007 145.196 -34.366  1.00  0.00    -0.000 C 
BRANCH  11  12
ATOM     12  C   UNL     1      59.151 146.465 -34.213  1.00  0.00    -0.000 C 
BRANCH  12  13
ATOM     13  C   UNL     1      59.991 147.733 -34.012  1.00  0.00    -0.003 C 
ATOM     14  C   UNL     1      61.038 147.880 -35.110  1.00  0.00     0.004 C 
ENDBRANCH  12  13
ENDBRANCH  11  12
ENDBRANCH  10  11
ENDBRANCH   9  10
ENDBRANCH   1   9
TORSDOF 10
ENDMDL
MODEL 2
REMARK VINA RESULT:    -4.872      1.222      2.382
REMARK INTER + INTRA:          -8.158
REMARK INTER:                  -7.840
REMARK INTRA:                  -0.318
REMARK UNBOUND:                -0.438
REMARK SMILES CCCCCCCCCCCC(=O)[O-]
REMARK SMILES IDX 7 1 8 2 9 3 10 4 11 5 12 6 13 7 14 8 6 9 5 10 4 11 3 12 2 13
REMARK SMILES IDX 1 14
REMARK H PARENT
REMARK Flexibility Score: inf
ROOT
ATOM      1  C   UNL     1      56.704 143.649 -30.185  1.00  0.00     0.000 C 
ENDROOT
BRANCH   1   2
ATOM      2  C   UNL     1      55.834 144.110 -29.005  1.00  0.00     0.000 C 
BRANCH   2   3
ATOM      3  C   UNL     1      56.616 144.164 -27.680  1.00  0.00     0.000 C 
BRANCH   3   4
ATOM      4  C   UNL     1      55.996 143.271 -26.594  1.00  0.00     0.006 C 
BRANCH   4   5
ATOM      5  C   UNL     1      56.184 143.844 -25.183  1.00  0.00     0.053 C 
BRANCH   5   6
ATOM      6  C   UNL     1      54.856 144.074 -24.532  1.00  0.00     0.041 C 
ATOM      7  O   UNL     1      54.291 143.144 -23.898  1.00  0.00    -0.550 OA
ATOM      8  O   UNL     1      54.220 145.301 -24.667  1.00  0.00    -0.550 OA
ENDBRANCH   5   6
ENDBRANCH   4   5
ENDBRANCH   3   4
ENDBRANCH   2   3
ENDBRANCH   1   2
BRANCH   1   9
ATOM      9  C   UNL     1      58.153 144.151 -30.082  1.00  0.00     0.000 C 
BRANCH   9  10
ATOM     10  C   UNL     1      59.002 143.624 -31.249  1.00  0.00    -0.000 C 
BRANCH  10  11
ATOM     11  C   UNL     1      59.136 144.660 -32.386  1.00  0.00    -0.000 C 
BRANCH  11  12
ATOM     12  C   UNL     1      60.145 144.253 -33.474  1.00  0.00    -0.000 C 
BRANCH  12  13
ATOM     13  C   UNL     1      60.379 145.355 -34.516  1.00  0.00    -0.003 C 
ATOM     14  C   UNL     1      61.470 146.319 -34.062  1.00  0.00     0.004 C 
ENDBRANCH  12  13
ENDBRANCH  11  12
ENDBRANCH  10  11
ENDBRANCH   9  10
ENDBRANCH   1   9
TORSDOF 10
ENDMDL
MODEL 3
REMARK VINA RESULT:    -4.381      3.951      8.138
REMARK INTER + INTRA:          -7.381
REMARK INTER:                  -6.983
REMARK INTRA:                  -0.397
REMARK UNBOUND:                -0.438
REMARK SMILES CCCCCCCCCCCC(=O)[O-]
REMARK SMILES IDX 7 1 8 2 9 3 10 4 11 5 12 6 13 7 14 8 6 9 5 10 4 11 3 12 2 13
REMARK SMILES IDX 1 14
REMARK H PARENT
REMARK Flexibility Score: inf
ROOT
ATOM      1  C   UNL     1      56.475 143.763 -30.232  1.00  0.00     0.000 C 
ENDROOT
BRANCH   1   2
ATOM      2  C   UNL     1      57.934 144.023 -29.825  1.00  0.00     0.000 C 
BRANCH   2   3
ATOM      3  C   UNL     1      58.934 143.632 -30.928  1.00  0.00     0.000 C 
BRANCH   3   4
ATOM      4  C   UNL     1      58.852 144.556 -32.153  1.00  0.00     0.006 C 
BRANCH   4   5
ATOM      5  C   UNL     1      60.027 144.360 -33.119  1.00  0.00     0.053 C 
BRANCH   5   6
ATOM      6  C   UNL     1      60.466 145.676 -33.682  1.00  0.00     0.041 C 
ATOM      7  O   UNL     1      61.670 146.032 -33.595  1.00  0.00    -0.550 OA
ATOM      8  O   UNL     1      59.534 146.529 -34.259  1.00  0.00    -0.550 OA
ENDBRANCH   5   6
ENDBRANCH   4   5
ENDBRANCH   3   4
ENDBRANCH   2   3
ENDBRANCH   1   2
BRANCH   1   9
ATOM      9  C   UNL     1      55.511 143.809 -29.037  1.00  0.00     0.000 C 
BRANCH   9  10
ATOM     10  C   UNL     1      56.248 144.210 -27.751  1.00  0.00    -0.000 C 
BRANCH  10  11
ATOM     11  C   UNL     1      55.998 143.213 -26.600  1.00  0.00    -0.000 C 
BRANCH  11  12
ATOM     12  C   UNL     1      56.329 143.782 -25.209  1.00  0.00    -0.000 C 
BRANCH  12  13
ATOM     13  C   UNL     1      55.227 143.513 -24.175  1.00  0.00    -0.003 C 
ATOM     14  C   UNL     1      54.376 144.757 -23.943  1.00  0.00     0.004 C 
ENDBRANCH  12  13
ENDBRANCH  11  12
ENDBRANCH  10  11
ENDBRANCH   9  10
ENDBRANCH   1   9
TORSDOF 10
ENDMDL
MODEL 4
REMARK VINA RESULT:    -4.180     12.781     16.652
REMARK INTER + INTRA:          -7.062
REMARK INTER:                  -6.704
REMARK INTRA:                  -0.357
REMARK UNBOUND:                -0.438
REMARK SMILES CCCCCCCCCCCC(=O)[O-]
REMARK SMILES IDX 7 1 8 2 9 3 10 4 11 5 12 6 13 7 14 8 6 9 5 10 4 11 3 12 2 13
REMARK SMILES IDX 1 14
REMARK H PARENT
REMARK Flexibility Score: inf
ROOT
ATOM      1  C   UNL     1      49.332 152.889 -22.265  1.00  0.00     0.000 C 
ENDROOT
BRANCH   1   2
ATOM      2  C   UNL     1      49.869 153.310 -23.643  1.00  0.00     0.000 C 
BRANCH   2   3
ATOM      3  C   UNL     1      51.384 153.584 -23.628  1.00  0.00     0.000 C 
BRANCH   3   4
ATOM      4  C   UNL     1      52.015 153.481 -25.025  1.00  0.00     0.006 C 
BRANCH   4   5
ATOM      5  C   UNL     1      52.232 154.853 -25.676  1.00  0.00     0.053 C 
BRANCH   5   6
ATOM      6  C   UNL     1      51.055 155.222 -26.523  1.00  0.00     0.041 C 
ATOM      7  O   UNL     1      50.611 156.400 -26.513  1.00  0.00    -0.550 OA
ATOM      8  O   UNL     1      50.418 154.253 -27.286  1.00  0.00    -0.550 OA
ENDBRANCH   5   6
ENDBRANCH   4   5
ENDBRANCH   3   4
ENDBRANCH   2   3
ENDBRANCH   1   2
BRANCH   1   9
ATOM      9  C   UNL     1      50.168 153.456 -21.107  1.00  0.00     0.000 C 
BRANCH   9  10
ATOM     10  C   UNL     1      49.389 153.393 -19.785  1.00  0.00    -0.000 C 
BRANCH  10  11
ATOM     11  C   UNL     1      50.258 153.799 -18.576  1.00  0.00    -0.000 C 
BRANCH  11  12
ATOM     12  C   UNL     1      49.441 154.156 -17.322  1.00  0.00    -0.000 C 
BRANCH  12  13
ATOM     13  C   UNL     1      49.597 153.127 -16.194  1.00  0.00    -0.003 C 
ATOM     14  C   UNL     1      48.991 153.640 -14.892  1.00  0.00     0.004 C 
ENDBRANCH  12  13
ENDBRANCH  11  12
ENDBRANCH  10  11
ENDBRANCH   9  10
ENDBRANCH   1   9
TORSDOF 10
ENDMDL
MODEL 5
REMARK VINA RESULT:    -4.104     11.396     12.483
REMARK INTER + INTRA:          -6.941
REMARK INTER:                  -6.407
REMARK INTRA:                  -0.534
REMARK UNBOUND:                -0.438
REMARK SMILES CCCCCCCCCCCC(=O)[O-]
REMARK SMILES IDX 7 1 8 2 9 3 10 4 11 5 12 6 13 7 14 8 6 9 5 10 4 11 3 12 2 13
REMARK SMILES IDX 1 14
REMARK H PARENT
REMARK Flexibility Score: inf
ROOT
ATOM      1  C   UNL     1      49.434 154.911 -28.813  1.00  0.00     0.000 C 
ENDROOT
BRANCH   1   2
ATOM      2  C   UNL     1      49.575 154.898 -27.283  1.00  0.00     0.000 C 
BRANCH   2   3
ATOM      3  C   UNL     1      50.740 155.774 -26.789  1.00  0.00     0.000 C 
BRANCH   3   4
ATOM      4  C   UNL     1      51.339 155.269 -25.467  1.00  0.00     0.006 C 
BRANCH   4   5
ATOM      5  C   UNL     1      52.587 154.403 -25.678  1.00  0.00     0.053 C 
BRANCH   5   6
ATOM      6  C   UNL     1      52.231 152.951 -25.621  1.00  0.00     0.041 C 
ATOM      7  O   UNL     1      51.322 152.551 -24.848  1.00  0.00    -0.550 OA
ATOM      8  O   UNL     1      52.937 152.032 -26.388  1.00  0.00    -0.550 OA
ENDBRANCH   5   6
ENDBRANCH   4   5
ENDBRANCH   3   4
ENDBRANCH   2   3
ENDBRANCH   1   2
BRANCH   1   9
ATOM      9  C   UNL     1      49.884 153.592 -29.460  1.00  0.00     0.000 C 
BRANCH   9  10
ATOM     10  C   UNL     1      48.810 153.054 -30.417  1.00  0.00    -0.000 C 
BRANCH  10  11
ATOM     11  C   UNL     1      48.805 153.801 -31.768  1.00  0.00    -0.000 C 
BRANCH  11  12
ATOM     12  C   UNL     1      50.213 154.077 -32.323  1.00  0.00    -0.000 C 
BRANCH  12  13
ATOM     13  C   UNL     1      50.315 153.845 -33.837  1.00  0.00    -0.003 C 
ATOM     14  C   UNL     1      49.028 153.243 -34.390  1.00  0.00     0.004 C 
ENDBRANCH  12  13
ENDBRANCH  11  12
ENDBRANCH  10  11
ENDBRANCH   9  10
ENDBRANCH   1   9
TORSDOF 10
ENDMDL
MODEL 6
REMARK VINA RESULT:    -4.072     11.680     15.255
REMARK INTER + INTRA:          -6.890
REMARK INTER:                  -6.355
REMARK INTRA:                  -0.535
REMARK UNBOUND:                -0.438
REMARK SMILES CCCCCCCCCCCC(=O)[O-]
REMARK SMILES IDX 7 1 8 2 9 3 10 4 11 5 12 6 13 7 14 8 6 9 5 10 4 11 3 12 2 13
REMARK SMILES IDX 1 14
REMARK H PARENT
REMARK Flexibility Score: inf
ROOT
ATOM      1  C   UNL     1      50.153 153.773 -23.436  1.00  0.00     0.000 C 
ENDROOT
BRANCH   1   2
ATOM      2  C   UNL     1      49.590 154.627 -24.584  1.00  0.00     0.000 C 
BRANCH   2   3
ATOM      3  C   UNL     1      50.696 155.305 -25.413  1.00  0.00     0.000 C 
BRANCH   3   4
ATOM      4  C   UNL     1      51.271 154.381 -26.497  1.00  0.00     0.006 C 
BRANCH   4   5
ATOM      5  C   UNL     1      52.545 153.659 -26.041  1.00  0.00     0.053 C 
BRANCH   5   6
ATOM      6  C   UNL     1      52.410 152.182 -26.242  1.00  0.00     0.041 C 
ATOM      7  O   UNL     1      51.894 151.466 -25.344  1.00  0.00    -0.550 OA
ATOM      8  O   UNL     1      52.897 151.591 -27.400  1.00  0.00    -0.550 OA
ENDBRANCH   5   6
ENDBRANCH   4   5
ENDBRANCH   3   4
ENDBRANCH   2   3
ENDBRANCH   1   2
BRANCH   1   9
ATOM      9  C   UNL     1      49.092 152.859 -22.804  1.00  0.00     0.000 C 
BRANCH   9  10
ATOM     10  C   UNL     1      49.189 152.882 -21.271  1.00  0.00    -0.000 C 
BRANCH  10  11
ATOM     11  C   UNL     1      50.476 153.575 -20.778  1.00  0.00    -0.000 C 
BRANCH  11  12
ATOM     12  C   UNL     1      50.685 153.477 -19.257  1.00  0.00    -0.000 C 
BRANCH  12  13
ATOM     13  C   UNL     1      49.565 154.152 -18.455  1.00  0.00    -0.003 C 
ATOM     14  C   UNL     1      49.541 153.652 -17.014  1.00  0.00     0.004 C 
ENDBRANCH  12  13
ENDBRANCH  11  12
ENDBRANCH  10  11
ENDBRANCH   9  10
ENDBRANCH   1   9
TORSDOF 10
ENDMDL
MODEL 7
REMARK VINA RESULT:    -3.930      5.197      8.126
REMARK INTER + INTRA:          -6.665
REMARK INTER:                  -5.901
REMARK INTRA:                  -0.763
REMARK UNBOUND:                -0.438
REMARK SMILES CCCCCCCCCCCC(=O)[O-]
REMARK SMILES IDX 7 1 8 2 9 3 10 4 11 5 12 6 13 7 14 8 6 9 5 10 4 11 3 12 2 13
REMARK SMILES IDX 1 14
REMARK H PARENT
REMARK Flexibility Score: inf
ROOT
ATOM      1  C   UNL     1      55.795 140.878 -23.417  1.00  0.00     0.000 C 
ENDROOT
BRANCH   1   2
ATOM      2  C   UNL     1      57.314 141.101 -23.503  1.00  0.00     0.000 C 
BRANCH   2   3
ATOM      3  C   UNL     1      57.984 141.143 -22.118  1.00  0.00     0.000 C 
BRANCH   3   4
ATOM      4  C   UNL     1      58.144 142.575 -21.583  1.00  0.00     0.006 C 
BRANCH   4   5
ATOM      5  C   UNL     1      59.143 143.401 -22.402  1.00  0.00     0.053 C 
BRANCH   5   6
ATOM      6  C   UNL     1      59.569 144.614 -21.636  1.00  0.00     0.041 C 
ATOM      7  O   UNL     1      58.989 144.921 -20.562  1.00  0.00    -0.550 OA
ATOM      8  O   UNL     1      60.575 145.432 -22.134  1.00  0.00    -0.550 OA
ENDBRANCH   5   6
ENDBRANCH   4   5
ENDBRANCH   3   4
ENDBRANCH   2   3
ENDBRANCH   1   2
BRANCH   1   9
ATOM      9  C   UNL     1      55.002 141.884 -24.265  1.00  0.00     0.000 C 
BRANCH   9  10
ATOM     10  C   UNL     1      55.536 143.311 -24.069  1.00  0.00    -0.000 C 
BRANCH  10  11
ATOM     11  C   UNL     1      55.456 144.147 -25.364  1.00  0.00    -0.000 C 
BRANCH  11  12
ATOM     12  C   UNL     1      55.730 143.334 -26.640  1.00  0.00    -0.000 C 
BRANCH  12  13
ATOM     13  C   UNL     1      56.418 144.157 -27.738  1.00  0.00    -0.003 C 
ATOM     14  C   UNL     1      55.954 143.723 -29.124  1.00  0.00     0.004 C 
ENDBRANCH  12  13
ENDBRANCH  11  12
ENDBRANCH  10  11
ENDBRANCH   9  10
ENDBRANCH   1   9
TORSDOF 10
ENDMDL
MODEL 8
REMARK VINA RESULT:    -3.900     12.714     14.556
REMARK INTER + INTRA:          -6.618
REMARK INTER:                  -5.794
REMARK INTRA:                  -0.824
REMARK UNBOUND:                -0.438
REMARK SMILES CCCCCCCCCCCC(=O)[O-]
REMARK SMILES IDX 7 1 8 2 9 3 10 4 11 5 12 6 13 7 14 8 6 9 5 10 4 11 3 12 2 13
REMARK SMILES IDX 1 14
REMARK H PARENT
REMARK Flexibility Score: inf
ROOT
ATOM      1  C   UNL     1      51.135 155.972 -25.601  1.00  0.00     0.000 C 
ENDROOT
BRANCH   1   2
ATOM      2  C   UNL     1      51.865 156.972 -26.511  1.00  0.00     0.000 C 
BRANCH   2   3
ATOM      3  C   UNL     1      53.146 157.531 -25.867  1.00  0.00     0.000 C 
BRANCH   3   4
ATOM      4  C   UNL     1      54.240 156.463 -25.707  1.00  0.00     0.006 C 
BRANCH   4   5
ATOM      5  C   UNL     1      55.640 157.003 -26.023  1.00  0.00     0.053 C 
BRANCH   5   6
ATOM      6  C   UNL     1      56.672 156.282 -25.212  1.00  0.00     0.041 C 
ATOM      7  O   UNL     1      57.576 155.618 -25.783  1.00  0.00    -0.550 OA
ATOM      8  O   UNL     1      56.606 156.305 -23.825  1.00  0.00    -0.550 OA
ENDBRANCH   5   6
ENDBRANCH   4   5
ENDBRANCH   3   4
ENDBRANCH   2   3
ENDBRANCH   1   2
BRANCH   1   9
ATOM      9  C   UNL     1      51.124 154.548 -26.178  1.00  0.00     0.000 C 
BRANCH   9  10
ATOM     10  C   UNL     1      51.752 153.550 -25.193  1.00  0.00    -0.000 C 
BRANCH  10  11
ATOM     11  C   UNL     1      52.071 154.199 -23.830  1.00  0.00    -0.000 C 
BRANCH  11  12
ATOM     12  C   UNL     1      51.453 153.454 -22.634  1.00  0.00    -0.000 C 
BRANCH  12  13
ATOM     13  C   UNL     1      50.232 152.609 -23.022  1.00  0.00    -0.003 C 
ATOM     14  C   UNL     1      49.129 152.722 -21.975  1.00  0.00     0.004 C 
ENDBRANCH  12  13
ENDBRANCH  11  12
ENDBRANCH  10  11
ENDBRANCH   9  10
ENDBRANCH   1   9
TORSDOF 10
ENDMDL
MODEL 9
REMARK VINA RESULT:    -3.862     12.379     13.675
REMARK INTER + INTRA:          -6.558
REMARK INTER:                  -5.449
REMARK INTRA:                  -1.108
REMARK UNBOUND:                -0.438
REMARK SMILES CCCCCCCCCCCC(=O)[O-]
REMARK SMILES IDX 7 1 8 2 9 3 10 4 11 5 12 6 13 7 14 8 6 9 5 10 4 11 3 12 2 13
REMARK SMILES IDX 1 14
REMARK H PARENT
REMARK Flexibility Score: inf
ROOT
ATOM      1  C   UNL     1      50.451 156.614 -26.782  1.00  0.00     0.000 C 
ENDROOT
BRANCH   1   2
ATOM      2  C   UNL     1      50.155 155.140 -26.463  1.00  0.00     0.000 C 
BRANCH   2   3
ATOM      3  C   UNL     1      51.399 154.244 -26.602  1.00  0.00     0.000 C 
BRANCH   3   4
ATOM      4  C   UNL     1      52.162 154.086 -25.277  1.00  0.00     0.006 C 
BRANCH   4   5
ATOM      5  C   UNL     1      51.227 154.037 -24.061  1.00  0.00     0.053 C 
BRANCH   5   6
ATOM      6  C   UNL     1      50.966 152.619 -23.660  1.00  0.00     0.041 C 
ATOM      7  O   UNL     1      51.020 151.698 -24.517  1.00  0.00    -0.550 OA
ATOM      8  O   UNL     1      50.616 152.321 -22.350  1.00  0.00    -0.550 OA
ENDBRANCH   5   6
ENDBRANCH   4   5
ENDBRANCH   3   4
ENDBRANCH   2   3
ENDBRANCH   1   2
BRANCH   1   9
ATOM      9  C   UNL     1      50.579 157.477 -25.517  1.00  0.00     0.000 C 
BRANCH   9  10
ATOM     10  C   UNL     1      51.924 158.218 -25.490  1.00  0.00    -0.000 C 
BRANCH  10  11
ATOM     11  C   UNL     1      52.930 157.638 -26.507  1.00  0.00    -0.000 C 
BRANCH  11  12
ATOM     12  C   UNL     1      54.399 157.792 -26.077  1.00  0.00    -0.000 C 
BRANCH  12  13
ATOM     13  C   UNL     1      54.872 156.664 -25.151  1.00  0.00    -0.003 C 
ATOM     14  C   UNL     1      56.327 156.299 -25.427  1.00  0.00     0.004 C 
ENDBRANCH  12  13
ENDBRANCH  11  12
ENDBRANCH  10  11
ENDBRANCH   9  10
ENDBRANCH   1   9
TORSDOF 10
ENDMDL
