MODEL 1
REMARK VINA RESULT:    -5.168      0.000      0.000
REMARK INTER + INTRA:          -5.989
REMARK INTER:                  -5.773
REMARK INTRA:                  -0.216
REMARK UNBOUND:                -0.216
REMARK SMILES CC(C)c1ccc(C(=O)[O-])cc1
REMARK SMILES IDX 7 1 6 2 11 3 5 4 12 5 4 6 8 7 9 8 10 9 2 10 1 11 3 12
REMARK H PARENT
REMARK Flexibility Score: inf
ROOT
ATOM      1  C   UNL     1      76.378  20.438  31.961  1.00  0.00    -0.003 A 
ATOM      2  C   UNL     1      77.600  21.121  31.847  1.00  0.00     0.010 A 
ATOM      3  C   UNL     1      75.690  20.074  30.791  1.00  0.00     0.010 A 
ATOM      4  C   UNL     1      78.125  21.434  30.590  1.00  0.00     0.004 A 
ATOM      5  C   UNL     1      76.216  20.386  29.534  1.00  0.00     0.004 A 
ATOM      6  C   UNL     1      77.439  21.071  29.420  1.00  0.00    -0.045 A 
ENDROOT
BRANCH   1   7
ATOM      7  C   UNL     1      75.818  20.105  33.290  1.00  0.00     0.071 C 
ATOM      8  O   UNL     1      76.322  20.592  34.337  1.00  0.00    -0.545 OA
ATOM      9  O   UNL     1      74.728  19.249  33.401  1.00  0.00    -0.545 OA
ENDBRANCH   1   7
BRANCH   6  10
ATOM     10  C   UNL     1      78.020  21.416  28.062  1.00  0.00     0.013 C 
ATOM     11  C   UNL     1      77.204  20.777  26.932  1.00  0.00     0.012 C 
ATOM     12  C   UNL     1      78.124  22.935  27.875  1.00  0.00     0.012 C 
ENDBRANCH   6  10
TORSDOF 2
ENDMDL
MODEL 2
REMARK VINA RESULT:    -5.087     12.614     13.788
REMARK INTER + INTRA:          -5.898
REMARK INTER:                  -5.677
REMARK INTRA:                  -0.221
REMARK UNBOUND:                -0.216
REMARK SMILES CC(C)c1ccc(C(=O)[O-])cc1
REMARK SMILES IDX 7 1 6 2 11 3 5 4 12 5 4 6 8 7 9 8 10 9 2 10 1 11 3 12
REMARK H PARENT
REMARK Flexibility Score: inf
ROOT
ATOM      1  C   UNL     1      73.144   7.951  32.606  1.00  0.00    -0.003 A 
ATOM      2  C   UNL     1      72.994   9.127  31.854  1.00  0.00     0.010 A 
ATOM      3  C   UNL     1      72.133   7.587  33.511  1.00  0.00     0.010 A 
ATOM      4  C   UNL     1      71.855   9.924  32.001  1.00  0.00     0.004 A 
ATOM      5  C   UNL     1      70.994   8.384  33.658  1.00  0.00     0.004 A 
ATOM      6  C   UNL     1      70.843   9.562  32.905  1.00  0.00    -0.045 A 
ENDROOT
BRANCH   1   7
ATOM      7  C   UNL     1      74.348   7.104  32.453  1.00  0.00     0.071 C 
ATOM      8  O   UNL     1      74.566   6.151  33.248  1.00  0.00    -0.545 OA
ATOM      9  O   UNL     1      75.257   7.349  31.430  1.00  0.00    -0.545 OA
ENDBRANCH   1   7
BRANCH   6  10
ATOM     10  C   UNL     1      69.612  10.437  33.055  1.00  0.00     0.013 C 
ATOM     11  C   UNL     1      69.421  11.338  31.829  1.00  0.00     0.012 C 
ATOM     12  C   UNL     1      68.360   9.589  33.317  1.00  0.00     0.012 C 
ENDBRANCH   6  10
TORSDOF 2
ENDMDL
MODEL 3
REMARK VINA RESULT:    -5.080     12.553     13.903
REMARK INTER + INTRA:          -5.890
REMARK INTER:                  -5.669
REMARK INTRA:                  -0.221
REMARK UNBOUND:                -0.216
REMARK SMILES CC(C)c1ccc(C(=O)[O-])cc1
REMARK SMILES IDX 7 1 6 2 11 3 5 4 12 5 4 6 8 7 9 8 10 9 2 10 1 11 3 12
REMARK H PARENT
REMARK Flexibility Score: inf
ROOT
ATOM      1  C   UNL     1      73.040   7.768  32.837  1.00  0.00    -0.003 A 
ATOM      2  C   UNL     1      71.892   7.440  33.577  1.00  0.00     0.010 A 
ATOM      3  C   UNL     1      73.082   8.996  32.155  1.00  0.00     0.010 A 
ATOM      4  C   UNL     1      70.808   8.321  33.636  1.00  0.00     0.004 A 
ATOM      5  C   UNL     1      71.998   9.877  32.214  1.00  0.00     0.004 A 
ATOM      6  C   UNL     1      70.849   9.549  32.954  1.00  0.00    -0.045 A 
ENDROOT
BRANCH   1   7
ATOM      7  C   UNL     1      74.190   6.839  32.773  1.00  0.00     0.071 C 
ATOM      8  O   UNL     1      75.322   7.245  32.396  1.00  0.00    -0.545 OA
ATOM      9  O   UNL     1      74.037   5.503  33.127  1.00  0.00    -0.545 OA
ENDBRANCH   1   7
BRANCH   6  10
ATOM     10  C   UNL     1      69.665  10.495  33.026  1.00  0.00     0.013 C 
ATOM     11  C   UNL     1      69.576  11.364  31.765  1.00  0.00     0.012 C 
ATOM     12  C   UNL     1      68.358   9.729  33.261  1.00  0.00     0.012 C 
ENDBRANCH   6  10
TORSDOF 2
ENDMDL
MODEL 4
REMARK VINA RESULT:    -4.990     12.355     15.129
REMARK INTER + INTRA:          -5.789
REMARK INTER:                  -5.573
REMARK INTRA:                  -0.215
REMARK UNBOUND:                -0.216
REMARK SMILES CC(C)c1ccc(C(=O)[O-])cc1
REMARK SMILES IDX 7 1 6 2 11 3 5 4 12 5 4 6 8 7 9 8 10 9 2 10 1 11 3 12
REMARK H PARENT
REMARK Flexibility Score: inf
ROOT
ATOM      1  C   UNL     1      65.380  17.265  35.913  1.00  0.00    -0.003 A 
ATOM      2  C   UNL     1      65.366  17.889  37.171  1.00  0.00     0.010 A 
ATOM      3  C   UNL     1      64.583  16.126  35.708  1.00  0.00     0.010 A 
ATOM      4  C   UNL     1      64.570  17.385  38.205  1.00  0.00     0.004 A 
ATOM      5  C   UNL     1      63.788  15.623  36.742  1.00  0.00     0.004 A 
ATOM      6  C   UNL     1      63.774  16.247  38.002  1.00  0.00    -0.045 A 
ENDROOT
BRANCH   1   7
ATOM      7  C   UNL     1      66.220  17.795  34.815  1.00  0.00     0.071 C 
ATOM      8  O   UNL     1      66.112  17.335  33.647  1.00  0.00    -0.545 OA
ATOM      9  O   UNL     1      67.140  18.808  35.059  1.00  0.00    -0.545 OA
ENDBRANCH   1   7
BRANCH   6  10
ATOM     10  C   UNL     1      62.916  15.710  39.133  1.00  0.00     0.013 C 
ATOM     11  C   UNL     1      63.438  14.356  39.628  1.00  0.00     0.012 C 
ATOM     12  C   UNL     1      62.823  16.720  40.284  1.00  0.00     0.012 C 
ENDBRANCH   6  10
TORSDOF 2
ENDMDL
MODEL 5
REMARK VINA RESULT:    -4.967     12.385     15.207
REMARK INTER + INTRA:          -5.764
REMARK INTER:                  -5.550
REMARK INTRA:                  -0.214
REMARK UNBOUND:                -0.216
REMARK SMILES CC(C)c1ccc(C(=O)[O-])cc1
REMARK SMILES IDX 7 1 6 2 11 3 5 4 12 5 4 6 8 7 9 8 10 9 2 10 1 11 3 12
REMARK H PARENT
REMARK Flexibility Score: inf
ROOT
ATOM      1  C   UNL     1      65.360  17.243  35.908  1.00  0.00    -0.003 A 
ATOM      2  C   UNL     1      64.570  16.100  35.697  1.00  0.00     0.010 A 
ATOM      3  C   UNL     1      65.335  17.865  37.167  1.00  0.00     0.010 A 
ATOM      4  C   UNL     1      63.773  15.588  36.725  1.00  0.00     0.004 A 
ATOM      5  C   UNL     1      64.537  17.353  38.195  1.00  0.00     0.004 A 
ATOM      6  C   UNL     1      63.747  16.209  37.984  1.00  0.00    -0.045 A 
ENDROOT
BRANCH   1   7
ATOM      7  C   UNL     1      66.206  17.788  34.823  1.00  0.00     0.071 C 
ATOM      8  O   UNL     1      66.088  17.362  33.643  1.00  0.00    -0.545 OA
ATOM      9  O   UNL     1      67.145  18.778  35.091  1.00  0.00    -0.545 OA
ENDBRANCH   1   7
BRANCH   6  10
ATOM     10  C   UNL     1      62.876  15.643  39.091  1.00  0.00     0.013 C 
ATOM     11  C   UNL     1      63.422  14.301  39.592  1.00  0.00     0.012 C 
ATOM     12  C   UNL     1      62.728  16.644  40.244  1.00  0.00     0.012 C 
ENDBRANCH   6  10
TORSDOF 2
ENDMDL
MODEL 6
REMARK VINA RESULT:    -4.888     12.519     13.775
REMARK INTER + INTRA:          -5.675
REMARK INTER:                  -5.455
REMARK INTRA:                  -0.220
REMARK UNBOUND:                -0.216
REMARK SMILES CC(C)c1ccc(C(=O)[O-])cc1
REMARK SMILES IDX 7 1 6 2 11 3 5 4 12 5 4 6 8 7 9 8 10 9 2 10 1 11 3 12
REMARK H PARENT
REMARK Flexibility Score: inf
ROOT
ATOM      1  C   UNL     1      70.797   9.116  33.038  1.00  0.00    -0.003 A 
ATOM      2  C   UNL     1      71.118   7.892  33.647  1.00  0.00     0.010 A 
ATOM      3  C   UNL     1      71.754   9.741  32.221  1.00  0.00     0.010 A 
ATOM      4  C   UNL     1      72.369   7.303  33.444  1.00  0.00     0.004 A 
ATOM      5  C   UNL     1      73.005   9.152  32.018  1.00  0.00     0.004 A 
ATOM      6  C   UNL     1      73.327   7.927  32.628  1.00  0.00    -0.045 A 
ENDROOT
BRANCH   1   7
ATOM      7  C   UNL     1      69.473   9.743  33.250  1.00  0.00     0.071 C 
ATOM      8  O   UNL     1      69.322  10.985  33.104  1.00  0.00    -0.545 OA
ATOM      9  O   UNL     1      68.377   8.969  33.616  1.00  0.00    -0.545 OA
ENDBRANCH   1   7
BRANCH   6  10
ATOM     10  C   UNL     1      74.681   7.277  32.416  1.00  0.00     0.013 C 
ATOM     11  C   UNL     1      74.637   5.782  32.754  1.00  0.00     0.012 C 
ATOM     12  C   UNL     1      75.185   7.504  30.985  1.00  0.00     0.012 C 
ENDBRANCH   6  10
TORSDOF 2
ENDMDL
MODEL 7
REMARK VINA RESULT:    -4.887     12.353     13.918
REMARK INTER + INTRA:          -5.675
REMARK INTER:                  -5.457
REMARK INTRA:                  -0.218
REMARK UNBOUND:                -0.216
REMARK SMILES CC(C)c1ccc(C(=O)[O-])cc1
REMARK SMILES IDX 7 1 6 2 11 3 5 4 12 5 4 6 8 7 9 8 10 9 2 10 1 11 3 12
REMARK H PARENT
REMARK Flexibility Score: inf
ROOT
ATOM      1  C   UNL     1      70.842   9.551  32.876  1.00  0.00    -0.003 A 
ATOM      2  C   UNL     1      72.153   9.740  32.408  1.00  0.00     0.010 A 
ATOM      3  C   UNL     1      70.511   8.336  33.499  1.00  0.00     0.010 A 
ATOM      4  C   UNL     1      73.113   8.736  32.559  1.00  0.00     0.004 A 
ATOM      5  C   UNL     1      71.472   7.332  33.651  1.00  0.00     0.004 A 
ATOM      6  C   UNL     1      72.784   7.521  33.182  1.00  0.00    -0.045 A 
ENDROOT
BRANCH   1   7
ATOM      7  C   UNL     1      69.822  10.611  32.718  1.00  0.00     0.071 C 
ATOM      8  O   UNL     1      68.822  10.657  33.483  1.00  0.00    -0.545 OA
ATOM      9  O   UNL     1      69.952  11.572  31.721  1.00  0.00    -0.545 OA
ENDBRANCH   1   7
BRANCH   6  10
ATOM     10  C   UNL     1      73.836   6.440  33.340  1.00  0.00     0.013 C 
ATOM     11  C   UNL     1      73.315   5.085  32.847  1.00  0.00     0.012 C 
ATOM     12  C   UNL     1      75.136   6.825  32.622  1.00  0.00     0.012 C 
ENDBRANCH   6  10
TORSDOF 2
ENDMDL
MODEL 8
REMARK VINA RESULT:    -4.860     13.124     15.128
REMARK INTER + INTRA:          -5.645
REMARK INTER:                  -5.424
REMARK INTRA:                  -0.220
REMARK UNBOUND:                -0.216
REMARK SMILES CC(C)c1ccc(C(=O)[O-])cc1
REMARK SMILES IDX 7 1 6 2 11 3 5 4 12 5 4 6 8 7 9 8 10 9 2 10 1 11 3 12
REMARK H PARENT
REMARK Flexibility Score: inf
ROOT
ATOM      1  C   UNL     1      69.738  10.014  32.650  1.00  0.00    -0.003 A 
ATOM      2  C   UNL     1      68.394   9.657  32.849  1.00  0.00     0.010 A 
ATOM      3  C   UNL     1      70.742   9.073  32.935  1.00  0.00     0.010 A 
ATOM      4  C   UNL     1      68.060   8.385  33.322  1.00  0.00     0.004 A 
ATOM      5  C   UNL     1      70.407   7.801  33.408  1.00  0.00     0.004 A 
ATOM      6  C   UNL     1      69.061   7.443  33.608  1.00  0.00    -0.045 A 
ENDROOT
BRANCH   1   7
ATOM      7  C   UNL     1      70.097  11.359  32.148  1.00  0.00     0.071 C 
ATOM      8  O   UNL     1      69.229  12.093  31.604  1.00  0.00    -0.545 OA
ATOM      9  O   UNL     1      71.399  11.833  32.270  1.00  0.00    -0.545 OA
ENDBRANCH   1   7
BRANCH   6  10
ATOM     10  C   UNL     1      68.684   6.067  34.122  1.00  0.00     0.013 C 
ATOM     11  C   UNL     1      69.899   5.348  34.721  1.00  0.00     0.012 C 
ATOM     12  C   UNL     1      67.537   6.151  35.136  1.00  0.00     0.012 C 
ENDBRANCH   6  10
TORSDOF 2
ENDMDL
