MODEL 1
REMARK VINA RESULT:    -2.167      0.000      0.000
REMARK INTER + INTRA:          -2.167
REMARK INTER:                  -2.167
REMARK INTRA:                   0.000
REMARK UNBOUND:                 0.000
REMARK SMILES CC(=O)[O-]
REMARK SMILES IDX 1 1 2 2 3 3 4 4
REMARK H PARENT
REMARK Flexibility Score: inf
ROOT
ATOM      1  C   UNL     1      39.432  56.721  17.954  1.00  0.00     0.063 C 
ATOM      2  C   UNL     1      40.697  55.958  17.743  1.00  0.00     0.038 C 
ATOM      3  O   UNL     1      41.365  55.560  18.731  1.00  0.00    -0.550 OA
ATOM      4  O   UNL     1      41.112  55.641  16.456  1.00  0.00    -0.550 OA
ENDROOT
TORSDOF 0
ENDMDL
MODEL 2
REMARK VINA RESULT:    -2.157     13.442     13.915
REMARK INTER + INTRA:          -2.157
REMARK INTER:                  -2.157
REMARK INTRA:                   0.000
REMARK UNBOUND:                 0.000
REMARK SMILES CC(=O)[O-]
REMARK SMILES IDX 1 1 2 2 3 3 4 4
REMARK H PARENT
REMARK Flexibility Score: inf
ROOT
ATOM      1  C   UNL     1      29.002  52.004  25.985  1.00  0.00     0.063 C 
ATOM      2  C   UNL     1      29.799  53.262  25.901  1.00  0.00     0.038 C 
ATOM      3  O   UNL     1      29.997  53.953  26.934  1.00  0.00    -0.550 OA
ATOM      4  O   UNL     1      30.369  53.646  24.695  1.00  0.00    -0.550 OA
ENDROOT
TORSDOF 0
ENDMDL
MODEL 3
REMARK VINA RESULT:    -2.130      0.156      1.618
REMARK INTER + INTRA:          -2.130
REMARK INTER:                  -2.130
REMARK INTRA:                   0.000
REMARK UNBOUND:                 0.000
REMARK SMILES CC(=O)[O-]
REMARK SMILES IDX 1 1 2 2 3 3 4 4
REMARK H PARENT
REMARK Flexibility Score: inf
ROOT
ATOM      1  C   UNL     1      39.405  56.734  17.947  1.00  0.00     0.063 C 
ATOM      2  C   UNL     1      40.630  55.953  17.609  1.00  0.00     0.038 C 
ATOM      3  O   UNL     1      40.920  55.723  16.406  1.00  0.00    -0.550 OA
ATOM      4  O   UNL     1      41.482  55.523  18.617  1.00  0.00    -0.550 OA
ENDROOT
TORSDOF 0
ENDMDL
MODEL 4
REMARK VINA RESULT:    -2.059     13.611     14.071
REMARK INTER + INTRA:          -2.059
REMARK INTER:                  -2.059
REMARK INTRA:                   0.000
REMARK UNBOUND:                 0.000
REMARK SMILES CC(=O)[O-]
REMARK SMILES IDX 1 1 2 2 3 3 4 4
REMARK H PARENT
REMARK Flexibility Score: inf
ROOT
ATOM      1  C   UNL     1      30.178  53.380  24.548  1.00  0.00     0.063 C 
ATOM      2  C   UNL     1      29.712  53.047  25.926  1.00  0.00     0.038 C 
ATOM      3  O   UNL     1      29.093  51.973  26.140  1.00  0.00    -0.550 OA
ATOM      4  O   UNL     1      30.006  53.896  26.984  1.00  0.00    -0.550 OA
ENDROOT
TORSDOF 0
ENDMDL
MODEL 5
REMARK VINA RESULT:    -2.037      3.358      3.728
REMARK INTER + INTRA:          -2.037
REMARK INTER:                  -2.037
REMARK INTRA:                   0.000
REMARK UNBOUND:                 0.000
REMARK SMILES CC(=O)[O-]
REMARK SMILES IDX 1 1 2 2 3 3 4 4
REMARK H PARENT
REMARK Flexibility Score: inf
ROOT
ATOM      1  C   UNL     1      38.728  56.683  17.665  1.00  0.00     0.063 C 
ATOM      2  C   UNL     1      37.513  56.800  16.806  1.00  0.00     0.038 C 
ATOM      3  O   UNL     1      36.429  57.206  17.299  1.00  0.00    -0.550 OA
ATOM      4  O   UNL     1      37.589  56.512  15.450  1.00  0.00    -0.550 OA
ENDROOT
TORSDOF 0
ENDMDL
MODEL 6
REMARK VINA RESULT:    -1.992     12.282     12.468
REMARK INTER + INTRA:          -1.992
REMARK INTER:                  -1.992
REMARK INTRA:                   0.000
REMARK UNBOUND:                 0.000
REMARK SMILES CC(=O)[O-]
REMARK SMILES IDX 1 1 2 2 3 3 4 4
REMARK H PARENT
REMARK Flexibility Score: inf
ROOT
ATOM      1  C   UNL     1      38.268  60.169  29.257  1.00  0.00     0.063 C 
ATOM      2  C   UNL     1      39.755  60.259  29.332  1.00  0.00     0.038 C 
ATOM      3  O   UNL     1      40.448  59.211  29.398  1.00  0.00    -0.550 OA
ATOM      4  O   UNL     1      40.382  61.497  29.274  1.00  0.00    -0.550 OA
ENDROOT
TORSDOF 0
ENDMDL
MODEL 7
REMARK VINA RESULT:    -1.927      2.536      2.860
REMARK INTER + INTRA:          -1.927
REMARK INTER:                  -1.927
REMARK INTRA:                   0.000
REMARK UNBOUND:                 0.000
REMARK SMILES CC(=O)[O-]
REMARK SMILES IDX 1 1 2 2 3 3 4 4
REMARK H PARENT
REMARK Flexibility Score: inf
ROOT
ATOM      1  C   UNL     1      41.716  55.653  17.271  1.00  0.00     0.063 C 
ATOM      2  C   UNL     1      43.013  54.941  17.083  1.00  0.00     0.038 C 
ATOM      3  O   UNL     1      43.036  53.686  16.991  1.00  0.00    -0.550 OA
ATOM      4  O   UNL     1      44.192  55.664  16.956  1.00  0.00    -0.550 OA
ENDROOT
TORSDOF 0
ENDMDL
MODEL 8
REMARK VINA RESULT:    -1.923      4.469      4.898
REMARK INTER + INTRA:          -1.923
REMARK INTER:                  -1.923
REMARK INTRA:                   0.000
REMARK UNBOUND:                 0.000
REMARK SMILES CC(=O)[O-]
REMARK SMILES IDX 1 1 2 2 3 3 4 4
REMARK H PARENT
REMARK Flexibility Score: inf
ROOT
ATOM      1  C   UNL     1      36.054  58.188  15.544  1.00  0.00     0.063 C 
ATOM      2  C   UNL     1      36.286  57.088  16.525  1.00  0.00     0.038 C 
ATOM      3  O   UNL     1      35.313  56.432  16.978  1.00  0.00    -0.550 OA
ATOM      4  O   UNL     1      37.580  56.752  16.900  1.00  0.00    -0.550 OA
ENDROOT
TORSDOF 0
ENDMDL
MODEL 9
REMARK VINA RESULT:    -1.908      5.137      5.687
REMARK INTER + INTRA:          -1.908
REMARK INTER:                  -1.908
REMARK INTRA:                   0.000
REMARK UNBOUND:                 0.000
REMARK SMILES CC(=O)[O-]
REMARK SMILES IDX 1 1 2 2 3 3 4 4
REMARK H PARENT
REMARK Flexibility Score: inf
ROOT
ATOM      1  C   UNL     1      37.021  57.009  16.893  1.00  0.00     0.063 C 
ATOM      2  C   UNL     1      35.844  57.470  16.101  1.00  0.00     0.038 C 
ATOM      3  O   UNL     1      36.013  58.172  15.071  1.00  0.00    -0.550 OA
ATOM      4  O   UNL     1      34.562  57.082  16.469  1.00  0.00    -0.550 OA
ENDROOT
TORSDOF 0
ENDMDL
