MODEL 1
REMARK VINA RESULT:    -2.126      0.000      0.000
REMARK INTER + INTRA:          -2.807
REMARK INTER:                  -2.623
REMARK INTRA:                  -0.185
REMARK UNBOUND:                -0.185
REMARK SMILES CCCCCC=O
REMARK SMILES IDX 4 1 3 2 2 3 1 4 5 5 6 6 7 7
REMARK H PARENT
REMARK Flexibility Score: inf
ROOT
ATOM      1  C   UNL     1     -28.120  59.420  37.848  1.00  0.00     0.008 C 
ENDROOT
BRANCH   1   2
ATOM      2  C   UNL     1     -28.559  58.044  38.372  1.00  0.00     0.000 C 
BRANCH   2   3
ATOM      3  C   UNL     1     -27.592  56.947  37.910  1.00  0.00    -0.003 C 
ATOM      4  C   UNL     1     -26.141  57.348  38.160  1.00  0.00     0.004 C 
ENDBRANCH   2   3
ENDBRANCH   1   2
BRANCH   1   5
ATOM      5  C   UNL     1     -29.045  59.939  36.738  1.00  0.00     0.072 C 
BRANCH   5   6
ATOM      6  C   UNL     1     -28.396  59.889  35.384  1.00  0.00     0.224 C 
ATOM      7  O   UNL     1     -28.189  58.812  34.849  1.00  0.00    -0.303 OA
ENDBRANCH   5   6
ENDBRANCH   1   5
TORSDOF 4
ENDMDL
MODEL 2
REMARK VINA RESULT:    -2.099      1.977      2.731
REMARK INTER + INTRA:          -2.774
REMARK INTER:                  -2.620
REMARK INTRA:                  -0.155
REMARK UNBOUND:                -0.185
REMARK SMILES CCCCCC=O
REMARK SMILES IDX 4 1 3 2 2 3 1 4 5 5 6 6 7 7
REMARK H PARENT
REMARK Flexibility Score: inf
ROOT
ATOM      1  C   UNL     1     -27.707  57.004  37.819  1.00  0.00     0.008 C 
ENDROOT
BRANCH   1   2
ATOM      2  C   UNL     1     -26.854  57.137  36.548  1.00  0.00     0.000 C 
BRANCH   2   3
ATOM      3  C   UNL     1     -27.236  56.069  35.517  1.00  0.00    -0.003 C 
ATOM      4  C   UNL     1     -27.672  56.704  34.200  1.00  0.00     0.004 C 
ENDBRANCH   2   3
ENDBRANCH   1   2
BRANCH   1   5
ATOM      5  C   UNL     1     -28.362  58.334  38.219  1.00  0.00     0.072 C 
BRANCH   5   6
ATOM      6  C   UNL     1     -28.270  59.366  37.132  1.00  0.00     0.224 C 
ATOM      7  O   UNL     1     -29.289  59.836  36.653  1.00  0.00    -0.303 OA
ENDBRANCH   5   6
ENDBRANCH   1   5
TORSDOF 4
ENDMDL
MODEL 3
REMARK VINA RESULT:    -2.095      1.319      3.040
REMARK INTER + INTRA:          -2.769
REMARK INTER:                  -2.597
REMARK INTRA:                  -0.172
REMARK UNBOUND:                -0.185
REMARK SMILES CCCCCC=O
REMARK SMILES IDX 4 1 3 2 2 3 1 4 5 5 6 6 7 7
REMARK H PARENT
REMARK Flexibility Score: inf
ROOT
ATOM      1  C   UNL     1     -27.944  57.031  37.994  1.00  0.00     0.008 C 
ENDROOT
BRANCH   1   2
ATOM      2  C   UNL     1     -28.386  58.460  38.344  1.00  0.00     0.000 C 
BRANCH   2   3
ATOM      3  C   UNL     1     -27.932  59.454  37.268  1.00  0.00    -0.003 C 
ATOM      4  C   UNL     1     -29.123  60.011  36.494  1.00  0.00     0.004 C 
ENDBRANCH   2   3
ENDBRANCH   1   2
BRANCH   1   5
ATOM      5  C   UNL     1     -26.806  57.012  36.964  1.00  0.00     0.072 C 
BRANCH   5   6
ATOM      6  C   UNL     1     -27.161  56.224  35.736  1.00  0.00     0.224 C 
ATOM      7  O   UNL     1     -27.567  56.802  34.740  1.00  0.00    -0.303 OA
ENDBRANCH   5   6
ENDBRANCH   1   5
TORSDOF 4
ENDMDL
MODEL 4
REMARK VINA RESULT:    -2.093      8.869      9.898
REMARK INTER + INTRA:          -2.767
REMARK INTER:                  -2.649
REMARK INTRA:                  -0.118
REMARK UNBOUND:                -0.185
REMARK SMILES CCCCCC=O
REMARK SMILES IDX 4 1 3 2 2 3 1 4 5 5 6 6 7 7
REMARK H PARENT
REMARK Flexibility Score: inf
ROOT
ATOM      1  C   UNL     1     -26.040  54.768  44.586  1.00  0.00     0.008 C 
ENDROOT
BRANCH   1   2
ATOM      2  C   UNL     1     -26.716  53.413  44.849  1.00  0.00     0.000 C 
BRANCH   2   3
ATOM      3  C   UNL     1     -26.874  52.618  43.548  1.00  0.00    -0.003 C 
ATOM      4  C   UNL     1     -26.056  53.237  42.419  1.00  0.00     0.004 C 
ENDBRANCH   2   3
ENDBRANCH   1   2
BRANCH   1   5
ATOM      5  C   UNL     1     -25.980  55.640  45.848  1.00  0.00     0.072 C 
BRANCH   5   6
ATOM      6  C   UNL     1     -26.384  54.886  47.083  1.00  0.00     0.224 C 
ATOM      7  O   UNL     1     -27.006  55.455  47.965  1.00  0.00    -0.303 OA
ENDBRANCH   5   6
ENDBRANCH   1   5
TORSDOF 4
ENDMDL
MODEL 5
REMARK VINA RESULT:    -2.052      1.525      2.539
REMARK INTER + INTRA:          -2.717
REMARK INTER:                  -2.494
REMARK INTRA:                  -0.222
REMARK UNBOUND:                -0.185
REMARK SMILES CCCCCC=O
REMARK SMILES IDX 4 1 3 2 2 3 1 4 5 5 6 6 7 7
REMARK H PARENT
REMARK Flexibility Score: inf
ROOT
ATOM      1  C   UNL     1     -26.739  56.854  37.184  1.00  0.00     0.008 C 
ENDROOT
BRANCH   1   2
ATOM      2  C   UNL     1     -27.892  56.954  38.196  1.00  0.00     0.000 C 
BRANCH   2   3
ATOM      3  C   UNL     1     -28.477  58.371  38.223  1.00  0.00    -0.003 C 
ATOM      4  C   UNL     1     -27.377  59.420  38.346  1.00  0.00     0.004 C 
ENDBRANCH   2   3
ENDBRANCH   1   2
BRANCH   1   5
ATOM      5  C   UNL     1     -27.212  56.344  35.816  1.00  0.00     0.072 C 
BRANCH   5   6
ATOM      6  C   UNL     1     -27.107  57.394  34.747  1.00  0.00     0.224 C 
ATOM      7  O   UNL     1     -27.918  58.306  34.711  1.00  0.00    -0.303 OA
ENDBRANCH   5   6
ENDBRANCH   1   5
TORSDOF 4
ENDMDL
MODEL 6
REMARK VINA RESULT:    -2.026      8.603      9.077
REMARK INTER + INTRA:          -2.684
REMARK INTER:                  -2.604
REMARK INTRA:                  -0.080
REMARK UNBOUND:                -0.185
REMARK SMILES CCCCCC=O
REMARK SMILES IDX 4 1 3 2 2 3 1 4 5 5 6 6 7 7
REMARK H PARENT
REMARK Flexibility Score: inf
ROOT
ATOM      1  C   UNL     1     -26.390  52.918  43.115  1.00  0.00     0.008 C 
ENDROOT
BRANCH   1   2
ATOM      2  C   UNL     1     -26.958  52.915  44.542  1.00  0.00     0.000 C 
BRANCH   2   3
ATOM      3  C   UNL     1     -26.682  54.249  45.246  1.00  0.00    -0.003 C 
ATOM      4  C   UNL     1     -25.727  55.115  44.431  1.00  0.00     0.004 C 
ENDBRANCH   2   3
ENDBRANCH   1   2
BRANCH   1   5
ATOM      5  C   UNL     1     -26.079  51.502  42.611  1.00  0.00     0.072 C 
BRANCH   5   6
ATOM      6  C   UNL     1     -25.662  51.487  41.168  1.00  0.00     0.224 C 
ATOM      7  O   UNL     1     -25.986  50.554  40.453  1.00  0.00    -0.303 OA
ENDBRANCH   5   6
ENDBRANCH   1   5
TORSDOF 4
ENDMDL
MODEL 7
REMARK VINA RESULT:    -2.003      8.360      9.073
REMARK INTER + INTRA:          -2.656
REMARK INTER:                  -2.455
REMARK INTRA:                  -0.201
REMARK UNBOUND:                -0.185
REMARK SMILES CCCCCC=O
REMARK SMILES IDX 4 1 3 2 2 3 1 4 5 5 6 6 7 7
REMARK H PARENT
REMARK Flexibility Score: inf
ROOT
ATOM      1  C   UNL     1     -27.137  52.656  44.153  1.00  0.00     0.008 C 
ENDROOT
BRANCH   1   2
ATOM      2  C   UNL     1     -26.357  53.349  45.281  1.00  0.00     0.000 C 
BRANCH   2   3
ATOM      3  C   UNL     1     -26.602  54.862  45.269  1.00  0.00    -0.003 C 
ATOM      4  C   UNL     1     -25.464  55.600  44.570  1.00  0.00     0.004 C 
ENDBRANCH   2   3
ENDBRANCH   1   2
BRANCH   1   5
ATOM      5  C   UNL     1     -26.256  51.694  43.345  1.00  0.00     0.072 C 
BRANCH   5   6
ATOM      6  C   UNL     1     -25.644  52.352  42.142  1.00  0.00     0.224 C 
ATOM      7  O   UNL     1     -26.027  53.458  41.795  1.00  0.00    -0.303 OA
ENDBRANCH   5   6
ENDBRANCH   1   5
TORSDOF 4
ENDMDL
MODEL 8
REMARK VINA RESULT:    -1.932      8.716      9.350
REMARK INTER + INTRA:          -2.569
REMARK INTER:                  -2.451
REMARK INTRA:                  -0.118
REMARK UNBOUND:                -0.185
REMARK SMILES CCCCCC=O
REMARK SMILES IDX 4 1 3 2 2 3 1 4 5 5 6 6 7 7
REMARK H PARENT
REMARK Flexibility Score: inf
ROOT
ATOM      1  C   UNL     1     -26.839  52.870  44.497  1.00  0.00     0.008 C 
ENDROOT
BRANCH   1   2
ATOM      2  C   UNL     1     -26.385  53.008  43.036  1.00  0.00     0.000 C 
BRANCH   2   3
ATOM      3  C   UNL     1     -26.049  51.638  42.434  1.00  0.00    -0.003 C 
ATOM      4  C   UNL     1     -26.001  50.558  43.511  1.00  0.00     0.004 C 
ENDBRANCH   2   3
ENDBRANCH   1   2
BRANCH   1   5
ATOM      5  C   UNL     1     -26.749  54.198  45.260  1.00  0.00     0.072 C 
BRANCH   5   6
ATOM      6  C   UNL     1     -25.859  55.193  44.571  1.00  0.00     0.224 C 
ATOM      7  O   UNL     1     -25.411  56.141  45.195  1.00  0.00    -0.303 OA
ENDBRANCH   5   6
ENDBRANCH   1   5
TORSDOF 4
ENDMDL
MODEL 9
REMARK VINA RESULT:    -1.911      8.540      9.398
REMARK INTER + INTRA:          -2.543
REMARK INTER:                  -2.443
REMARK INTRA:                  -0.100
REMARK UNBOUND:                -0.185
REMARK SMILES CCCCCC=O
REMARK SMILES IDX 4 1 3 2 2 3 1 4 5 5 6 6 7 7
REMARK H PARENT
REMARK Flexibility Score: inf
ROOT
ATOM      1  C   UNL     1     -25.586  52.034  41.578  1.00  0.00     0.008 C 
ENDROOT
BRANCH   1   2
ATOM      2  C   UNL     1     -26.066  53.136  42.535  1.00  0.00     0.000 C 
BRANCH   2   3
ATOM      3  C   UNL     1     -26.827  52.537  43.723  1.00  0.00    -0.003 C 
ATOM      4  C   UNL     1     -26.832  53.493  44.913  1.00  0.00     0.004 C 
ENDBRANCH   2   3
ENDBRANCH   1   2
BRANCH   1   5
ATOM      5  C   UNL     1     -26.222  50.673  41.895  1.00  0.00     0.072 C 
BRANCH   5   6
ATOM      6  C   UNL     1     -26.691  49.959  40.660  1.00  0.00     0.224 C 
ATOM      7  O   UNL     1     -27.471  49.026  40.757  1.00  0.00    -0.303 OA
ENDBRANCH   5   6
ENDBRANCH   1   5
TORSDOF 4
ENDMDL
