MODEL 1
REMARK VINA RESULT:    -4.535      0.000      0.000
REMARK INTER + INTRA:         -11.138
REMARK INTER:                  -9.573
REMARK INTRA:                  -1.565
REMARK UNBOUND:                -1.565
REMARK SMILES CCC(=O)CCCCC[C@@H]1NC(=O)[C@H]2CCCCN2C(=O)[C@H]([C@H](C)CC)NC(=O)[C@@H](Cc2cn(OC)c3ccccc23)NC1=O
REMARK SMILES IDX 9 1 10 2 44 3 43 4 45 6 30 7 28 8 27 9 29 11 22 12 23 14
REMARK SMILES IDX 24 15 25 16 26 17 31 18 32 19 33 20 42 21 34 22 37 23 41 24
REMARK SMILES IDX 38 25 40 26 39 27 35 28 36 29 11 30 12 31 13 33 14 34 19 35
REMARK SMILES IDX 15 36 18 37 16 38 17 39 20 40 21 41 8 43 7 44 6 45 5 46 3 47
REMARK SMILES IDX 4 48 2 49 1 50
REMARK H PARENT 43 5 27 10 11 32
REMARK Flexibility Score: 80.00
ROOT
ATOM      1  C   UNL     1      59.081  29.123  49.785  1.00  0.00     0.035 C 
ENDROOT
BRANCH   1   2
ATOM      2  C   UNL     1      59.842  29.485  51.072  1.00  0.00     0.171 C 
BRANCH   2   3
ATOM      3  C   UNL     1      61.243  29.969  50.779  1.00  0.00     0.243 C 
ATOM      4  N   UNL     1      61.463  31.012  49.810  1.00  0.00    -0.342 N 
ATOM      5  H   UNL     1      60.645  31.367  49.267  1.00  0.00     0.164 HD
ATOM      6  O   UNL     1      62.201  29.526  51.461  1.00  0.00    -0.273 OA
BRANCH   4   7
ATOM      7  C   UNL     1      62.729  31.737  49.652  1.00  0.00     0.175 C 
BRANCH   7   8
ATOM      8  C   UNL     1      62.668  33.060  50.386  1.00  0.00     0.243 C 
ATOM      9  N   UNL     1      61.397  33.574  50.794  1.00  0.00    -0.342 N 
ATOM     10  H   UNL     1      60.551  33.196  50.314  1.00  0.00     0.164 HD
ATOM     11  O   UNL     1      63.714  33.684  50.693  1.00  0.00    -0.273 OA
BRANCH   9  12
ATOM     12  C   UNL     1      61.243  34.276  52.071  1.00  0.00     0.174 CG0
ATOM     13  G   UNL     1      60.059  33.684  52.818  1.00  0.00     0.000 G0
BRANCH  12  14
ATOM     14  C   UNL     1      61.209  35.831  51.836  1.00  0.00     0.018 C 
ATOM     15  C   UNL     1      61.027  36.154  50.340  1.00  0.00     0.010 C 
BRANCH  14  16
ATOM     16  C   UNL     1      62.426  36.585  52.430  1.00  0.00     0.002 C 
ATOM     17  C   UNL     1      63.254  35.731  53.392  1.00  0.00     0.004 C 
ENDBRANCH  14  16
ENDBRANCH  12  14
ENDBRANCH   9  12
ENDBRANCH   7   8
BRANCH   7  18
ATOM     18  C   UNL     1      63.898  30.823  50.064  1.00  0.00     0.073 C 
BRANCH  18  19
ATOM     19  C   UNL     1      64.968  30.738  49.007  1.00  0.00    -0.016 A 
ATOM     20  C   UNL     1      65.694  31.812  48.510  1.00  0.00     0.134 A 
ATOM     21  C   UNL     1      65.337  29.649  48.239  1.00  0.00     0.006 A 
ATOM     22  N   UNL     1      66.447  31.435  47.460  1.00  0.00    -0.191 N 
ATOM     23  C   UNL     1      66.236  30.100  47.293  1.00  0.00     0.087 A 
ATOM     24  C   UNL     1      64.946  28.311  48.306  1.00  0.00     0.011 A 
ATOM     25  C   UNL     1      66.795  29.219  46.358  1.00  0.00     0.030 A 
ATOM     26  C   UNL     1      65.488  27.413  47.370  1.00  0.00     0.001 A 
ATOM     27  C   UNL     1      66.402  27.867  46.399  1.00  0.00     0.002 A 
BRANCH  22  28
ATOM     28  O   UNL     1      67.229  32.326  46.740  1.00  0.00    -0.417 OA
ATOM     29  C   UNL     1      67.032  33.735  46.726  1.00  0.00     0.313 C 
ENDBRANCH  22  28
ENDBRANCH  18  19
ENDBRANCH   7  18
ENDBRANCH   4   7
ENDBRANCH   2   3
BRANCH   2  30
ATOM     30  N   UNL     1      59.131  30.537  51.804  1.00  0.00    -0.343 N 
ATOM     31  C   UNL     1      58.914  30.474  53.216  1.00  0.00     0.243 C 
ATOM     32  H   UNL     1      58.993  31.459  51.332  1.00  0.00     0.164 HD
ATOM     33  O   UNL     1      58.693  29.365  53.763  1.00  0.00    -0.273 OA
BRANCH  31  34
ATOM     34  C   UNL     1      58.997  31.739  54.036  1.00  0.00     0.174 C 
ATOM     35  N   UNL     1      60.196  32.495  53.628  1.00  0.00    -0.329 N 
ATOM     36  C   UNL     1      59.012  31.481  55.571  1.00  0.00     0.035 C 
ATOM     37  C   UNL     1      61.418  32.283  54.400  1.00  0.00     0.120 C 
ATOM     38  C   UNL     1      59.729  32.640  56.290  1.00  0.00     0.004 C 
ATOM     39  C   UNL     1      61.203  32.769  55.847  1.00  0.00     0.022 C 
BRANCH  35  40
ATOM     40  C   UNL     1      60.055  33.684  52.828  1.00  0.00     0.246 CG0
ATOM     41  O   UNL     1      58.904  34.155  52.624  1.00  0.00    -0.272 OA
ATOM     42  G   UNL     1      61.252  34.275  52.101  1.00  0.00     0.000 G0
ENDBRANCH  35  40
ENDBRANCH  31  34
ENDBRANCH   2  30
ENDBRANCH   1   2
BRANCH   1  43
ATOM     43  C   UNL     1      59.364  27.689  49.302  1.00  0.00     0.003 C 
BRANCH  43  44
ATOM     44  C   UNL     1      58.364  26.665  49.876  1.00  0.00     0.001 C 
BRANCH  44  45
ATOM     45  C   UNL     1      57.247  27.314  50.707  1.00  0.00     0.008 C 
BRANCH  45  46
ATOM     46  C   UNL     1      55.847  27.087  50.114  1.00  0.00     0.075 C 
BRANCH  46  47
ATOM     47  C   UNL     1      54.867  28.178  50.476  1.00  0.00     0.132 C 
ATOM     48  O   UNL     1      55.270  29.323  50.610  1.00  0.00    -0.300 OA
BRANCH  47  49
ATOM     49  C   UNL     1      53.390  27.893  50.596  1.00  0.00     0.072 C 
ATOM     50  C   UNL     1      52.905  26.849  49.589  1.00  0.00     0.012 C 
ENDBRANCH  47  49
ENDBRANCH  46  47
ENDBRANCH  45  46
ENDBRANCH  44  45
ENDBRANCH  43  44
ENDBRANCH   1  43
TORSDOF 12
ENDMDL
MODEL 2
REMARK VINA RESULT:    -4.402      8.920     13.625
REMARK INTER + INTRA:         -10.856
REMARK INTER:                  -8.248
REMARK INTRA:                  -2.608
REMARK UNBOUND:                -1.565
REMARK SMILES CCC(=O)CCCCC[C@@H]1NC(=O)[C@H]2CCCCN2C(=O)[C@H]([C@H](C)CC)NC(=O)[C@@H](Cc2cn(OC)c3ccccc23)NC1=O
REMARK SMILES IDX 9 1 10 2 44 3 43 4 45 6 30 7 28 8 27 9 29 11 22 12 23 14
REMARK SMILES IDX 24 15 25 16 26 17 31 18 32 19 33 20 42 21 34 22 37 23 41 24
REMARK SMILES IDX 38 25 40 26 39 27 35 28 36 29 11 30 12 31 13 33 14 34 19 35
REMARK SMILES IDX 15 36 18 37 16 38 17 39 20 40 21 41 8 43 7 44 6 45 5 46 3 47
REMARK SMILES IDX 4 48 2 49 1 50
REMARK H PARENT 43 5 27 10 11 32
REMARK Flexibility Score: 80.00
ROOT
ATOM      1  C   UNL     1      60.409  25.614  63.193  1.00  0.00     0.035 C 
ENDROOT
BRANCH   1   2
ATOM      2  C   UNL     1      60.793  26.398  61.926  1.00  0.00     0.171 C 
BRANCH   2   3
ATOM      3  C   UNL     1      59.620  26.554  60.986  1.00  0.00     0.243 C 
ATOM      4  N   UNL     1      58.369  27.082  61.467  1.00  0.00    -0.342 N 
ATOM      5  H   UNL     1      58.273  27.280  62.488  1.00  0.00     0.164 HD
ATOM      6  O   UNL     1      59.779  26.316  59.762  1.00  0.00    -0.273 OA
BRANCH   4   7
ATOM      7  C   UNL     1      57.273  27.527  60.598  1.00  0.00     0.175 C 
BRANCH   7   8
ATOM      8  C   UNL     1      57.814  28.385  59.473  1.00  0.00     0.243 C 
ATOM      9  N   UNL     1      58.454  29.625  59.788  1.00  0.00    -0.342 N 
ATOM     10  H   UNL     1      58.257  30.042  60.724  1.00  0.00     0.164 HD
ATOM     11  O   UNL     1      57.762  28.002  58.279  1.00  0.00    -0.273 OA
BRANCH   9  12
ATOM     12  C   UNL     1      59.623  30.083  59.031  1.00  0.00     0.174 CG0
ATOM     13  G   UNL     1      60.693  30.541  60.009  1.00  0.00     0.000 G0
BRANCH  12  14
ATOM     14  C   UNL     1      59.186  31.127  57.938  1.00  0.00     0.018 C 
ATOM     15  C   UNL     1      57.735  31.589  58.171  1.00  0.00     0.010 C 
BRANCH  14  16
ATOM     16  C   UNL     1      59.394  30.638  56.483  1.00  0.00     0.002 C 
ATOM     17  C   UNL     1      60.233  31.598  55.636  1.00  0.00     0.004 C 
ENDBRANCH  14  16
ENDBRANCH  12  14
ENDBRANCH   9  12
ENDBRANCH   7   8
BRANCH   7  18
ATOM     18  C   UNL     1      56.454  26.305  60.142  1.00  0.00     0.073 C 
BRANCH  18  19
ATOM     19  C   UNL     1      56.336  25.253  61.213  1.00  0.00    -0.016 A 
ATOM     20  C   UNL     1      56.735  23.929  61.088  1.00  0.00     0.134 A 
ATOM     21  C   UNL     1      55.704  25.339  62.440  1.00  0.00     0.006 A 
ATOM     22  N   UNL     1      56.341  23.208  62.153  1.00  0.00    -0.191 N 
ATOM     23  C   UNL     1      55.710  24.074  62.994  1.00  0.00     0.087 A 
ATOM     24  C   UNL     1      55.129  26.429  63.096  1.00  0.00     0.011 A 
ATOM     25  C   UNL     1      55.135  23.840  64.250  1.00  0.00     0.030 A 
ATOM     26  C   UNL     1      54.538  26.211  64.353  1.00  0.00     0.001 A 
ATOM     27  C   UNL     1      54.536  24.922  64.923  1.00  0.00     0.002 A 
BRANCH  22  28
ATOM     28  O   UNL     1      56.562  21.843  62.259  1.00  0.00    -0.417 OA
ATOM     29  C   UNL     1      57.843  21.230  62.171  1.00  0.00     0.313 C 
ENDBRANCH  22  28
ENDBRANCH  18  19
ENDBRANCH   7  18
ENDBRANCH   4   7
ENDBRANCH   2   3
BRANCH   2  30
ATOM     30  N   UNL     1      61.282  27.732  62.283  1.00  0.00    -0.343 N 
ATOM     31  C   UNL     1      62.519  28.252  61.787  1.00  0.00     0.243 C 
ATOM     32  H   UNL     1      60.607  28.407  62.709  1.00  0.00     0.164 HD
ATOM     33  O   UNL     1      63.497  27.481  61.623  1.00  0.00    -0.273 OA
BRANCH  31  34
ATOM     34  C   UNL     1      62.617  29.716  61.427  1.00  0.00     0.174 C 
ATOM     35  N   UNL     1      61.984  29.928  60.112  1.00  0.00    -0.329 N 
ATOM     36  C   UNL     1      64.076  30.254  61.424  1.00  0.00     0.035 C 
ATOM     37  C   UNL     1      62.852  29.899  58.937  1.00  0.00     0.120 C 
ATOM     38  C   UNL     1      64.188  31.458  60.467  1.00  0.00     0.004 C 
ATOM     39  C   UNL     1      63.854  31.069  59.010  1.00  0.00     0.022 C 
BRANCH  35  40
ATOM     40  C   UNL     1      60.695  30.566  60.031  1.00  0.00     0.246 CG0
ATOM     41  O   UNL     1      60.385  31.435  60.889  1.00  0.00    -0.272 OA
ATOM     42  G   UNL     1      59.656  30.088  59.030  1.00  0.00     0.000 G0
ENDBRANCH  35  40
ENDBRANCH  31  34
ENDBRANCH   2  30
ENDBRANCH   1   2
BRANCH   1  43
ATOM     43  C   UNL     1      61.607  24.897  63.842  1.00  0.00     0.003 C 
BRANCH  43  44
ATOM     44  C   UNL     1      61.176  23.719  64.739  1.00  0.00     0.001 C 
BRANCH  44  45
ATOM     45  C   UNL     1      62.191  22.566  64.748  1.00  0.00     0.008 C 
BRANCH  45  46
ATOM     46  C   UNL     1      62.760  22.257  63.354  1.00  0.00     0.075 C 
BRANCH  46  47
ATOM     47  C   UNL     1      61.758  21.590  62.441  1.00  0.00     0.132 C 
ATOM     48  O   UNL     1      61.256  20.529  62.778  1.00  0.00    -0.300 OA
BRANCH  47  49
ATOM     49  C   UNL     1      61.309  22.250  61.159  1.00  0.00     0.072 C 
ATOM     50  C   UNL     1      62.343  23.230  60.606  1.00  0.00     0.012 C 
ENDBRANCH  47  49
ENDBRANCH  46  47
ENDBRANCH  45  46
ENDBRANCH  44  45
ENDBRANCH  43  44
ENDBRANCH   1  43
TORSDOF 12
ENDMDL
MODEL 3
REMARK VINA RESULT:    -4.396      4.384      6.142
REMARK INTER + INTRA:         -10.844
REMARK INTER:                  -9.057
REMARK INTRA:                  -1.787
REMARK UNBOUND:                -1.565
REMARK SMILES CCC(=O)CCCCC[C@@H]1NC(=O)[C@H]2CCCCN2C(=O)[C@H]([C@H](C)CC)NC(=O)[C@@H](Cc2cn(OC)c3ccccc23)NC1=O
REMARK SMILES IDX 9 1 10 2 44 3 43 4 45 6 30 7 28 8 27 9 29 11 22 12 23 14
REMARK SMILES IDX 24 15 25 16 26 17 31 18 32 19 33 20 42 21 34 22 37 23 41 24
REMARK SMILES IDX 38 25 40 26 39 27 35 28 36 29 11 30 12 31 13 33 14 34 19 35
REMARK SMILES IDX 15 36 18 37 16 38 17 39 20 40 21 41 8 43 7 44 6 45 5 46 3 47
REMARK SMILES IDX 4 48 2 49 1 50
REMARK H PARENT 43 5 27 10 11 32
REMARK Flexibility Score: 80.00
ROOT
ATOM      1  C   UNL     1      61.050  22.990  49.724  1.00  0.00     0.035 C 
ENDROOT
BRANCH   1   2
ATOM      2  C   UNL     1      60.636  24.245  50.512  1.00  0.00     0.171 C 
BRANCH   2   3
ATOM      3  C   UNL     1      61.804  25.177  50.737  1.00  0.00     0.243 C 
ATOM      4  N   UNL     1      62.644  25.568  49.633  1.00  0.00    -0.342 N 
ATOM      5  H   UNL     1      62.472  25.134  48.699  1.00  0.00     0.164 HD
ATOM      6  O   UNL     1      61.973  25.687  51.873  1.00  0.00    -0.273 OA
BRANCH   4   7
ATOM      7  C   UNL     1      63.618  26.664  49.687  1.00  0.00     0.175 C 
BRANCH   7   8
ATOM      8  C   UNL     1      63.018  27.862  50.393  1.00  0.00     0.243 C 
ATOM      9  N   UNL     1      61.924  28.555  49.783  1.00  0.00    -0.342 N 
ATOM     10  H   UNL     1      61.782  28.418  48.759  1.00  0.00     0.164 HD
ATOM     11  O   UNL     1      63.423  28.221  51.526  1.00  0.00    -0.273 OA
BRANCH   9  12
ATOM     12  C   UNL     1      60.829  29.094  50.594  1.00  0.00     0.174 CG0
ATOM     13  G   UNL     1      59.506  28.653  49.989  1.00  0.00     0.000 G0
BRANCH  12  14
ATOM     14  C   UNL     1      61.017  30.643  50.799  1.00  0.00     0.018 C 
ATOM     15  C   UNL     1      62.014  31.214  49.773  1.00  0.00     0.010 C 
BRANCH  14  16
ATOM     16  C   UNL     1      61.407  31.043  52.245  1.00  0.00     0.002 C 
ATOM     17  C   UNL     1      60.978  30.014  53.293  1.00  0.00     0.004 C 
ENDBRANCH  14  16
ENDBRANCH  12  14
ENDBRANCH   9  12
ENDBRANCH   7   8
BRANCH   7  18
ATOM     18  C   UNL     1      64.936  26.150  50.295  1.00  0.00     0.073 C 
BRANCH  18  19
ATOM     19  C   UNL     1      66.139  26.907  49.797  1.00  0.00    -0.016 A 
ATOM     20  C   UNL     1      67.219  27.304  50.574  1.00  0.00     0.134 A 
ATOM     21  C   UNL     1      66.349  27.469  48.551  1.00  0.00     0.006 A 
ATOM     22  N   UNL     1      68.042  28.105  49.876  1.00  0.00    -0.191 N 
ATOM     23  C   UNL     1      67.514  28.206  48.624  1.00  0.00     0.087 A 
ATOM     24  C   UNL     1      65.601  27.385  47.375  1.00  0.00     0.011 A 
ATOM     25  C   UNL     1      67.994  28.901  47.506  1.00  0.00     0.030 A 
ATOM     26  C   UNL     1      66.061  28.085  46.245  1.00  0.00     0.001 A 
ATOM     27  C   UNL     1      67.247  28.842  46.314  1.00  0.00     0.002 A 
BRANCH  22  28
ATOM     28  O   UNL     1      69.172  28.689  50.431  1.00  0.00    -0.417 OA
ATOM     29  C   UNL     1      70.505  28.289  50.137  1.00  0.00     0.313 C 
ENDBRANCH  22  28
ENDBRANCH  18  19
ENDBRANCH   7  18
ENDBRANCH   4   7
ENDBRANCH   2   3
BRANCH   2  30
ATOM     30  N   UNL     1      59.592  24.976  49.789  1.00  0.00    -0.343 N 
ATOM     31  C   UNL     1      58.401  25.442  50.430  1.00  0.00     0.243 C 
ATOM     32  H   UNL     1      59.827  25.375  48.852  1.00  0.00     0.164 HD
ATOM     33  O   UNL     1      57.874  24.754  51.339  1.00  0.00    -0.273 OA
BRANCH  31  34
ATOM     34  C   UNL     1      57.818  26.777  50.033  1.00  0.00     0.174 C 
ATOM     35  N   UNL     1      58.559  27.847  50.726  1.00  0.00    -0.329 N 
ATOM     36  C   UNL     1      56.294  26.896  50.319  1.00  0.00     0.035 C 
ATOM     37  C   UNL     1      58.011  28.334  51.990  1.00  0.00     0.120 C 
ATOM     38  C   UNL     1      55.912  28.376  50.524  1.00  0.00     0.004 C 
ATOM     39  C   UNL     1      56.642  28.996  51.735  1.00  0.00     0.022 C 
BRANCH  35  40
ATOM     40  C   UNL     1      59.493  28.663  49.993  1.00  0.00     0.246 CG0
ATOM     41  O   UNL     1      59.261  28.926  48.782  1.00  0.00    -0.272 OA
ATOM     42  G   UNL     1      60.821  29.068  50.613  1.00  0.00     0.000 G0
ENDBRANCH  35  40
ENDBRANCH  31  34
ENDBRANCH   2  30
ENDBRANCH   1   2
BRANCH   1  43
ATOM     43  C   UNL     1      61.135  21.729  50.603  1.00  0.00     0.003 C 
BRANCH  43  44
ATOM     44  C   UNL     1      60.312  21.859  51.902  1.00  0.00     0.001 C 
BRANCH  44  45
ATOM     45  C   UNL     1      59.127  20.883  51.963  1.00  0.00     0.008 C 
BRANCH  45  46
ATOM     46  C   UNL     1      59.564  19.414  52.078  1.00  0.00     0.075 C 
BRANCH  46  47
ATOM     47  C   UNL     1      59.495  18.673  50.764  1.00  0.00     0.132 C 
ATOM     48  O   UNL     1      60.420  17.946  50.438  1.00  0.00    -0.300 OA
BRANCH  47  49
ATOM     49  C   UNL     1      58.270  18.754  49.885  1.00  0.00     0.072 C 
ATOM     50  C   UNL     1      57.009  18.238  50.579  1.00  0.00     0.012 C 
ENDBRANCH  47  49
ENDBRANCH  46  47
ENDBRANCH  45  46
ENDBRANCH  44  45
ENDBRANCH  43  44
ENDBRANCH   1  43
TORSDOF 12
ENDMDL
MODEL 4
REMARK VINA RESULT:    -4.341      4.066      7.809
REMARK INTER + INTRA:         -10.727
REMARK INTER:                  -7.681
REMARK INTRA:                  -3.045
REMARK UNBOUND:                -1.565
REMARK SMILES CCC(=O)CCCCC[C@@H]1NC(=O)[C@H]2CCCCN2C(=O)[C@H]([C@H](C)CC)NC(=O)[C@@H](Cc2cn(OC)c3ccccc23)NC1=O
REMARK SMILES IDX 9 1 10 2 44 3 43 4 45 6 30 7 28 8 27 9 29 11 22 12 23 14
REMARK SMILES IDX 24 15 25 16 26 17 31 18 32 19 33 20 42 21 34 22 37 23 41 24
REMARK SMILES IDX 38 25 40 26 39 27 35 28 36 29 11 30 12 31 13 33 14 34 19 35
REMARK SMILES IDX 15 36 18 37 16 38 17 39 20 40 21 41 8 43 7 44 6 45 5 46 3 47
REMARK SMILES IDX 4 48 2 49 1 50
REMARK H PARENT 43 5 27 10 11 32
REMARK Flexibility Score: 80.00
ROOT
ATOM      1  C   UNL     1      59.928  27.890  50.718  1.00  0.00     0.035 C 
ENDROOT
BRANCH   1   2
ATOM      2  C   UNL     1      61.308  28.518  50.979  1.00  0.00     0.171 C 
BRANCH   2   3
ATOM      3  C   UNL     1      62.359  27.469  51.256  1.00  0.00     0.243 C 
ATOM      4  N   UNL     1      62.637  26.445  50.281  1.00  0.00    -0.342 N 
ATOM      5  H   UNL     1      62.046  26.403  49.421  1.00  0.00     0.164 HD
ATOM      6  O   UNL     1      63.057  27.559  52.297  1.00  0.00    -0.273 OA
BRANCH   4   7
ATOM      7  C   UNL     1      63.806  25.559  50.327  1.00  0.00     0.175 C 
BRANCH   7   8
ATOM      8  C   UNL     1      65.067  26.343  50.026  1.00  0.00     0.243 C 
ATOM      9  N   UNL     1      65.302  26.802  48.692  1.00  0.00    -0.342 N 
ATOM     10  H   UNL     1      64.776  26.329  47.924  1.00  0.00     0.164 HD
ATOM     11  O   UNL     1      65.878  26.646  50.936  1.00  0.00    -0.273 OA
BRANCH   9  12
ATOM     12  C   UNL     1      65.919  28.107  48.441  1.00  0.00     0.174 CG0
ATOM     13  G   UNL     1      64.820  29.136  48.227  1.00  0.00     0.000 G0
BRANCH  12  14
ATOM     14  C   UNL     1      66.994  27.990  47.299  1.00  0.00     0.018 C 
ATOM     15  C   UNL     1      66.781  26.704  46.477  1.00  0.00     0.010 C 
BRANCH  14  16
ATOM     16  C   UNL     1      68.457  28.102  47.798  1.00  0.00     0.002 C 
ATOM     17  C   UNL     1      68.575  28.743  49.182  1.00  0.00     0.004 C 
ENDBRANCH  14  16
ENDBRANCH  12  14
ENDBRANCH   9  12
ENDBRANCH   7   8
BRANCH   7  18
ATOM     18  C   UNL     1      63.822  24.800  51.667  1.00  0.00     0.073 C 
BRANCH  18  19
ATOM     19  C   UNL     1      62.682  23.824  51.792  1.00  0.00    -0.016 A 
ATOM     20  C   UNL     1      62.528  22.665  51.042  1.00  0.00     0.134 A 
ATOM     21  C   UNL     1      61.526  23.940  52.542  1.00  0.00     0.006 A 
ATOM     22  N   UNL     1      61.327  22.103  51.271  1.00  0.00    -0.191 N 
ATOM     23  C   UNL     1      60.707  22.882  52.201  1.00  0.00     0.087 A 
ATOM     24  C   UNL     1      61.143  24.894  53.487  1.00  0.00     0.011 A 
ATOM     25  C   UNL     1      59.450  22.726  52.800  1.00  0.00     0.030 A 
ATOM     26  C   UNL     1      59.881  24.760  54.091  1.00  0.00     0.001 A 
ATOM     27  C   UNL     1      59.038  23.686  53.745  1.00  0.00     0.002 A 
BRANCH  22  28
ATOM     28  O   UNL     1      60.893  20.965  50.608  1.00  0.00    -0.417 OA
ATOM     29  C   UNL     1      60.476  20.940  49.248  1.00  0.00     0.313 C 
ENDBRANCH  22  28
ENDBRANCH  18  19
ENDBRANCH   7  18
ENDBRANCH   4   7
ENDBRANCH   2   3
BRANCH   2  30
ATOM     30  N   UNL     1      61.734  29.307  49.820  1.00  0.00    -0.343 N 
ATOM     31  C   UNL     1      62.270  30.627  49.948  1.00  0.00     0.243 C 
ATOM     32  H   UNL     1      61.875  28.812  48.910  1.00  0.00     0.164 HD
ATOM     33  O   UNL     1      61.823  31.397  50.834  1.00  0.00    -0.273 OA
BRANCH  31  34
ATOM     34  C   UNL     1      63.398  31.060  49.042  1.00  0.00     0.174 C 
ATOM     35  N   UNL     1      64.541  30.148  49.233  1.00  0.00    -0.329 N 
ATOM     36  C   UNL     1      63.836  32.537  49.264  1.00  0.00     0.035 C 
ATOM     37  C   UNL     1      65.569  30.551  50.191  1.00  0.00     0.120 C 
ATOM     38  C   UNL     1      65.309  32.714  48.847  1.00  0.00     0.004 C 
ATOM     39  C   UNL     1      66.257  31.838  49.694  1.00  0.00     0.022 C 
BRANCH  35  40
ATOM     40  C   UNL     1      64.850  29.166  48.225  1.00  0.00     0.246 CG0
ATOM     41  O   UNL     1      64.129  29.096  47.195  1.00  0.00    -0.272 OA
ATOM     42  G   UNL     1      65.927  28.120  48.468  1.00  0.00     0.000 G0
ENDBRANCH  35  40
ENDBRANCH  31  34
ENDBRANCH   2  30
ENDBRANCH   1   2
BRANCH   1  43
ATOM     43  C   UNL     1      58.762  28.805  51.134  1.00  0.00     0.003 C 
BRANCH  43  44
ATOM     44  C   UNL     1      57.681  28.920  50.040  1.00  0.00     0.001 C 
BRANCH  44  45
ATOM     45  C   UNL     1      56.326  28.337  50.468  1.00  0.00     0.008 C 
BRANCH  45  46
ATOM     46  C   UNL     1      56.169  26.851  50.103  1.00  0.00     0.075 C 
BRANCH  46  47
ATOM     47  C   UNL     1      56.755  25.923  51.141  1.00  0.00     0.132 C 
ATOM     48  O   UNL     1      57.652  25.159  50.821  1.00  0.00    -0.300 OA
BRANCH  47  49
ATOM     49  C   UNL     1      56.308  25.980  52.582  1.00  0.00     0.072 C 
ATOM     50  C   UNL     1      55.468  24.769  52.988  1.00  0.00     0.012 C 
ENDBRANCH  47  49
ENDBRANCH  46  47
ENDBRANCH  45  46
ENDBRANCH  44  45
ENDBRANCH  43  44
ENDBRANCH   1  43
TORSDOF 12
ENDMDL
MODEL 5
REMARK VINA RESULT:    -4.279      4.389      8.812
REMARK INTER + INTRA:         -10.597
REMARK INTER:                  -8.663
REMARK INTRA:                  -1.934
REMARK UNBOUND:                -1.565
REMARK SMILES CCC(=O)CCCCC[C@@H]1NC(=O)[C@H]2CCCCN2C(=O)[C@H]([C@H](C)CC)NC(=O)[C@@H](Cc2cn(OC)c3ccccc23)NC1=O
REMARK SMILES IDX 9 1 10 2 44 3 43 4 45 6 30 7 28 8 27 9 29 11 22 12 23 14
REMARK SMILES IDX 24 15 25 16 26 17 31 18 32 19 33 20 42 21 34 22 37 23 41 24
REMARK SMILES IDX 38 25 40 26 39 27 35 28 36 29 11 30 12 31 13 33 14 34 19 35
REMARK SMILES IDX 15 36 18 37 16 38 17 39 20 40 21 41 8 43 7 44 6 45 5 46 3 47
REMARK SMILES IDX 4 48 2 49 1 50
REMARK H PARENT 43 5 27 10 11 32
REMARK Flexibility Score: 80.00
ROOT
ATOM      1  C   UNL     1      58.646  23.964  51.914  1.00  0.00     0.035 C 
ENDROOT
BRANCH   1   2
ATOM      2  C   UNL     1      59.708  24.691  51.071  1.00  0.00     0.171 C 
BRANCH   2   3
ATOM      3  C   UNL     1      59.200  26.015  50.549  1.00  0.00     0.243 C 
ATOM      4  N   UNL     1      58.815  27.058  51.466  1.00  0.00    -0.342 N 
ATOM      5  H   UNL     1      58.824  26.849  52.489  1.00  0.00     0.164 HD
ATOM      6  O   UNL     1      59.214  26.234  49.312  1.00  0.00    -0.273 OA
BRANCH   4   7
ATOM      7  C   UNL     1      58.576  28.452  51.076  1.00  0.00     0.175 C 
BRANCH   7   8
ATOM      8  C   UNL     1      59.870  29.098  50.627  1.00  0.00     0.243 C 
ATOM      9  N   UNL     1      60.924  29.281  51.577  1.00  0.00    -0.342 N 
ATOM     10  H   UNL     1      60.667  29.257  52.589  1.00  0.00     0.164 HD
ATOM     11  O   UNL     1      60.055  29.422  49.428  1.00  0.00    -0.273 OA
BRANCH   9  12
ATOM     12  C   UNL     1      62.326  29.107  51.189  1.00  0.00     0.174 CG0
ATOM     13  G   UNL     1      62.863  27.844  51.844  1.00  0.00     0.000 G0
BRANCH  12  14
ATOM     14  C   UNL     1      63.134  30.428  51.462  1.00  0.00     0.018 C 
ATOM     15  C   UNL     1      62.207  31.659  51.403  1.00  0.00     0.010 C 
BRANCH  14  16
ATOM     16  C   UNL     1      64.369  30.612  50.544  1.00  0.00     0.002 C 
ATOM     17  C   UNL     1      64.145  31.632  49.426  1.00  0.00     0.004 C 
ENDBRANCH  14  16
ENDBRANCH  12  14
ENDBRANCH   9  12
ENDBRANCH   7   8
BRANCH   7  18
ATOM     18  C   UNL     1      57.434  28.506  50.043  1.00  0.00     0.073 C 
BRANCH  18  19
ATOM     19  C   UNL     1      56.079  28.294  50.665  1.00  0.00    -0.016 A 
ATOM     20  C   UNL     1      55.528  29.070  51.675  1.00  0.00     0.134 A 
ATOM     21  C   UNL     1      55.197  27.247  50.474  1.00  0.00     0.006 A 
ATOM     22  N   UNL     1      54.385  28.524  52.129  1.00  0.00    -0.191 N 
ATOM     23  C   UNL     1      54.173  27.401  51.387  1.00  0.00     0.087 A 
ATOM     24  C   UNL     1      55.228  26.180  49.574  1.00  0.00     0.011 A 
ATOM     25  C   UNL     1      53.115  26.484  51.439  1.00  0.00     0.030 A 
ATOM     26  C   UNL     1      54.181  25.243  49.619  1.00  0.00     0.001 A 
ATOM     27  C   UNL     1      53.134  25.392  50.550  1.00  0.00     0.002 A 
BRANCH  22  28
ATOM     28  O   UNL     1      53.658  29.067  53.177  1.00  0.00    -0.417 OA
ATOM     29  C   UNL     1      53.870  28.750  54.548  1.00  0.00     0.313 C 
ENDBRANCH  22  28
ENDBRANCH  18  19
ENDBRANCH   7  18
ENDBRANCH   4   7
ENDBRANCH   2   3
BRANCH   2  30
ATOM     30  N   UNL     1      60.910  24.939  51.872  1.00  0.00    -0.343 N 
ATOM     31  C   UNL     1      62.207  24.495  51.462  1.00  0.00     0.243 C 
ATOM     32  H   UNL     1      60.859  25.656  52.630  1.00  0.00     0.164 HD
ATOM     33  O   UNL     1      62.328  23.401  50.857  1.00  0.00    -0.273 OA
BRANCH  31  34
ATOM     34  C   UNL     1      63.408  25.372  51.726  1.00  0.00     0.174 C 
ATOM     35  N   UNL     1      63.205  26.673  51.062  1.00  0.00    -0.329 N 
ATOM     36  C   UNL     1      64.751  24.731  51.274  1.00  0.00     0.035 C 
ATOM     37  C   UNL     1      63.768  26.837  49.724  1.00  0.00     0.120 C 
ATOM     38  C   UNL     1      65.777  25.836  50.954  1.00  0.00     0.004 C 
ATOM     39  C   UNL     1      65.305  26.744  49.797  1.00  0.00     0.022 C 
BRANCH  35  40
ATOM     40  C   UNL     1      62.881  27.835  51.848  1.00  0.00     0.246 CG0
ATOM     41  O   UNL     1      62.922  27.759  53.105  1.00  0.00    -0.272 OA
ATOM     42  G   UNL     1      62.336  29.090  51.184  1.00  0.00     0.000 G0
ENDBRANCH  35  40
ENDBRANCH  31  34
ENDBRANCH   2  30
ENDBRANCH   1   2
BRANCH   1  43
ATOM     43  C   UNL     1      59.241  23.238  53.134  1.00  0.00     0.003 C 
BRANCH  43  44
ATOM     44  C   UNL     1      59.686  21.798  52.806  1.00  0.00     0.001 C 
BRANCH  44  45
ATOM     45  C   UNL     1      58.533  20.784  52.863  1.00  0.00     0.008 C 
BRANCH  45  46
ATOM     46  C   UNL     1      58.691  19.638  51.851  1.00  0.00     0.075 C 
BRANCH  46  47
ATOM     47  C   UNL     1      57.384  18.955  51.523  1.00  0.00     0.132 C 
ATOM     48  O   UNL     1      56.342  19.417  51.960  1.00  0.00    -0.300 OA
BRANCH  47  49
ATOM     49  C   UNL     1      57.337  17.761  50.600  1.00  0.00     0.072 C 
ATOM     50  C   UNL     1      58.381  17.834  49.485  1.00  0.00     0.012 C 
ENDBRANCH  47  49
ENDBRANCH  46  47
ENDBRANCH  45  46
ENDBRANCH  44  45
ENDBRANCH  43  44
ENDBRANCH   1  43
TORSDOF 12
ENDMDL
MODEL 6
REMARK VINA RESULT:    -4.254     10.182     14.893
REMARK INTER + INTRA:         -10.544
REMARK INTER:                  -8.846
REMARK INTRA:                  -1.697
REMARK UNBOUND:                -1.565
REMARK SMILES CCC(=O)CCCCC[C@@H]1NC(=O)[C@H]2CCCCN2C(=O)[C@H]([C@H](C)CC)NC(=O)[C@@H](Cc2cn(OC)c3ccccc23)NC1=O
REMARK SMILES IDX 9 1 10 2 44 3 43 4 45 6 30 7 28 8 27 9 29 11 22 12 23 14
REMARK SMILES IDX 24 15 25 16 26 17 31 18 32 19 33 20 42 21 34 22 37 23 41 24
REMARK SMILES IDX 38 25 40 26 39 27 35 28 36 29 11 30 12 31 13 33 14 34 19 35
REMARK SMILES IDX 15 36 18 37 16 38 17 39 20 40 21 41 8 43 7 44 6 45 5 46 3 47
REMARK SMILES IDX 4 48 2 49 1 50
REMARK H PARENT 43 5 27 10 11 32
REMARK Flexibility Score: 80.00
ROOT
ATOM      1  C   UNL     1      61.653  29.138  61.718  1.00  0.00     0.035 C 
ENDROOT
BRANCH   1   2
ATOM      2  C   UNL     1      60.667  28.312  60.873  1.00  0.00     0.171 C 
BRANCH   2   3
ATOM      3  C   UNL     1      60.689  26.850  61.254  1.00  0.00     0.243 C 
ATOM      4  N   UNL     1      60.374  26.446  62.601  1.00  0.00    -0.342 N 
ATOM      5  H   UNL     1      60.206  27.188  63.316  1.00  0.00     0.164 HD
ATOM      6  O   UNL     1      60.883  25.986  60.362  1.00  0.00    -0.273 OA
BRANCH   4   7
ATOM      7  C   UNL     1      60.099  25.062  63.003  1.00  0.00     0.175 C 
BRANCH   7   8
ATOM      8  C   UNL     1      58.734  24.634  62.506  1.00  0.00     0.243 C 
ATOM      9  N   UNL     1      57.564  25.178  63.125  1.00  0.00    -0.342 N 
ATOM     10  H   UNL     1      57.675  25.594  64.076  1.00  0.00     0.164 HD
ATOM     11  O   UNL     1      58.611  23.859  61.526  1.00  0.00    -0.273 OA
BRANCH   9  12
ATOM     12  C   UNL     1      56.376  25.506  62.332  1.00  0.00     0.174 CG0
ATOM     13  G   UNL     1      56.469  26.956  61.886  1.00  0.00     0.000 G0
BRANCH  12  14
ATOM     14  C   UNL     1      55.073  25.101  63.115  1.00  0.00     0.018 C 
ATOM     15  C   UNL     1      55.425  24.346  64.412  1.00  0.00     0.010 C 
BRANCH  14  16
ATOM     16  C   UNL     1      54.049  24.308  62.264  1.00  0.00     0.002 C 
ATOM     17  C   UNL     1      54.676  23.623  61.048  1.00  0.00     0.004 C 
ENDBRANCH  14  16
ENDBRANCH  12  14
ENDBRANCH   9  12
ENDBRANCH   7   8
BRANCH   7  18
ATOM     18  C   UNL     1      61.263  24.158  62.555  1.00  0.00     0.073 C 
BRANCH  18  19
ATOM     19  C   UNL     1      61.739  23.240  63.650  1.00  0.00    -0.016 A 
ATOM     20  C   UNL     1      62.931  23.373  64.349  1.00  0.00     0.134 A 
ATOM     21  C   UNL     1      61.189  22.045  64.073  1.00  0.00     0.006 A 
ATOM     22  N   UNL     1      63.146  22.305  65.137  1.00  0.00    -0.191 N 
ATOM     23  C   UNL     1      62.070  21.484  64.977  1.00  0.00     0.087 A 
ATOM     24  C   UNL     1      59.990  21.419  63.727  1.00  0.00     0.011 A 
ATOM     25  C   UNL     1      61.787  20.255  65.586  1.00  0.00     0.030 A 
ATOM     26  C   UNL     1      59.693  20.179  64.321  1.00  0.00     0.001 A 
ATOM     27  C   UNL     1      60.589  19.599  65.240  1.00  0.00     0.002 A 
BRANCH  22  28
ATOM     28  O   UNL     1      64.292  22.155  65.904  1.00  0.00    -0.417 OA
ATOM     29  C   UNL     1      65.610  22.106  65.372  1.00  0.00     0.313 C 
ENDBRANCH  22  28
ENDBRANCH  18  19
ENDBRANCH   7  18
ENDBRANCH   4   7
ENDBRANCH   2   3
BRANCH   2  30
ATOM     30  N   UNL     1      59.303  28.816  61.047  1.00  0.00    -0.343 N 
ATOM     31  C   UNL     1      58.415  29.019  59.944  1.00  0.00     0.243 C 
ATOM     32  H   UNL     1      58.889  28.799  62.007  1.00  0.00     0.164 HD
ATOM     33  O   UNL     1      58.870  29.422  58.845  1.00  0.00    -0.273 OA
BRANCH  31  34
ATOM     34  C   UNL     1      56.947  28.704  60.106  1.00  0.00     0.174 C 
ATOM     35  N   UNL     1      56.803  27.292  60.509  1.00  0.00    -0.329 N 
ATOM     36  C   UNL     1      56.108  28.994  58.828  1.00  0.00     0.035 C 
ATOM     37  C   UNL     1      56.580  26.311  59.449  1.00  0.00     0.120 C 
ATOM     38  C   UNL     1      54.857  28.093  58.806  1.00  0.00     0.004 C 
ATOM     39  C   UNL     1      55.228  26.595  58.763  1.00  0.00     0.022 C 
BRANCH  35  40
ATOM     40  C   UNL     1      56.453  26.967  61.867  1.00  0.00     0.246 CG0
ATOM     41  O   UNL     1      56.342  27.895  62.713  1.00  0.00    -0.272 OA
ATOM     42  G   UNL     1      56.377  25.518  62.321  1.00  0.00     0.000 G0
ENDBRANCH  35  40
ENDBRANCH  31  34
ENDBRANCH   2  30
ENDBRANCH   1   2
BRANCH   1  43
ATOM     43  C   UNL     1      63.126  28.847  61.378  1.00  0.00     0.003 C 
BRANCH  43  44
ATOM     44  C   UNL     1      63.870  30.094  60.859  1.00  0.00     0.001 C 
BRANCH  44  45
ATOM     45  C   UNL     1      62.948  31.089  60.138  1.00  0.00     0.008 C 
BRANCH  45  46
ATOM     46  C   UNL     1      62.668  32.356  60.963  1.00  0.00     0.075 C 
BRANCH  46  47
ATOM     47  C   UNL     1      63.685  33.448  60.731  1.00  0.00     0.132 C 
ATOM     48  O   UNL     1      64.707  33.193  60.113  1.00  0.00    -0.300 OA
BRANCH  47  49
ATOM     49  C   UNL     1      63.425  34.866  61.181  1.00  0.00     0.072 C 
ATOM     50  C   UNL     1      64.697  35.588  61.625  1.00  0.00     0.012 C 
ENDBRANCH  47  49
ENDBRANCH  46  47
ENDBRANCH  45  46
ENDBRANCH  44  45
ENDBRANCH  43  44
ENDBRANCH   1  43
TORSDOF 12
ENDMDL
MODEL 7
REMARK VINA RESULT:    -4.179      4.958      8.256
REMARK INTER + INTRA:         -10.385
REMARK INTER:                  -7.673
REMARK INTRA:                  -2.712
REMARK UNBOUND:                -1.565
REMARK SMILES CCC(=O)CCCCC[C@@H]1NC(=O)[C@H]2CCCCN2C(=O)[C@H]([C@H](C)CC)NC(=O)[C@@H](Cc2cn(OC)c3ccccc23)NC1=O
REMARK SMILES IDX 9 1 10 2 44 3 43 4 45 6 30 7 28 8 27 9 29 11 22 12 23 14
REMARK SMILES IDX 24 15 25 16 26 17 31 18 32 19 33 20 42 21 34 22 37 23 41 24
REMARK SMILES IDX 38 25 40 26 39 27 35 28 36 29 11 30 12 31 13 33 14 34 19 35
REMARK SMILES IDX 15 36 18 37 16 38 17 39 20 40 21 41 8 43 7 44 6 45 5 46 3 47
REMARK SMILES IDX 4 48 2 49 1 50
REMARK H PARENT 43 5 27 10 11 32
REMARK Flexibility Score: 80.00
ROOT
ATOM      1  C   UNL     1      59.429  28.031  49.803  1.00  0.00     0.035 C 
ENDROOT
BRANCH   1   2
ATOM      2  C   UNL     1      60.800  28.318  50.440  1.00  0.00     0.171 C 
BRANCH   2   3
ATOM      3  C   UNL     1      61.444  27.060  50.976  1.00  0.00     0.243 C 
ATOM      4  N   UNL     1      61.738  25.962  50.092  1.00  0.00    -0.342 N 
ATOM      5  H   UNL     1      61.428  26.027  49.097  1.00  0.00     0.164 HD
ATOM      6  O   UNL     1      61.813  27.024  52.177  1.00  0.00    -0.273 OA
BRANCH   4   7
ATOM      7  C   UNL     1      62.597  24.826  50.446  1.00  0.00     0.175 C 
BRANCH   7   8
ATOM      8  C   UNL     1      64.020  25.296  50.666  1.00  0.00     0.243 C 
ATOM      9  N   UNL     1      64.659  26.082  49.656  1.00  0.00    -0.342 N 
ATOM     10  H   UNL     1      64.257  26.044  48.693  1.00  0.00     0.164 HD
ATOM     11  O   UNL     1      64.626  25.058  51.740  1.00  0.00    -0.273 OA
BRANCH   9  12
ATOM     12  C   UNL     1      65.558  27.182  50.014  1.00  0.00     0.174 CG0
ATOM     13  G   UNL     1      65.151  28.423  49.237  1.00  0.00     0.000 G0
BRANCH  12  14
ATOM     14  C   UNL     1      67.057  26.729  49.864  1.00  0.00     0.018 C 
ATOM     15  C   UNL     1      67.175  25.543  48.886  1.00  0.00     0.010 C 
BRANCH  14  16
ATOM     16  C   UNL     1      67.759  26.419  51.210  1.00  0.00     0.002 C 
ATOM     17  C   UNL     1      68.616  27.577  51.726  1.00  0.00     0.004 C 
ENDBRANCH  14  16
ENDBRANCH  12  14
ENDBRANCH   9  12
ENDBRANCH   7   8
BRANCH   7  18
ATOM     18  C   UNL     1      61.977  24.065  51.633  1.00  0.00     0.073 C 
BRANCH  18  19
ATOM     19  C   UNL     1      61.720  22.614  51.320  1.00  0.00    -0.016 A 
ATOM     20  C   UNL     1      60.473  22.049  51.092  1.00  0.00     0.134 A 
ATOM     21  C   UNL     1      62.612  21.557  51.337  1.00  0.00     0.006 A 
ATOM     22  N   UNL     1      60.562  20.709  51.012  1.00  0.00    -0.191 N 
ATOM     23  C   UNL     1      61.881  20.400  51.156  1.00  0.00     0.087 A 
ATOM     24  C   UNL     1      63.998  21.536  51.501  1.00  0.00     0.011 A 
ATOM     25  C   UNL     1      62.514  19.150  51.126  1.00  0.00     0.030 A 
ATOM     26  C   UNL     1      64.650  20.290  51.486  1.00  0.00     0.001 A 
ATOM     27  C   UNL     1      63.910  19.105  51.305  1.00  0.00     0.002 A 
BRANCH  22  28
ATOM     28  O   UNL     1      59.455  19.891  50.842  1.00  0.00    -0.417 OA
ATOM     29  C   UNL     1      59.110  19.255  49.617  1.00  0.00     0.313 C 
ENDBRANCH  22  28
ENDBRANCH  18  19
ENDBRANCH   7  18
ENDBRANCH   4   7
ENDBRANCH   2   3
BRANCH   2  30
ATOM     30  N   UNL     1      61.703  28.917  49.454  1.00  0.00    -0.343 N 
ATOM     31  C   UNL     1      62.267  30.220  49.625  1.00  0.00     0.243 C 
ATOM     32  H   UNL     1      62.132  28.293  48.734  1.00  0.00     0.164 HD
ATOM     33  O   UNL     1      61.589  31.125  50.173  1.00  0.00    -0.273 OA
BRANCH  31  34
ATOM     34  C   UNL     1      63.689  30.477  49.184  1.00  0.00     0.174 C 
ATOM     35  N   UNL     1      64.588  29.569  49.920  1.00  0.00    -0.329 N 
ATOM     36  C   UNL     1      64.135  31.956  49.368  1.00  0.00     0.035 C 
ATOM     37  C   UNL     1      65.204  30.081  51.143  1.00  0.00     0.120 C 
ATOM     38  C   UNL     1      65.665  32.023  49.540  1.00  0.00     0.004 C 
ATOM     39  C   UNL     1      66.138  31.257  50.795  1.00  0.00     0.022 C 
BRANCH  35  40
ATOM     40  C   UNL     1      65.172  28.438  49.248  1.00  0.00     0.246 CG0
ATOM     41  O   UNL     1      65.218  28.428  47.988  1.00  0.00    -0.272 OA
ATOM     42  G   UNL     1      65.580  27.199  50.028  1.00  0.00     0.000 G0
ENDBRANCH  35  40
ENDBRANCH  31  34
ENDBRANCH   2  30
ENDBRANCH   1   2
BRANCH   1  43
ATOM     43  C   UNL     1      58.391  29.130  50.090  1.00  0.00     0.003 C 
BRANCH  43  44
ATOM     44  C   UNL     1      57.275  28.654  51.043  1.00  0.00     0.001 C 
BRANCH  44  45
ATOM     45  C   UNL     1      56.137  27.919  50.318  1.00  0.00     0.008 C 
BRANCH  45  46
ATOM     46  C   UNL     1      56.330  26.394  50.290  1.00  0.00     0.075 C 
BRANCH  46  47
ATOM     47  C   UNL     1      56.905  25.847  51.575  1.00  0.00     0.132 C 
ATOM     48  O   UNL     1      56.227  25.868  52.590  1.00  0.00    -0.300 OA
BRANCH  47  49
ATOM     49  C   UNL     1      58.270  25.203  51.608  1.00  0.00     0.072 C 
ATOM     50  C   UNL     1      58.686  24.770  53.014  1.00  0.00     0.012 C 
ENDBRANCH  47  49
ENDBRANCH  46  47
ENDBRANCH  45  46
ENDBRANCH  44  45
ENDBRANCH  43  44
ENDBRANCH   1  43
TORSDOF 12
ENDMDL
MODEL 8
REMARK VINA RESULT:    -4.089      3.679      8.283
REMARK INTER + INTRA:         -10.195
REMARK INTER:                  -8.751
REMARK INTRA:                  -1.444
REMARK UNBOUND:                -1.565
REMARK SMILES CCC(=O)CCCCC[C@@H]1NC(=O)[C@H]2CCCCN2C(=O)[C@H]([C@H](C)CC)NC(=O)[C@@H](Cc2cn(OC)c3ccccc23)NC1=O
REMARK SMILES IDX 9 1 10 2 44 3 43 4 45 6 30 7 28 8 27 9 29 11 22 12 23 14
REMARK SMILES IDX 24 15 25 16 26 17 31 18 32 19 33 20 42 21 34 22 37 23 41 24
REMARK SMILES IDX 38 25 40 26 39 27 35 28 36 29 11 30 12 31 13 33 14 34 19 35
REMARK SMILES IDX 15 36 18 37 16 38 17 39 20 40 21 41 8 43 7 44 6 45 5 46 3 47
REMARK SMILES IDX 4 48 2 49 1 50
REMARK H PARENT 43 5 27 10 11 32
REMARK Flexibility Score: 80.00
ROOT
ATOM      1  C   UNL     1      61.750  25.070  50.613  1.00  0.00     0.035 C 
ENDROOT
BRANCH   1   2
ATOM      2  C   UNL     1      61.768  26.376  49.800  1.00  0.00     0.171 C 
BRANCH   2   3
ATOM      3  C   UNL     1      60.490  27.163  49.974  1.00  0.00     0.243 C 
ATOM      4  N   UNL     1      59.934  27.363  51.289  1.00  0.00    -0.342 N 
ATOM      5  H   UNL     1      60.391  26.891  52.100  1.00  0.00     0.164 HD
ATOM      6  O   UNL     1      59.974  27.726  48.976  1.00  0.00    -0.273 OA
BRANCH   4   7
ATOM      7  C   UNL     1      58.870  28.326  51.596  1.00  0.00     0.175 C 
BRANCH   7   8
ATOM      8  C   UNL     1      59.452  29.550  52.272  1.00  0.00     0.243 C 
ATOM      9  N   UNL     1      60.735  29.456  52.899  1.00  0.00    -0.342 N 
ATOM     10  H   UNL     1      61.080  28.502  53.143  1.00  0.00     0.164 HD
ATOM     11  O   UNL     1      58.858  30.656  52.242  1.00  0.00    -0.273 OA
BRANCH   9  12
ATOM     12  C   UNL     1      61.685  30.570  52.840  1.00  0.00     0.174 CG0
ATOM     13  G   UNL     1      62.903  30.134  52.041  1.00  0.00     0.000 G0
BRANCH  12  14
ATOM     14  C   UNL     1      61.964  31.124  54.285  1.00  0.00     0.018 C 
ATOM     15  C   UNL     1      61.224  30.285  55.345  1.00  0.00     0.010 C 
BRANCH  14  16
ATOM     16  C   UNL     1      61.658  32.634  54.450  1.00  0.00     0.002 C 
ATOM     17  C   UNL     1      62.494  33.524  53.529  1.00  0.00     0.004 C 
ENDBRANCH  14  16
ENDBRANCH  12  14
ENDBRANCH   9  12
ENDBRANCH   7   8
BRANCH   7  18
ATOM     18  C   UNL     1      58.059  28.618  50.319  1.00  0.00     0.073 C 
BRANCH  18  19
ATOM     19  C   UNL     1      56.666  28.048  50.374  1.00  0.00    -0.016 A 
ATOM     20  C   UNL     1      56.291  26.793  49.915  1.00  0.00     0.134 A 
ATOM     21  C   UNL     1      55.491  28.678  50.743  1.00  0.00     0.006 A 
ATOM     22  N   UNL     1      54.954  26.650  49.950  1.00  0.00    -0.191 N 
ATOM     23  C   UNL     1      54.455  27.808  50.466  1.00  0.00     0.087 A 
ATOM     24  C   UNL     1      55.266  29.941  51.293  1.00  0.00     0.011 A 
ATOM     25  C   UNL     1      53.127  28.166  50.734  1.00  0.00     0.030 A 
ATOM     26  C   UNL     1      53.939  30.323  51.559  1.00  0.00     0.001 A 
ATOM     27  C   UNL     1      52.877  29.442  51.275  1.00  0.00     0.002 A 
BRANCH  22  28
ATOM     28  O   UNL     1      54.309  25.510  49.494  1.00  0.00    -0.417 OA
ATOM     29  C   UNL     1      53.875  24.447  50.334  1.00  0.00     0.313 C 
ENDBRANCH  22  28
ENDBRANCH  18  19
ENDBRANCH   7  18
ENDBRANCH   4   7
ENDBRANCH   2   3
BRANCH   2  30
ATOM     30  N   UNL     1      62.892  27.219  50.217  1.00  0.00    -0.343 N 
ATOM     31  C   UNL     1      63.519  28.151  49.331  1.00  0.00     0.243 C 
ATOM     32  H   UNL     1      63.082  27.317  51.240  1.00  0.00     0.164 HD
ATOM     33  O   UNL     1      63.641  27.867  48.114  1.00  0.00    -0.273 OA
BRANCH  31  34
ATOM     34  C   UNL     1      63.988  29.483  49.867  1.00  0.00     0.174 C 
ATOM     35  N   UNL     1      62.879  30.118  50.604  1.00  0.00    -0.329 N 
ATOM     36  C   UNL     1      64.526  30.438  48.764  1.00  0.00     0.035 C 
ATOM     37  C   UNL     1      62.037  31.059  49.870  1.00  0.00     0.120 C 
ATOM     38  C   UNL     1      64.364  31.903  49.214  1.00  0.00     0.004 C 
ATOM     39  C   UNL     1      62.882  32.275  49.439  1.00  0.00     0.022 C 
BRANCH  35  40
ATOM     40  C   UNL     1      62.905  30.157  52.044  1.00  0.00     0.246 CG0
ATOM     41  O   UNL     1      63.920  29.723  52.652  1.00  0.00    -0.272 OA
ATOM     42  G   UNL     1      61.669  30.562  52.830  1.00  0.00     0.000 G0
ENDBRANCH  35  40
ENDBRANCH  31  34
ENDBRANCH   2  30
ENDBRANCH   1   2
BRANCH   1  43
ATOM     43  C   UNL     1      60.573  24.149  50.244  1.00  0.00     0.003 C 
BRANCH  43  44
ATOM     44  C   UNL     1      61.039  22.763  49.751  1.00  0.00     0.001 C 
BRANCH  44  45
ATOM     45  C   UNL     1      61.246  21.756  50.893  1.00  0.00     0.008 C 
BRANCH  45  46
ATOM     46  C   UNL     1      59.929  21.318  51.553  1.00  0.00     0.075 C 
BRANCH  46  47
ATOM     47  C   UNL     1      59.410  20.003  51.021  1.00  0.00     0.132 C 
ATOM     48  O   UNL     1      59.999  19.456  50.101  1.00  0.00    -0.300 OA
BRANCH  47  49
ATOM     49  C   UNL     1      58.225  19.317  51.656  1.00  0.00     0.072 C 
ATOM     50  C   UNL     1      58.509  17.858  52.014  1.00  0.00     0.012 C 
ENDBRANCH  47  49
ENDBRANCH  46  47
ENDBRANCH  45  46
ENDBRANCH  44  45
ENDBRANCH  43  44
ENDBRANCH   1  43
TORSDOF 12
ENDMDL
MODEL 9
REMARK VINA RESULT:    -3.998      4.371      8.018
REMARK INTER + INTRA:         -10.004
REMARK INTER:                  -6.340
REMARK INTRA:                  -3.664
REMARK UNBOUND:                -1.565
REMARK SMILES CCC(=O)CCCCC[C@@H]1NC(=O)[C@H]2CCCCN2C(=O)[C@H]([C@H](C)CC)NC(=O)[C@@H](Cc2cn(OC)c3ccccc23)NC1=O
REMARK SMILES IDX 9 1 10 2 44 3 43 4 45 6 30 7 28 8 27 9 29 11 22 12 23 14
REMARK SMILES IDX 24 15 25 16 26 17 31 18 32 19 33 20 42 21 34 22 37 23 41 24
REMARK SMILES IDX 38 25 40 26 39 27 35 28 36 29 11 30 12 31 13 33 14 34 19 35
REMARK SMILES IDX 15 36 18 37 16 38 17 39 20 40 21 41 8 43 7 44 6 45 5 46 3 47
REMARK SMILES IDX 4 48 2 49 1 50
REMARK H PARENT 43 5 27 10 11 32
REMARK Flexibility Score: 80.00
ROOT
ATOM      1  C   UNL     1      60.088  29.468  49.973  1.00  0.00     0.035 C 
ENDROOT
BRANCH   1   2
ATOM      2  C   UNL     1      61.477  29.943  50.434  1.00  0.00     0.171 C 
BRANCH   2   3
ATOM      3  C   UNL     1      62.276  28.822  51.056  1.00  0.00     0.243 C 
ATOM      4  N   UNL     1      62.559  27.627  50.302  1.00  0.00    -0.342 N 
ATOM      5  H   UNL     1      62.136  27.526  49.352  1.00  0.00     0.164 HD
ATOM      6  O   UNL     1      62.777  28.984  52.197  1.00  0.00    -0.273 OA
BRANCH   4   7
ATOM      7  C   UNL     1      63.541  26.613  50.702  1.00  0.00     0.175 C 
BRANCH   7   8
ATOM      8  C   UNL     1      64.944  27.097  50.400  1.00  0.00     0.243 C 
ATOM      9  N   UNL     1      65.373  27.182  49.037  1.00  0.00    -0.342 N 
ATOM     10  H   UNL     1      64.840  26.628  48.332  1.00  0.00     0.164 HD
ATOM     11  O   UNL     1      65.714  27.477  51.316  1.00  0.00    -0.273 OA
BRANCH   9  12
ATOM     12  C   UNL     1      66.236  28.278  48.587  1.00  0.00     0.174 CG0
ATOM     13  G   UNL     1      65.363  29.458  48.189  1.00  0.00     0.000 G0
BRANCH  12  14
ATOM     14  C   UNL     1      67.246  27.762  47.498  1.00  0.00     0.018 C 
ATOM     15  C   UNL     1      66.817  26.382  46.963  1.00  0.00     0.010 C 
BRANCH  14  16
ATOM     16  C   UNL     1      68.723  27.750  47.965  1.00  0.00     0.002 C 
ATOM     17  C   UNL     1      68.914  28.299  49.381  1.00  0.00     0.004 C 
ENDBRANCH  14  16
ENDBRANCH  12  14
ENDBRANCH   9  12
ENDBRANCH   7   8
BRANCH   7  18
ATOM     18  C   UNL     1      63.297  26.215  52.170  1.00  0.00     0.073 C 
BRANCH  18  19
ATOM     19  C   UNL     1      63.274  24.722  52.370  1.00  0.00    -0.016 A 
ATOM     20  C   UNL     1      64.029  23.803  51.654  1.00  0.00     0.134 A 
ATOM     21  C   UNL     1      62.430  23.973  53.168  1.00  0.00     0.006 A 
ATOM     22  N   UNL     1      63.656  22.544  51.949  1.00  0.00    -0.191 N 
ATOM     23  C   UNL     1      62.674  22.643  52.888  1.00  0.00     0.087 A 
ATOM     24  C   UNL     1      61.474  24.365  54.107  1.00  0.00     0.011 A 
ATOM     25  C   UNL     1      61.965  21.630  53.547  1.00  0.00     0.030 A 
ATOM     26  C   UNL     1      60.745  23.363  54.771  1.00  0.00     0.001 A 
ATOM     27  C   UNL     1      60.985  22.005  54.487  1.00  0.00     0.002 A 
BRANCH  22  28
ATOM     28  O   UNL     1      64.211  21.433  51.333  1.00  0.00    -0.417 OA
ATOM     29  C   UNL     1      64.916  20.405  52.021  1.00  0.00     0.313 C 
ENDBRANCH  22  28
ENDBRANCH  18  19
ENDBRANCH   7  18
ENDBRANCH   4   7
ENDBRANCH   2   3
BRANCH   2  30
ATOM     30  N   UNL     1      62.233  30.478  49.299  1.00  0.00    -0.343 N 
ATOM     31  C   UNL     1      63.041  31.654  49.403  1.00  0.00     0.243 C 
ATOM     32  H   UNL     1      62.380  29.860  48.469  1.00  0.00     0.164 HD
ATOM     33  O   UNL     1      62.668  32.602  50.138  1.00  0.00    -0.273 OA
BRANCH  31  34
ATOM     34  C   UNL     1      64.355  31.720  48.661  1.00  0.00     0.174 C 
ATOM     35  N   UNL     1      65.194  30.580  49.073  1.00  0.00    -0.329 N 
ATOM     36  C   UNL     1      65.115  33.061  48.869  1.00  0.00     0.035 C 
ATOM     37  C   UNL     1      66.150  30.806  50.155  1.00  0.00     0.120 C 
ATOM     38  C   UNL     1      66.629  32.840  48.676  1.00  0.00     0.004 C 
ATOM     39  C   UNL     1      67.201  31.840  49.704  1.00  0.00     0.022 C 
BRANCH  35  40
ATOM     40  C   UNL     1      65.381  29.467  48.178  1.00  0.00     0.246 CG0
ATOM     41  O   UNL     1      64.710  29.415  47.113  1.00  0.00    -0.272 OA
ATOM     42  G   UNL     1      66.250  28.286  48.581  1.00  0.00     0.000 G0
ENDBRANCH  35  40
ENDBRANCH  31  34
ENDBRANCH   2  30
ENDBRANCH   1   2
BRANCH   1  43
ATOM     43  C   UNL     1      59.005  29.636  51.054  1.00  0.00     0.003 C 
BRANCH  43  44
ATOM     44  C   UNL     1      58.780  28.347  51.870  1.00  0.00     0.001 C 
BRANCH  44  45
ATOM     45  C   UNL     1      58.632  27.096  50.990  1.00  0.00     0.008 C 
BRANCH  45  46
ATOM     46  C   UNL     1      59.549  25.942  51.428  1.00  0.00     0.075 C 
BRANCH  46  47
ATOM     47  C   UNL     1      59.994  25.071  50.276  1.00  0.00     0.132 C 
ATOM     48  O   UNL     1      60.476  25.593  49.284  1.00  0.00    -0.300 OA
BRANCH  47  49
ATOM     49  C   UNL     1      59.925  23.566  50.364  1.00  0.00     0.072 C 
ATOM     50  C   UNL     1      61.097  22.878  49.663  1.00  0.00     0.012 C 
ENDBRANCH  47  49
ENDBRANCH  46  47
ENDBRANCH  45  46
ENDBRANCH  44  45
ENDBRANCH  43  44
ENDBRANCH   1  43
TORSDOF 12
ENDMDL
