MODEL 1
REMARK VINA RESULT:    -7.686      0.000      0.000
REMARK INTER + INTRA:         -11.273
REMARK INTER:                 -10.157
REMARK INTRA:                  -1.116
REMARK UNBOUND:                -1.116
REMARK SMILES CC[C@@H](C=C[C@H](C)[C@@H]1CC[C@@H]2[C@@H]3CC=C4C[C@H](O)CC[C@@]4(C)[C@H]3CC[C@@]21C)C(C)C
REMARK SMILES IDX 6 1 7 2 5 3 4 4 3 5 2 6 1 7 28 8 29 9 30 10 8 11 9 12 26 13
REMARK SMILES IDX 10 14 11 15 25 16 27 17 12 18 24 19 23 20 13 21 21 22 14 23
REMARK SMILES IDX 15 24 20 25 22 26 16 27 19 28 17 29 18 30
REMARK H PARENT 18 31
REMARK Flexibility Score: inf
ROOT
ATOM      1  C   UNL     1      45.207  11.521  21.537  1.00  0.00     0.012 C 
ATOM      2  C   UNL     1      43.834  12.003  21.041  1.00  0.00     0.012 C 
ENDROOT
BRANCH   1   3
ATOM      3  C   UNL     1      46.225  12.636  21.370  1.00  0.00    -0.028 C 
ATOM      4  C   UNL     1      46.976  12.780  20.263  1.00  0.00    -0.027 C 
BRANCH   4   5
ATOM      5  C   UNL     1      48.038  13.858  20.106  1.00  0.00     0.014 C 
BRANCH   5   6
ATOM      6  C   UNL     1      47.538  15.223  20.654  1.00  0.00     0.004 C 
ATOM      7  C   UNL     1      48.315  15.775  21.853  1.00  0.00     0.004 C 
ENDBRANCH   5   6
BRANCH   5   8
ATOM      8  C   UNL     1      48.650  13.890  18.667  1.00  0.00    -0.011 C 
ATOM      9  C   UNL     1      49.627  15.062  18.462  1.00  0.00     0.008 C 
ATOM     10  C   UNL     1      49.393  12.578  18.363  1.00  0.00     0.008 C 
ENDBRANCH   5   8
ENDBRANCH   4   5
ENDBRANCH   1   3
BRANCH   1  11
ATOM     11  C   UNL     1      45.195  10.991  23.011  1.00  0.00     0.002 C 
ATOM     12  C   UNL     1      46.052  11.877  23.936  1.00  0.00     0.005 C 
ATOM     13  C   UNL     1      45.698   9.534  23.275  1.00  0.00    -0.026 C 
ATOM     14  C   UNL     1      46.660  10.972  25.001  1.00  0.00     0.005 C 
ATOM     15  C   UNL     1      46.055   9.581  24.780  1.00  0.00    -0.001 C 
ATOM     16  C   UNL     1      46.969   9.202  22.436  1.00  0.00     0.007 C 
ATOM     17  C   UNL     1      44.576   8.491  23.031  1.00  0.00     0.012 C 
ATOM     18  C   UNL     1      46.923   8.387  25.294  1.00  0.00     0.000 C 
ATOM     19  C   UNL     1      47.687   7.943  22.920  1.00  0.00     0.005 C 
ATOM     20  C   UNL     1      48.140   8.073  24.394  1.00  0.00     0.003 C 
ATOM     21  C   UNL     1      47.409   8.641  26.728  1.00  0.00     0.031 C 
ATOM     22  C   UNL     1      48.975   6.825  24.918  1.00  0.00    -0.008 C 
ATOM     23  C   UNL     1      48.192   7.480  27.245  1.00  0.00    -0.027 C 
ATOM     24  C   UNL     1      48.958   6.700  26.454  1.00  0.00    -0.065 C 
ATOM     25  C   UNL     1      48.418   5.476  24.353  1.00  0.00     0.014 C 
ATOM     26  C   UNL     1      50.442   7.018  24.452  1.00  0.00     0.016 C 
ATOM     27  C   UNL     1      49.625   5.489  27.072  1.00  0.00     0.063 C 
ATOM     28  C   UNL     1      49.067   4.218  24.964  1.00  0.00     0.033 C 
ATOM     29  C   UNL     1      48.991   4.216  26.497  1.00  0.00     0.118 C 
BRANCH  29  30
ATOM     30  O   UNL     1      49.664   3.086  26.987  1.00  0.00    -0.393 OA
ATOM     31  H   UNL     1      49.536   2.365  26.316  1.00  0.00     0.210 HD
ENDBRANCH  29  30
ENDBRANCH   1  11
TORSDOF 6
ENDMDL
MODEL 2
REMARK VINA RESULT:    -7.179      1.900      2.510
REMARK INTER + INTRA:         -10.603
REMARK INTER:                  -9.524
REMARK INTRA:                  -1.079
REMARK UNBOUND:                -1.116
REMARK SMILES CC[C@@H](C=C[C@H](C)[C@@H]1CC[C@@H]2[C@@H]3CC=C4C[C@H](O)CC[C@@]4(C)[C@H]3CC[C@@]21C)C(C)C
REMARK SMILES IDX 6 1 7 2 5 3 4 4 3 5 2 6 1 7 28 8 29 9 30 10 8 11 9 12 26 13
REMARK SMILES IDX 10 14 11 15 25 16 27 17 12 18 24 19 23 20 13 21 21 22 14 23
REMARK SMILES IDX 15 24 20 25 22 26 16 27 19 28 17 29 18 30
REMARK H PARENT 18 31
REMARK Flexibility Score: inf
ROOT
ATOM      1  C   UNL     1      45.592  11.322  21.457  1.00  0.00     0.012 C 
ATOM      2  C   UNL     1      44.219  12.008  21.561  1.00  0.00     0.012 C 
ENDROOT
BRANCH   1   3
ATOM      3  C   UNL     1      46.672  12.377  21.294  1.00  0.00    -0.028 C 
ATOM      4  C   UNL     1      46.952  12.960  20.113  1.00  0.00    -0.027 C 
BRANCH   4   5
ATOM      5  C   UNL     1      48.068  13.976  19.925  1.00  0.00     0.014 C 
BRANCH   5   6
ATOM      6  C   UNL     1      47.642  15.381  20.432  1.00  0.00     0.004 C 
ATOM      7  C   UNL     1      48.182  15.775  21.810  1.00  0.00     0.004 C 
ENDBRANCH   5   6
BRANCH   5   8
ATOM      8  C   UNL     1      48.679  13.934  18.485  1.00  0.00    -0.011 C 
ATOM      9  C   UNL     1      49.593  15.137  18.192  1.00  0.00     0.008 C 
ATOM     10  C   UNL     1      49.490  12.643  18.276  1.00  0.00     0.008 C 
ENDBRANCH   5   8
ENDBRANCH   4   5
ENDBRANCH   1   3
BRANCH   1  11
ATOM     11  C   UNL     1      45.915  10.374  22.660  1.00  0.00     0.002 C 
ATOM     12  C   UNL     1      47.249  10.750  23.333  1.00  0.00     0.005 C 
ATOM     13  C   UNL     1      46.027   8.839  22.380  1.00  0.00    -0.026 C 
ATOM     14  C   UNL     1      47.882   9.461  23.844  1.00  0.00     0.005 C 
ATOM     15  C   UNL     1      46.859   8.348  23.588  1.00  0.00    -0.001 C 
ATOM     16  C   UNL     1      46.791   8.551  21.053  1.00  0.00     0.007 C 
ATOM     17  C   UNL     1      44.634   8.156  22.386  1.00  0.00     0.012 C 
ATOM     18  C   UNL     1      47.459   6.912  23.442  1.00  0.00     0.000 C 
ATOM     19  C   UNL     1      47.227   7.091  20.925  1.00  0.00     0.005 C 
ATOM     20  C   UNL     1      48.160   6.669  22.086  1.00  0.00     0.003 C 
ATOM     21  C   UNL     1      48.445   6.611  24.580  1.00  0.00     0.031 C 
ATOM     22  C   UNL     1      48.718   5.186  21.949  1.00  0.00    -0.008 C 
ATOM     23  C   UNL     1      48.979   5.221  24.476  1.00  0.00    -0.027 C 
ATOM     24  C   UNL     1      49.176   4.596  23.298  1.00  0.00    -0.065 C 
ATOM     25  C   UNL     1      47.637   4.210  21.378  1.00  0.00     0.014 C 
ATOM     26  C   UNL     1      49.936   5.233  20.989  1.00  0.00     0.016 C 
ATOM     27  C   UNL     1      49.624   3.149  23.319  1.00  0.00     0.063 C 
ATOM     28  C   UNL     1      48.053   2.726  21.390  1.00  0.00     0.033 C 
ATOM     29  C   UNL     1      48.492   2.262  22.786  1.00  0.00     0.118 C 
BRANCH  29  30
ATOM     30  O   UNL     1      48.928   0.930  22.709  1.00  0.00    -0.393 OA
ATOM     31  H   UNL     1      49.879   0.957  22.425  1.00  0.00     0.210 HD
ENDBRANCH  29  30
ENDBRANCH   1  11
TORSDOF 6
ENDMDL
MODEL 3
REMARK VINA RESULT:    -7.047      4.210      9.169
REMARK INTER + INTRA:         -10.429
REMARK INTER:                  -9.259
REMARK INTRA:                  -1.170
REMARK UNBOUND:                -1.116
REMARK SMILES CC[C@@H](C=C[C@H](C)[C@@H]1CC[C@@H]2[C@@H]3CC=C4C[C@H](O)CC[C@@]4(C)[C@H]3CC[C@@]21C)C(C)C
REMARK SMILES IDX 6 1 7 2 5 3 4 4 3 5 2 6 1 7 28 8 29 9 30 10 8 11 9 12 26 13
REMARK SMILES IDX 10 14 11 15 25 16 27 17 12 18 24 19 23 20 13 21 21 22 14 23
REMARK SMILES IDX 15 24 20 25 22 26 16 27 19 28 17 29 18 30
REMARK H PARENT 18 31
REMARK Flexibility Score: inf
ROOT
ATOM      1  C   UNL     1      48.748   3.186  21.257  1.00  0.00     0.012 C 
ATOM      2  C   UNL     1      49.890   2.230  20.871  1.00  0.00     0.012 C 
ENDROOT
BRANCH   1   3
ATOM      3  C   UNL     1      47.637   2.400  21.931  1.00  0.00    -0.028 C 
ATOM      4  C   UNL     1      46.447   2.167  21.345  1.00  0.00    -0.027 C 
BRANCH   4   5
ATOM      5  C   UNL     1      45.308   1.430  22.031  1.00  0.00     0.014 C 
BRANCH   5   6
ATOM      6  C   UNL     1      45.784   0.069  22.609  1.00  0.00     0.004 C 
ATOM      7  C   UNL     1      45.797  -0.029  24.137  1.00  0.00     0.004 C 
ENDBRANCH   5   6
BRANCH   5   8
ATOM      8  C   UNL     1      44.015   1.376  21.151  1.00  0.00    -0.011 C 
ATOM      9  C   UNL     1      42.950   0.420  21.717  1.00  0.00     0.008 C 
ATOM     10  C   UNL     1      43.391   2.776  21.016  1.00  0.00     0.008 C 
ENDBRANCH   5   8
ENDBRANCH   4   5
ENDBRANCH   1   3
BRANCH   1  11
ATOM     11  C   UNL     1      49.207   4.385  22.153  1.00  0.00     0.002 C 
ATOM     12  C   UNL     1      48.569   4.319  23.554  1.00  0.00     0.005 C 
ATOM     13  C   UNL     1      48.913   5.837  21.649  1.00  0.00    -0.026 C 
ATOM     14  C   UNL     1      48.351   5.752  24.025  1.00  0.00     0.005 C 
ATOM     15  C   UNL     1      48.981   6.656  22.959  1.00  0.00    -0.001 C 
ATOM     16  C   UNL     1      47.492   5.951  21.020  1.00  0.00     0.007 C 
ATOM     17  C   UNL     1      50.005   6.328  20.662  1.00  0.00     0.012 C 
ATOM     18  C   UNL     1      48.385   8.099  22.872  1.00  0.00     0.000 C 
ATOM     19  C   UNL     1      47.037   7.400  20.844  1.00  0.00     0.005 C 
ATOM     20  C   UNL     1      46.998   8.156  22.194  1.00  0.00     0.003 C 
ATOM     21  C   UNL     1      48.293   8.739  24.265  1.00  0.00     0.031 C 
ATOM     22  C   UNL     1      46.440   9.641  22.078  1.00  0.00    -0.008 C 
ATOM     23  C   UNL     1      47.777  10.137  24.182  1.00  0.00    -0.027 C 
ATOM     24  C   UNL     1      46.888  10.538  23.250  1.00  0.00    -0.065 C 
ATOM     25  C   UNL     1      46.927  10.342  20.767  1.00  0.00     0.014 C 
ATOM     26  C   UNL     1      44.891   9.559  22.081  1.00  0.00     0.016 C 
ATOM     27  C   UNL     1      46.515  12.005  23.198  1.00  0.00     0.063 C 
ATOM     28  C   UNL     1      46.573  11.840  20.681  1.00  0.00     0.033 C 
ATOM     29  C   UNL     1      47.067  12.621  21.907  1.00  0.00     0.118 C 
BRANCH  29  30
ATOM     30  O   UNL     1      46.646  13.956  21.799  1.00  0.00    -0.393 OA
ATOM     31  H   UNL     1      45.654  13.944  21.825  1.00  0.00     0.210 HD
ENDBRANCH  29  30
ENDBRANCH   1  11
TORSDOF 6
ENDMDL
MODEL 4
REMARK VINA RESULT:    -6.989      4.180      8.776
REMARK INTER + INTRA:         -10.352
REMARK INTER:                  -8.849
REMARK INTRA:                  -1.503
REMARK UNBOUND:                -1.116
REMARK SMILES CC[C@@H](C=C[C@H](C)[C@@H]1CC[C@@H]2[C@@H]3CC=C4C[C@H](O)CC[C@@]4(C)[C@H]3CC[C@@]21C)C(C)C
REMARK SMILES IDX 6 1 7 2 5 3 4 4 3 5 2 6 1 7 28 8 29 9 30 10 8 11 9 12 26 13
REMARK SMILES IDX 10 14 11 15 25 16 27 17 12 18 24 19 23 20 13 21 21 22 14 23
REMARK SMILES IDX 15 24 20 25 22 26 16 27 19 28 17 29 18 30
REMARK H PARENT 18 31
REMARK Flexibility Score: inf
ROOT
ATOM      1  C   UNL     1      47.798   2.488  21.233  1.00  0.00     0.012 C 
ATOM      2  C   UNL     1      48.749   1.314  20.948  1.00  0.00     0.012 C 
ENDROOT
BRANCH   1   3
ATOM      3  C   UNL     1      46.395   1.955  21.472  1.00  0.00    -0.028 C 
ATOM      4  C   UNL     1      45.309   2.450  20.849  1.00  0.00    -0.027 C 
BRANCH   4   5
ATOM      5  C   UNL     1      43.894   1.964  21.122  1.00  0.00     0.014 C 
BRANCH   5   6
ATOM      6  C   UNL     1      42.924   3.156  21.349  1.00  0.00     0.004 C 
ATOM      7  C   UNL     1      43.590   4.491  21.692  1.00  0.00     0.004 C 
ENDBRANCH   5   6
BRANCH   5   8
ATOM      8  C   UNL     1      43.847   0.837  22.206  1.00  0.00    -0.011 C 
ATOM      9  C   UNL     1      43.422   1.361  23.590  1.00  0.00     0.008 C 
ATOM     10  C   UNL     1      42.875  -0.279  21.788  1.00  0.00     0.008 C 
ENDBRANCH   5   8
ENDBRANCH   4   5
ENDBRANCH   1   3
BRANCH   1  11
ATOM     11  C   UNL     1      48.259   3.399  22.419  1.00  0.00     0.002 C 
ATOM     12  C   UNL     1      47.410   3.155  23.682  1.00  0.00     0.005 C 
ATOM     13  C   UNL     1      48.230   4.950  22.213  1.00  0.00    -0.026 C 
ATOM     14  C   UNL     1      47.303   4.482  24.425  1.00  0.00     0.005 C 
ATOM     15  C   UNL     1      48.198   5.471  23.669  1.00  0.00    -0.001 C 
ATOM     16  C   UNL     1      46.948   5.406  21.454  1.00  0.00     0.007 C 
ATOM     17  C   UNL     1      49.514   5.453  21.501  1.00  0.00     0.012 C 
ATOM     18  C   UNL     1      47.807   6.977  23.827  1.00  0.00     0.000 C 
ATOM     19  C   UNL     1      46.710   6.913  21.544  1.00  0.00     0.005 C 
ATOM     20  C   UNL     1      46.559   7.382  23.011  1.00  0.00     0.003 C 
ATOM     21  C   UNL     1      47.583   7.333  25.303  1.00  0.00     0.031 C 
ATOM     22  C   UNL     1      46.216   8.928  23.155  1.00  0.00    -0.008 C 
ATOM     23  C   UNL     1      47.265   8.783  25.465  1.00  0.00    -0.027 C 
ATOM     24  C   UNL     1      46.587   9.493  24.541  1.00  0.00    -0.065 C 
ATOM     25  C   UNL     1      46.982   9.792  22.100  1.00  0.00     0.014 C 
ATOM     26  C   UNL     1      44.686   9.087  22.947  1.00  0.00     0.016 C 
ATOM     27  C   UNL     1      46.412  10.981  24.766  1.00  0.00     0.063 C 
ATOM     28  C   UNL     1      46.836  11.314  22.300  1.00  0.00     0.033 C 
ATOM     29  C   UNL     1      47.229  11.749  23.719  1.00  0.00     0.118 C 
BRANCH  29  30
ATOM     30  O   UNL     1      47.000  13.127  23.855  1.00  0.00    -0.393 OA
ATOM     31  H   UNL     1      47.786  13.501  24.333  1.00  0.00     0.210 HD
ENDBRANCH  29  30
ENDBRANCH   1  11
TORSDOF 6
ENDMDL
MODEL 5
REMARK VINA RESULT:    -6.972      1.902      3.096
REMARK INTER + INTRA:         -10.329
REMARK INTER:                  -9.391
REMARK INTRA:                  -0.938
REMARK UNBOUND:                -1.116
REMARK SMILES CC[C@@H](C=C[C@H](C)[C@@H]1CC[C@@H]2[C@@H]3CC=C4C[C@H](O)CC[C@@]4(C)[C@H]3CC[C@@]21C)C(C)C
REMARK SMILES IDX 6 1 7 2 5 3 4 4 3 5 2 6 1 7 28 8 29 9 30 10 8 11 9 12 26 13
REMARK SMILES IDX 10 14 11 15 25 16 27 17 12 18 24 19 23 20 13 21 21 22 14 23
REMARK SMILES IDX 15 24 20 25 22 26 16 27 19 28 17 29 18 30
REMARK H PARENT 18 31
REMARK Flexibility Score: inf
ROOT
ATOM      1  C   UNL     1      48.919   9.835  19.229  1.00  0.00     0.012 C 
ATOM      2  C   UNL     1      49.148   8.996  17.960  1.00  0.00     0.012 C 
ENDROOT
BRANCH   1   3
ATOM      3  C   UNL     1      48.806  11.302  18.850  1.00  0.00    -0.028 C 
ATOM      4  C   UNL     1      49.622  11.891  17.955  1.00  0.00    -0.027 C 
BRANCH   4   5
ATOM      5  C   UNL     1      49.556  13.370  17.610  1.00  0.00     0.014 C 
BRANCH   5   6
ATOM      6  C   UNL     1      48.865  14.181  18.740  1.00  0.00     0.004 C 
ATOM      7  C   UNL     1      49.621  15.426  19.214  1.00  0.00     0.004 C 
ENDBRANCH   5   6
BRANCH   5   8
ATOM      8  C   UNL     1      49.012  13.624  16.165  1.00  0.00    -0.011 C 
ATOM      9  C   UNL     1      49.326  15.040  15.652  1.00  0.00     0.008 C 
ATOM     10  C   UNL     1      49.601  12.605  15.175  1.00  0.00     0.008 C 
ENDBRANCH   5   8
ENDBRANCH   4   5
ENDBRANCH   1   3
BRANCH   1  11
ATOM     11  C   UNL     1      47.681   9.379  20.071  1.00  0.00     0.002 C 
ATOM     12  C   UNL     1      47.124  10.533  20.928  1.00  0.00     0.005 C 
ATOM     13  C   UNL     1      47.867   8.192  21.073  1.00  0.00    -0.026 C 
ATOM     14  C   UNL     1      46.574   9.925  22.212  1.00  0.00     0.005 C 
ATOM     15  C   UNL     1      46.688   8.405  22.052  1.00  0.00    -0.001 C 
ATOM     16  C   UNL     1      49.221   8.292  21.839  1.00  0.00     0.007 C 
ATOM     17  C   UNL     1      47.724   6.820  20.363  1.00  0.00     0.012 C 
ATOM     18  C   UNL     1      46.780   7.598  23.388  1.00  0.00     0.000 C 
ATOM     19  C   UNL     1      49.282   7.372  23.058  1.00  0.00     0.005 C 
ATOM     20  C   UNL     1      48.161   7.694  24.075  1.00  0.00     0.003 C 
ATOM     21  C   UNL     1      45.693   8.047  24.375  1.00  0.00     0.031 C 
ATOM     22  C   UNL     1      48.238   6.826  25.406  1.00  0.00    -0.008 C 
ATOM     23  C   UNL     1      45.741   7.242  25.631  1.00  0.00    -0.027 C 
ATOM     24  C   UNL     1      46.887   6.750  26.145  1.00  0.00    -0.065 C 
ATOM     25  C   UNL     1      48.670   5.352  25.112  1.00  0.00     0.014 C 
ATOM     26  C   UNL     1      49.278   7.498  26.341  1.00  0.00     0.016 C 
ATOM     27  C   UNL     1      46.801   5.861  27.368  1.00  0.00     0.063 C 
ATOM     28  C   UNL     1      48.589   4.412  26.332  1.00  0.00     0.033 C 
ATOM     29  C   UNL     1      47.198   4.431  26.982  1.00  0.00     0.118 C 
BRANCH  29  30
ATOM     30  O   UNL     1      47.217   3.617  28.125  1.00  0.00    -0.393 OA
ATOM     31  H   UNL     1      46.841   4.160  28.867  1.00  0.00     0.210 HD
ENDBRANCH  29  30
ENDBRANCH   1  11
TORSDOF 6
ENDMDL
MODEL 6
REMARK VINA RESULT:    -6.930      4.975     10.222
REMARK INTER + INTRA:         -10.274
REMARK INTER:                  -8.647
REMARK INTRA:                  -1.627
REMARK UNBOUND:                -1.116
REMARK SMILES CC[C@@H](C=C[C@H](C)[C@@H]1CC[C@@H]2[C@@H]3CC=C4C[C@H](O)CC[C@@]4(C)[C@H]3CC[C@@]21C)C(C)C
REMARK SMILES IDX 6 1 7 2 5 3 4 4 3 5 2 6 1 7 28 8 29 9 30 10 8 11 9 12 26 13
REMARK SMILES IDX 10 14 11 15 25 16 27 17 12 18 24 19 23 20 13 21 21 22 14 23
REMARK SMILES IDX 15 24 20 25 22 26 16 27 19 28 17 29 18 30
REMARK H PARENT 18 31
REMARK Flexibility Score: inf
ROOT
ATOM      1  C   UNL     1      47.720  -1.116  22.800  1.00  0.00     0.012 C 
ATOM      2  C   UNL     1      48.275  -2.525  22.528  1.00  0.00     0.012 C 
ENDROOT
BRANCH   1   3
ATOM      3  C   UNL     1      46.251  -1.215  23.171  1.00  0.00    -0.028 C 
ATOM      4  C   UNL     1      45.349  -0.270  22.845  1.00  0.00    -0.027 C 
BRANCH   4   5
ATOM      5  C   UNL     1      43.887  -0.331  23.258  1.00  0.00     0.014 C 
BRANCH   5   6
ATOM      6  C   UNL     1      42.951   0.028  22.072  1.00  0.00     0.004 C 
ATOM      7  C   UNL     1      43.438   1.165  21.169  1.00  0.00     0.004 C 
ENDBRANCH   5   6
BRANCH   5   8
ATOM      8  C   UNL     1      43.610   0.437  24.593  1.00  0.00    -0.011 C 
ATOM      9  C   UNL     1      43.934  -0.404  25.841  1.00  0.00     0.008 C 
ATOM     10  C   UNL     1      44.433   1.736  24.654  1.00  0.00     0.008 C 
ENDBRANCH   5   8
ENDBRANCH   4   5
ENDBRANCH   1   3
BRANCH   1  11
ATOM     11  C   UNL     1      48.519  -0.324  23.889  1.00  0.00     0.002 C 
ATOM     12  C   UNL     1      47.730  -0.228  25.210  1.00  0.00     0.005 C 
ATOM     13  C   UNL     1      48.941   1.148  23.569  1.00  0.00    -0.026 C 
ATOM     14  C   UNL     1      48.080   1.107  25.856  1.00  0.00     0.005 C 
ATOM     15  C   UNL     1      49.172   1.735  24.982  1.00  0.00    -0.001 C 
ATOM     16  C   UNL     1      47.802   1.929  22.846  1.00  0.00     0.007 C 
ATOM     17  C   UNL     1      50.260   1.198  22.754  1.00  0.00     0.012 C 
ATOM     18  C   UNL     1      49.263   3.294  25.046  1.00  0.00     0.000 C 
ATOM     19  C   UNL     1      48.034   3.440  22.836  1.00  0.00     0.005 C 
ATOM     20  C   UNL     1      48.137   4.014  24.270  1.00  0.00     0.003 C 
ATOM     21  C   UNL     1      49.264   3.783  26.502  1.00  0.00     0.031 C 
ATOM     22  C   UNL     1      48.284   5.597  24.316  1.00  0.00    -0.008 C 
ATOM     23  C   UNL     1      49.407   5.267  26.571  1.00  0.00    -0.027 C 
ATOM     24  C   UNL     1      48.908   6.098  25.633  1.00  0.00    -0.065 C 
ATOM     25  C   UNL     1      49.195   6.127  23.160  1.00  0.00     0.014 C 
ATOM     26  C   UNL     1      46.862   6.201  24.178  1.00  0.00     0.016 C 
ATOM     27  C   UNL     1      49.204   7.578  25.756  1.00  0.00     0.063 C 
ATOM     28  C   UNL     1      49.526   7.630  23.253  1.00  0.00     0.033 C 
ATOM     29  C   UNL     1      50.134   8.003  24.613  1.00  0.00     0.118 C 
BRANCH  29  30
ATOM     30  O   UNL     1      50.339   9.391  24.657  1.00  0.00    -0.393 OA
ATOM     31  H   UNL     1      51.012   9.602  23.958  1.00  0.00     0.210 HD
ENDBRANCH  29  30
ENDBRANCH   1  11
TORSDOF 6
ENDMDL
MODEL 7
REMARK VINA RESULT:    -6.885      4.499     10.000
REMARK INTER + INTRA:         -10.215
REMARK INTER:                  -8.664
REMARK INTRA:                  -1.550
REMARK UNBOUND:                -1.116
REMARK SMILES CC[C@@H](C=C[C@H](C)[C@@H]1CC[C@@H]2[C@@H]3CC=C4C[C@H](O)CC[C@@]4(C)[C@H]3CC[C@@]21C)C(C)C
REMARK SMILES IDX 6 1 7 2 5 3 4 4 3 5 2 6 1 7 28 8 29 9 30 10 8 11 9 12 26 13
REMARK SMILES IDX 10 14 11 15 25 16 27 17 12 18 24 19 23 20 13 21 21 22 14 23
REMARK SMILES IDX 15 24 20 25 22 26 16 27 19 28 17 29 18 30
REMARK H PARENT 18 31
REMARK Flexibility Score: inf
ROOT
ATOM      1  C   UNL     1      48.233   0.111  22.235  1.00  0.00     0.012 C 
ATOM      2  C   UNL     1      49.097  -1.161  22.218  1.00  0.00     0.012 C 
ENDROOT
BRANCH   1   3
ATOM      3  C   UNL     1      47.024  -0.110  23.127  1.00  0.00    -0.028 C 
ATOM      4  C   UNL     1      45.759   0.055  22.698  1.00  0.00    -0.027 C 
BRANCH   4   5
ATOM      5  C   UNL     1      44.542  -0.109  23.595  1.00  0.00     0.014 C 
BRANCH   5   6
ATOM      6  C   UNL     1      43.226  -0.073  22.772  1.00  0.00     0.004 C 
ATOM      7  C   UNL     1      43.290   0.715  21.461  1.00  0.00     0.004 C 
ENDBRANCH   5   6
BRANCH   5   8
ATOM      8  C   UNL     1      44.586   0.837  24.841  1.00  0.00    -0.011 C 
ATOM      9  C   UNL     1      44.792   2.314  24.460  1.00  0.00     0.008 C 
ATOM     10  C   UNL     1      43.288   0.721  25.657  1.00  0.00     0.008 C 
ENDBRANCH   5   8
ENDBRANCH   4   5
ENDBRANCH   1   3
BRANCH   1  11
ATOM     11  C   UNL     1      49.016   1.398  22.664  1.00  0.00     0.002 C 
ATOM     12  C   UNL     1      48.776   1.736  24.148  1.00  0.00     0.005 C 
ATOM     13  C   UNL     1      48.721   2.730  21.898  1.00  0.00    -0.026 C 
ATOM     14  C   UNL     1      48.815   3.254  24.283  1.00  0.00     0.005 C 
ATOM     15  C   UNL     1      49.208   3.798  22.905  1.00  0.00    -0.001 C 
ATOM     16  C   UNL     1      47.198   2.911  21.623  1.00  0.00     0.007 C 
ATOM     17  C   UNL     1      49.544   2.826  20.587  1.00  0.00     0.012 C 
ATOM     18  C   UNL     1      48.735   5.258  22.605  1.00  0.00     0.000 C 
ATOM     19  C   UNL     1      46.836   4.336  21.204  1.00  0.00     0.005 C 
ATOM     20  C   UNL     1      47.226   5.368  22.290  1.00  0.00     0.003 C 
ATOM     21  C   UNL     1      49.076   6.195  23.773  1.00  0.00     0.031 C 
ATOM     22  C   UNL     1      46.786   6.856  21.944  1.00  0.00    -0.008 C 
ATOM     23  C   UNL     1      48.677   7.601  23.469  1.00  0.00    -0.027 C 
ATOM     24  C   UNL     1      47.607   7.913  22.709  1.00  0.00    -0.065 C 
ATOM     25  C   UNL     1      46.959   7.172  20.421  1.00  0.00     0.014 C 
ATOM     26  C   UNL     1      45.293   7.004  22.340  1.00  0.00     0.016 C 
ATOM     27  C   UNL     1      47.359   9.371  22.384  1.00  0.00     0.063 C 
ATOM     28  C   UNL     1      46.722   8.650  20.050  1.00  0.00     0.033 C 
ATOM     29  C   UNL     1      47.593   9.600  20.885  1.00  0.00     0.118 C 
BRANCH  29  30
ATOM     30  O   UNL     1      47.273  10.926  20.551  1.00  0.00    -0.393 OA
ATOM     31  H   UNL     1      47.012  11.377  21.396  1.00  0.00     0.210 HD
ENDBRANCH  29  30
ENDBRANCH   1  11
TORSDOF 6
ENDMDL
MODEL 8
REMARK VINA RESULT:    -6.867      4.319      9.735
REMARK INTER + INTRA:         -10.190
REMARK INTER:                  -9.354
REMARK INTRA:                  -0.837
REMARK UNBOUND:                -1.116
REMARK SMILES CC[C@@H](C=C[C@H](C)[C@@H]1CC[C@@H]2[C@@H]3CC=C4C[C@H](O)CC[C@@]4(C)[C@H]3CC[C@@]21C)C(C)C
REMARK SMILES IDX 6 1 7 2 5 3 4 4 3 5 2 6 1 7 28 8 29 9 30 10 8 11 9 12 26 13
REMARK SMILES IDX 10 14 11 15 25 16 27 17 12 18 24 19 23 20 13 21 21 22 14 23
REMARK SMILES IDX 15 24 20 25 22 26 16 27 19 28 17 29 18 30
REMARK H PARENT 18 31
REMARK Flexibility Score: inf
ROOT
ATOM      1  C   UNL     1      47.973   0.278  21.866  1.00  0.00     0.012 C 
ATOM      2  C   UNL     1      49.289  -0.272  22.441  1.00  0.00     0.012 C 
ENDROOT
BRANCH   1   3
ATOM      3  C   UNL     1      46.917   0.306  22.958  1.00  0.00    -0.028 C 
ATOM      4  C   UNL     1      45.714  -0.285  22.828  1.00  0.00    -0.027 C 
BRANCH   4   5
ATOM      5  C   UNL     1      44.629  -0.216  23.890  1.00  0.00     0.014 C 
BRANCH   5   6
ATOM      6  C   UNL     1      43.233   0.026  23.254  1.00  0.00     0.004 C 
ATOM      7  C   UNL     1      43.243   0.421  21.775  1.00  0.00     0.004 C 
ENDBRANCH   5   6
BRANCH   5   8
ATOM      8  C   UNL     1      45.008   0.737  25.072  1.00  0.00    -0.011 C 
ATOM      9  C   UNL     1      44.389   2.139  24.928  1.00  0.00     0.008 C 
ATOM     10  C   UNL     1      44.557   0.142  26.417  1.00  0.00     0.008 C 
ENDBRANCH   5   8
ENDBRANCH   4   5
ENDBRANCH   1   3
BRANCH   1  11
ATOM     11  C   UNL     1      48.117   1.684  21.193  1.00  0.00     0.002 C 
ATOM     12  C   UNL     1      49.590   2.007  20.871  1.00  0.00     0.005 C 
ATOM     13  C   UNL     1      47.596   2.934  21.975  1.00  0.00    -0.026 C 
ATOM     14  C   UNL     1      49.770   3.513  21.023  1.00  0.00     0.005 C 
ATOM     15  C   UNL     1      48.377   4.088  21.303  1.00  0.00    -0.001 C 
ATOM     16  C   UNL     1      47.956   2.856  23.490  1.00  0.00     0.007 C 
ATOM     17  C   UNL     1      46.072   3.139  21.770  1.00  0.00     0.012 C 
ATOM     18  C   UNL     1      48.359   5.443  22.082  1.00  0.00     0.000 C 
ATOM     19  C   UNL     1      47.783   4.194  24.209  1.00  0.00     0.005 C 
ATOM     20  C   UNL     1      48.674   5.297  23.588  1.00  0.00     0.003 C 
ATOM     21  C   UNL     1      49.340   6.447  21.457  1.00  0.00     0.031 C 
ATOM     22  C   UNL     1      48.602   6.686  24.360  1.00  0.00    -0.008 C 
ATOM     23  C   UNL     1      49.287   7.761  22.162  1.00  0.00    -0.027 C 
ATOM     24  C   UNL     1      49.029   7.878  23.481  1.00  0.00    -0.065 C 
ATOM     25  C   UNL     1      47.152   6.995  24.861  1.00  0.00     0.014 C 
ATOM     26  C   UNL     1      49.564   6.594  25.574  1.00  0.00     0.016 C 
ATOM     27  C   UNL     1      48.898   9.268  24.066  1.00  0.00     0.063 C 
ATOM     28  C   UNL     1      46.976   8.407  25.457  1.00  0.00     0.033 C 
ATOM     29  C   UNL     1      47.442   9.503  24.489  1.00  0.00     0.118 C 
BRANCH  29  30
ATOM     30  O   UNL     1      47.326  10.751  25.122  1.00  0.00    -0.393 OA
ATOM     31  H   UNL     1      46.852  11.349  24.486  1.00  0.00     0.210 HD
ENDBRANCH  29  30
ENDBRANCH   1  11
TORSDOF 6
ENDMDL
MODEL 9
REMARK VINA RESULT:    -6.798      3.566      6.429
REMARK INTER + INTRA:         -10.099
REMARK INTER:                  -8.802
REMARK INTRA:                  -1.297
REMARK UNBOUND:                -1.116
REMARK SMILES CC[C@@H](C=C[C@H](C)[C@@H]1CC[C@@H]2[C@@H]3CC=C4C[C@H](O)CC[C@@]4(C)[C@H]3CC[C@@]21C)C(C)C
REMARK SMILES IDX 6 1 7 2 5 3 4 4 3 5 2 6 1 7 28 8 29 9 30 10 8 11 9 12 26 13
REMARK SMILES IDX 10 14 11 15 25 16 27 17 12 18 24 19 23 20 13 21 21 22 14 23
REMARK SMILES IDX 15 24 20 25 22 26 16 27 19 28 17 29 18 30
REMARK H PARENT 18 31
REMARK Flexibility Score: inf
ROOT
ATOM      1  C   UNL     1      47.311   7.308  25.035  1.00  0.00     0.012 C 
ATOM      2  C   UNL     1      47.078   8.149  26.301  1.00  0.00     0.012 C 
ENDROOT
BRANCH   1   3
ATOM      3  C   UNL     1      47.708   8.220  23.888  1.00  0.00    -0.028 C 
ATOM      4  C   UNL     1      47.196   8.102  22.648  1.00  0.00    -0.027 C 
BRANCH   4   5
ATOM      5  C   UNL     1      47.628   8.972  21.478  1.00  0.00     0.014 C 
BRANCH   5   6
ATOM      6  C   UNL     1      46.472   9.900  21.010  1.00  0.00     0.004 C 
ATOM      7  C   UNL     1      46.643  11.384  21.345  1.00  0.00     0.004 C 
ENDBRANCH   5   6
BRANCH   5   8
ATOM      8  C   UNL     1      48.334   8.151  20.350  1.00  0.00    -0.011 C 
ATOM      9  C   UNL     1      48.577   8.978  19.074  1.00  0.00     0.008 C 
ATOM     10  C   UNL     1      49.686   7.605  20.840  1.00  0.00     0.008 C 
ENDBRANCH   5   8
ENDBRANCH   4   5
ENDBRANCH   1   3
BRANCH   1  11
ATOM     11  C   UNL     1      48.358   6.160  25.225  1.00  0.00     0.002 C 
ATOM     12  C   UNL     1      49.551   6.320  24.262  1.00  0.00     0.005 C 
ATOM     13  C   UNL     1      47.880   4.684  25.026  1.00  0.00    -0.026 C 
ATOM     14  C   UNL     1      50.034   4.921  23.896  1.00  0.00     0.005 C 
ATOM     15  C   UNL     1      49.210   3.946  24.746  1.00  0.00    -0.001 C 
ATOM     16  C   UNL     1      46.925   4.548  23.802  1.00  0.00     0.007 C 
ATOM     17  C   UNL     1      47.225   4.120  26.314  1.00  0.00     0.012 C 
ATOM     18  C   UNL     1      49.059   2.508  24.151  1.00  0.00     0.000 C 
ATOM     19  C   UNL     1      46.724   3.097  23.366  1.00  0.00     0.005 C 
ATOM     20  C   UNL     1      48.063   2.426  22.973  1.00  0.00     0.003 C 
ATOM     21  C   UNL     1      50.419   1.956  23.700  1.00  0.00     0.031 C 
ATOM     22  C   UNL     1      47.896   0.943  22.422  1.00  0.00    -0.008 C 
ATOM     23  C   UNL     1      50.290   0.561  23.183  1.00  0.00    -0.027 C 
ATOM     24  C   UNL     1      49.190   0.115  22.542  1.00  0.00    -0.065 C 
ATOM     25  C   UNL     1      46.788   0.158  23.199  1.00  0.00     0.014 C 
ATOM     26  C   UNL     1      47.508   1.045  20.923  1.00  0.00     0.016 C 
ATOM     27  C   UNL     1      49.131  -1.348  22.154  1.00  0.00     0.063 C 
ATOM     28  C   UNL     1      46.701  -1.339  22.837  1.00  0.00     0.033 C 
ATOM     29  C   UNL     1      48.054  -2.049  22.991  1.00  0.00     0.118 C 
BRANCH  29  30
ATOM     30  O   UNL     1      47.920  -3.383  22.574  1.00  0.00    -0.393 OA
ATOM     31  H   UNL     1      47.766  -3.360  21.593  1.00  0.00     0.210 HD
ENDBRANCH  29  30
ENDBRANCH   1  11
TORSDOF 6
ENDMDL
