MODEL 1
REMARK VINA RESULT:    -3.200      0.000      0.000
REMARK INTER + INTRA:          -3.607
REMARK INTER:                  -3.574
REMARK INTRA:                  -0.033
REMARK UNBOUND:                -0.033
REMARK SMILES CCCC(=O)[O-]
REMARK SMILES IDX 3 1 4 2 5 3 6 4 2 5 1 6
REMARK H PARENT
REMARK Flexibility Score: inf
ROOT
ATOM      1  C   UNL     1       5.773 -12.106   6.746  1.00  0.00     0.052 C 
ENDROOT
BRANCH   1   2
ATOM      2  C   UNL     1       4.835 -10.950   6.902  1.00  0.00     0.041 C 
ATOM      3  O   UNL     1       3.602 -11.151   7.053  1.00  0.00    -0.550 OA
ATOM      4  O   UNL     1       5.319  -9.649   6.833  1.00  0.00    -0.550 OA
ENDBRANCH   1   2
BRANCH   1   5
ATOM      5  C   UNL     1       4.990 -13.405   6.539  1.00  0.00     0.003 C 
ATOM      6  C   UNL     1       4.878 -13.751   5.057  1.00  0.00     0.004 C 
ENDBRANCH   1   5
TORSDOF 2
ENDMDL
MODEL 2
REMARK VINA RESULT:    -3.195      0.147      1.326
REMARK INTER + INTRA:          -3.602
REMARK INTER:                  -3.567
REMARK INTRA:                  -0.035
REMARK UNBOUND:                -0.033
REMARK SMILES CCCC(=O)[O-]
REMARK SMILES IDX 3 1 4 2 5 3 6 4 2 5 1 6
REMARK H PARENT
REMARK Flexibility Score: inf
ROOT
ATOM      1  C   UNL     1       5.859 -12.199   6.716  1.00  0.00     0.052 C 
ENDROOT
BRANCH   1   2
ATOM      2  C   UNL     1       4.990 -10.994   6.885  1.00  0.00     0.041 C 
ATOM      3  O   UNL     1       5.500  -9.844   6.924  1.00  0.00    -0.550 OA
ATOM      4  O   UNL     1       3.618 -11.145   7.049  1.00  0.00    -0.550 OA
ENDBRANCH   1   2
BRANCH   1   5
ATOM      5  C   UNL     1       5.003 -13.453   6.514  1.00  0.00     0.003 C 
ATOM      6  C   UNL     1       4.833 -13.770   5.031  1.00  0.00     0.004 C 
ENDBRANCH   1   5
TORSDOF 2
ENDMDL
MODEL 3
REMARK VINA RESULT:    -3.153      2.188      3.158
REMARK INTER + INTRA:          -3.554
REMARK INTER:                  -3.539
REMARK INTRA:                  -0.015
REMARK UNBOUND:                -0.033
REMARK SMILES CCCC(=O)[O-]
REMARK SMILES IDX 3 1 4 2 5 3 6 4 2 5 1 6
REMARK H PARENT
REMARK Flexibility Score: inf
ROOT
ATOM      1  C   UNL     1       5.281 -13.310   6.463  1.00  0.00     0.052 C 
ENDROOT
BRANCH   1   2
ATOM      2  C   UNL     1       4.639 -13.359   5.112  1.00  0.00     0.041 C 
ATOM      3  O   UNL     1       4.572 -14.446   4.481  1.00  0.00    -0.550 OA
ATOM      4  O   UNL     1       4.158 -12.193   4.529  1.00  0.00    -0.550 OA
ENDBRANCH   1   2
BRANCH   1   5
ATOM      5  C   UNL     1       5.469 -11.859   6.914  1.00  0.00     0.003 C 
ATOM      6  C   UNL     1       6.787 -11.682   7.663  1.00  0.00     0.004 C 
ENDBRANCH   1   5
TORSDOF 2
ENDMDL
MODEL 4
REMARK VINA RESULT:    -3.126      0.827      1.693
REMARK INTER + INTRA:          -3.525
REMARK INTER:                  -3.486
REMARK INTRA:                  -0.039
REMARK UNBOUND:                -0.033
REMARK SMILES CCCC(=O)[O-]
REMARK SMILES IDX 3 1 4 2 5 3 6 4 2 5 1 6
REMARK H PARENT
REMARK Flexibility Score: inf
ROOT
ATOM      1  C   UNL     1       5.484 -11.288   7.310  1.00  0.00     0.052 C 
ENDROOT
BRANCH   1   2
ATOM      2  C   UNL     1       4.542 -10.209   6.881  1.00  0.00     0.041 C 
ATOM      3  O   UNL     1       4.972  -9.052   6.635  1.00  0.00    -0.550 OA
ATOM      4  O   UNL     1       3.179 -10.469   6.799  1.00  0.00    -0.550 OA
ENDBRANCH   1   2
BRANCH   1   5
ATOM      5  C   UNL     1       5.729 -12.272   6.163  1.00  0.00     0.003 C 
ATOM      6  C   UNL     1       4.978 -13.582   6.391  1.00  0.00     0.004 C 
ENDBRANCH   1   5
TORSDOF 2
ENDMDL
MODEL 5
REMARK VINA RESULT:    -3.082      1.662      2.231
REMARK INTER + INTRA:          -3.475
REMARK INTER:                  -3.438
REMARK INTRA:                  -0.037
REMARK UNBOUND:                -0.033
REMARK SMILES CCCC(=O)[O-]
REMARK SMILES IDX 3 1 4 2 5 3 6 4 2 5 1 6
REMARK H PARENT
REMARK Flexibility Score: inf
ROOT
ATOM      1  C   UNL     1       4.434 -11.125   7.041  1.00  0.00     0.052 C 
ENDROOT
BRANCH   1   2
ATOM      2  C   UNL     1       4.392  -9.876   6.220  1.00  0.00     0.041 C 
ATOM      3  O   UNL     1       3.837  -9.879   5.090  1.00  0.00    -0.550 OA
ATOM      4  O   UNL     1       5.009  -8.719   6.681  1.00  0.00    -0.550 OA
ENDBRANCH   1   2
BRANCH   1   5
ATOM      5  C   UNL     1       5.719 -11.909   6.757  1.00  0.00     0.003 C 
ATOM      6  C   UNL     1       6.813 -11.557   7.762  1.00  0.00     0.004 C 
ENDBRANCH   1   5
TORSDOF 2
ENDMDL
MODEL 6
REMARK VINA RESULT:    -2.825      2.000      3.281
REMARK INTER + INTRA:          -3.189
REMARK INTER:                  -3.164
REMARK INTRA:                  -0.024
REMARK UNBOUND:                -0.033
REMARK SMILES CCCC(=O)[O-]
REMARK SMILES IDX 3 1 4 2 5 3 6 4 2 5 1 6
REMARK H PARENT
REMARK Flexibility Score: inf
ROOT
ATOM      1  C   UNL     1       4.211 -11.517   6.636  1.00  0.00     0.052 C 
ENDROOT
BRANCH   1   2
ATOM      2  C   UNL     1       5.394 -12.420   6.783  1.00  0.00     0.041 C 
ATOM      3  O   UNL     1       6.484 -11.971   7.226  1.00  0.00    -0.550 OA
ATOM      4  O   UNL     1       5.307 -13.749   6.385  1.00  0.00    -0.550 OA
ENDBRANCH   1   2
BRANCH   1   5
ATOM      5  C   UNL     1       4.626 -10.056   6.833  1.00  0.00     0.003 C 
ATOM      6  C   UNL     1       4.118  -9.181   5.690  1.00  0.00     0.004 C 
ENDBRANCH   1   5
TORSDOF 2
ENDMDL
MODEL 7
REMARK VINA RESULT:    -2.739     15.277     16.069
REMARK INTER + INTRA:          -3.092
REMARK INTER:                  -3.079
REMARK INTRA:                  -0.013
REMARK UNBOUND:                -0.033
REMARK SMILES CCCC(=O)[O-]
REMARK SMILES IDX 3 1 4 2 5 3 6 4 2 5 1 6
REMARK H PARENT
REMARK Flexibility Score: inf
ROOT
ATOM      1  C   UNL     1      14.234  -3.225  16.190  1.00  0.00     0.052 C 
ENDROOT
BRANCH   1   2
ATOM      2  C   UNL     1      14.401  -1.779  15.845  1.00  0.00     0.041 C 
ATOM      3  O   UNL     1      13.395  -1.024  15.776  1.00  0.00    -0.550 OA
ATOM      4  O   UNL     1      15.662  -1.275  15.552  1.00  0.00    -0.550 OA
ENDBRANCH   1   2
BRANCH   1   5
ATOM      5  C   UNL     1      12.750  -3.598  16.228  1.00  0.00     0.003 C 
ATOM      6  C   UNL     1      12.542  -4.960  16.887  1.00  0.00     0.004 C 
ENDBRANCH   1   5
TORSDOF 2
ENDMDL
MODEL 8
REMARK VINA RESULT:    -2.738      8.672      9.357
REMARK INTER + INTRA:          -3.091
REMARK INTER:                  -3.060
REMARK INTRA:                  -0.031
REMARK UNBOUND:                -0.033
REMARK SMILES CCCC(=O)[O-]
REMARK SMILES IDX 3 1 4 2 5 3 6 4 2 5 1 6
REMARK H PARENT
REMARK Flexibility Score: inf
ROOT
ATOM      1  C   UNL     1       2.168  -6.296  12.941  1.00  0.00     0.052 C 
ENDROOT
BRANCH   1   2
ATOM      2  C   UNL     1       1.339  -5.752  11.821  1.00  0.00     0.041 C 
ATOM      3  O   UNL     1       1.299  -6.350  10.714  1.00  0.00    -0.550 OA
ATOM      4  O   UNL     1       0.649  -4.557  11.985  1.00  0.00    -0.550 OA
ENDBRANCH   1   2
BRANCH   1   5
ATOM      5  C   UNL     1       3.603  -5.769  12.851  1.00  0.00     0.003 C 
ATOM      6  C   UNL     1       3.924  -4.844  14.022  1.00  0.00     0.004 C 
ENDBRANCH   1   5
TORSDOF 2
ENDMDL
MODEL 9
REMARK VINA RESULT:    -2.727     13.147     13.667
REMARK INTER + INTRA:          -3.079
REMARK INTER:                  -3.047
REMARK INTRA:                  -0.032
REMARK UNBOUND:                -0.033
REMARK SMILES CCCC(=O)[O-]
REMARK SMILES IDX 3 1 4 2 5 3 6 4 2 5 1 6
REMARK H PARENT
REMARK Flexibility Score: inf
ROOT
ATOM      1  C   UNL     1      16.576 -16.013   4.399  1.00  0.00     0.052 C 
ENDROOT
BRANCH   1   2
ATOM      2  C   UNL     1      17.225 -16.953   5.366  1.00  0.00     0.041 C 
ATOM      3  O   UNL     1      18.103 -16.534   6.164  1.00  0.00    -0.550 OA
ATOM      4  O   UNL     1      16.894 -18.302   5.351  1.00  0.00    -0.550 OA
ENDBRANCH   1   2
BRANCH   1   5
ATOM      5  C   UNL     1      17.633 -15.322   3.534  1.00  0.00     0.003 C 
ATOM      6  C   UNL     1      17.776 -13.849   3.910  1.00  0.00     0.004 C 
ENDBRANCH   1   5
TORSDOF 2
ENDMDL
