MODEL 1
REMARK VINA RESULT:    -5.764      0.000      0.000
REMARK INTER + INTRA:          -7.811
REMARK INTER:                  -7.449
REMARK INTRA:                  -0.362
REMARK UNBOUND:                -0.362
REMARK SMILES CCO[C@@H]1O[C@@H](CO)[C@H](O)[C@H](O)[C@@H]1O
REMARK SMILES IDX 4 1 13 2 11 3 9 4 6 5 5 6 3 7 2 8 1 9 14 10 12 12 7 14 8 15
REMARK SMILES IDX 10 17
REMARK H PARENT 14 11 12 13 8 16 10 18
REMARK Flexibility Score: inf
ROOT
ATOM      1  C   UNL     1      37.939   7.719  43.866  1.00  0.00     0.281 C 
ATOM      2  C   UNL     1      36.518   7.533  44.450  1.00  0.00     0.202 C 
ATOM      3  C   UNL     1      36.049   8.791  45.204  1.00  0.00     0.179 C 
ATOM      4  C   UNL     1      36.246  10.020  44.296  1.00  0.00     0.177 C 
ATOM      5  C   UNL     1      37.695  10.056  43.740  1.00  0.00     0.178 C 
ATOM      6  O   UNL     1      37.990   8.865  43.025  1.00  0.00    -0.341 OA
ENDROOT
BRANCH   1   7
ATOM      7  O   UNL     1      38.905   7.798  44.904  1.00  0.00    -0.350 OA
BRANCH   7   8
ATOM      8  C   UNL     1      39.772   6.681  44.882  1.00  0.00     0.160 C 
ATOM      9  C   UNL     1      39.740   6.019  43.509  1.00  0.00     0.035 C 
ENDBRANCH   7   8
ENDBRANCH   1   7
BRANCH   2  10
ATOM     10  O   UNL     1      36.432   6.383  45.255  1.00  0.00    -0.385 OA
ATOM     11  H   UNL     1      35.633   6.468  45.836  1.00  0.00     0.211 HD
ENDBRANCH   2  10
BRANCH   3  12
ATOM     12  O   UNL     1      36.775   8.939  46.400  1.00  0.00    -0.387 OA
ATOM     13  H   UNL     1      36.384   9.709  46.887  1.00  0.00     0.211 HD
ENDBRANCH   3  12
BRANCH   5  14
ATOM     14  C   UNL     1      37.912  11.253  42.802  1.00  0.00     0.191 C 
BRANCH  14  15
ATOM     15  O   UNL     1      38.292  12.396  43.523  1.00  0.00    -0.394 OA
ATOM     16  H   UNL     1      37.834  13.169  43.103  1.00  0.00     0.210 HD
ENDBRANCH  14  15
ENDBRANCH   5  14
BRANCH   4  17
ATOM     17  O   UNL     1      35.910  11.207  44.975  1.00  0.00    -0.387 OA
ATOM     18  H   UNL     1      35.170  11.644  44.478  1.00  0.00     0.211 HD
ENDBRANCH   4  17
TORSDOF 7
ENDMDL
MODEL 2
REMARK VINA RESULT:    -5.734      5.895      8.213
REMARK INTER + INTRA:          -7.772
REMARK INTER:                  -7.303
REMARK INTRA:                  -0.469
REMARK UNBOUND:                -0.362
REMARK SMILES CCO[C@@H]1O[C@@H](CO)[C@H](O)[C@H](O)[C@@H]1O
REMARK SMILES IDX 4 1 13 2 11 3 9 4 6 5 5 6 3 7 2 8 1 9 14 10 12 12 7 14 8 15
REMARK SMILES IDX 10 17
REMARK H PARENT 14 11 12 13 8 16 10 18
REMARK Flexibility Score: inf
ROOT
ATOM      1  C   UNL     1      34.435   3.462  43.969  1.00  0.00     0.281 C 
ATOM      2  C   UNL     1      33.833   4.365  42.866  1.00  0.00     0.202 C 
ATOM      3  C   UNL     1      32.932   3.563  41.909  1.00  0.00     0.179 C 
ATOM      4  C   UNL     1      31.920   2.750  42.738  1.00  0.00     0.177 C 
ATOM      5  C   UNL     1      32.652   1.931  43.835  1.00  0.00     0.178 C 
ATOM      6  O   UNL     1      33.407   2.786  44.682  1.00  0.00    -0.341 OA
ENDROOT
BRANCH   1   7
ATOM      7  O   UNL     1      35.366   2.543  43.415  1.00  0.00    -0.350 OA
BRANCH   7   8
ATOM      8  C   UNL     1      36.454   2.325  44.293  1.00  0.00     0.160 C 
ATOM      9  C   UNL     1      36.938   3.652  44.867  1.00  0.00     0.035 C 
ENDBRANCH   7   8
ENDBRANCH   1   7
BRANCH   2  10
ATOM     10  O   UNL     1      34.830   5.074  42.172  1.00  0.00    -0.385 OA
ATOM     11  H   UNL     1      34.460   5.351  41.294  1.00  0.00     0.211 HD
ENDBRANCH   2  10
BRANCH   3  12
ATOM     12  O   UNL     1      33.715   2.710  41.108  1.00  0.00    -0.387 OA
ATOM     13  H   UNL     1      33.761   1.834  41.572  1.00  0.00     0.211 HD
ENDBRANCH   3  12
BRANCH   5  14
ATOM     14  C   UNL     1      31.664   1.136  44.702  1.00  0.00     0.191 C 
BRANCH  14  15
ATOM     15  O   UNL     1      30.369   1.670  44.608  1.00  0.00    -0.394 OA
ATOM     16  H   UNL     1      29.909   1.184  43.875  1.00  0.00     0.210 HD
ENDBRANCH  14  15
ENDBRANCH   5  14
BRANCH   4  17
ATOM     17  O   UNL     1      31.130   1.933  41.907  1.00  0.00    -0.387 OA
ATOM     18  H   UNL     1      31.740   1.369  41.364  1.00  0.00     0.211 HD
ENDBRANCH   4  17
TORSDOF 7
ENDMDL
MODEL 3
REMARK VINA RESULT:    -5.615      2.211      5.144
REMARK INTER + INTRA:          -7.618
REMARK INTER:                  -7.525
REMARK INTRA:                  -0.093
REMARK UNBOUND:                -0.362
REMARK SMILES CCO[C@@H]1O[C@@H](CO)[C@H](O)[C@H](O)[C@@H]1O
REMARK SMILES IDX 4 1 13 2 11 3 9 4 6 5 5 6 3 7 2 8 1 9 14 10 12 12 7 14 8 15
REMARK SMILES IDX 10 17
REMARK H PARENT 14 11 12 13 8 16 10 18
REMARK Flexibility Score: inf
ROOT
ATOM      1  C   UNL     1      36.297  11.307  43.863  1.00  0.00     0.281 C 
ATOM      2  C   UNL     1      37.747  10.941  43.465  1.00  0.00     0.202 C 
ATOM      3  C   UNL     1      38.521  10.335  44.651  1.00  0.00     0.179 C 
ATOM      4  C   UNL     1      37.685   9.195  45.264  1.00  0.00     0.177 C 
ATOM      5  C   UNL     1      36.242   9.684  45.566  1.00  0.00     0.178 C 
ATOM      6  O   UNL     1      35.619  10.172  44.387  1.00  0.00    -0.341 OA
ENDROOT
BRANCH   1   7
ATOM      7  O   UNL     1      36.283  12.387  44.785  1.00  0.00    -0.350 OA
BRANCH   7   8
ATOM      8  C   UNL     1      34.977  12.906  44.946  1.00  0.00     0.160 C 
ATOM      9  C   UNL     1      35.013  14.159  45.813  1.00  0.00     0.035 C 
ENDBRANCH   7   8
ENDBRANCH   1   7
BRANCH   2  10
ATOM     10  O   UNL     1      38.427  12.039  42.907  1.00  0.00    -0.385 OA
ATOM     11  H   UNL     1      39.398  11.842  42.919  1.00  0.00     0.211 HD
ENDBRANCH   2  10
BRANCH   3  12
ATOM     12  O   UNL     1      38.786  11.327  45.614  1.00  0.00    -0.387 OA
ATOM     13  H   UNL     1      37.911  11.633  45.967  1.00  0.00     0.211 HD
ENDBRANCH   3  12
BRANCH   5  14
ATOM     14  C   UNL     1      35.373   8.558  46.146  1.00  0.00     0.191 C 
BRANCH  14  15
ATOM     15  O   UNL     1      34.757   8.963  47.341  1.00  0.00    -0.394 OA
ATOM     16  H   UNL     1      35.231   9.779  47.649  1.00  0.00     0.210 HD
ENDBRANCH  14  15
ENDBRANCH   5  14
BRANCH   4  17
ATOM     17  O   UNL     1      38.315   8.667  46.406  1.00  0.00    -0.387 OA
ATOM     18  H   UNL     1      39.273   8.925  46.373  1.00  0.00     0.211 HD
ENDBRANCH   4  17
TORSDOF 7
ENDMDL
MODEL 4
REMARK VINA RESULT:    -5.179     14.189     15.560
REMARK INTER + INTRA:          -7.054
REMARK INTER:                  -6.585
REMARK INTRA:                  -0.469
REMARK UNBOUND:                -0.362
REMARK SMILES CCO[C@@H]1O[C@@H](CO)[C@H](O)[C@H](O)[C@@H]1O
REMARK SMILES IDX 4 1 13 2 11 3 9 4 6 5 5 6 3 7 2 8 1 9 14 10 12 12 7 14 8 15
REMARK SMILES IDX 10 17
REMARK H PARENT 14 11 12 13 8 16 10 18
REMARK Flexibility Score: inf
ROOT
ATOM      1  C   UNL     1      24.093   3.961  39.076  1.00  0.00     0.281 C 
ATOM      2  C   UNL     1      23.162   3.554  37.909  1.00  0.00     0.202 C 
ATOM      3  C   UNL     1      23.592   4.215  36.586  1.00  0.00     0.179 C 
ATOM      4  C   UNL     1      25.096   3.962  36.366  1.00  0.00     0.177 C 
ATOM      5  C   UNL     1      25.904   4.366  37.628  1.00  0.00     0.178 C 
ATOM      6  O   UNL     1      25.447   3.654  38.769  1.00  0.00    -0.341 OA
ENDROOT
BRANCH   1   7
ATOM      7  O   UNL     1      23.936   5.337  39.389  1.00  0.00    -0.350 OA
BRANCH   7   8
ATOM      8  C   UNL     1      24.126   5.572  40.772  1.00  0.00     0.160 C 
ATOM      9  C   UNL     1      23.473   4.461  41.587  1.00  0.00     0.035 C 
ENDBRANCH   7   8
ENDBRANCH   1   7
BRANCH   2  10
ATOM     10  O   UNL     1      21.812   3.812  38.205  1.00  0.00    -0.385 OA
ATOM     11  H   UNL     1      21.301   2.970  38.092  1.00  0.00     0.211 HD
ENDBRANCH   2  10
BRANCH   3  12
ATOM     12  O   UNL     1      23.324   5.597  36.626  1.00  0.00    -0.387 OA
ATOM     13  H   UNL     1      22.515   5.754  36.074  1.00  0.00     0.211 HD
ENDBRANCH   3  12
BRANCH   5  14
ATOM     14  C   UNL     1      27.405   4.092  37.452  1.00  0.00     0.191 C 
BRANCH  14  15
ATOM     15  O   UNL     1      27.619   2.999  36.596  1.00  0.00    -0.394 OA
ATOM     16  H   UNL     1      26.736   2.752  36.216  1.00  0.00     0.210 HD
ENDBRANCH  14  15
ENDBRANCH   5  14
BRANCH   4  17
ATOM     17  O   UNL     1      25.553   4.622  35.210  1.00  0.00    -0.387 OA
ATOM     18  H   UNL     1      26.535   4.747  35.298  1.00  0.00     0.211 HD
ENDBRANCH   4  17
TORSDOF 7
ENDMDL
MODEL 5
REMARK VINA RESULT:    -5.120     14.618     15.871
REMARK INTER + INTRA:          -6.979
REMARK INTER:                  -6.774
REMARK INTRA:                  -0.205
REMARK UNBOUND:                -0.362
REMARK SMILES CCO[C@@H]1O[C@@H](CO)[C@H](O)[C@H](O)[C@@H]1O
REMARK SMILES IDX 4 1 13 2 11 3 9 4 6 5 5 6 3 7 2 8 1 9 14 10 12 12 7 14 8 15
REMARK SMILES IDX 10 17
REMARK H PARENT 14 11 12 13 8 16 10 18
REMARK Flexibility Score: inf
ROOT
ATOM      1  C   UNL     1      25.002   5.305  38.620  1.00  0.00     0.281 C 
ATOM      2  C   UNL     1      25.847   4.632  37.512  1.00  0.00     0.202 C 
ATOM      3  C   UNL     1      24.956   3.924  36.474  1.00  0.00     0.179 C 
ATOM      4  C   UNL     1      23.875   4.909  35.989  1.00  0.00     0.177 C 
ATOM      5  C   UNL     1      23.141   5.547  37.199  1.00  0.00     0.178 C 
ATOM      6  O   UNL     1      24.062   6.210  38.054  1.00  0.00    -0.341 OA
ENDROOT
BRANCH   1   7
ATOM      7  O   UNL     1      24.357   4.330  39.426  1.00  0.00    -0.350 OA
BRANCH   7   8
ATOM      8  C   UNL     1      24.097   4.830  40.724  1.00  0.00     0.160 C 
ATOM      9  C   UNL     1      22.702   4.414  41.176  1.00  0.00     0.035 C 
ENDBRANCH   7   8
ENDBRANCH   1   7
BRANCH   2  10
ATOM     10  O   UNL     1      26.811   3.760  38.050  1.00  0.00    -0.385 OA
ATOM     11  H   UNL     1      27.679   4.239  38.083  1.00  0.00     0.211 HD
ENDBRANCH   2  10
BRANCH   3  12
ATOM     12  O   UNL     1      24.364   2.781  37.044  1.00  0.00    -0.387 OA
ATOM     13  H   UNL     1      23.387   2.845  36.880  1.00  0.00     0.211 HD
ENDBRANCH   3  12
BRANCH   5  14
ATOM     14  C   UNL     1      22.079   6.562  36.747  1.00  0.00     0.191 C 
BRANCH  14  15
ATOM     15  O   UNL     1      22.536   7.878  36.920  1.00  0.00    -0.394 OA
ATOM     16  H   UNL     1      23.060   7.894  37.763  1.00  0.00     0.210 HD
ENDBRANCH  14  15
ENDBRANCH   5  14
BRANCH   4  17
ATOM     17  O   UNL     1      22.982   4.279  35.102  1.00  0.00    -0.387 OA
ATOM     18  H   UNL     1      22.679   4.956  34.441  1.00  0.00     0.211 HD
ENDBRANCH   4  17
TORSDOF 7
ENDMDL
MODEL 6
REMARK VINA RESULT:    -5.060      2.157      2.657
REMARK INTER + INTRA:          -6.900
REMARK INTER:                  -6.432
REMARK INTRA:                  -0.468
REMARK UNBOUND:                -0.362
REMARK SMILES CCO[C@@H]1O[C@@H](CO)[C@H](O)[C@H](O)[C@@H]1O
REMARK SMILES IDX 4 1 13 2 11 3 9 4 6 5 5 6 3 7 2 8 1 9 14 10 12 12 7 14 8 15
REMARK SMILES IDX 10 17
REMARK H PARENT 14 11 12 13 8 16 10 18
REMARK Flexibility Score: inf
ROOT
ATOM      1  C   UNL     1      37.955   6.362  43.410  1.00  0.00     0.281 C 
ATOM      2  C   UNL     1      36.416   6.320  43.256  1.00  0.00     0.202 C 
ATOM      3  C   UNL     1      35.707   6.733  44.559  1.00  0.00     0.179 C 
ATOM      4  C   UNL     1      36.297   8.071  45.047  1.00  0.00     0.177 C 
ATOM      5  C   UNL     1      37.846   7.990  45.107  1.00  0.00     0.178 C 
ATOM      6  O   UNL     1      38.382   7.650  43.836  1.00  0.00    -0.341 OA
ENDROOT
BRANCH   1   7
ATOM      7  O   UNL     1      38.401   5.351  44.302  1.00  0.00    -0.350 OA
BRANCH   7   8
ATOM      8  C   UNL     1      39.646   4.819  43.892  1.00  0.00     0.160 C 
ATOM      9  C   UNL     1      39.566   4.354  42.443  1.00  0.00     0.035 C 
ENDBRANCH   7   8
ENDBRANCH   1   7
BRANCH   2  10
ATOM     10  O   UNL     1      35.973   5.066  42.798  1.00  0.00    -0.385 OA
ATOM     11  H   UNL     1      35.934   4.448  43.572  1.00  0.00     0.211 HD
ENDBRANCH   2  10
BRANCH   3  12
ATOM     12  O   UNL     1      35.871   5.735  45.538  1.00  0.00    -0.387 OA
ATOM     13  H   UNL     1      35.095   5.121  45.462  1.00  0.00     0.211 HD
ENDBRANCH   3  12
BRANCH   5  14
ATOM     14  C   UNL     1      38.466   9.321  45.556  1.00  0.00     0.191 C 
BRANCH  14  15
ATOM     15  O   UNL     1      38.435   9.445  46.954  1.00  0.00    -0.394 OA
ATOM     16  H   UNL     1      39.021   8.732  47.321  1.00  0.00     0.210 HD
ENDBRANCH  14  15
ENDBRANCH   5  14
BRANCH   4  17
ATOM     17  O   UNL     1      35.739   8.446  46.283  1.00  0.00    -0.387 OA
ATOM     18  H   UNL     1      34.772   8.220  46.263  1.00  0.00     0.211 HD
ENDBRANCH   4  17
TORSDOF 7
ENDMDL
MODEL 7
REMARK VINA RESULT:    -5.034      3.554      6.001
REMARK INTER + INTRA:          -6.868
REMARK INTER:                  -6.522
REMARK INTRA:                  -0.345
REMARK UNBOUND:                -0.362
REMARK SMILES CCO[C@@H]1O[C@@H](CO)[C@H](O)[C@H](O)[C@@H]1O
REMARK SMILES IDX 4 1 13 2 11 3 9 4 6 5 5 6 3 7 2 8 1 9 14 10 12 12 7 14 8 15
REMARK SMILES IDX 10 17
REMARK H PARENT 14 11 12 13 8 16 10 18
REMARK Flexibility Score: inf
ROOT
ATOM      1  C   UNL     1      36.344   5.698  43.480  1.00  0.00     0.281 C 
ATOM      2  C   UNL     1      36.985   4.486  44.197  1.00  0.00     0.202 C 
ATOM      3  C   UNL     1      35.915   3.546  44.783  1.00  0.00     0.179 C 
ATOM      4  C   UNL     1      34.888   3.210  43.684  1.00  0.00     0.177 C 
ATOM      5  C   UNL     1      34.365   4.510  43.016  1.00  0.00     0.178 C 
ATOM      6  O   UNL     1      35.439   5.264  42.472  1.00  0.00    -0.341 OA
ENDROOT
BRANCH   1   7
ATOM      7  O   UNL     1      35.702   6.555  44.413  1.00  0.00    -0.350 OA
BRANCH   7   8
ATOM      8  C   UNL     1      36.341   7.816  44.474  1.00  0.00     0.160 C 
ATOM      9  C   UNL     1      35.785   8.630  45.636  1.00  0.00     0.035 C 
ENDBRANCH   7   8
ENDBRANCH   1   7
BRANCH   2  10
ATOM     10  O   UNL     1      37.913   4.890  45.174  1.00  0.00    -0.385 OA
ATOM     11  H   UNL     1      37.414   5.134  45.996  1.00  0.00     0.211 HD
ENDBRANCH   2  10
BRANCH   3  12
ATOM     12  O   UNL     1      35.281   4.158  45.881  1.00  0.00    -0.387 OA
ATOM     13  H   UNL     1      35.995   4.531  46.461  1.00  0.00     0.211 HD
ENDBRANCH   3  12
BRANCH   5  14
ATOM     14  C   UNL     1      33.365   4.206  41.890  1.00  0.00     0.191 C 
BRANCH  14  15
ATOM     15  O   UNL     1      33.716   3.028  41.211  1.00  0.00    -0.394 OA
ATOM     16  H   UNL     1      34.096   3.302  40.336  1.00  0.00     0.210 HD
ENDBRANCH  14  15
ENDBRANCH   5  14
BRANCH   4  17
ATOM     17  O   UNL     1      33.842   2.422  44.197  1.00  0.00    -0.387 OA
ATOM     18  H   UNL     1      33.258   2.158  43.439  1.00  0.00     0.211 HD
ENDBRANCH   4  17
TORSDOF 7
ENDMDL
MODEL 8
REMARK VINA RESULT:    -4.992      5.250      6.922
REMARK INTER + INTRA:          -6.813
REMARK INTER:                  -6.441
REMARK INTRA:                  -0.371
REMARK UNBOUND:                -0.362
REMARK SMILES CCO[C@@H]1O[C@@H](CO)[C@H](O)[C@H](O)[C@@H]1O
REMARK SMILES IDX 4 1 13 2 11 3 9 4 6 5 5 6 3 7 2 8 1 9 14 10 12 12 7 14 8 15
REMARK SMILES IDX 10 17
REMARK H PARENT 14 11 12 13 8 16 10 18
REMARK Flexibility Score: inf
ROOT
ATOM      1  C   UNL     1      35.054   2.156  44.791  1.00  0.00     0.281 C 
ATOM      2  C   UNL     1      35.828   3.395  45.302  1.00  0.00     0.202 C 
ATOM      3  C   UNL     1      36.210   4.338  44.146  1.00  0.00     0.179 C 
ATOM      4  C   UNL     1      34.952   4.633  43.304  1.00  0.00     0.177 C 
ATOM      5  C   UNL     1      34.247   3.309  42.903  1.00  0.00     0.178 C 
ATOM      6  O   UNL     1      33.903   2.552  44.055  1.00  0.00    -0.341 OA
ENDROOT
BRANCH   1   7
ATOM      7  O   UNL     1      35.897   1.318  44.014  1.00  0.00    -0.350 OA
BRANCH   7   8
ATOM      8  C   UNL     1      36.015   0.033  44.594  1.00  0.00     0.160 C 
ATOM      9  C   UNL     1      37.320  -0.622  44.157  1.00  0.00     0.035 C 
ENDBRANCH   7   8
ENDBRANCH   1   7
BRANCH   2  10
ATOM     10  O   UNL     1      36.951   3.029  46.066  1.00  0.00    -0.385 OA
ATOM     11  H   UNL     1      37.621   2.622  45.459  1.00  0.00     0.211 HD
ENDBRANCH   2  10
BRANCH   3  12
ATOM     12  O   UNL     1      37.210   3.750  43.350  1.00  0.00    -0.387 OA
ATOM     13  H   UNL     1      37.657   3.059  43.905  1.00  0.00     0.211 HD
ENDBRANCH   3  12
BRANCH   5  14
ATOM     14  C   UNL     1      32.969   3.571  42.092  1.00  0.00     0.191 C 
BRANCH  14  15
ATOM     15  O   UNL     1      33.256   3.678  40.722  1.00  0.00    -0.394 OA
ATOM     16  H   UNL     1      34.134   3.238  40.575  1.00  0.00     0.210 HD
ENDBRANCH  14  15
ENDBRANCH   5  14
BRANCH   4  17
ATOM     17  O   UNL     1      35.270   5.423  42.184  1.00  0.00    -0.387 OA
ATOM     18  H   UNL     1      34.963   6.350  42.367  1.00  0.00     0.211 HD
ENDBRANCH   4  17
TORSDOF 7
ENDMDL
MODEL 9
REMARK VINA RESULT:    -4.854     15.384     16.595
REMARK INTER + INTRA:          -6.635
REMARK INTER:                  -6.185
REMARK INTRA:                  -0.449
REMARK UNBOUND:                -0.362
REMARK SMILES CCO[C@@H]1O[C@@H](CO)[C@H](O)[C@H](O)[C@@H]1O
REMARK SMILES IDX 4 1 13 2 11 3 9 4 6 5 5 6 3 7 2 8 1 9 14 10 12 12 7 14 8 15
REMARK SMILES IDX 10 17
REMARK H PARENT 14 11 12 13 8 16 10 18
REMARK Flexibility Score: inf
ROOT
ATOM      1  C   UNL     1      22.749   4.467  39.026  1.00  0.00     0.281 C 
ATOM      2  C   UNL     1      21.455   4.919  38.309  1.00  0.00     0.202 C 
ATOM      3  C   UNL     1      21.767   5.723  37.033  1.00  0.00     0.179 C 
ATOM      4  C   UNL     1      22.767   4.926  36.173  1.00  0.00     0.177 C 
ATOM      5  C   UNL     1      23.990   4.493  37.026  1.00  0.00     0.178 C 
ATOM      6  O   UNL     1      23.577   3.719  38.143  1.00  0.00    -0.341 OA
ENDROOT
BRANCH   1   7
ATOM      7  O   UNL     1      23.445   5.582  39.562  1.00  0.00    -0.350 OA
BRANCH   7   8
ATOM      8  C   UNL     1      24.053   5.259  40.799  1.00  0.00     0.160 C 
ATOM      9  C   UNL     1      23.195   4.256  41.559  1.00  0.00     0.035 C 
ENDBRANCH   7   8
ENDBRANCH   1   7
BRANCH   2  10
ATOM     10  O   UNL     1      20.601   5.628  39.174  1.00  0.00    -0.385 OA
ATOM     11  H   UNL     1      20.557   6.569  38.865  1.00  0.00     0.211 HD
ENDBRANCH   2  10
BRANCH   3  12
ATOM     12  O   UNL     1      22.298   6.981  37.371  1.00  0.00    -0.387 OA
ATOM     13  H   UNL     1      21.764   7.330  38.130  1.00  0.00     0.211 HD
ENDBRANCH   3  12
BRANCH   5  14
ATOM     14  C   UNL     1      24.990   3.665  36.204  1.00  0.00     0.191 C 
BRANCH  14  15
ATOM     15  O   UNL     1      25.874   4.499  35.501  1.00  0.00    -0.394 OA
ATOM     16  H   UNL     1      26.342   5.057  36.174  1.00  0.00     0.210 HD
ENDBRANCH  14  15
ENDBRANCH   5  14
BRANCH   4  17
ATOM     17  O   UNL     1      23.149   5.660  35.035  1.00  0.00    -0.387 OA
ATOM     18  H   UNL     1      22.476   5.494  34.324  1.00  0.00     0.211 HD
ENDBRANCH   4  17
TORSDOF 7
ENDMDL
