MODEL 1
REMARK VINA RESULT:    16.231      0.000      0.000
REMARK INTER + INTRA:          19.266
REMARK INTER:                  19.552
REMARK INTRA:                  -0.285
REMARK UNBOUND:                -0.285
REMARK SMILES O=c1c(O)c(-c2ccc(O)cc2O)oc2cc(O)cc(O)c12
REMARK SMILES IDX 5 1 3 2 2 3 1 4 22 5 20 6 19 7 17 8 16 9 15 10 14 11 6 12
REMARK SMILES IDX 8 13 7 14 9 15 11 16 12 17 10 18 13 20 4 22 21 24 18 26
REMARK H PARENT 10 19 13 21 4 23 21 25 18 27
REMARK Flexibility Score: inf
ROOT
ATOM      1  C   UNL     1      42.695  -4.043  23.532  1.00  0.00     0.184 A 
ATOM      2  C   UNL     1      42.966  -2.723  23.130  1.00  0.00     0.208 A 
ATOM      3  C   UNL     1      41.893  -1.884  22.795  1.00  0.00     0.238 A 
ATOM      4  O   UNL     1      42.122  -0.694  22.444  1.00  0.00    -0.285 OA
ATOM      5  C   UNL     1      40.575  -2.383  22.848  1.00  0.00     0.111 A 
ATOM      6  C   UNL     1      39.438  -1.605  22.523  1.00  0.00     0.134 A 
ATOM      7  C   UNL     1      38.160  -2.178  22.591  1.00  0.00     0.093 A 
ATOM      8  C   UNL     1      37.997  -3.513  22.977  1.00  0.00     0.123 A 
ATOM      9  C   UNL     1      39.114  -4.285  23.299  1.00  0.00     0.094 A 
ATOM     10  C   UNL     1      40.397  -3.732  23.239  1.00  0.00     0.146 A 
ATOM     11  O   UNL     1      41.443  -4.488  23.555  1.00  0.00    -0.451 OA
ENDROOT
BRANCH   1  12
ATOM     12  C   UNL     1      43.778  -4.976  23.909  1.00  0.00     0.063 A 
ATOM     13  C   UNL     1      44.984  -7.042  23.474  1.00  0.00     0.047 A 
ATOM     14  C   UNL     1      43.974  -6.136  23.142  1.00  0.00     0.020 A 
ATOM     15  C   UNL     1      45.801  -6.809  24.584  1.00  0.00     0.119 A 
ATOM     16  C   UNL     1      45.597  -5.667  25.370  1.00  0.00     0.093 A 
ATOM     17  C   UNL     1      44.582  -4.756  25.046  1.00  0.00     0.130 A 
BRANCH  15  18
ATOM     18  O   UNL     1      46.807  -7.719  24.901  1.00  0.00    -0.508 OA
ATOM     19  H   UNL     1      46.606  -8.700  25.054  1.00  0.00     0.293 HD
ENDBRANCH  15  18
BRANCH  17  20
ATOM     20  O   UNL     1      44.357  -3.648  25.865  1.00  0.00    -0.507 OA
ATOM     21  H   UNL     1      44.069  -2.755  25.484  1.00  0.00     0.293 HD
ENDBRANCH  17  20
ENDBRANCH   1  12
BRANCH   2  22
ATOM     22  O   UNL     1      44.286  -2.273  23.044  1.00  0.00    -0.502 OA
ATOM     23  H   UNL     1      45.076  -2.906  23.057  1.00  0.00     0.293 HD
ENDBRANCH   2  22
BRANCH   6  24
ATOM     24  O   UNL     1      39.569  -0.271  22.133  1.00  0.00    -0.507 OA
ATOM     25  H   UNL     1      39.629  -0.004  21.157  1.00  0.00     0.293 HD
ENDBRANCH   6  24
BRANCH   8  26
ATOM     26  O   UNL     1      36.727  -4.082  23.044  1.00  0.00    -0.508 OA
ATOM     27  H   UNL     1      35.889  -3.522  22.947  1.00  0.00     0.293 HD
ENDBRANCH   8  26
TORSDOF 6
ENDMDL
MODEL 2
REMARK VINA RESULT:    17.028      1.560      6.569
REMARK INTER + INTRA:          20.227
REMARK INTER:                  20.534
REMARK INTRA:                  -0.307
REMARK UNBOUND:                -0.285
REMARK SMILES O=c1c(O)c(-c2ccc(O)cc2O)oc2cc(O)cc(O)c12
REMARK SMILES IDX 5 1 3 2 2 3 1 4 22 5 20 6 19 7 17 8 16 9 15 10 14 11 6 12
REMARK SMILES IDX 8 13 7 14 9 15 11 16 12 17 10 18 13 20 4 22 21 24 18 26
REMARK H PARENT 10 19 13 21 4 23 21 25 18 27
REMARK Flexibility Score: inf
ROOT
ATOM      1  C   UNL     1      39.833  -3.370  22.968  1.00  0.00     0.184 A 
ATOM      2  C   UNL     1      40.297  -2.043  23.020  1.00  0.00     0.208 A 
ATOM      3  C   UNL     1      41.669  -1.813  23.203  1.00  0.00     0.238 A 
ATOM      4  O   UNL     1      42.099  -0.627  23.240  1.00  0.00    -0.285 OA
ATOM      5  C   UNL     1      42.546  -2.907  23.350  1.00  0.00     0.111 A 
ATOM      6  C   UNL     1      43.941  -2.761  23.540  1.00  0.00     0.134 A 
ATOM      7  C   UNL     1      44.746  -3.900  23.688  1.00  0.00     0.093 A 
ATOM      8  C   UNL     1      44.183  -5.181  23.648  1.00  0.00     0.123 A 
ATOM      9  C   UNL     1      42.808  -5.330  23.460  1.00  0.00     0.094 A 
ATOM     10  C   UNL     1      41.989  -4.207  23.309  1.00  0.00     0.146 A 
ATOM     11  O   UNL     1      40.684  -4.379  23.126  1.00  0.00    -0.451 OA
ENDROOT
BRANCH   1  12
ATOM     12  C   UNL     1      38.402  -3.683  22.767  1.00  0.00     0.063 A 
ATOM     13  C   UNL     1      36.340  -4.626  23.644  1.00  0.00     0.047 A 
ATOM     14  C   UNL     1      37.692  -4.310  23.803  1.00  0.00     0.020 A 
ATOM     15  C   UNL     1      35.686  -4.334  22.445  1.00  0.00     0.119 A 
ATOM     16  C   UNL     1      36.393  -3.731  21.395  1.00  0.00     0.093 A 
ATOM     17  C   UNL     1      37.751  -3.415  21.546  1.00  0.00     0.130 A 
BRANCH  15  18
ATOM     18  O   UNL     1      34.337  -4.651  22.302  1.00  0.00    -0.508 OA
ATOM     19  H   UNL     1      33.626  -4.217  22.878  1.00  0.00     0.293 HD
ENDBRANCH  15  18
BRANCH  17  20
ATOM     20  O   UNL     1      38.456  -2.860  20.477  1.00  0.00    -0.507 OA
ATOM     21  H   UNL     1      39.202  -2.191  20.622  1.00  0.00     0.293 HD
ENDBRANCH  17  20
ENDBRANCH   1  12
BRANCH   2  22
ATOM     22  O   UNL     1      39.396  -0.980  22.917  1.00  0.00    -0.502 OA
ATOM     23  H   UNL     1      39.602  -0.145  22.381  1.00  0.00     0.293 HD
ENDBRANCH   2  22
BRANCH   6  24
ATOM     24  O   UNL     1      44.531  -1.497  23.586  1.00  0.00    -0.507 OA
ATOM     25  H   UNL     1      44.905  -1.114  24.447  1.00  0.00     0.293 HD
ENDBRANCH   6  24
BRANCH   8  26
ATOM     26  O   UNL     1      44.982  -6.312  23.795  1.00  0.00    -0.508 OA
ATOM     27  H   UNL     1      44.581  -7.232  23.929  1.00  0.00     0.293 HD
ENDBRANCH   8  26
TORSDOF 6
ENDMDL
