MODEL 1
REMARK VINA RESULT:    -6.938      0.000      0.000
REMARK INTER + INTRA:         -14.277
REMARK INTER:                 -13.021
REMARK INTRA:                  -1.256
REMARK UNBOUND:                -1.256
REMARK SMILES O=C([O-])CCCCCCCCCCCCCCC(=O)[O-]
REMARK SMILES IDX 10 1 9 2 8 3 7 4 6 5 5 6 4 7 2 8 1 9 3 10 11 11 12 12 13 13
REMARK SMILES IDX 14 14 15 15 16 16 17 17 18 18 19 19 20 20
REMARK H PARENT
REMARK Flexibility Score: inf
ROOT
ATOM      1  C   UNL     1       6.303  -1.569  20.383  1.00  0.00     0.000 C 
ENDROOT
BRANCH   1   2
ATOM      2  C   UNL     1       5.874  -0.132  20.041  1.00  0.00     0.000 C 
BRANCH   2   3
ATOM      3  C   UNL     1       4.421  -0.053  19.544  1.00  0.00     0.000 C 
BRANCH   3   4
ATOM      4  C   UNL     1       3.819  -1.436  19.236  1.00  0.00     0.000 C 
BRANCH   4   5
ATOM      5  C   UNL     1       2.326  -1.598  19.587  1.00  0.00     0.000 C 
BRANCH   5   6
ATOM      6  C   UNL     1       1.508  -0.294  19.577  1.00  0.00     0.006 C 
BRANCH   6   7
ATOM      7  C   UNL     1       0.903   0.018  18.203  1.00  0.00     0.053 C 
BRANCH   7   8
ATOM      8  C   UNL     1       1.671   1.113  17.532  1.00  0.00     0.041 C 
ATOM      9  O   UNL     1       1.368   2.317  17.738  1.00  0.00    -0.550 OA
ATOM     10  O   UNL     1       2.752   0.804  16.716  1.00  0.00    -0.550 OA
ENDBRANCH   7   8
ENDBRANCH   6   7
ENDBRANCH   5   6
ENDBRANCH   4   5
ENDBRANCH   3   4
ENDBRANCH   2   3
ENDBRANCH   1   2
BRANCH   1  11
ATOM     11  C   UNL     1       6.148  -1.893  21.876  1.00  0.00     0.000 C 
BRANCH  11  12
ATOM     12  C   UNL     1       6.017  -3.405  22.098  1.00  0.00     0.000 C 
BRANCH  12  13
ATOM     13  C   UNL     1       5.582  -4.115  20.808  1.00  0.00     0.000 C 
BRANCH  13  14
ATOM     14  C   UNL     1       6.440  -5.351  20.483  1.00  0.00     0.000 C 
BRANCH  14  15
ATOM     15  C   UNL     1       7.815  -5.389  21.176  1.00  0.00     0.000 C 
BRANCH  15  16
ATOM     16  C   UNL     1       8.016  -6.645  22.038  1.00  0.00     0.006 C 
BRANCH  16  17
ATOM     17  C   UNL     1       7.287  -7.848  21.434  1.00  0.00     0.053 C 
BRANCH  17  18
ATOM     18  C   UNL     1       6.926  -8.832  22.501  1.00  0.00     0.041 C 
ATOM     19  O   UNL     1       6.249  -9.855  22.217  1.00  0.00    -0.550 OA
ATOM     20  O   UNL     1       7.294  -8.594  23.819  1.00  0.00    -0.550 OA
ENDBRANCH  17  18
ENDBRANCH  16  17
ENDBRANCH  15  16
ENDBRANCH  14  15
ENDBRANCH  13  14
ENDBRANCH  12  13
ENDBRANCH  11  12
ENDBRANCH   1  11
TORSDOF 15
ENDMDL
MODEL 2
REMARK VINA RESULT:    -6.898      1.780      8.240
REMARK INTER + INTRA:         -14.203
REMARK INTER:                 -13.130
REMARK INTRA:                  -1.073
REMARK UNBOUND:                -1.256
REMARK SMILES O=C([O-])CCCCCCCCCCCCCCC(=O)[O-]
REMARK SMILES IDX 10 1 9 2 8 3 7 4 6 5 5 6 4 7 2 8 1 9 3 10 11 11 12 12 13 13
REMARK SMILES IDX 14 14 15 15 16 16 17 17 18 18 19 19 20 20
REMARK H PARENT
REMARK Flexibility Score: inf
ROOT
ATOM      1  C   UNL     1       6.535  -1.986  20.680  1.00  0.00     0.000 C 
ENDROOT
BRANCH   1   2
ATOM      2  C   UNL     1       6.331  -2.887  21.909  1.00  0.00     0.000 C 
BRANCH   2   3
ATOM      3  C   UNL     1       5.679  -4.233  21.550  1.00  0.00     0.000 C 
BRANCH   3   4
ATOM      4  C   UNL     1       6.539  -5.078  20.594  1.00  0.00     0.000 C 
BRANCH   4   5
ATOM      5  C   UNL     1       7.941  -5.447  21.121  1.00  0.00     0.000 C 
BRANCH   5   6
ATOM      6  C   UNL     1       7.996  -6.705  22.007  1.00  0.00     0.006 C 
BRANCH   6   7
ATOM      7  C   UNL     1       7.123  -7.847  21.472  1.00  0.00     0.053 C 
BRANCH   7   8
ATOM      8  C   UNL     1       6.854  -8.847  22.552  1.00  0.00     0.041 C 
ATOM      9  O   UNL     1       6.311  -9.949  22.275  1.00  0.00    -0.550 OA
ATOM     10  O   UNL     1       7.249  -8.584  23.858  1.00  0.00    -0.550 OA
ENDBRANCH   7   8
ENDBRANCH   6   7
ENDBRANCH   5   6
ENDBRANCH   4   5
ENDBRANCH   3   4
ENDBRANCH   2   3
ENDBRANCH   1   2
BRANCH   1  11
ATOM     11  C   UNL     1       6.137  -0.526  20.943  1.00  0.00     0.000 C 
BRANCH  11  12
ATOM     12  C   UNL     1       5.987   0.248  19.627  1.00  0.00     0.000 C 
BRANCH  12  13
ATOM     13  C   UNL     1       4.557   0.783  19.463  1.00  0.00     0.000 C 
BRANCH  13  14
ATOM     14  C   UNL     1       3.904   0.353  18.137  1.00  0.00     0.000 C 
BRANCH  14  15
ATOM     15  C   UNL     1       2.376   0.531  18.076  1.00  0.00     0.000 C 
BRANCH  15  16
ATOM     16  C   UNL     1       1.658  -0.023  19.316  1.00  0.00     0.006 C 
BRANCH  16  17
ATOM     17  C   UNL     1       1.564  -1.551  19.258  1.00  0.00     0.053 C 
BRANCH  17  18
ATOM     18  C   UNL     1       2.733  -2.175  19.953  1.00  0.00     0.041 C 
ATOM     19  O   UNL     1       2.968  -1.908  21.161  1.00  0.00    -0.550 OA
ATOM     20  O   UNL     1       3.592  -3.011  19.253  1.00  0.00    -0.550 OA
ENDBRANCH  17  18
ENDBRANCH  16  17
ENDBRANCH  15  16
ENDBRANCH  14  15
ENDBRANCH  13  14
ENDBRANCH  12  13
ENDBRANCH  11  12
ENDBRANCH   1  11
TORSDOF 15
ENDMDL
MODEL 3
REMARK VINA RESULT:    -6.878      0.507      9.161
REMARK INTER + INTRA:         -14.165
REMARK INTER:                 -13.086
REMARK INTRA:                  -1.079
REMARK UNBOUND:                -1.256
REMARK SMILES O=C([O-])CCCCCCCCCCCCCCC(=O)[O-]
REMARK SMILES IDX 10 1 9 2 8 3 7 4 6 5 5 6 4 7 2 8 1 9 3 10 11 11 12 12 13 13
REMARK SMILES IDX 14 14 15 15 16 16 17 17 18 18 19 19 20 20
REMARK H PARENT
REMARK Flexibility Score: inf
ROOT
ATOM      1  C   UNL     1       6.492  -1.941  21.611  1.00  0.00     0.000 C 
ENDROOT
BRANCH   1   2
ATOM      2  C   UNL     1       5.967  -3.270  22.178  1.00  0.00     0.000 C 
BRANCH   2   3
ATOM      3  C   UNL     1       5.328  -4.160  21.099  1.00  0.00     0.000 C 
BRANCH   3   4
ATOM      4  C   UNL     1       6.268  -5.278  20.613  1.00  0.00     0.000 C 
BRANCH   4   5
ATOM      5  C   UNL     1       7.687  -5.254  21.216  1.00  0.00     0.000 C 
BRANCH   5   6
ATOM      6  C   UNL     1       8.080  -6.512  22.011  1.00  0.00     0.006 C 
BRANCH   6   7
ATOM      7  C   UNL     1       7.497  -7.799  21.413  1.00  0.00     0.053 C 
BRANCH   7   8
ATOM      8  C   UNL     1       7.038  -8.718  22.501  1.00  0.00     0.041 C 
ATOM      9  O   UNL     1       6.305  -9.704  22.230  1.00  0.00    -0.550 OA
ATOM     10  O   UNL     1       7.460  -8.513  23.809  1.00  0.00    -0.550 OA
ENDBRANCH   7   8
ENDBRANCH   6   7
ENDBRANCH   5   6
ENDBRANCH   4   5
ENDBRANCH   3   4
ENDBRANCH   2   3
ENDBRANCH   1   2
BRANCH   1  11
ATOM     11  C   UNL     1       6.009  -1.676  20.178  1.00  0.00     0.000 C 
BRANCH  11  12
ATOM     12  C   UNL     1       5.501  -0.237  20.027  1.00  0.00     0.000 C 
BRANCH  12  13
ATOM     13  C   UNL     1       4.173  -0.199  19.258  1.00  0.00     0.000 C 
BRANCH  13  14
ATOM     14  C   UNL     1       3.398  -1.528  19.332  1.00  0.00     0.000 C 
BRANCH  14  15
ATOM     15  C   UNL     1       1.909  -1.394  19.698  1.00  0.00     0.000 C 
BRANCH  15  16
ATOM     16  C   UNL     1       1.083  -0.701  18.603  1.00  0.00     0.006 C 
BRANCH  16  17
ATOM     17  C   UNL     1       0.876   0.781  18.928  1.00  0.00     0.053 C 
BRANCH  17  18
ATOM     18  C   UNL     1       1.333   1.637  17.789  1.00  0.00     0.041 C 
ATOM     19  O   UNL     1       2.117   1.171  16.922  1.00  0.00    -0.550 OA
ATOM     20  O   UNL     1       0.932   2.964  17.713  1.00  0.00    -0.550 OA
ENDBRANCH  17  18
ENDBRANCH  16  17
ENDBRANCH  15  16
ENDBRANCH  14  15
ENDBRANCH  13  14
ENDBRANCH  12  13
ENDBRANCH  11  12
ENDBRANCH   1  11
TORSDOF 15
ENDMDL
MODEL 4
REMARK VINA RESULT:    -6.797      2.723      3.960
REMARK INTER + INTRA:         -14.014
REMARK INTER:                 -13.457
REMARK INTRA:                  -0.557
REMARK UNBOUND:                -1.256
REMARK SMILES O=C([O-])CCCCCCCCCCCCCCC(=O)[O-]
REMARK SMILES IDX 10 1 9 2 8 3 7 4 6 5 5 6 4 7 2 8 1 9 3 10 11 11 12 12 13 13
REMARK SMILES IDX 14 14 15 15 16 16 17 17 18 18 19 19 20 20
REMARK H PARENT
REMARK Flexibility Score: inf
ROOT
ATOM      1  C   UNL     1       3.449  -0.448  19.174  1.00  0.00     0.000 C 
ENDROOT
BRANCH   1   2
ATOM      2  C   UNL     1       2.381   0.639  18.968  1.00  0.00     0.000 C 
BRANCH   2   3
ATOM      3  C   UNL     1       1.931   0.753  17.501  1.00  0.00     0.000 C 
BRANCH   3   4
ATOM      4  C   UNL     1       0.961   1.924  17.264  1.00  0.00     0.000 C 
BRANCH   4   5
ATOM      5  C   UNL     1       1.331   3.241  17.976  1.00  0.00     0.000 C 
BRANCH   5   6
ATOM      6  C   UNL     1       1.233   4.505  17.103  1.00  0.00     0.006 C 
BRANCH   6   7
ATOM      7  C   UNL     1       1.934   5.717  17.731  1.00  0.00     0.053 C 
BRANCH   7   8
ATOM      8  C   UNL     1       2.259   6.732  16.681  1.00  0.00     0.041 C 
ATOM      9  O   UNL     1       2.837   6.382  15.618  1.00  0.00    -0.550 OA
ATOM     10  O   UNL     1       1.881   8.057  16.854  1.00  0.00    -0.550 OA
ENDBRANCH   7   8
ENDBRANCH   6   7
ENDBRANCH   5   6
ENDBRANCH   4   5
ENDBRANCH   3   4
ENDBRANCH   2   3
ENDBRANCH   1   2
BRANCH   1  11
ATOM     11  C   UNL     1       2.882  -1.722  19.816  1.00  0.00     0.000 C 
BRANCH  11  12
ATOM     12  C   UNL     1       3.954  -2.816  19.905  1.00  0.00     0.000 C 
BRANCH  12  13
ATOM     13  C   UNL     1       5.358  -2.202  20.005  1.00  0.00     0.000 C 
BRANCH  13  14
ATOM     14  C   UNL     1       6.232  -2.873  21.080  1.00  0.00     0.000 C 
BRANCH  14  15
ATOM     15  C   UNL     1       7.197  -3.952  20.555  1.00  0.00     0.000 C 
BRANCH  15  16
ATOM     16  C   UNL     1       6.717  -5.381  20.852  1.00  0.00     0.006 C 
BRANCH  16  17
ATOM     17  C   UNL     1       7.785  -6.171  21.613  1.00  0.00     0.053 C 
BRANCH  17  18
ATOM     18  C   UNL     1       7.421  -7.621  21.672  1.00  0.00     0.041 C 
ATOM     19  O   UNL     1       7.261  -8.278  20.611  1.00  0.00    -0.550 OA
ATOM     20  O   UNL     1       7.209  -8.234  22.900  1.00  0.00    -0.550 OA
ENDBRANCH  17  18
ENDBRANCH  16  17
ENDBRANCH  15  16
ENDBRANCH  14  15
ENDBRANCH  13  14
ENDBRANCH  12  13
ENDBRANCH  11  12
ENDBRANCH   1  11
TORSDOF 15
ENDMDL
MODEL 5
REMARK VINA RESULT:    -6.585      3.642     10.922
REMARK INTER + INTRA:         -13.616
REMARK INTER:                 -12.862
REMARK INTRA:                  -0.754
REMARK UNBOUND:                -1.256
REMARK SMILES O=C([O-])CCCCCCCCCCCCCCC(=O)[O-]
REMARK SMILES IDX 10 1 9 2 8 3 7 4 6 5 5 6 4 7 2 8 1 9 3 10 11 11 12 12 13 13
REMARK SMILES IDX 14 14 15 15 16 16 17 17 18 18 19 19 20 20
REMARK H PARENT
REMARK Flexibility Score: inf
ROOT
ATOM      1  C   UNL     1       1.453  -0.512  19.345  1.00  0.00     0.000 C 
ENDROOT
BRANCH   1   2
ATOM      2  C   UNL     1       2.447  -1.669  19.537  1.00  0.00     0.000 C 
BRANCH   2   3
ATOM      3  C   UNL     1       3.552  -1.334  20.553  1.00  0.00     0.000 C 
BRANCH   3   4
ATOM      4  C   UNL     1       4.966  -1.454  19.958  1.00  0.00     0.000 C 
BRANCH   4   5
ATOM      5  C   UNL     1       6.113  -1.497  20.988  1.00  0.00     0.000 C 
BRANCH   5   6
ATOM      6  C   UNL     1       6.057  -2.672  21.980  1.00  0.00     0.006 C 
BRANCH   6   7
ATOM      7  C   UNL     1       5.695  -4.002  21.306  1.00  0.00     0.053 C 
BRANCH   7   8
ATOM      8  C   UNL     1       6.895  -4.588  20.631  1.00  0.00     0.041 C 
ATOM      9  O   UNL     1       7.845  -5.051  21.316  1.00  0.00    -0.550 OA
ATOM     10  O   UNL     1       6.943  -4.668  19.245  1.00  0.00    -0.550 OA
ENDBRANCH   7   8
ENDBRANCH   6   7
ENDBRANCH   5   6
ENDBRANCH   4   5
ENDBRANCH   3   4
ENDBRANCH   2   3
ENDBRANCH   1   2
BRANCH   1  11
ATOM     11  C   UNL     1       2.135   0.784  18.882  1.00  0.00     0.000 C 
BRANCH  11  12
ATOM     12  C   UNL     1       1.967   0.983  17.371  1.00  0.00     0.000 C 
BRANCH  12  13
ATOM     13  C   UNL     1       0.909   2.055  17.071  1.00  0.00     0.000 C 
BRANCH  13  14
ATOM     14  C   UNL     1       1.116   3.346  17.883  1.00  0.00     0.000 C 
BRANCH  14  15
ATOM     15  C   UNL     1       0.875   4.652  17.103  1.00  0.00     0.000 C 
BRANCH  15  16
ATOM     16  C   UNL     1       1.884   5.755  17.457  1.00  0.00     0.006 C 
BRANCH  16  17
ATOM     17  C   UNL     1       2.548   6.315  16.195  1.00  0.00     0.053 C 
BRANCH  17  18
ATOM     18  C   UNL     1       2.177   7.751  16.001  1.00  0.00     0.041 C 
ATOM     19  O   UNL     1       2.364   8.309  14.888  1.00  0.00    -0.550 OA
ATOM     20  O   UNL     1       1.671   8.488  17.064  1.00  0.00    -0.550 OA
ENDBRANCH  17  18
ENDBRANCH  16  17
ENDBRANCH  15  16
ENDBRANCH  14  15
ENDBRANCH  13  14
ENDBRANCH  12  13
ENDBRANCH  11  12
ENDBRANCH   1  11
TORSDOF 15
ENDMDL
MODEL 6
REMARK VINA RESULT:    -6.582      2.151     10.604
REMARK INTER + INTRA:         -13.611
REMARK INTER:                 -13.083
REMARK INTRA:                  -0.528
REMARK UNBOUND:                -1.256
REMARK SMILES O=C([O-])CCCCCCCCCCCCCCC(=O)[O-]
REMARK SMILES IDX 10 1 9 2 8 3 7 4 6 5 5 6 4 7 2 8 1 9 3 10 11 11 12 12 13 13
REMARK SMILES IDX 14 14 15 15 16 16 17 17 18 18 19 19 20 20
REMARK H PARENT
REMARK Flexibility Score: inf
ROOT
ATOM      1  C   UNL     1       3.453  -2.328  20.762  1.00  0.00     0.000 C 
ENDROOT
BRANCH   1   2
ATOM      2  C   UNL     1       4.855  -2.801  20.342  1.00  0.00     0.000 C 
BRANCH   2   3
ATOM      3  C   UNL     1       5.492  -3.746  21.375  1.00  0.00     0.000 C 
BRANCH   3   4
ATOM      4  C   UNL     1       7.030  -3.749  21.313  1.00  0.00     0.000 C 
BRANCH   4   5
ATOM      5  C   UNL     1       7.670  -5.091  20.905  1.00  0.00     0.000 C 
BRANCH   5   6
ATOM      6  C   UNL     1       6.809  -6.336  21.181  1.00  0.00     0.006 C 
BRANCH   6   7
ATOM      7  C   UNL     1       7.642  -7.558  21.588  1.00  0.00     0.053 C 
BRANCH   7   8
ATOM      8  C   UNL     1       6.965  -8.306  22.693  1.00  0.00     0.041 C 
ATOM      9  O   UNL     1       5.806  -8.768  22.528  1.00  0.00    -0.550 OA
ATOM     10  O   UNL     1       7.634  -8.536  23.889  1.00  0.00    -0.550 OA
ENDBRANCH   7   8
ENDBRANCH   6   7
ENDBRANCH   5   6
ENDBRANCH   4   5
ENDBRANCH   3   4
ENDBRANCH   2   3
ENDBRANCH   1   2
BRANCH   1  11
ATOM     11  C   UNL     1       2.699  -1.626  19.624  1.00  0.00     0.000 C 
BRANCH  11  12
ATOM     12  C   UNL     1       3.545  -0.501  19.016  1.00  0.00     0.000 C 
BRANCH  12  13
ATOM     13  C   UNL     1       2.726   0.791  18.879  1.00  0.00     0.000 C 
BRANCH  13  14
ATOM     14  C   UNL     1       1.765   0.767  17.676  1.00  0.00     0.000 C 
BRANCH  14  15
ATOM     15  C   UNL     1       0.875   2.015  17.530  1.00  0.00     0.000 C 
BRANCH  15  16
ATOM     16  C   UNL     1       1.632   3.326  17.793  1.00  0.00     0.006 C 
BRANCH  16  17
ATOM     17  C   UNL     1       0.964   4.499  17.071  1.00  0.00     0.053 C 
BRANCH  17  18
ATOM     18  C   UNL     1       1.798   5.735  17.197  1.00  0.00     0.041 C 
ATOM     19  O   UNL     1       2.586   5.871  18.168  1.00  0.00    -0.550 OA
ATOM     20  O   UNL     1       1.666   6.759  16.268  1.00  0.00    -0.550 OA
ENDBRANCH  17  18
ENDBRANCH  16  17
ENDBRANCH  15  16
ENDBRANCH  14  15
ENDBRANCH  13  14
ENDBRANCH  12  13
ENDBRANCH  11  12
ENDBRANCH   1  11
TORSDOF 15
ENDMDL
MODEL 7
REMARK VINA RESULT:    -6.572      1.381      2.289
REMARK INTER + INTRA:         -13.590
REMARK INTER:                 -12.524
REMARK INTRA:                  -1.067
REMARK UNBOUND:                -1.256
REMARK SMILES O=C([O-])CCCCCCCCCCCCCCC(=O)[O-]
REMARK SMILES IDX 10 1 9 2 8 3 7 4 6 5 5 6 4 7 2 8 1 9 3 10 11 11 12 12 13 13
REMARK SMILES IDX 14 14 15 15 16 16 17 17 18 18 19 19 20 20
REMARK H PARENT
REMARK Flexibility Score: inf
ROOT
ATOM      1  C   UNL     1       6.834  -2.297  20.584  1.00  0.00     0.000 C 
ENDROOT
BRANCH   1   2
ATOM      2  C   UNL     1       6.097  -1.865  21.862  1.00  0.00     0.000 C 
BRANCH   2   3
ATOM      3  C   UNL     1       5.160  -2.959  22.401  1.00  0.00     0.000 C 
BRANCH   3   4
ATOM      4  C   UNL     1       3.705  -2.481  22.547  1.00  0.00     0.000 C 
BRANCH   4   5
ATOM      5  C   UNL     1       3.235  -1.466  21.485  1.00  0.00     0.000 C 
BRANCH   5   6
ATOM      6  C   UNL     1       2.783  -2.082  20.149  1.00  0.00     0.006 C 
BRANCH   6   7
ATOM      7  C   UNL     1       2.011  -1.091  19.268  1.00  0.00     0.053 C 
BRANCH   7   8
ATOM      8  C   UNL     1       2.942  -0.078  18.682  1.00  0.00     0.041 C 
ATOM      9  O   UNL     1       2.527   0.743  17.822  1.00  0.00    -0.550 OA
ATOM     10  O   UNL     1       4.259  -0.008  19.120  1.00  0.00    -0.550 OA
ENDBRANCH   7   8
ENDBRANCH   6   7
ENDBRANCH   5   6
ENDBRANCH   4   5
ENDBRANCH   3   4
ENDBRANCH   2   3
ENDBRANCH   1   2
BRANCH   1  11
ATOM     11  C   UNL     1       6.026  -3.296  19.743  1.00  0.00     0.000 C 
BRANCH  11  12
ATOM     12  C   UNL     1       6.763  -4.636  19.623  1.00  0.00     0.000 C 
BRANCH  12  13
ATOM     13  C   UNL     1       8.024  -4.651  20.501  1.00  0.00     0.000 C 
BRANCH  13  14
ATOM     14  C   UNL     1       7.982  -5.735  21.593  1.00  0.00     0.000 C 
BRANCH  14  15
ATOM     15  C   UNL     1       6.949  -6.852  21.362  1.00  0.00     0.000 C 
BRANCH  15  16
ATOM     16  C   UNL     1       7.595  -8.211  21.050  1.00  0.00     0.006 C 
BRANCH  16  17
ATOM     17  C   UNL     1       6.870  -9.344  21.783  1.00  0.00     0.053 C 
BRANCH  17  18
ATOM     18  C   UNL     1       6.593  -8.957  23.201  1.00  0.00     0.041 C 
ATOM     19  O   UNL     1       5.410  -8.933  23.631  1.00  0.00    -0.550 OA
ATOM     20  O   UNL     1       7.636  -8.575  24.034  1.00  0.00    -0.550 OA
ENDBRANCH  17  18
ENDBRANCH  16  17
ENDBRANCH  15  16
ENDBRANCH  14  15
ENDBRANCH  13  14
ENDBRANCH  12  13
ENDBRANCH  11  12
ENDBRANCH   1  11
TORSDOF 15
ENDMDL
MODEL 8
REMARK VINA RESULT:    -6.552      3.683      5.494
REMARK INTER + INTRA:         -13.553
REMARK INTER:                 -12.713
REMARK INTRA:                  -0.840
REMARK UNBOUND:                -1.256
REMARK SMILES O=C([O-])CCCCCCCCCCCCCCC(=O)[O-]
REMARK SMILES IDX 10 1 9 2 8 3 7 4 6 5 5 6 4 7 2 8 1 9 3 10 11 11 12 12 13 13
REMARK SMILES IDX 14 14 15 15 16 16 17 17 18 18 19 19 20 20
REMARK H PARENT
REMARK Flexibility Score: inf
ROOT
ATOM      1  C   UNL     1       2.579   0.358  17.466  1.00  0.00     0.000 C 
ENDROOT
BRANCH   1   2
ATOM      2  C   UNL     1       1.170   0.966  17.365  1.00  0.00     0.000 C 
BRANCH   2   3
ATOM      3  C   UNL     1       1.046   2.295  18.128  1.00  0.00     0.000 C 
BRANCH   3   4
ATOM      4  C   UNL     1       1.253   3.524  17.224  1.00  0.00     0.000 C 
BRANCH   4   5
ATOM      5  C   UNL     1       0.909   4.882  17.870  1.00  0.00     0.000 C 
BRANCH   5   6
ATOM      6  C   UNL     1       1.855   6.038  17.501  1.00  0.00     0.006 C 
BRANCH   6   7
ATOM      7  C   UNL     1       1.806   6.395  16.010  1.00  0.00     0.053 C 
BRANCH   7   8
ATOM      8  C   UNL     1       2.102   7.848  15.812  1.00  0.00     0.041 C 
ATOM      9  O   UNL     1       1.903   8.669  16.746  1.00  0.00    -0.550 OA
ATOM     10  O   UNL     1       2.644   8.290  14.612  1.00  0.00    -0.550 OA
ENDBRANCH   7   8
ENDBRANCH   6   7
ENDBRANCH   5   6
ENDBRANCH   4   5
ENDBRANCH   3   4
ENDBRANCH   2   3
ENDBRANCH   1   2
BRANCH   1  11
ATOM     11  C   UNL     1       3.087   0.275  18.913  1.00  0.00     0.000 C 
BRANCH  11  12
ATOM     12  C   UNL     1       2.558  -0.986  19.608  1.00  0.00     0.000 C 
BRANCH  12  13
ATOM     13  C   UNL     1       3.701  -1.773  20.265  1.00  0.00     0.000 C 
BRANCH  13  14
ATOM     14  C   UNL     1       5.094  -1.282  19.831  1.00  0.00     0.000 C 
BRANCH  14  15
ATOM     15  C   UNL     1       6.089  -1.047  20.982  1.00  0.00     0.000 C 
BRANCH  15  16
ATOM     16  C   UNL     1       6.367  -2.316  21.803  1.00  0.00     0.006 C 
BRANCH  16  17
ATOM     17  C   UNL     1       7.112  -3.358  20.964  1.00  0.00     0.053 C 
BRANCH  17  18
ATOM     18  C   UNL     1       6.378  -4.662  20.976  1.00  0.00     0.041 C 
ATOM     19  O   UNL     1       6.888  -5.681  20.441  1.00  0.00    -0.550 OA
ATOM     20  O   UNL     1       5.109  -4.740  21.534  1.00  0.00    -0.550 OA
ENDBRANCH  17  18
ENDBRANCH  16  17
ENDBRANCH  15  16
ENDBRANCH  14  15
ENDBRANCH  13  14
ENDBRANCH  12  13
ENDBRANCH  11  12
ENDBRANCH   1  11
TORSDOF 15
ENDMDL
