MODEL 1
REMARK VINA RESULT:    -5.604      0.000      0.000
REMARK INTER + INTRA:          -8.195
REMARK INTER:                  -7.569
REMARK INTRA:                  -0.626
REMARK UNBOUND:                -0.626
REMARK SMILES COc1ccc(-c2cc(=O)c3c(OC)c(OC)c(OC)c(OC)c3o2)cc1
REMARK SMILES IDX 7 1 8 2 9 3 10 4 11 5 24 6 25 7 21 8 18 9 15 10 12 11 6 12
REMARK SMILES IDX 3 13 4 14 27 15 5 16 26 17 2 18 1 19 22 20 23 21 13 22 14 23
REMARK SMILES IDX 19 24 20 25 16 26 17 27
REMARK H PARENT
REMARK Flexibility Score: inf
ROOT
ATOM      1  C   UNL     1       8.732  -5.888   5.935  1.00  0.00     0.138 A 
ATOM      2  C   UNL     1       8.862  -7.269   5.745  1.00  0.00     0.100 A 
ATOM      3  C   UNL     1       8.567  -7.820   4.498  1.00  0.00     0.197 A 
ATOM      4  O   UNL     1       8.689  -9.066   4.346  1.00  0.00    -0.289 OA
ATOM      5  C   UNL     1       8.137  -6.982   3.443  1.00  0.00     0.115 A 
ATOM      6  C   UNL     1       8.018  -5.601   3.720  1.00  0.00     0.188 A 
ATOM      7  O   UNL     1       8.316  -5.127   4.927  1.00  0.00    -0.452 OA
ATOM      8  C   UNL     1       7.578  -4.706   2.740  1.00  0.00     0.209 A 
ATOM      9  C   UNL     1       7.226  -5.193   1.464  1.00  0.00     0.211 A 
ATOM     10  C   UNL     1       7.422  -6.555   1.143  1.00  0.00     0.208 A 
ATOM     11  C   UNL     1       7.836  -7.469   2.147  1.00  0.00     0.179 A 
ENDROOT
BRANCH   1  12
ATOM     12  C   UNL     1       9.026  -5.243   7.241  1.00  0.00     0.018 A 
ATOM     13  C   UNL     1       9.560  -3.970   9.704  1.00  0.00     0.118 A 
ATOM     14  C   UNL     1      10.123  -5.216   9.414  1.00  0.00     0.047 A 
ATOM     15  C   UNL     1       8.734  -3.351   8.748  1.00  0.00     0.047 A 
ATOM     16  C   UNL     1       9.864  -5.848   8.195  1.00  0.00     0.016 A 
ATOM     17  C   UNL     1       8.477  -3.981   7.527  1.00  0.00     0.016 A 
BRANCH  13  18
ATOM     18  O   UNL     1       9.843  -3.382  10.947  1.00  0.00    -0.497 OA
ATOM     19  C   UNL     1       9.058  -3.566  12.120  1.00  0.00     0.278 C 
ENDBRANCH  13  18
ENDBRANCH   1  12
BRANCH   8  20
ATOM     20  O   UNL     1       7.502  -3.347   3.107  1.00  0.00    -0.490 OA
ATOM     21  C   UNL     1       6.355  -2.666   3.601  1.00  0.00     0.278 C 
ENDBRANCH   8  20
BRANCH  11  22
ATOM     22  O   UNL     1       7.978  -8.852   1.905  1.00  0.00    -0.492 OA
ATOM     23  C   UNL     1       8.842  -9.477   0.963  1.00  0.00     0.278 C 
ENDBRANCH  11  22
BRANCH   9  24
ATOM     24  O   UNL     1       6.644  -4.338   0.527  1.00  0.00    -0.490 OA
ATOM     25  C   UNL     1       5.235  -4.135   0.477  1.00  0.00     0.279 C 
ENDBRANCH   9  24
BRANCH  10  26
ATOM     26  O   UNL     1       7.222  -7.010  -0.167  1.00  0.00    -0.490 OA
ATOM     27  C   UNL     1       5.992  -7.560  -0.633  1.00  0.00     0.278 C 
ENDBRANCH  10  26
TORSDOF 6
ENDMDL
MODEL 2
REMARK VINA RESULT:    -5.577     17.662     20.428
REMARK INTER + INTRA:          -8.159
REMARK INTER:                  -7.496
REMARK INTRA:                  -0.663
REMARK UNBOUND:                -0.626
REMARK SMILES COc1ccc(-c2cc(=O)c3c(OC)c(OC)c(OC)c(OC)c3o2)cc1
REMARK SMILES IDX 7 1 8 2 9 3 10 4 11 5 24 6 25 7 21 8 18 9 15 10 12 11 6 12
REMARK SMILES IDX 3 13 4 14 27 15 5 16 26 17 2 18 1 19 22 20 23 21 13 22 14 23
REMARK SMILES IDX 19 24 20 25 16 26 17 27
REMARK H PARENT
REMARK Flexibility Score: inf
ROOT
ATOM      1  C   UNL     1      -8.746   5.967   5.923  1.00  0.00     0.138 A 
ATOM      2  C   UNL     1      -8.880   7.348   5.732  1.00  0.00     0.100 A 
ATOM      3  C   UNL     1      -8.612   7.896   4.478  1.00  0.00     0.197 A 
ATOM      4  O   UNL     1      -8.738   9.141   4.325  1.00  0.00    -0.289 OA
ATOM      5  C   UNL     1      -8.204   7.055   3.416  1.00  0.00     0.115 A 
ATOM      6  C   UNL     1      -8.078   5.675   3.694  1.00  0.00     0.188 A 
ATOM      7  O   UNL     1      -8.350   5.204   4.909  1.00  0.00    -0.452 OA
ATOM      8  C   UNL     1      -7.657   4.778   2.708  1.00  0.00     0.209 A 
ATOM      9  C   UNL     1      -7.332   5.262   1.424  1.00  0.00     0.211 A 
ATOM     10  C   UNL     1      -7.536   6.623   1.103  1.00  0.00     0.208 A 
ATOM     11  C   UNL     1      -7.930   7.539   2.113  1.00  0.00     0.179 A 
ENDROOT
BRANCH   1  12
ATOM     12  C   UNL     1      -9.012   5.326   7.236  1.00  0.00     0.018 A 
ATOM     13  C   UNL     1      -9.546   4.153   9.750  1.00  0.00     0.118 A 
ATOM     14  C   UNL     1      -8.694   3.521   8.839  1.00  0.00     0.047 A 
ATOM     15  C   UNL     1     -10.125   5.388   9.403  1.00  0.00     0.047 A 
ATOM     16  C   UNL     1      -8.424   4.099   7.596  1.00  0.00     0.016 A 
ATOM     17  C   UNL     1      -9.854   5.969   8.161  1.00  0.00     0.016 A 
BRANCH  13  18
ATOM     18  O   UNL     1      -9.792   3.526  10.981  1.00  0.00    -0.497 OA
ATOM     19  C   UNL     1      -9.060   3.785  12.174  1.00  0.00     0.278 C 
ENDBRANCH  13  18
ENDBRANCH   1  12
BRANCH   8  20
ATOM     20  O   UNL     1      -7.573   3.420   3.077  1.00  0.00    -0.490 OA
ATOM     21  C   UNL     1      -6.431   2.755   3.602  1.00  0.00     0.278 C 
ENDBRANCH   8  20
BRANCH  11  22
ATOM     22  O   UNL     1      -8.078   8.921   1.871  1.00  0.00    -0.492 OA
ATOM     23  C   UNL     1      -9.060   9.553   1.058  1.00  0.00     0.278 C 
ENDBRANCH  11  22
BRANCH   9  24
ATOM     24  O   UNL     1      -6.769   4.405   0.477  1.00  0.00    -0.490 OA
ATOM     25  C   UNL     1      -5.360   4.225   0.379  1.00  0.00     0.279 C 
ENDBRANCH   9  24
BRANCH  10  26
ATOM     26  O   UNL     1      -7.363   7.075  -0.212  1.00  0.00    -0.490 OA
ATOM     27  C   UNL     1      -6.153   7.651  -0.696  1.00  0.00     0.278 C 
ENDBRANCH  10  26
TORSDOF 6
ENDMDL
MODEL 3
REMARK VINA RESULT:    -5.248      9.564     13.014
REMARK INTER + INTRA:          -7.714
REMARK INTER:                  -7.027
REMARK INTRA:                  -0.687
REMARK UNBOUND:                -0.626
REMARK SMILES COc1ccc(-c2cc(=O)c3c(OC)c(OC)c(OC)c(OC)c3o2)cc1
REMARK SMILES IDX 7 1 8 2 9 3 10 4 11 5 24 6 25 7 21 8 18 9 15 10 12 11 6 12
REMARK SMILES IDX 3 13 4 14 27 15 5 16 26 17 2 18 1 19 22 20 23 21 13 22 14 23
REMARK SMILES IDX 19 24 20 25 16 26 17 27
REMARK H PARENT
REMARK Flexibility Score: inf
ROOT
ATOM      1  C   UNL     1      -0.485   1.287   2.702  1.00  0.00     0.138 A 
ATOM      2  C   UNL     1      -1.335   2.326   3.104  1.00  0.00     0.100 A 
ATOM      3  C   UNL     1      -2.686   2.061   3.322  1.00  0.00     0.197 A 
ATOM      4  O   UNL     1      -3.435   3.009   3.683  1.00  0.00    -0.289 OA
ATOM      5  C   UNL     1      -3.186   0.752   3.131  1.00  0.00     0.115 A 
ATOM      6  C   UNL     1      -2.268  -0.237   2.710  1.00  0.00     0.188 A 
ATOM      7  O   UNL     1      -0.986   0.069   2.520  1.00  0.00    -0.452 OA
ATOM      8  C   UNL     1      -2.682  -1.551   2.475  1.00  0.00     0.209 A 
ATOM      9  C   UNL     1      -4.043  -1.888   2.639  1.00  0.00     0.211 A 
ATOM     10  C   UNL     1      -4.956  -0.936   3.144  1.00  0.00     0.208 A 
ATOM     11  C   UNL     1      -4.542   0.406   3.349  1.00  0.00     0.179 A 
ENDROOT
BRANCH   1  12
ATOM     12  C   UNL     1       0.962   1.508   2.449  1.00  0.00     0.018 A 
ATOM     13  C   UNL     1       3.725   1.890   2.010  1.00  0.00     0.118 A 
ATOM     14  C   UNL     1       2.788   2.723   1.393  1.00  0.00     0.047 A 
ATOM     15  C   UNL     1       3.275   0.866   2.864  1.00  0.00     0.047 A 
ATOM     16  C   UNL     1       1.419   2.540   1.610  1.00  0.00     0.016 A 
ATOM     17  C   UNL     1       1.907   0.683   3.084  1.00  0.00     0.016 A 
BRANCH  13  18
ATOM     18  O   UNL     1       5.087   2.109   1.752  1.00  0.00    -0.497 OA
ATOM     19  C   UNL     1       5.629   2.361   0.459  1.00  0.00     0.278 C 
ENDBRANCH  13  18
ENDBRANCH   1  12
BRANCH   8  20
ATOM     20  O   UNL     1      -1.692  -2.469   2.069  1.00  0.00    -0.490 OA
ATOM     21  C   UNL     1      -1.029  -3.418   2.896  1.00  0.00     0.278 C 
ENDBRANCH   8  20
BRANCH  11  22
ATOM     22  O   UNL     1      -5.427   1.418   3.779  1.00  0.00    -0.492 OA
ATOM     23  C   UNL     1      -6.546   1.940   3.074  1.00  0.00     0.278 C 
ENDBRANCH  11  22
BRANCH   9  24
ATOM     24  O   UNL     1      -4.498  -3.154   2.265  1.00  0.00    -0.490 OA
ATOM     25  C   UNL     1      -4.864  -3.446   0.920  1.00  0.00     0.279 C 
ENDBRANCH   9  24
BRANCH  10  26
ATOM     26  O   UNL     1      -6.270  -1.310   3.454  1.00  0.00    -0.490 OA
ATOM     27  C   UNL     1      -6.712  -1.624   4.773  1.00  0.00     0.278 C 
ENDBRANCH  10  26
TORSDOF 6
ENDMDL
MODEL 4
REMARK VINA RESULT:    -5.230      6.950     11.040
REMARK INTER + INTRA:          -7.691
REMARK INTER:                  -6.996
REMARK INTRA:                  -0.695
REMARK UNBOUND:                -0.626
REMARK SMILES COc1ccc(-c2cc(=O)c3c(OC)c(OC)c(OC)c(OC)c3o2)cc1
REMARK SMILES IDX 7 1 8 2 9 3 10 4 11 5 24 6 25 7 21 8 18 9 15 10 12 11 6 12
REMARK SMILES IDX 3 13 4 14 27 15 5 16 26 17 2 18 1 19 22 20 23 21 13 22 14 23
REMARK SMILES IDX 19 24 20 25 16 26 17 27
REMARK H PARENT
REMARK Flexibility Score: inf
ROOT
ATOM      1  C   UNL     1       0.363  -1.046   2.701  1.00  0.00     0.138 A 
ATOM      2  C   UNL     1       1.213  -2.067   3.146  1.00  0.00     0.100 A 
ATOM      3  C   UNL     1       2.557  -1.784   3.385  1.00  0.00     0.197 A 
ATOM      4  O   UNL     1       3.307  -2.716   3.784  1.00  0.00    -0.289 OA
ATOM      5  C   UNL     1       3.049  -0.475   3.172  1.00  0.00     0.115 A 
ATOM      6  C   UNL     1       2.131   0.495   2.709  1.00  0.00     0.188 A 
ATOM      7  O   UNL     1       0.856   0.172   2.501  1.00  0.00    -0.452 OA
ATOM      8  C   UNL     1       2.539   1.807   2.451  1.00  0.00     0.209 A 
ATOM      9  C   UNL     1       3.892   2.160   2.634  1.00  0.00     0.211 A 
ATOM     10  C   UNL     1       4.804   1.229   3.180  1.00  0.00     0.208 A 
ATOM     11  C   UNL     1       4.397  -0.111   3.409  1.00  0.00     0.179 A 
ENDROOT
BRANCH   1  12
ATOM     12  C   UNL     1      -1.077  -1.286   2.425  1.00  0.00     0.018 A 
ATOM     13  C   UNL     1      -3.828  -1.705   1.939  1.00  0.00     0.118 A 
ATOM     14  C   UNL     1      -2.870  -2.535   1.351  1.00  0.00     0.047 A 
ATOM     15  C   UNL     1      -3.405  -0.665   2.788  1.00  0.00     0.047 A 
ATOM     16  C   UNL     1      -1.508  -2.334   1.591  1.00  0.00     0.016 A 
ATOM     17  C   UNL     1      -2.043  -0.464   3.031  1.00  0.00     0.016 A 
BRANCH  13  18
ATOM     18  O   UNL     1      -5.182  -1.943   1.659  1.00  0.00    -0.497 OA
ATOM     19  C   UNL     1      -5.708  -2.142   0.351  1.00  0.00     0.278 C 
ENDBRANCH  13  18
ENDBRANCH   1  12
BRANCH   8  20
ATOM     20  O   UNL     1       1.549   2.705   2.003  1.00  0.00    -0.490 OA
ATOM     21  C   UNL     1       0.832   3.640   2.800  1.00  0.00     0.278 C 
ENDBRANCH   8  20
BRANCH  11  22
ATOM     22  O   UNL     1       5.281  -1.104   3.882  1.00  0.00    -0.492 OA
ATOM     23  C   UNL     1       6.410  -1.645   3.205  1.00  0.00     0.278 C 
ENDBRANCH  11  22
BRANCH   9  24
ATOM     24  O   UNL     1       4.343   3.421   2.239  1.00  0.00    -0.490 OA
ATOM     25  C   UNL     1       4.782   3.671   0.907  1.00  0.00     0.279 C 
ENDBRANCH   9  24
BRANCH  10  26
ATOM     26  O   UNL     1       6.107   1.623   3.508  1.00  0.00    -0.490 OA
ATOM     27  C   UNL     1       6.501   2.043   4.813  1.00  0.00     0.278 C 
ENDBRANCH  10  26
TORSDOF 6
ENDMDL
MODEL 5
REMARK VINA RESULT:    -5.227     17.989     20.620
REMARK INTER + INTRA:          -7.687
REMARK INTER:                  -7.028
REMARK INTRA:                  -0.659
REMARK UNBOUND:                -0.626
REMARK SMILES COc1ccc(-c2cc(=O)c3c(OC)c(OC)c(OC)c(OC)c3o2)cc1
REMARK SMILES IDX 7 1 8 2 9 3 10 4 11 5 24 6 25 7 21 8 18 9 15 10 12 11 6 12
REMARK SMILES IDX 3 13 4 14 27 15 5 16 26 17 2 18 1 19 22 20 23 21 13 22 14 23
REMARK SMILES IDX 19 24 20 25 16 26 17 27
REMARK H PARENT
REMARK Flexibility Score: inf
ROOT
ATOM      1  C   UNL     1      -9.245   4.989   7.812  1.00  0.00     0.138 A 
ATOM      2  C   UNL     1      -9.731   6.300   7.893  1.00  0.00     0.100 A 
ATOM      3  C   UNL     1      -9.483   7.188   6.847  1.00  0.00     0.197 A 
ATOM      4  O   UNL     1      -9.928   8.365   6.938  1.00  0.00    -0.289 OA
ATOM      5  C   UNL     1      -8.744   6.759   5.720  1.00  0.00     0.115 A 
ATOM      6  C   UNL     1      -8.277   5.425   5.722  1.00  0.00     0.188 A 
ATOM      7  O   UNL     1      -8.545   4.618   6.745  1.00  0.00    -0.452 OA
ATOM      8  C   UNL     1      -7.518   4.927   4.658  1.00  0.00     0.209 A 
ATOM      9  C   UNL     1      -7.196   5.777   3.579  1.00  0.00     0.211 A 
ATOM     10  C   UNL     1      -7.728   7.084   3.519  1.00  0.00     0.208 A 
ATOM     11  C   UNL     1      -8.468   7.601   4.614  1.00  0.00     0.179 A 
ENDROOT
BRANCH   1  12
ATOM     12  C   UNL     1      -9.472   3.998   8.896  1.00  0.00     0.018 A 
ATOM     13  C   UNL     1      -9.903   2.158  10.995  1.00  0.00     0.118 A 
ATOM     14  C   UNL     1      -9.595   1.706   9.708  1.00  0.00     0.047 A 
ATOM     15  C   UNL     1      -9.982   3.542  11.234  1.00  0.00     0.047 A 
ATOM     16  C   UNL     1      -9.378   2.613   8.667  1.00  0.00     0.016 A 
ATOM     17  C   UNL     1      -9.762   4.451  10.195  1.00  0.00     0.016 A 
BRANCH  13  18
ATOM     18  O   UNL     1     -10.122   1.206  12.002  1.00  0.00    -0.497 OA
ATOM     19  C   UNL     1      -9.420   1.170  13.240  1.00  0.00     0.278 C 
ENDBRANCH  13  18
ENDBRANCH   1  12
BRANCH   8  20
ATOM     20  O   UNL     1      -7.107   3.581   4.744  1.00  0.00    -0.490 OA
ATOM     21  C   UNL     1      -5.837   3.111   5.180  1.00  0.00     0.278 C 
ENDBRANCH   8  20
BRANCH  11  22
ATOM     22  O   UNL     1      -8.961   8.922   4.644  1.00  0.00    -0.492 OA
ATOM     23  C   UNL     1      -8.202  10.125   4.603  1.00  0.00     0.278 C 
ENDBRANCH  11  22
BRANCH   9  24
ATOM     24  O   UNL     1      -6.317   5.341   2.586  1.00  0.00    -0.490 OA
ATOM     25  C   UNL     1      -6.733   4.437   1.567  1.00  0.00     0.279 C 
ENDBRANCH   9  24
BRANCH  10  26
ATOM     26  O   UNL     1      -7.538   7.874   2.378  1.00  0.00    -0.490 OA
ATOM     27  C   UNL     1      -8.461   7.928   1.292  1.00  0.00     0.278 C 
ENDBRANCH  10  26
TORSDOF 6
ENDMDL
MODEL 6
REMARK VINA RESULT:    -5.120      6.844     11.434
REMARK INTER + INTRA:          -7.542
REMARK INTER:                  -6.939
REMARK INTRA:                  -0.603
REMARK UNBOUND:                -0.626
REMARK SMILES COc1ccc(-c2cc(=O)c3c(OC)c(OC)c(OC)c(OC)c3o2)cc1
REMARK SMILES IDX 7 1 8 2 9 3 10 4 11 5 24 6 25 7 21 8 18 9 15 10 12 11 6 12
REMARK SMILES IDX 3 13 4 14 27 15 5 16 26 17 2 18 1 19 22 20 23 21 13 22 14 23
REMARK SMILES IDX 19 24 20 25 16 26 17 27
REMARK H PARENT
REMARK Flexibility Score: inf
ROOT
ATOM      1  C   UNL     1       0.042  -0.119   2.405  1.00  0.00     0.138 A 
ATOM      2  C   UNL     1       0.221   1.237   2.106  1.00  0.00     0.100 A 
ATOM      3  C   UNL     1       1.474   1.820   2.287  1.00  0.00     0.197 A 
ATOM      4  O   UNL     1       1.616   3.043   2.012  1.00  0.00    -0.289 OA
ATOM      5  C   UNL     1       2.549   1.040   2.774  1.00  0.00     0.115 A 
ATOM      6  C   UNL     1       2.284  -0.317   3.066  1.00  0.00     0.188 A 
ATOM      7  O   UNL     1       1.069  -0.824   2.871  1.00  0.00    -0.452 OA
ATOM      8  C   UNL     1       3.283  -1.153   3.573  1.00  0.00     0.209 A 
ATOM      9  C   UNL     1       4.569  -0.626   3.818  1.00  0.00     0.211 A 
ATOM     10  C   UNL     1       4.876   0.703   3.449  1.00  0.00     0.208 A 
ATOM     11  C   UNL     1       3.853   1.560   2.967  1.00  0.00     0.179 A 
ENDROOT
BRANCH   1  12
ATOM     12  C   UNL     1      -1.270  -0.795   2.238  1.00  0.00     0.018 A 
ATOM     13  C   UNL     1      -3.787  -2.045   1.958  1.00  0.00     0.118 A 
ATOM     14  C   UNL     1      -2.647  -2.609   1.379  1.00  0.00     0.047 A 
ATOM     15  C   UNL     1      -3.663  -0.852   2.694  1.00  0.00     0.047 A 
ATOM     16  C   UNL     1      -1.399  -1.997   1.517  1.00  0.00     0.016 A 
ATOM     17  C   UNL     1      -2.415  -0.239   2.836  1.00  0.00     0.016 A 
BRANCH  13  18
ATOM     18  O   UNL     1      -5.018  -2.694   1.781  1.00  0.00    -0.497 OA
ATOM     19  C   UNL     1      -5.952  -2.379   0.753  1.00  0.00     0.278 C 
ENDBRANCH  13  18
ENDBRANCH   1  12
BRANCH   8  20
ATOM     20  O   UNL     1       2.926  -2.493   3.823  1.00  0.00    -0.490 OA
ATOM     21  C   UNL     1       3.111  -3.596   2.943  1.00  0.00     0.278 C 
ENDBRANCH   8  20
BRANCH  11  22
ATOM     22  O   UNL     1       4.082   2.916   2.653  1.00  0.00    -0.492 OA
ATOM     23  C   UNL     1       4.766   3.434   1.517  1.00  0.00     0.278 C 
ENDBRANCH  11  22
BRANCH   9  24
ATOM     24  O   UNL     1       5.531  -1.405   4.462  1.00  0.00    -0.490 OA
ATOM     25  C   UNL     1       6.433  -2.230   3.731  1.00  0.00     0.279 C 
ENDBRANCH   9  24
BRANCH  10  26
ATOM     26  O   UNL     1       6.190   1.179   3.546  1.00  0.00    -0.490 OA
ATOM     27  C   UNL     1       6.711   1.831   4.702  1.00  0.00     0.278 C 
ENDBRANCH  10  26
TORSDOF 6
ENDMDL
MODEL 7
REMARK VINA RESULT:    -5.052      9.243     12.223
REMARK INTER + INTRA:          -7.449
REMARK INTER:                  -6.823
REMARK INTRA:                  -0.626
REMARK UNBOUND:                -0.626
REMARK SMILES COc1ccc(-c2cc(=O)c3c(OC)c(OC)c(OC)c(OC)c3o2)cc1
REMARK SMILES IDX 7 1 8 2 9 3 10 4 11 5 24 6 25 7 21 8 18 9 15 10 12 11 6 12
REMARK SMILES IDX 3 13 4 14 27 15 5 16 26 17 2 18 1 19 22 20 23 21 13 22 14 23
REMARK SMILES IDX 19 24 20 25 16 26 17 27
REMARK H PARENT
REMARK Flexibility Score: inf
ROOT
ATOM      1  C   UNL     1       0.275   0.036   2.580  1.00  0.00     0.138 A 
ATOM      2  C   UNL     1      -0.064  -1.251   2.145  1.00  0.00     0.100 A 
ATOM      3  C   UNL     1      -1.401  -1.647   2.151  1.00  0.00     0.197 A 
ATOM      4  O   UNL     1      -1.687  -2.810   1.756  1.00  0.00    -0.289 OA
ATOM      5  C   UNL     1      -2.398  -0.748   2.598  1.00  0.00     0.115 A 
ATOM      6  C   UNL     1      -1.973   0.527   3.034  1.00  0.00     0.188 A 
ATOM      7  O   UNL     1      -0.684   0.854   3.004  1.00  0.00    -0.452 OA
ATOM      8  C   UNL     1      -2.891   1.466   3.513  1.00  0.00     0.209 A 
ATOM      9  C   UNL     1      -4.258   1.126   3.583  1.00  0.00     0.211 A 
ATOM     10  C   UNL     1      -4.712  -0.109   3.069  1.00  0.00     0.208 A 
ATOM     11  C   UNL     1      -3.777  -1.076   2.615  1.00  0.00     0.179 A 
ENDROOT
BRANCH   1  12
ATOM     12  C   UNL     1       1.681   0.514   2.603  1.00  0.00     0.018 A 
ATOM     13  C   UNL     1       4.369   1.377   2.679  1.00  0.00     0.118 A 
ATOM     14  C   UNL     1       3.377   2.196   2.132  1.00  0.00     0.047 A 
ATOM     15  C   UNL     1       4.010   0.122   3.203  1.00  0.00     0.047 A 
ATOM     16  C   UNL     1       2.045   1.775   2.095  1.00  0.00     0.016 A 
ATOM     17  C   UNL     1       2.678  -0.300   3.170  1.00  0.00     0.016 A 
BRANCH  13  18
ATOM     18  O   UNL     1       5.693   1.843   2.682  1.00  0.00    -0.497 OA
ATOM     19  C   UNL     1       6.823   1.050   3.034  1.00  0.00     0.278 C 
ENDBRANCH  13  18
ENDBRANCH   1  12
BRANCH   8  20
ATOM     20  O   UNL     1      -2.373   2.715   3.914  1.00  0.00    -0.490 OA
ATOM     21  C   UNL     1      -2.323   3.901   3.131  1.00  0.00     0.278 C 
ENDBRANCH   8  20
BRANCH  11  22
ATOM     22  O   UNL     1      -4.164  -2.354   2.161  1.00  0.00    -0.492 OA
ATOM     23  C   UNL     1      -4.860  -2.667   0.960  1.00  0.00     0.278 C 
ENDBRANCH  11  22
BRANCH   9  24
ATOM     24  O   UNL     1      -5.162   1.995   4.197  1.00  0.00    -0.490 OA
ATOM     25  C   UNL     1      -5.888   2.965   3.448  1.00  0.00     0.279 C 
ENDBRANCH   9  24
BRANCH  10  26
ATOM     26  O   UNL     1      -6.084  -0.384   2.994  1.00  0.00    -0.490 OA
ATOM     27  C   UNL     1      -6.814  -1.048   4.024  1.00  0.00     0.278 C 
ENDBRANCH  10  26
TORSDOF 6
ENDMDL
MODEL 8
REMARK VINA RESULT:    -4.866     15.798     18.967
REMARK INTER + INTRA:          -7.199
REMARK INTER:                  -6.624
REMARK INTRA:                  -0.575
REMARK UNBOUND:                -0.626
REMARK SMILES COc1ccc(-c2cc(=O)c3c(OC)c(OC)c(OC)c(OC)c3o2)cc1
REMARK SMILES IDX 7 1 8 2 9 3 10 4 11 5 24 6 25 7 21 8 18 9 15 10 12 11 6 12
REMARK SMILES IDX 3 13 4 14 27 15 5 16 26 17 2 18 1 19 22 20 23 21 13 22 14 23
REMARK SMILES IDX 19 24 20 25 16 26 17 27
REMARK H PARENT
REMARK Flexibility Score: inf
ROOT
ATOM      1  C   UNL     1      -6.481   2.788   2.832  1.00  0.00     0.138 A 
ATOM      2  C   UNL     1      -5.701   3.014   1.691  1.00  0.00     0.100 A 
ATOM      3  C   UNL     1      -5.674   4.285   1.119  1.00  0.00     0.197 A 
ATOM      4  O   UNL     1      -4.967   4.469   0.092  1.00  0.00    -0.289 OA
ATOM      5  C   UNL     1      -6.437   5.330   1.692  1.00  0.00     0.115 A 
ATOM      6  C   UNL     1      -7.209   5.017   2.834  1.00  0.00     0.188 A 
ATOM      7  O   UNL     1      -7.195   3.787   3.342  1.00  0.00    -0.452 OA
ATOM      8  C   UNL     1      -8.009   5.985   3.448  1.00  0.00     0.209 A 
ATOM      9  C   UNL     1      -8.063   7.286   2.906  1.00  0.00     0.211 A 
ATOM     10  C   UNL     1      -7.231   7.640   1.820  1.00  0.00     0.208 A 
ATOM     11  C   UNL     1      -6.446   6.649   1.175  1.00  0.00     0.179 A 
ENDROOT
BRANCH   1  12
ATOM     12  C   UNL     1      -6.554   1.455   3.484  1.00  0.00     0.018 A 
ATOM     13  C   UNL     1      -6.674  -1.057   4.770  1.00  0.00     0.118 A 
ATOM     14  C   UNL     1      -6.866  -0.958   3.389  1.00  0.00     0.047 A 
ATOM     15  C   UNL     1      -6.407   0.110   5.510  1.00  0.00     0.047 A 
ATOM     16  C   UNL     1      -6.805   0.282   2.747  1.00  0.00     0.016 A 
ATOM     17  C   UNL     1      -6.343   1.351   4.870  1.00  0.00     0.016 A 
BRANCH  13  18
ATOM     18  O   UNL     1      -6.756  -2.324   5.368  1.00  0.00    -0.497 OA
ATOM     19  C   UNL     1      -6.672  -2.558   6.770  1.00  0.00     0.278 C 
ENDBRANCH  13  18
ENDBRANCH   1  12
BRANCH   8  20
ATOM     20  O   UNL     1      -8.734   5.581   4.588  1.00  0.00    -0.490 OA
ATOM     21  C   UNL     1      -8.332   5.732   5.944  1.00  0.00     0.278 C 
ENDBRANCH   8  20
BRANCH  11  22
ATOM     22  O   UNL     1      -5.653   6.925   0.042  1.00  0.00    -0.492 OA
ATOM     23  C   UNL     1      -6.103   7.161  -1.287  1.00  0.00     0.278 C 
ENDBRANCH  11  22
BRANCH   9  24
ATOM     24  O   UNL     1      -8.969   8.217   3.416  1.00  0.00    -0.490 OA
ATOM     25  C   UNL     1      -8.599   9.132   4.443  1.00  0.00     0.279 C 
ENDBRANCH   9  24
BRANCH  10  26
ATOM     26  O   UNL     1      -7.167   8.968   1.380  1.00  0.00    -0.490 OA
ATOM     27  C   UNL     1      -8.107   9.548   0.477  1.00  0.00     0.278 C 
ENDBRANCH  10  26
TORSDOF 6
ENDMDL
MODEL 9
REMARK VINA RESULT:    -3.652      1.460      2.357
REMARK INTER + INTRA:          -5.559
REMARK INTER:                  -4.860
REMARK INTRA:                  -0.698
REMARK UNBOUND:                -0.626
REMARK SMILES COc1ccc(-c2cc(=O)c3c(OC)c(OC)c(OC)c(OC)c3o2)cc1
REMARK SMILES IDX 7 1 8 2 9 3 10 4 11 5 24 6 25 7 21 8 18 9 15 10 12 11 6 12
REMARK SMILES IDX 3 13 4 14 27 15 5 16 26 17 2 18 1 19 22 20 23 21 13 22 14 23
REMARK SMILES IDX 19 24 20 25 16 26 17 27
REMARK H PARENT
REMARK Flexibility Score: inf
ROOT
ATOM      1  C   UNL     1       9.170  -4.973   7.552  1.00  0.00     0.138 A 
ATOM      2  C   UNL     1       9.611  -6.300   7.631  1.00  0.00     0.100 A 
ATOM      3  C   UNL     1       9.347  -7.174   6.577  1.00  0.00     0.197 A 
ATOM      4  O   UNL     1       9.751  -8.365   6.665  1.00  0.00    -0.289 OA
ATOM      5  C   UNL     1       8.634  -6.714   5.444  1.00  0.00     0.115 A 
ATOM      6  C   UNL     1       8.211  -5.366   5.448  1.00  0.00     0.188 A 
ATOM      7  O   UNL     1       8.493  -4.574   6.480  1.00  0.00    -0.452 OA
ATOM      8  C   UNL     1       7.481  -4.838   4.380  1.00  0.00     0.209 A 
ATOM      9  C   UNL     1       7.143  -5.670   3.292  1.00  0.00     0.211 A 
ATOM     10  C   UNL     1       7.633  -6.994   3.230  1.00  0.00     0.208 A 
ATOM     11  C   UNL     1       8.344  -7.540   4.330  1.00  0.00     0.179 A 
ENDROOT
BRANCH   1  12
ATOM     12  C   UNL     1       9.416  -3.997   8.644  1.00  0.00     0.018 A 
ATOM     13  C   UNL     1       9.888  -2.184  10.758  1.00  0.00     0.118 A 
ATOM     14  C   UNL     1       9.514  -1.718   9.495  1.00  0.00     0.047 A 
ATOM     15  C   UNL     1      10.014  -3.569  10.967  1.00  0.00     0.047 A 
ATOM     16  C   UNL     1       9.276  -2.611   8.446  1.00  0.00     0.016 A 
ATOM     17  C   UNL     1       9.774  -4.465   9.921  1.00  0.00     0.016 A 
BRANCH  13  18
ATOM     18  O   UNL     1      10.125  -1.245  11.774  1.00  0.00    -0.497 OA
ATOM     19  C   UNL     1       9.290  -1.066  12.913  1.00  0.00     0.278 C 
ENDBRANCH  13  18
ENDBRANCH   1  12
BRANCH   8  20
ATOM     20  O   UNL     1       7.113  -3.480   4.470  1.00  0.00    -0.490 OA
ATOM     21  C   UNL     1       5.858  -2.970   4.903  1.00  0.00     0.278 C 
ENDBRANCH   8  20
BRANCH  11  22
ATOM     22  O   UNL     1       8.793  -8.878   4.358  1.00  0.00    -0.492 OA
ATOM     23  C   UNL     1       7.993 -10.054   4.387  1.00  0.00     0.278 C 
ENDBRANCH  11  22
BRANCH   9  24
ATOM     24  O   UNL     1       6.290  -5.200   2.292  1.00  0.00    -0.490 OA
ATOM     25  C   UNL     1       6.773  -4.408   1.212  1.00  0.00     0.279 C 
ENDBRANCH   9  24
BRANCH  10  26
ATOM     26  O   UNL     1       7.431  -7.771   2.082  1.00  0.00    -0.490 OA
ATOM     27  C   UNL     1       8.386  -7.891   1.030  1.00  0.00     0.278 C 
ENDBRANCH  10  26
TORSDOF 6
ENDMDL
