MODEL 1
REMARK VINA RESULT:    -3.976      0.000      0.000
REMARK INTER + INTRA:          -6.744
REMARK INTER:                  -6.068
REMARK INTRA:                  -0.676
REMARK UNBOUND:                -0.676
REMARK SMILES CCCCCCCCCCC(=O)[O-]
REMARK SMILES IDX 7 1 8 2 9 3 10 4 11 5 12 6 13 7 6 8 5 9 4 10 3 11 2 12 1 13
REMARK H PARENT
REMARK Flexibility Score: inf
ROOT
ATOM      1  C   UNL     1       6.433  -1.710  -2.563  1.00  0.00     0.000 C 
ENDROOT
BRANCH   1   2
ATOM      2  C   UNL     1       5.408  -0.764  -1.924  1.00  0.00     0.000 C 
BRANCH   2   3
ATOM      3  C   UNL     1       6.071   0.141  -0.876  1.00  0.00     0.006 C 
BRANCH   3   4
ATOM      4  C   UNL     1       6.292  -0.581   0.460  1.00  0.00     0.053 C 
BRANCH   4   5
ATOM      5  C   UNL     1       5.692   0.174   1.605  1.00  0.00     0.041 C 
ATOM      6  O   UNL     1       5.468  -0.406   2.701  1.00  0.00    -0.550 OA
ATOM      7  O   UNL     1       5.410   1.529   1.473  1.00  0.00    -0.550 OA
ENDBRANCH   4   5
ENDBRANCH   3   4
ENDBRANCH   2   3
ENDBRANCH   1   2
BRANCH   1   8
ATOM      8  C   UNL     1       5.993  -2.125  -3.974  1.00  0.00     0.000 C 
BRANCH   8   9
ATOM      9  C   UNL     1       5.110  -1.066  -4.656  1.00  0.00    -0.000 C 
BRANCH   9  10
ATOM     10  C   UNL     1       3.870  -1.677  -5.330  1.00  0.00    -0.000 C 
BRANCH  10  11
ATOM     11  C   UNL     1       2.594  -1.530  -4.482  1.00  0.00    -0.000 C 
BRANCH  11  12
ATOM     12  C   UNL     1       2.051  -2.843  -3.889  1.00  0.00    -0.003 C 
ATOM     13  C   UNL     1       2.447  -4.075  -4.702  1.00  0.00     0.004 C 
ENDBRANCH  11  12
ENDBRANCH  10  11
ENDBRANCH   9  10
ENDBRANCH   8   9
ENDBRANCH   1   8
TORSDOF 9
ENDMDL
MODEL 2
REMARK VINA RESULT:    -3.844      0.854      1.389
REMARK INTER + INTRA:          -6.542
REMARK INTER:                  -6.171
REMARK INTRA:                  -0.371
REMARK UNBOUND:                -0.676
REMARK SMILES CCCCCCCCCCC(=O)[O-]
REMARK SMILES IDX 7 1 8 2 9 3 10 4 11 5 12 6 13 7 6 8 5 9 4 10 3 11 2 12 1 13
REMARK H PARENT
REMARK Flexibility Score: inf
ROOT
ATOM      1  C   UNL     1       5.662  -1.485  -2.624  1.00  0.00     0.000 C 
ENDROOT
BRANCH   1   2
ATOM      2  C   UNL     1       5.606  -0.497  -1.453  1.00  0.00     0.000 C 
BRANCH   2   3
ATOM      3  C   UNL     1       6.401  -1.024  -0.249  1.00  0.00     0.006 C 
BRANCH   3   4
ATOM      4  C   UNL     1       6.848   0.104   0.691  1.00  0.00     0.053 C 
BRANCH   4   5
ATOM      5  C   UNL     1       5.766   0.483   1.656  1.00  0.00     0.041 C 
ATOM      6  O   UNL     1       5.200   1.605   1.566  1.00  0.00    -0.550 OA
ATOM      7  O   UNL     1       5.360  -0.417   2.634  1.00  0.00    -0.550 OA
ENDBRANCH   4   5
ENDBRANCH   3   4
ENDBRANCH   2   3
ENDBRANCH   1   2
BRANCH   1   8
ATOM      8  C   UNL     1       5.535  -0.752  -3.968  1.00  0.00     0.000 C 
BRANCH   8   9
ATOM      9  C   UNL     1       4.286  -1.174  -4.759  1.00  0.00    -0.000 C 
BRANCH   9  10
ATOM     10  C   UNL     1       3.137  -1.636  -3.845  1.00  0.00    -0.000 C 
BRANCH  10  11
ATOM     11  C   UNL     1       2.244  -2.705  -4.501  1.00  0.00    -0.000 C 
BRANCH  11  12
ATOM     12  C   UNL     1       1.474  -3.603  -3.515  1.00  0.00    -0.003 C 
ATOM     13  C   UNL     1       1.323  -5.041  -4.008  1.00  0.00     0.004 C 
ENDBRANCH  11  12
ENDBRANCH  10  11
ENDBRANCH   9  10
ENDBRANCH   8   9
ENDBRANCH   1   8
TORSDOF 9
ENDMDL
MODEL 3
REMARK VINA RESULT:    -3.820      1.054      1.396
REMARK INTER + INTRA:          -6.507
REMARK INTER:                  -5.964
REMARK INTRA:                  -0.542
REMARK UNBOUND:                -0.676
REMARK SMILES CCCCCCCCCCC(=O)[O-]
REMARK SMILES IDX 7 1 8 2 9 3 10 4 11 5 12 6 13 7 6 8 5 9 4 10 3 11 2 12 1 13
REMARK H PARENT
REMARK Flexibility Score: inf
ROOT
ATOM      1  C   UNL     1       6.541  -1.320  -1.217  1.00  0.00     0.000 C 
ENDROOT
BRANCH   1   2
ATOM      2  C   UNL     1       5.391  -0.392  -0.807  1.00  0.00     0.000 C 
BRANCH   2   3
ATOM      3  C   UNL     1       5.912   1.009  -0.454  1.00  0.00     0.006 C 
BRANCH   3   4
ATOM      4  C   UNL     1       5.577   1.408   0.989  1.00  0.00     0.053 C 
BRANCH   4   5
ATOM      5  C   UNL     1       6.160   0.447   1.979  1.00  0.00     0.041 C 
ATOM      6  O   UNL     1       5.406  -0.294   2.663  1.00  0.00    -0.550 OA
ATOM      7  O   UNL     1       7.539   0.348   2.123  1.00  0.00    -0.550 OA
ENDBRANCH   4   5
ENDBRANCH   3   4
ENDBRANCH   2   3
ENDBRANCH   1   2
BRANCH   1   8
ATOM      8  C   UNL     1       6.358  -1.817  -2.658  1.00  0.00     0.000 C 
BRANCH   8   9
ATOM      9  C   UNL     1       5.031  -1.355  -3.282  1.00  0.00    -0.000 C 
BRANCH   9  10
ATOM     10  C   UNL     1       4.923  -1.714  -4.774  1.00  0.00    -0.000 C 
BRANCH  10  11
ATOM     11  C   UNL     1       3.468  -1.755  -5.275  1.00  0.00    -0.000 C 
BRANCH  11  12
ATOM     12  C   UNL     1       2.402  -1.869  -4.171  1.00  0.00    -0.003 C 
ATOM     13  C   UNL     1       1.769  -3.258  -4.090  1.00  0.00     0.004 C 
ENDBRANCH  11  12
ENDBRANCH  10  11
ENDBRANCH   9  10
ENDBRANCH   8   9
ENDBRANCH   1   8
TORSDOF 9
ENDMDL
MODEL 4
REMARK VINA RESULT:    -3.717      3.766      5.969
REMARK INTER + INTRA:          -6.349
REMARK INTER:                  -5.598
REMARK INTRA:                  -0.751
REMARK UNBOUND:                -0.676
REMARK SMILES CCCCCCCCCCC(=O)[O-]
REMARK SMILES IDX 7 1 8 2 9 3 10 4 11 5 12 6 13 7 6 8 5 9 4 10 3 11 2 12 1 13
REMARK H PARENT
REMARK Flexibility Score: inf
ROOT
ATOM      1  C   UNL     1       5.051  -1.724  -3.772  1.00  0.00     0.000 C 
ENDROOT
BRANCH   1   2
ATOM      2  C   UNL     1       4.413  -1.127  -5.032  1.00  0.00     0.000 C 
BRANCH   2   3
ATOM      3  C   UNL     1       2.925  -1.497  -5.125  1.00  0.00     0.006 C 
BRANCH   3   4
ATOM      4  C   UNL     1       2.401  -2.129  -3.829  1.00  0.00     0.053 C 
BRANCH   4   5
ATOM      5  C   UNL     1       1.786  -3.473  -4.075  1.00  0.00     0.041 C 
ATOM      6  O   UNL     1       0.964  -3.955  -3.252  1.00  0.00    -0.550 OA
ATOM      7  O   UNL     1       2.096  -4.177  -5.232  1.00  0.00    -0.550 OA
ENDBRANCH   4   5
ENDBRANCH   3   4
ENDBRANCH   2   3
ENDBRANCH   1   2
BRANCH   1   8
ATOM      8  C   UNL     1       5.921  -0.683  -3.052  1.00  0.00     0.000 C 
BRANCH   8   9
ATOM      9  C   UNL     1       5.724  -0.698  -1.527  1.00  0.00    -0.000 C 
BRANCH   9  10
ATOM     10  C   UNL     1       7.017  -1.044  -0.768  1.00  0.00    -0.000 C 
BRANCH  10  11
ATOM     11  C   UNL     1       7.159  -2.550  -0.484  1.00  0.00    -0.000 C 
BRANCH  11  12
ATOM     12  C   UNL     1       8.347  -3.235  -1.184  1.00  0.00    -0.003 C 
ATOM     13  C   UNL     1       7.991  -3.789  -2.563  1.00  0.00     0.004 C 
ENDBRANCH  11  12
ENDBRANCH  10  11
ENDBRANCH   9  10
ENDBRANCH   8   9
ENDBRANCH   1   8
TORSDOF 9
ENDMDL
MODEL 5
REMARK VINA RESULT:    -3.681      3.624      6.042
REMARK INTER + INTRA:          -6.294
REMARK INTER:                  -5.728
REMARK INTRA:                  -0.566
REMARK UNBOUND:                -0.676
REMARK SMILES CCCCCCCCCCC(=O)[O-]
REMARK SMILES IDX 7 1 8 2 9 3 10 4 11 5 12 6 13 7 6 8 5 9 4 10 3 11 2 12 1 13
REMARK H PARENT
REMARK Flexibility Score: inf
ROOT
ATOM      1  C   UNL     1       3.810  -1.630  -5.468  1.00  0.00     0.000 C 
ENDROOT
BRANCH   1   2
ATOM      2  C   UNL     1       2.448  -1.475  -4.780  1.00  0.00     0.000 C 
BRANCH   2   3
ATOM      3  C   UNL     1       2.235  -2.571  -3.725  1.00  0.00     0.006 C 
BRANCH   3   4
ATOM      4  C   UNL     1       1.637  -3.849  -4.327  1.00  0.00     0.053 C 
BRANCH   4   5
ATOM      5  C   UNL     1       1.004  -4.713  -3.279  1.00  0.00     0.041 C 
ATOM      6  O   UNL     1       0.014  -4.293  -2.624  1.00  0.00    -0.550 OA
ATOM      7  O   UNL     1       1.489  -5.995  -3.049  1.00  0.00    -0.550 OA
ENDBRANCH   4   5
ENDBRANCH   3   4
ENDBRANCH   2   3
ENDBRANCH   1   2
BRANCH   1   8
ATOM      8  C   UNL     1       4.884  -2.080  -4.465  1.00  0.00     0.000 C 
BRANCH   8   9
ATOM      9  C   UNL     1       5.590  -0.897  -3.783  1.00  0.00    -0.000 C 
BRANCH   9  10
ATOM     10  C   UNL     1       5.337  -0.855  -2.266  1.00  0.00    -0.000 C 
BRANCH  10  11
ATOM     11  C   UNL     1       6.629  -0.664  -1.449  1.00  0.00    -0.000 C 
BRANCH  11  12
ATOM     12  C   UNL     1       6.844  -1.692  -0.324  1.00  0.00    -0.003 C 
ATOM     13  C   UNL     1       7.586  -2.944  -0.790  1.00  0.00     0.004 C 
ENDBRANCH  11  12
ENDBRANCH  10  11
ENDBRANCH   9  10
ENDBRANCH   8   9
ENDBRANCH   1   8
TORSDOF 9
ENDMDL
MODEL 6
REMARK VINA RESULT:    -3.563      1.910      3.112
REMARK INTER + INTRA:          -6.114
REMARK INTER:                  -4.951
REMARK INTRA:                  -1.163
REMARK UNBOUND:                -0.676
REMARK SMILES CCCCCCCCCCC(=O)[O-]
REMARK SMILES IDX 7 1 8 2 9 3 10 4 11 5 12 6 13 7 6 8 5 9 4 10 3 11 2 12 1 13
REMARK H PARENT
REMARK Flexibility Score: inf
ROOT
ATOM      1  C   UNL     1       7.079  -2.293  -0.510  1.00  0.00     0.000 C 
ENDROOT
BRANCH   1   2
ATOM      2  C   UNL     1       7.865  -1.073  -0.014  1.00  0.00     0.000 C 
BRANCH   2   3
ATOM      3  C   UNL     1       7.101   0.229  -0.299  1.00  0.00     0.006 C 
BRANCH   3   4
ATOM      4  C   UNL     1       5.654   0.176   0.206  1.00  0.00     0.053 C 
BRANCH   4   5
ATOM      5  C   UNL     1       5.559   0.536   1.657  1.00  0.00     0.041 C 
ATOM      6  O   UNL     1       5.372  -0.359   2.523  1.00  0.00    -0.550 OA
ATOM      7  O   UNL     1       5.711   1.859   2.056  1.00  0.00    -0.550 OA
ENDBRANCH   4   5
ENDBRANCH   3   4
ENDBRANCH   2   3
ENDBRANCH   1   2
BRANCH   1   8
ATOM      8  C   UNL     1       8.029  -3.402  -0.985  1.00  0.00     0.000 C 
BRANCH   8   9
ATOM      9  C   UNL     1       8.318  -3.330  -2.493  1.00  0.00    -0.000 C 
BRANCH   9  10
ATOM     10  C   UNL     1       7.052  -3.063  -3.326  1.00  0.00    -0.000 C 
BRANCH  10  11
ATOM     11  C   UNL     1       7.139  -1.765  -4.149  1.00  0.00    -0.000 C 
BRANCH  11  12
ATOM     12  C   UNL     1       6.123  -0.677  -3.758  1.00  0.00    -0.003 C 
ATOM     13  C   UNL     1       4.748  -1.241  -3.403  1.00  0.00     0.004 C 
ENDBRANCH  11  12
ENDBRANCH  10  11
ENDBRANCH   9  10
ENDBRANCH   8   9
ENDBRANCH   1   8
TORSDOF 9
ENDMDL
MODEL 7
REMARK VINA RESULT:    -3.451      1.685      2.148
REMARK INTER + INTRA:          -5.943
REMARK INTER:                  -5.329
REMARK INTRA:                  -0.614
REMARK UNBOUND:                -0.676
REMARK SMILES CCCCCCCCCCC(=O)[O-]
REMARK SMILES IDX 7 1 8 2 9 3 10 4 11 5 12 6 13 7 6 8 5 9 4 10 3 11 2 12 1 13
REMARK H PARENT
REMARK Flexibility Score: inf
ROOT
ATOM      1  C   UNL     1       6.807  -1.682  -1.675  1.00  0.00     0.000 C 
ENDROOT
BRANCH   1   2
ATOM      2  C   UNL     1       6.531  -1.147  -0.264  1.00  0.00     0.000 C 
BRANCH   2   3
ATOM      3  C   UNL     1       5.369  -0.142  -0.273  1.00  0.00     0.006 C 
BRANCH   3   4
ATOM      4  C   UNL     1       5.735   1.176   0.422  1.00  0.00     0.053 C 
BRANCH   4   5
ATOM      5  C   UNL     1       6.900   1.847  -0.240  1.00  0.00     0.041 C 
ATOM      6  O   UNL     1       6.817   2.227  -1.437  1.00  0.00    -0.550 OA
ATOM      7  O   UNL     1       8.067   2.081   0.478  1.00  0.00    -0.550 OA
ENDBRANCH   4   5
ENDBRANCH   3   4
ENDBRANCH   2   3
ENDBRANCH   1   2
BRANCH   1   8
ATOM      8  C   UNL     1       5.912  -0.985  -2.711  1.00  0.00     0.000 C 
BRANCH   8   9
ATOM      9  C   UNL     1       5.347  -1.960  -3.758  1.00  0.00    -0.000 C 
BRANCH   9  10
ATOM     10  C   UNL     1       4.169  -1.362  -4.546  1.00  0.00    -0.000 C 
BRANCH  10  11
ATOM     11  C   UNL     1       2.801  -1.700  -3.926  1.00  0.00    -0.000 C 
BRANCH  11  12
ATOM     12  C   UNL     1       2.067  -2.885  -4.578  1.00  0.00    -0.003 C 
ATOM     13  C   UNL     1       1.400  -3.810  -3.560  1.00  0.00     0.004 C 
ENDBRANCH  11  12
ENDBRANCH  10  11
ENDBRANCH   9  10
ENDBRANCH   8   9
ENDBRANCH   1   8
TORSDOF 9
ENDMDL
MODEL 8
REMARK VINA RESULT:    -3.431      3.673      5.691
REMARK INTER + INTRA:          -5.912
REMARK INTER:                  -5.221
REMARK INTRA:                  -0.691
REMARK UNBOUND:                -0.676
REMARK SMILES CCCCCCCCCCC(=O)[O-]
REMARK SMILES IDX 7 1 8 2 9 3 10 4 11 5 12 6 13 7 6 8 5 9 4 10 3 11 2 12 1 13
REMARK H PARENT
REMARK Flexibility Score: inf
ROOT
ATOM      1  C   UNL     1       2.550  -3.960  -4.744  1.00  0.00     0.000 C 
ENDROOT
BRANCH   1   2
ATOM      2  C   UNL     1       1.941  -2.784  -3.970  1.00  0.00     0.000 C 
BRANCH   2   3
ATOM      3  C   UNL     1       2.567  -1.451  -4.410  1.00  0.00     0.006 C 
BRANCH   3   4
ATOM      4  C   UNL     1       3.818  -1.655  -5.274  1.00  0.00     0.053 C 
BRANCH   4   5
ATOM      5  C   UNL     1       5.021  -0.996  -4.671  1.00  0.00     0.041 C 
ATOM      6  O   UNL     1       5.377  -1.278  -3.497  1.00  0.00    -0.550 OA
ATOM      7  O   UNL     1       5.768  -0.094  -5.419  1.00  0.00    -0.550 OA
ENDBRANCH   4   5
ENDBRANCH   3   4
ENDBRANCH   2   3
ENDBRANCH   1   2
BRANCH   1   8
ATOM      8  C   UNL     1       1.921  -5.291  -4.304  1.00  0.00     0.000 C 
BRANCH   8   9
ATOM      9  C   UNL     1       0.385  -5.238  -4.268  1.00  0.00    -0.000 C 
BRANCH   9  10
ATOM     10  C   UNL     1      -0.188  -5.646  -2.900  1.00  0.00    -0.000 C 
BRANCH  10  11
ATOM     11  C   UNL     1       0.757  -5.312  -1.731  1.00  0.00    -0.000 C 
BRANCH  11  12
ATOM     12  C   UNL     1       1.241  -6.526  -0.919  1.00  0.00    -0.003 C 
ATOM     13  C   UNL     1       1.175  -7.836  -1.702  1.00  0.00     0.004 C 
ENDBRANCH  11  12
ENDBRANCH  10  11
ENDBRANCH   9  10
ENDBRANCH   8   9
ENDBRANCH   1   8
TORSDOF 9
ENDMDL
MODEL 9
REMARK VINA RESULT:    -3.428      3.614      6.310
REMARK INTER + INTRA:          -5.907
REMARK INTER:                  -5.377
REMARK INTRA:                  -0.530
REMARK UNBOUND:                -0.676
REMARK SMILES CCCCCCCCCCC(=O)[O-]
REMARK SMILES IDX 7 1 8 2 9 3 10 4 11 5 12 6 13 7 6 8 5 9 4 10 3 11 2 12 1 13
REMARK H PARENT
REMARK Flexibility Score: inf
ROOT
ATOM      1  C   UNL     1       5.027  -1.756  -3.864  1.00  0.00     0.000 C 
ENDROOT
BRANCH   1   2
ATOM      2  C   UNL     1       4.349  -1.145  -5.097  1.00  0.00     0.000 C 
BRANCH   2   3
ATOM      3  C   UNL     1       2.865  -1.535  -5.161  1.00  0.00     0.006 C 
BRANCH   3   4
ATOM      4  C   UNL     1       2.370  -2.154  -3.847  1.00  0.00     0.053 C 
BRANCH   4   5
ATOM      5  C   UNL     1       1.803  -3.524  -4.058  1.00  0.00     0.041 C 
ATOM      6  O   UNL     1       2.249  -4.261  -4.977  1.00  0.00    -0.550 OA
ATOM      7  O   UNL     1       0.802  -3.999  -3.219  1.00  0.00    -0.550 OA
ENDBRANCH   4   5
ENDBRANCH   3   4
ENDBRANCH   2   3
ENDBRANCH   1   2
BRANCH   1   8
ATOM      8  C   UNL     1       5.895  -0.715  -3.142  1.00  0.00     0.000 C 
BRANCH   8   9
ATOM      9  C   UNL     1       6.189  -1.098  -1.682  1.00  0.00    -0.000 C 
BRANCH   9  10
ATOM     10  C   UNL     1       5.383  -0.257  -0.677  1.00  0.00    -0.000 C 
BRANCH  10  11
ATOM     11  C   UNL     1       6.172   0.061   0.606  1.00  0.00    -0.000 C 
BRANCH  11  12
ATOM     12  C   UNL     1       6.654   1.517   0.728  1.00  0.00    -0.003 C 
ATOM     13  C   UNL     1       6.047   2.440  -0.327  1.00  0.00     0.004 C 
ENDBRANCH  11  12
ENDBRANCH  10  11
ENDBRANCH   9  10
ENDBRANCH   8   9
ENDBRANCH   1   8
TORSDOF 9
ENDMDL
