MODEL 1
REMARK VINA RESULT:    -1.531      0.000      0.000
REMARK INTER + INTRA:          -1.665
REMARK INTER:                  -1.665
REMARK INTRA:                   0.000
REMARK UNBOUND:                 0.000
REMARK SMILES Cc1cc(O)c2c(c1)C(=O)c1cc(O)cc(O)c1C2=O
REMARK SMILES IDX 1 1 2 2 8 3 7 4 6 5 4 6 3 7 19 8 20 9 18 10 11 11 9 12 10 13
REMARK SMILES IDX 12 14 13 15 15 16 16 17 5 18 17 20 14 22
REMARK H PARENT 5 19 17 21 14 23
REMARK Flexibility Score: inf
ROOT
ATOM      1  C   UNL     1      29.069  34.133  20.615  1.00  0.00     0.044 C 
ATOM      2  C   UNL     1      29.113  33.372  21.908  1.00  0.00    -0.047 A 
ATOM      3  C   UNL     1      29.105  31.973  21.901  1.00  0.00     0.016 A 
ATOM      4  C   UNL     1      29.109  31.248  23.106  1.00  0.00     0.038 A 
ATOM      5  C   UNL     1      29.107  31.935  24.340  1.00  0.00     0.076 A 
ATOM      6  C   UNL     1      29.095  33.352  24.340  1.00  0.00     0.127 A 
ATOM      7  C   UNL     1      29.092  34.054  23.128  1.00  0.00     0.050 A 
ATOM      8  C   UNL     1      29.114  31.157  25.610  1.00  0.00     0.201 C 
ATOM      9  O   UNL     1      29.121  31.763  26.715  1.00  0.00    -0.288 OA
ATOM     10  C   UNL     1      29.116  29.666  25.586  1.00  0.00     0.076 A 
ATOM     11  C   UNL     1      29.114  28.995  24.343  1.00  0.00     0.041 A 
ATOM     12  C   UNL     1      29.111  29.767  23.079  1.00  0.00     0.194 C 
ATOM     13  O   UNL     1      29.112  29.160  21.972  1.00  0.00    -0.289 OA
ATOM     14  C   UNL     1      29.115  27.588  24.307  1.00  0.00     0.059 A 
ATOM     15  C   UNL     1      29.117  26.847  25.491  1.00  0.00     0.120 A 
ATOM     16  C   UNL     1      29.119  27.505  26.721  1.00  0.00     0.093 A 
ATOM     17  C   UNL     1      29.118  28.904  26.781  1.00  0.00     0.131 A 
ENDROOT
BRANCH   6  18
ATOM     18  O   UNL     1      29.083  34.068  25.537  1.00  0.00    -0.507 OA
ATOM     19  H   UNL     1      29.855  34.667  25.809  1.00  0.00     0.293 HD
ENDBRANCH   6  18
BRANCH  17  20
ATOM     20  O   UNL     1      29.119  29.530  28.028  1.00  0.00    -0.507 OA
ATOM     21  H   UNL     1      28.477  29.255  28.763  1.00  0.00     0.293 HD
ENDBRANCH  17  20
BRANCH  15  22
ATOM     22  O   UNL     1      29.118  25.454  25.459  1.00  0.00    -0.508 OA
ATOM     23  H   UNL     1      28.286  24.919  25.676  1.00  0.00     0.293 HD
ENDBRANCH  15  22
TORSDOF 3
ENDMDL
