MODEL 1
REMARK VINA RESULT:    -6.458      0.000      0.000
REMARK INTER + INTRA:          -8.709
REMARK INTER:                  -8.157
REMARK INTRA:                  -0.551
REMARK UNBOUND:                -0.551
REMARK SMILES Oc1cc(O)cc(CCc2ccccc2O)c1
REMARK SMILES IDX 9 1 10 2 12 3 13 4 11 5 14 6 15 7 16 8 8 10 7 11 6 12 17 13
REMARK SMILES IDX 4 14 2 15 3 16 5 17 1 19
REMARK H PARENT 16 9 5 18 1 20
REMARK Flexibility Score: inf
ROOT
ATOM      1  C   UNL     1       4.224   3.733  14.051  1.00  0.00     0.044 C 
ENDROOT
BRANCH   1   2
ATOM      2  C   UNL     1       3.579   4.299  12.809  1.00  0.00    -0.006 A 
ATOM      3  C   UNL     1       1.594   4.504  11.411  1.00  0.00     0.001 A 
ATOM      4  C   UNL     1       2.307   5.285  10.502  1.00  0.00     0.004 A 
ATOM      5  C   UNL     1       2.225   4.009  12.555  1.00  0.00     0.007 A 
ATOM      6  C   UNL     1       3.654   5.568  10.730  1.00  0.00     0.046 A 
ATOM      7  C   UNL     1       4.303   5.077  11.871  1.00  0.00     0.118 A 
BRANCH   7   8
ATOM      8  O   UNL     1       5.658   5.376  12.032  1.00  0.00    -0.508 OA
ATOM      9  H   UNL     1       6.316   4.761  12.493  1.00  0.00     0.293 HD
ENDBRANCH   7   8
ENDBRANCH   1   2
BRANCH   1  10
ATOM     10  C   UNL     1       3.178   3.484  15.142  1.00  0.00     0.040 C 
BRANCH  10  11
ATOM     11  C   UNL     1       3.057   2.013  15.434  1.00  0.00    -0.040 A 
ATOM     12  C   UNL     1       4.052   1.120  15.001  1.00  0.00     0.050 A 
ATOM     13  C   UNL     1       1.920   1.513  16.089  1.00  0.00     0.050 A 
ATOM     14  C   UNL     1       3.922  -0.254  15.243  1.00  0.00     0.119 A 
ATOM     15  C   UNL     1       1.791   0.138  16.331  1.00  0.00     0.119 A 
ATOM     16  C   UNL     1       2.793  -0.740  15.910  1.00  0.00     0.092 A 
BRANCH  14  17
ATOM     17  O   UNL     1       4.908  -1.144  14.823  1.00  0.00    -0.508 OA
ATOM     18  H   UNL     1       5.744  -1.306  15.371  1.00  0.00     0.293 HD
ENDBRANCH  14  17
BRANCH  15  19
ATOM     19  O   UNL     1       0.668  -0.364  16.987  1.00  0.00    -0.508 OA
ATOM     20  H   UNL     1      -0.269  -0.180  16.648  1.00  0.00     0.293 HD
ENDBRANCH  15  19
ENDBRANCH  10  11
ENDBRANCH   1  10
TORSDOF 6
ENDMDL
MODEL 2
REMARK VINA RESULT:    -6.455      0.081      2.031
REMARK INTER + INTRA:          -8.704
REMARK INTER:                  -8.167
REMARK INTRA:                  -0.538
REMARK UNBOUND:                -0.551
REMARK SMILES Oc1cc(O)cc(CCc2ccccc2O)c1
REMARK SMILES IDX 9 1 10 2 12 3 13 4 11 5 14 6 15 7 16 8 8 10 7 11 6 12 17 13
REMARK SMILES IDX 4 14 2 15 3 16 5 17 1 19
REMARK H PARENT 16 9 5 18 1 20
REMARK Flexibility Score: inf
ROOT
ATOM      1  C   UNL     1       4.235   3.738  14.070  1.00  0.00     0.044 C 
ENDROOT
BRANCH   1   2
ATOM      2  C   UNL     1       3.596   4.310  12.827  1.00  0.00    -0.006 A 
ATOM      3  C   UNL     1       1.615   4.531  11.426  1.00  0.00     0.001 A 
ATOM      4  C   UNL     1       2.336   5.305  10.517  1.00  0.00     0.004 A 
ATOM      5  C   UNL     1       2.240   4.032  12.571  1.00  0.00     0.007 A 
ATOM      6  C   UNL     1       3.685   5.577  10.747  1.00  0.00     0.046 A 
ATOM      7  C   UNL     1       4.328   5.080  11.889  1.00  0.00     0.118 A 
BRANCH   7   8
ATOM      8  O   UNL     1       5.685   5.367  12.051  1.00  0.00    -0.508 OA
ATOM      9  H   UNL     1       6.058   5.885  12.837  1.00  0.00     0.293 HD
ENDBRANCH   7   8
ENDBRANCH   1   2
BRANCH   1  10
ATOM     10  C   UNL     1       3.180   3.464  15.145  1.00  0.00     0.040 C 
BRANCH  10  11
ATOM     11  C   UNL     1       3.016   1.983  15.360  1.00  0.00    -0.040 A 
ATOM     12  C   UNL     1       1.858   1.479  15.976  1.00  0.00     0.050 A 
ATOM     13  C   UNL     1       4.046   1.099  15.001  1.00  0.00     0.050 A 
ATOM     14  C   UNL     1       1.722   0.104  16.207  1.00  0.00     0.119 A 
ATOM     15  C   UNL     1       3.909  -0.277  15.232  1.00  0.00     0.119 A 
ATOM     16  C   UNL     1       2.746  -0.771  15.831  1.00  0.00     0.092 A 
BRANCH  14  17
ATOM     17  O   UNL     1       0.573  -0.403  16.811  1.00  0.00    -0.508 OA
ATOM     18  H   UNL     1      -0.254  -0.629  16.271  1.00  0.00     0.293 HD
ENDBRANCH  14  17
BRANCH  15  19
ATOM     19  O   UNL     1       4.924  -1.161  14.871  1.00  0.00    -0.508 OA
ATOM     20  H   UNL     1       5.236  -1.246  13.911  1.00  0.00     0.293 HD
ENDBRANCH  15  19
ENDBRANCH  10  11
ENDBRANCH   1  10
TORSDOF 6
ENDMDL
MODEL 3
REMARK VINA RESULT:    -6.410     15.592     17.316
REMARK INTER + INTRA:          -8.648
REMARK INTER:                  -8.055
REMARK INTRA:                  -0.593
REMARK UNBOUND:                -0.551
REMARK SMILES Oc1cc(O)cc(CCc2ccccc2O)c1
REMARK SMILES IDX 9 1 10 2 12 3 13 4 11 5 14 6 15 7 16 8 8 10 7 11 6 12 17 13
REMARK SMILES IDX 4 14 2 15 3 16 5 17 1 19
REMARK H PARENT 16 9 5 18 1 20
REMARK Flexibility Score: inf
ROOT
ATOM      1  C   UNL     1      -6.593  -6.531   1.235  1.00  0.00     0.044 C 
ENDROOT
BRANCH   1   2
ATOM      2  C   UNL     1      -5.325  -7.136   1.791  1.00  0.00    -0.006 A 
ATOM      3  C   UNL     1      -2.890  -7.147   1.862  1.00  0.00     0.001 A 
ATOM      4  C   UNL     1      -2.915  -8.224   2.748  1.00  0.00     0.004 A 
ATOM      5  C   UNL     1      -4.086  -6.609   1.382  1.00  0.00     0.007 A 
ATOM      6  C   UNL     1      -4.134  -8.770   3.151  1.00  0.00     0.046 A 
ATOM      7  C   UNL     1      -5.343  -8.244   2.676  1.00  0.00     0.118 A 
BRANCH   7   8
ATOM      8  O   UNL     1      -6.529  -8.847   3.098  1.00  0.00    -0.508 OA
ATOM      9  H   UNL     1      -7.347  -8.946   2.509  1.00  0.00     0.293 HD
ENDBRANCH   7   8
ENDBRANCH   1   2
BRANCH   1  10
ATOM     10  C   UNL     1      -7.375  -5.806   2.334  1.00  0.00     0.040 C 
BRANCH  10  11
ATOM     11  C   UNL     1      -6.778  -4.451   2.602  1.00  0.00    -0.040 A 
ATOM     12  C   UNL     1      -6.258  -4.143   3.871  1.00  0.00     0.050 A 
ATOM     13  C   UNL     1      -6.790  -3.464   1.604  1.00  0.00     0.050 A 
ATOM     14  C   UNL     1      -5.734  -2.870   4.130  1.00  0.00     0.119 A 
ATOM     15  C   UNL     1      -6.265  -2.190   1.863  1.00  0.00     0.119 A 
ATOM     16  C   UNL     1      -5.736  -1.898   3.124  1.00  0.00     0.092 A 
BRANCH  14  17
ATOM     17  O   UNL     1      -5.210  -2.560   5.383  1.00  0.00    -0.508 OA
ATOM     18  H   UNL     1      -5.187  -3.243   6.132  1.00  0.00     0.293 HD
ENDBRANCH  14  17
BRANCH  15  19
ATOM     19  O   UNL     1      -6.267  -1.207   0.875  1.00  0.00    -0.508 OA
ATOM     20  H   UNL     1      -5.504  -0.548   0.782  1.00  0.00     0.293 HD
ENDBRANCH  15  19
ENDBRANCH  10  11
ENDBRANCH   1  10
TORSDOF 6
ENDMDL
MODEL 4
REMARK VINA RESULT:    -6.390      7.691     11.565
REMARK INTER + INTRA:          -8.622
REMARK INTER:                  -7.987
REMARK INTRA:                  -0.635
REMARK UNBOUND:                -0.551
REMARK SMILES Oc1cc(O)cc(CCc2ccccc2O)c1
REMARK SMILES IDX 9 1 10 2 12 3 13 4 11 5 14 6 15 7 16 8 8 10 7 11 6 12 17 13
REMARK SMILES IDX 4 14 2 15 3 16 5 17 1 19
REMARK H PARENT 16 9 5 18 1 20
REMARK Flexibility Score: inf
ROOT
ATOM      1  C   UNL     1       1.603  -6.980  20.791  1.00  0.00     0.044 C 
ENDROOT
BRANCH   1   2
ATOM      2  C   UNL     1       0.179  -7.223  20.349  1.00  0.00    -0.006 A 
ATOM      3  C   UNL     1      -2.134  -6.461  20.294  1.00  0.00     0.001 A 
ATOM      4  C   UNL     1      -2.503  -7.611  19.596  1.00  0.00     0.004 A 
ATOM      5  C   UNL     1      -0.804  -6.268  20.673  1.00  0.00     0.007 A 
ATOM      6  C   UNL     1      -1.544  -8.575  19.282  1.00  0.00     0.046 A 
ATOM      7  C   UNL     1      -0.206  -8.399  19.658  1.00  0.00     0.118 A 
BRANCH   7   8
ATOM      8  O   UNL     1       0.702  -9.410  19.334  1.00  0.00    -0.508 OA
ATOM      9  H   UNL     1       0.674  -9.930  18.466  1.00  0.00     0.293 HD
ENDBRANCH   7   8
ENDBRANCH   1   2
BRANCH   1  10
ATOM     10  C   UNL     1       2.464  -6.510  19.615  1.00  0.00     0.040 C 
BRANCH  10  11
ATOM     11  C   UNL     1       2.229  -5.050  19.338  1.00  0.00    -0.040 A 
ATOM     12  C   UNL     1       1.801  -4.628  18.068  1.00  0.00     0.050 A 
ATOM     13  C   UNL     1       2.494  -4.091  20.330  1.00  0.00     0.050 A 
ATOM     14  C   UNL     1       1.617  -3.265  17.801  1.00  0.00     0.119 A 
ATOM     15  C   UNL     1       2.309  -2.728  20.062  1.00  0.00     0.119 A 
ATOM     16  C   UNL     1       1.868  -2.319  18.800  1.00  0.00     0.092 A 
BRANCH  14  17
ATOM     17  O   UNL     1       1.186  -2.840  16.546  1.00  0.00    -0.508 OA
ATOM     18  H   UNL     1       1.803  -2.343  15.914  1.00  0.00     0.293 HD
ENDBRANCH  14  17
BRANCH  15  19
ATOM     19  O   UNL     1       2.563  -1.772  21.044  1.00  0.00    -0.508 OA
ATOM     20  H   UNL     1       3.120  -1.988  21.862  1.00  0.00     0.293 HD
ENDBRANCH  15  19
ENDBRANCH  10  11
ENDBRANCH   1  10
TORSDOF 6
ENDMDL
MODEL 5
REMARK VINA RESULT:    -6.389     15.625     17.324
REMARK INTER + INTRA:          -8.621
REMARK INTER:                  -8.036
REMARK INTRA:                  -0.585
REMARK UNBOUND:                -0.551
REMARK SMILES Oc1cc(O)cc(CCc2ccccc2O)c1
REMARK SMILES IDX 9 1 10 2 12 3 13 4 11 5 14 6 15 7 16 8 8 10 7 11 6 12 17 13
REMARK SMILES IDX 4 14 2 15 3 16 5 17 1 19
REMARK H PARENT 16 9 5 18 1 20
REMARK Flexibility Score: inf
ROOT
ATOM      1  C   UNL     1      -6.580  -6.527   1.220  1.00  0.00     0.044 C 
ENDROOT
BRANCH   1   2
ATOM      2  C   UNL     1      -5.333  -7.152   1.800  1.00  0.00    -0.006 A 
ATOM      3  C   UNL     1      -2.902  -7.177   1.952  1.00  0.00     0.001 A 
ATOM      4  C   UNL     1      -2.960  -8.278   2.806  1.00  0.00     0.004 A 
ATOM      5  C   UNL     1      -4.079  -6.620   1.448  1.00  0.00     0.007 A 
ATOM      6  C   UNL     1      -4.195  -8.829   3.152  1.00  0.00     0.046 A 
ATOM      7  C   UNL     1      -5.385  -8.285   2.652  1.00  0.00     0.118 A 
BRANCH   7   8
ATOM      8  O   UNL     1      -6.587  -8.895   3.017  1.00  0.00    -0.508 OA
ATOM      9  H   UNL     1      -7.220  -8.514   3.709  1.00  0.00     0.293 HD
ENDBRANCH   7   8
ENDBRANCH   1   2
BRANCH   1  10
ATOM     10  C   UNL     1      -7.414  -5.861   2.319  1.00  0.00     0.040 C 
BRANCH  10  11
ATOM     11  C   UNL     1      -6.886  -4.485   2.624  1.00  0.00    -0.040 A 
ATOM     12  C   UNL     1      -6.840  -3.504   1.619  1.00  0.00     0.050 A 
ATOM     13  C   UNL     1      -6.379  -4.190   3.900  1.00  0.00     0.050 A 
ATOM     14  C   UNL     1      -6.315  -2.235   1.895  1.00  0.00     0.119 A 
ATOM     15  C   UNL     1      -5.855  -2.920   4.176  1.00  0.00     0.119 A 
ATOM     16  C   UNL     1      -5.827  -1.945   3.174  1.00  0.00     0.092 A 
BRANCH  14  17
ATOM     17  O   UNL     1      -6.273  -1.254   0.906  1.00  0.00    -0.508 OA
ATOM     18  H   UNL     1      -7.042  -0.611   0.764  1.00  0.00     0.293 HD
ENDBRANCH  14  17
BRANCH  15  19
ATOM     19  O   UNL     1      -5.357  -2.618   5.442  1.00  0.00    -0.508 OA
ATOM     20  H   UNL     1      -5.535  -3.218   6.238  1.00  0.00     0.293 HD
ENDBRANCH  15  19
ENDBRANCH  10  11
ENDBRANCH   1  10
TORSDOF 6
ENDMDL
MODEL 6
REMARK VINA RESULT:    -6.263      2.051      6.331
REMARK INTER + INTRA:          -8.462
REMARK INTER:                  -7.842
REMARK INTRA:                  -0.620
REMARK UNBOUND:                -0.551
REMARK SMILES Oc1cc(O)cc(CCc2ccccc2O)c1
REMARK SMILES IDX 9 1 10 2 12 3 13 4 11 5 14 6 15 7 16 8 8 10 7 11 6 12 17 13
REMARK SMILES IDX 4 14 2 15 3 16 5 17 1 19
REMARK H PARENT 16 9 5 18 1 20
REMARK Flexibility Score: inf
ROOT
ATOM      1  C   UNL     1       3.520   2.489  15.330  1.00  0.00     0.044 C 
ENDROOT
BRANCH   1   2
ATOM      2  C   UNL     1       2.744   3.115  16.464  1.00  0.00    -0.006 A 
ATOM      3  C   UNL     1       2.114   5.126  17.685  1.00  0.00     0.001 A 
ATOM      4  C   UNL     1       1.358   4.359  18.572  1.00  0.00     0.004 A 
ATOM      5  C   UNL     1       2.806   4.510  16.641  1.00  0.00     0.007 A 
ATOM      6  C   UNL     1       1.299   2.973  18.421  1.00  0.00     0.046 A 
ATOM      7  C   UNL     1       1.991   2.338  17.381  1.00  0.00     0.118 A 
BRANCH   7   8
ATOM      8  O   UNL     1       1.911   0.947  17.297  1.00  0.00    -0.508 OA
ATOM      9  H   UNL     1       2.138   0.326  18.063  1.00  0.00     0.293 HD
ENDBRANCH   7   8
ENDBRANCH   1   2
BRANCH   1  10
ATOM     10  C   UNL     1       2.636   2.331  14.089  1.00  0.00     0.040 C 
BRANCH  10  11
ATOM     11  C   UNL     1       2.957   3.394  13.073  1.00  0.00    -0.040 A 
ATOM     12  C   UNL     1       2.011   3.751  12.097  1.00  0.00     0.050 A 
ATOM     13  C   UNL     1       4.227   3.994  13.055  1.00  0.00     0.050 A 
ATOM     14  C   UNL     1       2.324   4.715  11.129  1.00  0.00     0.119 A 
ATOM     15  C   UNL     1       4.538   4.959  12.087  1.00  0.00     0.119 A 
ATOM     16  C   UNL     1       3.585   5.319  11.130  1.00  0.00     0.092 A 
BRANCH  14  17
ATOM     17  O   UNL     1       1.388   5.079  10.163  1.00  0.00    -0.508 OA
ATOM     18  H   UNL     1       0.467   5.415  10.417  1.00  0.00     0.293 HD
ENDBRANCH  14  17
BRANCH  15  19
ATOM     19  O   UNL     1       5.794   5.564  12.068  1.00  0.00    -0.508 OA
ATOM     20  H   UNL     1       6.145   6.028  11.238  1.00  0.00     0.293 HD
ENDBRANCH  15  19
ENDBRANCH  10  11
ENDBRANCH   1  10
TORSDOF 6
ENDMDL
MODEL 7
REMARK VINA RESULT:    -6.249      2.032      6.211
REMARK INTER + INTRA:          -8.444
REMARK INTER:                  -7.849
REMARK INTRA:                  -0.595
REMARK UNBOUND:                -0.551
REMARK SMILES Oc1cc(O)cc(CCc2ccccc2O)c1
REMARK SMILES IDX 9 1 10 2 12 3 13 4 11 5 14 6 15 7 16 8 8 10 7 11 6 12 17 13
REMARK SMILES IDX 4 14 2 15 3 16 5 17 1 19
REMARK H PARENT 16 9 5 18 1 20
REMARK Flexibility Score: inf
ROOT
ATOM      1  C   UNL     1       3.438   2.579  15.186  1.00  0.00     0.044 C 
ENDROOT
BRANCH   1   2
ATOM      2  C   UNL     1       2.742   3.140  16.404  1.00  0.00    -0.006 A 
ATOM      3  C   UNL     1       2.189   5.082  17.766  1.00  0.00     0.001 A 
ATOM      4  C   UNL     1       1.505   4.265  18.666  1.00  0.00     0.004 A 
ATOM      5  C   UNL     1       2.808   4.525  16.645  1.00  0.00     0.007 A 
ATOM      6  C   UNL     1       1.443   2.887  18.450  1.00  0.00     0.046 A 
ATOM      7  C   UNL     1       2.062   2.312  17.332  1.00  0.00     0.118 A 
BRANCH   7   8
ATOM      8  O   UNL     1       1.984   0.926  17.184  1.00  0.00    -0.508 OA
ATOM      9  H   UNL     1       2.270   0.269  17.900  1.00  0.00     0.293 HD
ENDBRANCH   7   8
ENDBRANCH   1   2
BRANCH   1  10
ATOM     10  C   UNL     1       2.490   2.553  13.984  1.00  0.00     0.040 C 
BRANCH  10  11
ATOM     11  C   UNL     1       2.931   3.545  12.942  1.00  0.00    -0.040 A 
ATOM     12  C   UNL     1       4.223   4.095  12.987  1.00  0.00     0.050 A 
ATOM     13  C   UNL     1       2.032   3.975  11.951  1.00  0.00     0.050 A 
ATOM     14  C   UNL     1       4.620   5.045  12.037  1.00  0.00     0.119 A 
ATOM     15  C   UNL     1       2.431   4.925  11.000  1.00  0.00     0.119 A 
ATOM     16  C   UNL     1       3.724   5.455  11.044  1.00  0.00     0.092 A 
BRANCH  14  17
ATOM     17  O   UNL     1       5.903   5.589  12.071  1.00  0.00    -0.508 OA
ATOM     18  H   UNL     1       6.052   6.590  12.131  1.00  0.00     0.293 HD
ENDBRANCH  14  17
BRANCH  15  19
ATOM     19  O   UNL     1       1.547   5.351  10.010  1.00  0.00    -0.508 OA
ATOM     20  H   UNL     1       0.545   5.243  10.113  1.00  0.00     0.293 HD
ENDBRANCH  15  19
ENDBRANCH  10  11
ENDBRANCH   1  10
TORSDOF 6
ENDMDL
MODEL 8
REMARK VINA RESULT:    -6.242      1.771      2.477
REMARK INTER + INTRA:          -8.435
REMARK INTER:                  -7.834
REMARK INTRA:                  -0.601
REMARK UNBOUND:                -0.551
REMARK SMILES Oc1cc(O)cc(CCc2ccccc2O)c1
REMARK SMILES IDX 9 1 10 2 12 3 13 4 11 5 14 6 15 7 16 8 8 10 7 11 6 12 17 13
REMARK SMILES IDX 4 14 2 15 3 16 5 17 1 19
REMARK H PARENT 16 9 5 18 1 20
REMARK Flexibility Score: inf
ROOT
ATOM      1  C   UNL     1       3.889   3.068  13.591  1.00  0.00     0.044 C 
ENDROOT
BRANCH   1   2
ATOM      2  C   UNL     1       3.352   3.990  12.522  1.00  0.00    -0.006 A 
ATOM      3  C   UNL     1       1.464   4.714  11.165  1.00  0.00     0.001 A 
ATOM      4  C   UNL     1       2.278   5.643  10.516  1.00  0.00     0.004 A 
ATOM      5  C   UNL     1       1.997   3.889  12.157  1.00  0.00     0.007 A 
ATOM      6  C   UNL     1       3.628   5.745  10.855  1.00  0.00     0.046 A 
ATOM      7  C   UNL     1       4.179   4.922  11.845  1.00  0.00     0.118 A 
BRANCH   7   8
ATOM      8  O   UNL     1       5.541   5.056  12.122  1.00  0.00    -0.508 OA
ATOM      9  H   UNL     1       5.926   5.039  13.059  1.00  0.00     0.293 HD
ENDBRANCH   7   8
ENDBRANCH   1   2
BRANCH   1  10
ATOM     10  C   UNL     1       3.901   3.765  14.954  1.00  0.00     0.040 C 
BRANCH  10  11
ATOM     11  C   UNL     1       2.810   3.220  15.836  1.00  0.00    -0.040 A 
ATOM     12  C   UNL     1       2.133   2.042  15.481  1.00  0.00     0.050 A 
ATOM     13  C   UNL     1       2.420   3.918  16.991  1.00  0.00     0.050 A 
ATOM     14  C   UNL     1       1.094   1.554  16.284  1.00  0.00     0.119 A 
ATOM     15  C   UNL     1       1.381   3.429  17.795  1.00  0.00     0.119 A 
ATOM     16  C   UNL     1       0.724   2.247  17.441  1.00  0.00     0.092 A 
BRANCH  14  17
ATOM     17  O   UNL     1       0.423   0.382  15.942  1.00  0.00    -0.508 OA
ATOM     18  H   UNL     1       0.547  -0.055  15.036  1.00  0.00     0.293 HD
ENDBRANCH  14  17
BRANCH  15  19
ATOM     19  O   UNL     1       0.994   4.113  18.946  1.00  0.00    -0.508 OA
ATOM     20  H   UNL     1       0.602   3.626  19.744  1.00  0.00     0.293 HD
ENDBRANCH  15  19
ENDBRANCH  10  11
ENDBRANCH   1  10
TORSDOF 6
ENDMDL
MODEL 9
REMARK VINA RESULT:    -6.235      1.779      2.759
REMARK INTER + INTRA:          -8.427
REMARK INTER:                  -7.828
REMARK INTRA:                  -0.599
REMARK UNBOUND:                -0.551
REMARK SMILES Oc1cc(O)cc(CCc2ccccc2O)c1
REMARK SMILES IDX 9 1 10 2 12 3 13 4 11 5 14 6 15 7 16 8 8 10 7 11 6 12 17 13
REMARK SMILES IDX 4 14 2 15 3 16 5 17 1 19
REMARK H PARENT 16 9 5 18 1 20
REMARK Flexibility Score: inf
ROOT
ATOM      1  C   UNL     1       3.867   3.066  13.588  1.00  0.00     0.044 C 
ENDROOT
BRANCH   1   2
ATOM      2  C   UNL     1       3.338   3.988  12.515  1.00  0.00    -0.006 A 
ATOM      3  C   UNL     1       1.461   4.712  11.143  1.00  0.00     0.001 A 
ATOM      4  C   UNL     1       2.280   5.640  10.500  1.00  0.00     0.004 A 
ATOM      5  C   UNL     1       1.985   3.888  12.140  1.00  0.00     0.007 A 
ATOM      6  C   UNL     1       3.628   5.741  10.848  1.00  0.00     0.046 A 
ATOM      7  C   UNL     1       4.171   4.919  11.844  1.00  0.00     0.118 A 
BRANCH   7   8
ATOM      8  O   UNL     1       5.531   5.052  12.131  1.00  0.00    -0.508 OA
ATOM      9  H   UNL     1       6.257   4.535  11.651  1.00  0.00     0.293 HD
ENDBRANCH   7   8
ENDBRANCH   1   2
BRANCH   1  10
ATOM     10  C   UNL     1       3.899   3.776  14.945  1.00  0.00     0.040 C 
BRANCH  10  11
ATOM     11  C   UNL     1       2.776   3.293  15.822  1.00  0.00    -0.040 A 
ATOM     12  C   UNL     1       2.399   4.025  16.960  1.00  0.00     0.050 A 
ATOM     13  C   UNL     1       2.135   2.074  15.543  1.00  0.00     0.050 A 
ATOM     14  C   UNL     1       1.376   3.556  17.795  1.00  0.00     0.119 A 
ATOM     15  C   UNL     1       1.111   1.606  16.378  1.00  0.00     0.119 A 
ATOM     16  C   UNL     1       0.733   2.350  17.500  1.00  0.00     0.092 A 
BRANCH  14  17
ATOM     17  O   UNL     1       0.992   4.281  18.922  1.00  0.00    -0.508 OA
ATOM     18  H   UNL     1       0.030   4.301  19.237  1.00  0.00     0.293 HD
ENDBRANCH  14  17
BRANCH  15  19
ATOM     19  O   UNL     1       0.466   0.402  16.103  1.00  0.00    -0.508 OA
ATOM     20  H   UNL     1       0.390   0.047  15.158  1.00  0.00     0.293 HD
ENDBRANCH  15  19
ENDBRANCH  10  11
ENDBRANCH   1  10
TORSDOF 6
ENDMDL
