MODEL 1
REMARK VINA RESULT:    -5.854      0.000      0.000
REMARK INTER + INTRA:          -6.681
REMARK INTER:                  -6.538
REMARK INTRA:                  -0.143
REMARK UNBOUND:                -0.143
REMARK SMILES O=C([O-])c1ccccc1C(=O)[O-]
REMARK SMILES IDX 4 1 9 2 5 3 8 4 6 5 7 6 2 7 1 8 3 9 10 10 11 11 12 12
REMARK H PARENT
REMARK Flexibility Score: inf
ROOT
ATOM      1  C   UNL     1     128.831 123.523 128.175  1.00  0.00     0.006 A 
ATOM      2  C   UNL     1     129.209 124.775 128.739  1.00  0.00     0.006 A 
ATOM      3  C   UNL     1     128.369 122.501 129.026  1.00  0.00     0.010 A 
ATOM      4  C   UNL     1     129.172 124.935 130.137  1.00  0.00     0.010 A 
ATOM      5  C   UNL     1     128.321 122.690 130.407  1.00  0.00     0.001 A 
ATOM      6  C   UNL     1     128.733 123.899 130.962  1.00  0.00     0.001 A 
ENDROOT
BRANCH   1   7
ATOM      7  C   UNL     1     128.964 123.214 126.732  1.00  0.00     0.072 C 
ATOM      8  O   UNL     1     127.981 123.330 125.955  1.00  0.00    -0.545 OA
ATOM      9  O   UNL     1     130.201 122.858 126.208  1.00  0.00    -0.545 OA
ENDBRANCH   1   7
BRANCH   2  10
ATOM     10  C   UNL     1     129.577 125.952 127.918  1.00  0.00     0.072 C 
ATOM     11  O   UNL     1     128.730 126.506 127.168  1.00  0.00    -0.545 OA
ATOM     12  O   UNL     1     130.850 126.501 128.019  1.00  0.00    -0.545 OA
ENDBRANCH   2  10
TORSDOF 2
ENDMDL
MODEL 2
REMARK VINA RESULT:    -5.822      0.174      3.016
REMARK INTER + INTRA:          -6.645
REMARK INTER:                  -6.472
REMARK INTRA:                  -0.173
REMARK UNBOUND:                -0.143
REMARK SMILES O=C([O-])c1ccccc1C(=O)[O-]
REMARK SMILES IDX 4 1 9 2 5 3 8 4 6 5 7 6 2 7 1 8 3 9 10 10 11 11 12 12
REMARK H PARENT
REMARK Flexibility Score: inf
ROOT
ATOM      1  C   UNL     1     129.111 124.686 128.826  1.00  0.00     0.006 A 
ATOM      2  C   UNL     1     128.787 123.430 128.238  1.00  0.00     0.006 A 
ATOM      3  C   UNL     1     129.065 124.817 130.227  1.00  0.00     0.010 A 
ATOM      4  C   UNL     1     128.367 122.374 129.067  1.00  0.00     0.010 A 
ATOM      5  C   UNL     1     128.667 123.749 131.031  1.00  0.00     0.001 A 
ATOM      6  C   UNL     1     128.307 122.535 130.452  1.00  0.00     0.001 A 
ENDROOT
BRANCH   1   7
ATOM      7  C   UNL     1     129.431 125.893 128.029  1.00  0.00     0.072 C 
ATOM      8  O   UNL     1     130.593 126.379 128.033  1.00  0.00    -0.545 OA
ATOM      9  O   UNL     1     128.464 126.463 127.210  1.00  0.00    -0.545 OA
ENDBRANCH   1   7
BRANCH   2  10
ATOM     10  C   UNL     1     128.936 123.155 126.790  1.00  0.00     0.072 C 
ATOM     11  O   UNL     1     127.965 123.300 126.002  1.00  0.00    -0.545 OA
ATOM     12  O   UNL     1     130.176 122.795 126.273  1.00  0.00    -0.545 OA
ENDBRANCH   2  10
TORSDOF 2
ENDMDL
MODEL 3
REMARK VINA RESULT:    -5.582      2.324      3.958
REMARK INTER + INTRA:          -6.377
REMARK INTER:                  -6.295
REMARK INTRA:                  -0.083
REMARK UNBOUND:                -0.143
REMARK SMILES O=C([O-])c1ccccc1C(=O)[O-]
REMARK SMILES IDX 4 1 9 2 5 3 8 4 6 5 7 6 2 7 1 8 3 9 10 10 11 11 12 12
REMARK H PARENT
REMARK Flexibility Score: inf
ROOT
ATOM      1  C   UNL     1     130.192 126.155 127.427  1.00  0.00     0.006 A 
ATOM      2  C   UNL     1     130.446 125.368 126.267  1.00  0.00     0.006 A 
ATOM      3  C   UNL     1     129.503 125.577 128.509  1.00  0.00     0.010 A 
ATOM      4  C   UNL     1     129.942 124.055 126.208  1.00  0.00     0.010 A 
ATOM      5  C   UNL     1     129.031 124.266 128.436  1.00  0.00     0.001 A 
ATOM      6  C   UNL     1     129.240 123.511 127.284  1.00  0.00     0.001 A 
ENDROOT
BRANCH   1   7
ATOM      7  C   UNL     1     130.563 127.586 127.528  1.00  0.00     0.072 C 
ATOM      8  O   UNL     1     129.981 128.454 126.826  1.00  0.00    -0.545 OA
ATOM      9  O   UNL     1     131.515 127.995 128.453  1.00  0.00    -0.545 OA
ENDBRANCH   1   7
BRANCH   2  10
ATOM     10  C   UNL     1     131.278 125.840 125.137  1.00  0.00     0.072 C 
ATOM     11  O   UNL     1     130.781 125.994 123.989  1.00  0.00    -0.545 OA
ATOM     12  O   UNL     1     132.608 126.185 125.347  1.00  0.00    -0.545 OA
ENDBRANCH   2  10
TORSDOF 2
ENDMDL
MODEL 4
REMARK VINA RESULT:    -5.573      2.335      3.194
REMARK INTER + INTRA:          -6.367
REMARK INTER:                  -6.371
REMARK INTRA:                   0.004
REMARK UNBOUND:                -0.143
REMARK SMILES O=C([O-])c1ccccc1C(=O)[O-]
REMARK SMILES IDX 4 1 9 2 5 3 8 4 6 5 7 6 2 7 1 8 3 9 10 10 11 11 12 12
REMARK H PARENT
REMARK Flexibility Score: inf
ROOT
ATOM      1  C   UNL     1     130.570 125.281 126.213  1.00  0.00     0.006 A 
ATOM      2  C   UNL     1     130.225 126.052 127.360  1.00  0.00     0.006 A 
ATOM      3  C   UNL     1     130.088 123.963 126.104  1.00  0.00     0.010 A 
ATOM      4  C   UNL     1     129.467 125.453 128.383  1.00  0.00     0.010 A 
ATOM      5  C   UNL     1     129.320 123.397 127.122  1.00  0.00     0.001 A 
ATOM      6  C   UNL     1     129.021 124.137 128.264  1.00  0.00     0.001 A 
ENDROOT
BRANCH   1   7
ATOM      7  C   UNL     1     131.474 125.777 125.149  1.00  0.00     0.072 C 
ATOM      8  O   UNL     1     132.605 126.250 125.433  1.00  0.00    -0.545 OA
ATOM      9  O   UNL     1     131.107 125.660 123.814  1.00  0.00    -0.545 OA
ENDBRANCH   1   7
BRANCH   2  10
ATOM     10  C   UNL     1     130.567 127.486 127.501  1.00  0.00     0.072 C 
ATOM     11  O   UNL     1     129.977 128.362 126.816  1.00  0.00    -0.545 OA
ATOM     12  O   UNL     1     131.503 127.888 128.447  1.00  0.00    -0.545 OA
ENDBRANCH   2  10
TORSDOF 2
ENDMDL
MODEL 5
REMARK VINA RESULT:    -5.462      1.912      3.737
REMARK INTER + INTRA:          -6.243
REMARK INTER:                  -6.198
REMARK INTRA:                  -0.045
REMARK UNBOUND:                -0.143
REMARK SMILES O=C([O-])c1ccccc1C(=O)[O-]
REMARK SMILES IDX 4 1 9 2 5 3 8 4 6 5 7 6 2 7 1 8 3 9 10 10 11 11 12 12
REMARK H PARENT
REMARK Flexibility Score: inf
ROOT
ATOM      1  C   UNL     1     130.210 124.891 126.544  1.00  0.00     0.006 A 
ATOM      2  C   UNL     1     129.798 125.683 127.655  1.00  0.00     0.006 A 
ATOM      3  C   UNL     1     131.181 125.403 125.664  1.00  0.00     0.010 A 
ATOM      4  C   UNL     1     130.323 126.979 127.803  1.00  0.00     0.010 A 
ATOM      5  C   UNL     1     131.705 126.683 125.843  1.00  0.00     0.001 A 
ATOM      6  C   UNL     1     131.268 127.474 126.904  1.00  0.00     0.001 A 
ENDROOT
BRANCH   1   7
ATOM      7  C   UNL     1     129.615 123.572 126.227  1.00  0.00     0.072 C 
ATOM      8  O   UNL     1     130.326 122.535 126.197  1.00  0.00    -0.545 OA
ATOM      9  O   UNL     1     128.244 123.458 126.026  1.00  0.00    -0.545 OA
ENDBRANCH   1   7
BRANCH   2  10
ATOM     10  C   UNL     1     128.886 125.181 128.709  1.00  0.00     0.072 C 
ATOM     11  O   UNL     1     129.340 124.734 129.795  1.00  0.00    -0.545 OA
ATOM     12  O   UNL     1     127.509 125.261 128.535  1.00  0.00    -0.545 OA
ENDBRANCH   2  10
TORSDOF 2
ENDMDL
MODEL 6
REMARK VINA RESULT:    -5.461      1.919      4.494
REMARK INTER + INTRA:          -6.242
REMARK INTER:                  -6.222
REMARK INTRA:                  -0.021
REMARK UNBOUND:                -0.143
REMARK SMILES O=C([O-])c1ccccc1C(=O)[O-]
REMARK SMILES IDX 4 1 9 2 5 3 8 4 6 5 7 6 2 7 1 8 3 9 10 10 11 11 12 12
REMARK H PARENT
REMARK Flexibility Score: inf
ROOT
ATOM      1  C   UNL     1     129.790 125.694 127.624  1.00  0.00     0.006 A 
ATOM      2  C   UNL     1     130.206 124.883 126.529  1.00  0.00     0.006 A 
ATOM      3  C   UNL     1     130.303 127.000 127.741  1.00  0.00     0.010 A 
ATOM      4  C   UNL     1     131.168 125.384 125.633  1.00  0.00     0.010 A 
ATOM      5  C   UNL     1     131.240 127.483 126.827  1.00  0.00     0.001 A 
ATOM      6  C   UNL     1     131.680 126.673 125.783  1.00  0.00     0.001 A 
ENDROOT
BRANCH   1   7
ATOM      7  C   UNL     1     128.888 125.207 128.693  1.00  0.00     0.072 C 
ATOM      8  O   UNL     1     129.351 124.777 129.781  1.00  0.00    -0.545 OA
ATOM      9  O   UNL     1     127.510 125.285 128.530  1.00  0.00    -0.545 OA
ENDBRANCH   1   7
BRANCH   2  10
ATOM     10  C   UNL     1     129.622 123.552 126.244  1.00  0.00     0.072 C 
ATOM     11  O   UNL     1     130.349 122.525 126.197  1.00  0.00    -0.545 OA
ATOM     12  O   UNL     1     128.248 123.412 126.091  1.00  0.00    -0.545 OA
ENDBRANCH   2  10
TORSDOF 2
ENDMDL
MODEL 7
REMARK VINA RESULT:    -5.345      2.868      4.732
REMARK INTER + INTRA:          -6.113
REMARK INTER:                  -5.904
REMARK INTRA:                  -0.209
REMARK UNBOUND:                -0.143
REMARK SMILES O=C([O-])c1ccccc1C(=O)[O-]
REMARK SMILES IDX 4 1 9 2 5 3 8 4 6 5 7 6 2 7 1 8 3 9 10 10 11 11 12 12
REMARK H PARENT
REMARK Flexibility Score: inf
ROOT
ATOM      1  C   UNL     1     128.764 126.084 125.659  1.00  0.00     0.006 A 
ATOM      2  C   UNL     1     130.008 126.772 125.740  1.00  0.00     0.006 A 
ATOM      3  C   UNL     1     127.924 126.316 124.554  1.00  0.00     0.010 A 
ATOM      4  C   UNL     1     130.334 127.715 124.747  1.00  0.00     0.010 A 
ATOM      5  C   UNL     1     128.278 127.240 123.570  1.00  0.00     0.001 A 
ATOM      6  C   UNL     1     129.475 127.946 123.673  1.00  0.00     0.001 A 
ENDROOT
BRANCH   1   7
ATOM      7  C   UNL     1     128.272 125.177 126.722  1.00  0.00     0.072 C 
ATOM      8  O   UNL     1     127.600 125.621 127.689  1.00  0.00    -0.545 OA
ATOM      9  O   UNL     1     128.493 123.808 126.626  1.00  0.00    -0.545 OA
ENDBRANCH   1   7
BRANCH   2  10
ATOM     10  C   UNL     1     131.017 126.496 126.788  1.00  0.00     0.072 C 
ATOM     11  O   UNL     1     131.789 125.505 126.696  1.00  0.00    -0.545 OA
ATOM     12  O   UNL     1     131.167 127.370 127.858  1.00  0.00    -0.545 OA
ENDBRANCH   2  10
TORSDOF 2
ENDMDL
MODEL 8
REMARK VINA RESULT:    -5.317      2.892      5.283
REMARK INTER + INTRA:          -6.082
REMARK INTER:                  -5.872
REMARK INTRA:                  -0.210
REMARK UNBOUND:                -0.143
REMARK SMILES O=C([O-])c1ccccc1C(=O)[O-]
REMARK SMILES IDX 4 1 9 2 5 3 8 4 6 5 7 6 2 7 1 8 3 9 10 10 11 11 12 12
REMARK H PARENT
REMARK Flexibility Score: inf
ROOT
ATOM      1  C   UNL     1     130.005 126.797 125.693  1.00  0.00     0.006 A 
ATOM      2  C   UNL     1     128.772 126.083 125.658  1.00  0.00     0.006 A 
ATOM      3  C   UNL     1     130.290 127.718 124.668  1.00  0.00     0.010 A 
ATOM      4  C   UNL     1     127.904 126.270 124.566  1.00  0.00     0.010 A 
ATOM      5  C   UNL     1     129.404 127.903 123.606  1.00  0.00     0.001 A 
ATOM      6  C   UNL     1     128.220 127.171 123.550  1.00  0.00     0.001 A 
ENDROOT
BRANCH   1   7
ATOM      7  C   UNL     1     131.041 126.569 126.726  1.00  0.00     0.072 C 
ATOM      8  O   UNL     1     131.836 125.597 126.638  1.00  0.00    -0.545 OA
ATOM      9  O   UNL     1     131.190 127.470 127.773  1.00  0.00    -0.545 OA
ENDBRANCH   1   7
BRANCH   2  10
ATOM     10  C   UNL     1     128.322 125.197 126.756  1.00  0.00     0.072 C 
ATOM     11  O   UNL     1     127.658 125.654 127.724  1.00  0.00    -0.545 OA
ATOM     12  O   UNL     1     128.572 123.831 126.696  1.00  0.00    -0.545 OA
ENDBRANCH   2  10
TORSDOF 2
ENDMDL
MODEL 9
REMARK VINA RESULT:    -5.051      2.621      4.349
REMARK INTER + INTRA:          -5.784
REMARK INTER:                  -5.555
REMARK INTRA:                  -0.229
REMARK UNBOUND:                -0.143
REMARK SMILES O=C([O-])c1ccccc1C(=O)[O-]
REMARK SMILES IDX 4 1 9 2 5 3 8 4 6 5 7 6 2 7 1 8 3 9 10 10 11 11 12 12
REMARK H PARENT
REMARK Flexibility Score: inf
ROOT
ATOM      1  C   UNL     1     130.639 126.510 125.777  1.00  0.00     0.006 A 
ATOM      2  C   UNL     1     130.061 125.655 126.759  1.00  0.00     0.006 A 
ATOM      3  C   UNL     1     131.347 127.652 126.196  1.00  0.00     0.010 A 
ATOM      4  C   UNL     1     130.157 126.011 128.117  1.00  0.00     0.010 A 
ATOM      5  C   UNL     1     131.447 127.973 127.550  1.00  0.00     0.001 A 
ATOM      6  C   UNL     1     130.843 127.161 128.507  1.00  0.00     0.001 A 
ENDROOT
BRANCH   1   7
ATOM      7  C   UNL     1     130.476 126.293 124.321  1.00  0.00     0.072 C 
ATOM      8  O   UNL     1     131.331 125.643 123.666  1.00  0.00    -0.545 OA
ATOM      9  O   UNL     1     129.335 126.750 123.673  1.00  0.00    -0.545 OA
ENDBRANCH   1   7
BRANCH   2  10
ATOM     10  C   UNL     1     129.417 124.364 126.426  1.00  0.00     0.072 C 
ATOM     11  O   UNL     1     128.164 124.273 126.330  1.00  0.00    -0.545 OA
ATOM     12  O   UNL     1     130.197 123.247 126.149  1.00  0.00    -0.545 OA
ENDBRANCH   2  10
TORSDOF 2
ENDMDL
