MODEL 1
REMARK VINA RESULT:    -4.048      0.000      0.000
REMARK INTER + INTRA:          -4.623
REMARK INTER:                  -4.403
REMARK INTRA:                  -0.220
REMARK UNBOUND:                -0.220
REMARK SMILES CC(=O)[C@@H]1CC[C@H]2[C@@H]3CC=C4C[C@@H](O)CC[C@@]4(C)[C@@H]3CC[C@@]12C
REMARK SMILES IDX 4 1 5 2 6 3 7 4 22 5 21 6 20 7 19 8 8 9 9 10 10 11 11 12
REMARK SMILES IDX 17 13 16 14 15 15 13 16 12 17 18 18 23 19 2 20 1 21 3 22
REMARK SMILES IDX 14 23
REMARK H PARENT 14 24
REMARK Flexibility Score: inf
ROOT
ATOM      1  C   UNL     1     207.937 209.392 186.435  1.00  0.00     0.062 C 
ATOM      2  C   UNL     1     209.328 208.840 186.778  1.00  0.00     0.012 C 
ATOM      3  C   UNL     1     209.723 207.883 185.662  1.00  0.00     0.005 C 
ATOM      4  C   UNL     1     208.446 207.516 184.890  1.00  0.00    -0.001 C 
ATOM      5  C   UNL     1     207.512 208.747 185.072  1.00  0.00    -0.020 C 
ATOM      6  C   UNL     1     206.013 208.352 185.087  1.00  0.00     0.008 C 
ATOM      7  C   UNL     1     205.639 207.201 186.048  1.00  0.00     0.005 C 
ATOM      8  C   UNL     1     206.820 206.286 186.494  1.00  0.00     0.003 C 
ATOM      9  C   UNL     1     207.848 206.143 185.350  1.00  0.00     0.000 C 
ATOM     10  C   UNL     1     207.213 205.365 184.182  1.00  0.00     0.031 C 
ATOM     11  C   UNL     1     206.615 204.065 184.647  1.00  0.00    -0.027 C 
ATOM     12  C   UNL     1     206.185 203.845 185.912  1.00  0.00    -0.065 C 
ATOM     13  C   UNL     1     206.365 204.870 187.040  1.00  0.00    -0.008 C 
ATOM     14  C   UNL     1     207.460 204.302 188.002  1.00  0.00     0.014 C 
ATOM     15  C   UNL     1     207.226 202.834 188.428  1.00  0.00     0.033 C 
ATOM     16  C   UNL     1     206.982 201.894 187.227  1.00  0.00     0.118 C 
ATOM     17  C   UNL     1     205.861 202.426 186.323  1.00  0.00     0.063 C 
ATOM     18  C   UNL     1     205.041 205.012 187.846  1.00  0.00     0.016 C 
ATOM     19  C   UNL     1     207.737 209.712 183.875  1.00  0.00     0.012 C 
ENDROOT
BRANCH   1  20
ATOM     20  C   UNL     1     207.875 210.913 186.485  1.00  0.00     0.133 C 
ATOM     21  C   UNL     1     209.126 211.739 186.437  1.00  0.00     0.088 C 
ATOM     22  O   UNL     1     206.797 211.484 186.577  1.00  0.00    -0.300 OA
ENDBRANCH   1  20
BRANCH  16  23
ATOM     23  O   UNL     1     208.161 201.753 186.474  1.00  0.00    -0.393 OA
ATOM     24  H   UNL     1     208.076 202.359 185.692  1.00  0.00     0.210 HD
ENDBRANCH  16  23
TORSDOF 2
ENDMDL
MODEL 2
REMARK VINA RESULT:    -4.033      2.805      4.679
REMARK INTER + INTRA:          -4.607
REMARK INTER:                  -4.389
REMARK INTRA:                  -0.217
REMARK UNBOUND:                -0.220
REMARK SMILES CC(=O)[C@@H]1CC[C@H]2[C@@H]3CC=C4C[C@@H](O)CC[C@@]4(C)[C@@H]3CC[C@@]12C
REMARK SMILES IDX 4 1 5 2 6 3 7 4 22 5 21 6 20 7 19 8 8 9 9 10 10 11 11 12
REMARK SMILES IDX 17 13 16 14 15 15 13 16 12 17 18 18 23 19 2 20 1 21 3 22
REMARK SMILES IDX 14 23
REMARK H PARENT 14 24
REMARK Flexibility Score: inf
ROOT
ATOM      1  C   UNL     1     209.389 206.711 186.428  1.00  0.00     0.062 C 
ATOM      2  C   UNL     1     208.831 205.312 186.725  1.00  0.00     0.012 C 
ATOM      3  C   UNL     1     207.867 204.962 185.601  1.00  0.00     0.005 C 
ATOM      4  C   UNL     1     207.502 206.267 184.877  1.00  0.00    -0.001 C 
ATOM      5  C   UNL     1     208.740 207.188 185.085  1.00  0.00    -0.020 C 
ATOM      6  C   UNL     1     208.354 208.687 185.155  1.00  0.00     0.008 C 
ATOM      7  C   UNL     1     207.209 209.033 186.134  1.00  0.00     0.005 C 
ATOM      8  C   UNL     1     206.289 207.843 186.543  1.00  0.00     0.003 C 
ATOM      9  C   UNL     1     206.135 206.856 185.364  1.00  0.00     0.000 C 
ATOM     10  C   UNL     1     205.355 207.536 184.224  1.00  0.00     0.031 C 
ATOM     11  C   UNL     1     204.061 208.124 184.716  1.00  0.00    -0.027 C 
ATOM     12  C   UNL     1     203.850 208.510 185.997  1.00  0.00    -0.065 C 
ATOM     13  C   UNL     1     204.879 208.286 187.113  1.00  0.00    -0.008 C 
ATOM     14  C   UNL     1     204.310 207.160 188.038  1.00  0.00     0.014 C 
ATOM     15  C   UNL     1     202.845 207.387 188.480  1.00  0.00     0.033 C 
ATOM     16  C   UNL     1     201.901 207.678 187.293  1.00  0.00     0.118 C 
ATOM     17  C   UNL     1     202.435 208.828 186.427  1.00  0.00     0.063 C 
ATOM     18  C   UNL     1     205.033 209.580 187.964  1.00  0.00     0.016 C 
ATOM     19  C   UNL     1     209.697 207.000 183.875  1.00  0.00     0.012 C 
ENDROOT
BRANCH   1  20
ATOM     20  C   UNL     1     210.911 206.763 186.472  1.00  0.00     0.133 C 
ATOM     21  C   UNL     1     211.729 205.509 186.379  1.00  0.00     0.088 C 
ATOM     22  O   UNL     1     211.488 207.834 186.596  1.00  0.00    -0.300 OA
ENDBRANCH   1  20
BRANCH  16  23
ATOM     23  O   UNL     1     201.749 206.528 186.500  1.00  0.00    -0.393 OA
ATOM     24  H   UNL     1     202.533 205.946 186.685  1.00  0.00     0.210 HD
ENDBRANCH  16  23
TORSDOF 2
ENDMDL
MODEL 3
REMARK VINA RESULT:    -4.033      2.800      4.693
REMARK INTER + INTRA:          -4.606
REMARK INTER:                  -4.389
REMARK INTRA:                  -0.218
REMARK UNBOUND:                -0.220
REMARK SMILES CC(=O)[C@@H]1CC[C@H]2[C@@H]3CC=C4C[C@@H](O)CC[C@@]4(C)[C@@H]3CC[C@@]12C
REMARK SMILES IDX 4 1 5 2 6 3 7 4 22 5 21 6 20 7 19 8 8 9 9 10 10 11 11 12
REMARK SMILES IDX 17 13 16 14 15 15 13 16 12 17 18 18 23 19 2 20 1 21 3 22
REMARK SMILES IDX 14 23
REMARK H PARENT 14 24
REMARK Flexibility Score: inf
ROOT
ATOM      1  C   UNL     1     205.350 207.943 186.436  1.00  0.00     0.062 C 
ATOM      2  C   UNL     1     205.898 209.336 186.778  1.00  0.00     0.012 C 
ATOM      3  C   UNL     1     206.861 209.729 185.667  1.00  0.00     0.005 C 
ATOM      4  C   UNL     1     207.235 208.450 184.902  1.00  0.00    -0.001 C 
ATOM      5  C   UNL     1     206.004 207.514 185.080  1.00  0.00    -0.020 C 
ATOM      6  C   UNL     1     206.400 206.016 185.102  1.00  0.00     0.008 C 
ATOM      7  C   UNL     1     207.546 205.647 186.072  1.00  0.00     0.005 C 
ATOM      8  C   UNL     1     208.457 206.830 186.519  1.00  0.00     0.003 C 
ATOM      9  C   UNL     1     208.606 207.854 185.372  1.00  0.00     0.000 C 
ATOM     10  C   UNL     1     209.392 207.216 184.212  1.00  0.00     0.031 C 
ATOM     11  C   UNL     1     210.689 206.622 184.687  1.00  0.00    -0.027 C 
ATOM     12  C   UNL     1     210.902 206.196 185.955  1.00  0.00    -0.065 C 
ATOM     13  C   UNL     1     209.870 206.379 187.076  1.00  0.00    -0.008 C 
ATOM     14  C   UNL     1     210.431 207.479 188.038  1.00  0.00     0.014 C 
ATOM     15  C   UNL     1     211.896 207.248 188.474  1.00  0.00     0.033 C 
ATOM     16  C   UNL     1     212.844 207.000 187.280  1.00  0.00     0.118 C 
ATOM     17  C   UNL     1     212.318 205.875 186.377  1.00  0.00     0.063 C 
ATOM     18  C   UNL     1     209.724 205.058 187.886  1.00  0.00     0.016 C 
ATOM     19  C   UNL     1     205.047 207.734 183.875  1.00  0.00     0.012 C 
ENDROOT
BRANCH   1  20
ATOM     20  C   UNL     1     203.829 207.880 186.477  1.00  0.00     0.133 C 
ATOM     21  C   UNL     1     203.002 209.130 186.416  1.00  0.00     0.088 C 
ATOM     22  O   UNL     1     203.259 206.802 186.571  1.00  0.00    -0.300 OA
ENDBRANCH   1  20
BRANCH  16  23
ATOM     23  O   UNL     1     212.989 208.176 186.523  1.00  0.00    -0.393 OA
ATOM     24  H   UNL     1     212.982 208.933 187.166  1.00  0.00     0.210 HD
ENDBRANCH  16  23
TORSDOF 2
ENDMDL
MODEL 4
REMARK VINA RESULT:    -4.030      1.196      6.629
REMARK INTER + INTRA:          -4.603
REMARK INTER:                  -4.384
REMARK INTRA:                  -0.220
REMARK UNBOUND:                -0.220
REMARK SMILES CC(=O)[C@@H]1CC[C@H]2[C@@H]3CC=C4C[C@@H](O)CC[C@@]4(C)[C@@H]3CC[C@@]12C
REMARK SMILES IDX 4 1 5 2 6 3 7 4 22 5 21 6 20 7 19 8 8 9 9 10 10 11 11 12
REMARK SMILES IDX 17 13 16 14 15 15 13 16 12 17 18 18 23 19 2 20 1 21 3 22
REMARK SMILES IDX 14 23
REMARK H PARENT 14 24
REMARK Flexibility Score: inf
ROOT
ATOM      1  C   UNL     1     206.739 205.354 186.431  1.00  0.00     0.062 C 
ATOM      2  C   UNL     1     205.342 205.909 186.746  1.00  0.00     0.012 C 
ATOM      3  C   UNL     1     204.975 206.873 185.627  1.00  0.00     0.005 C 
ATOM      4  C   UNL     1     206.270 207.241 184.886  1.00  0.00    -0.001 C 
ATOM      5  C   UNL     1     207.197 206.005 185.083  1.00  0.00    -0.020 C 
ATOM      6  C   UNL     1     208.696 206.396 185.135  1.00  0.00     0.008 C 
ATOM      7  C   UNL     1     209.051 207.541 186.110  1.00  0.00     0.005 C 
ATOM      8  C   UNL     1     207.863 208.457 186.534  1.00  0.00     0.003 C 
ATOM      9  C   UNL     1     206.862 208.609 185.367  1.00  0.00     0.000 C 
ATOM     10  C   UNL     1     207.526 209.392 184.219  1.00  0.00     0.031 C 
ATOM     11  C   UNL     1     208.116 210.687 184.705  1.00  0.00    -0.027 C 
ATOM     12  C   UNL     1     208.518 210.899 185.980  1.00  0.00    -0.065 C 
ATOM     13  C   UNL     1     208.309 209.869 187.099  1.00  0.00    -0.008 C 
ATOM     14  C   UNL     1     207.193 210.434 188.038  1.00  0.00     0.014 C 
ATOM     15  C   UNL     1     207.422 211.899 188.478  1.00  0.00     0.033 C 
ATOM     16  C   UNL     1     207.696 212.845 187.288  1.00  0.00     0.118 C 
ATOM     17  C   UNL     1     208.837 212.314 186.407  1.00  0.00     0.063 C 
ATOM     18  C   UNL     1     209.614 209.718 187.934  1.00  0.00     0.016 C 
ATOM     19  C   UNL     1     206.997 205.048 183.875  1.00  0.00     0.012 C 
ENDROOT
BRANCH   1  20
ATOM     20  C   UNL     1     206.795 203.833 186.474  1.00  0.00     0.133 C 
ATOM     21  C   UNL     1     205.543 203.011 186.395  1.00  0.00     0.088 C 
ATOM     22  O   UNL     1     207.869 203.259 186.586  1.00  0.00    -0.300 OA
ENDBRANCH   1  20
BRANCH  16  23
ATOM     23  O   UNL     1     206.536 212.994 186.509  1.00  0.00    -0.393 OA
ATOM     24  H   UNL     1     206.229 212.079 186.273  1.00  0.00     0.210 HD
ENDBRANCH  16  23
TORSDOF 2
ENDMDL
MODEL 5
REMARK VINA RESULT:    -3.919      5.509      8.607
REMARK INTER + INTRA:          -4.483
REMARK INTER:                  -4.264
REMARK INTRA:                  -0.218
REMARK UNBOUND:                -0.220
REMARK SMILES CC(=O)[C@@H]1CC[C@H]2[C@@H]3CC=C4C[C@@H](O)CC[C@@]4(C)[C@@H]3CC[C@@]12C
REMARK SMILES IDX 4 1 5 2 6 3 7 4 22 5 21 6 20 7 19 8 8 9 9 10 10 11 11 12
REMARK SMILES IDX 17 13 16 14 15 15 13 16 12 17 18 18 23 19 2 20 1 21 3 22
REMARK SMILES IDX 14 23
REMARK H PARENT 14 24
REMARK Flexibility Score: inf
ROOT
ATOM      1  C   UNL     1     204.747 201.117 187.845  1.00  0.00     0.062 C 
ATOM      2  C   UNL     1     205.105 199.761 187.219  1.00  0.00     0.012 C 
ATOM      3  C   UNL     1     204.704 199.820 185.752  1.00  0.00     0.005 C 
ATOM      4  C   UNL     1     203.732 200.998 185.582  1.00  0.00    -0.001 C 
ATOM      5  C   UNL     1     204.129 201.998 186.707  1.00  0.00    -0.020 C 
ATOM      6  C   UNL     1     202.916 202.810 187.229  1.00  0.00     0.008 C 
ATOM      7  C   UNL     1     201.675 201.975 187.615  1.00  0.00     0.005 C 
ATOM      8  C   UNL     1     201.607 200.545 186.999  1.00  0.00     0.003 C 
ATOM      9  C   UNL     1     202.234 200.539 185.588  1.00  0.00     0.000 C 
ATOM     10  C   UNL     1     201.364 201.379 184.635  1.00  0.00     0.031 C 
ATOM     11  C   UNL     1     199.924 200.946 184.678  1.00  0.00    -0.027 C 
ATOM     12  C   UNL     1     199.354 200.335 185.743  1.00  0.00    -0.065 C 
ATOM     13  C   UNL     1     200.151 199.918 186.986  1.00  0.00    -0.008 C 
ATOM     14  C   UNL     1     200.252 198.357 186.961  1.00  0.00     0.014 C 
ATOM     15  C   UNL     1     198.901 197.641 186.731  1.00  0.00     0.033 C 
ATOM     16  C   UNL     1     198.140 198.181 185.501  1.00  0.00     0.118 C 
ATOM     17  C   UNL     1     197.990 199.707 185.565  1.00  0.00     0.063 C 
ATOM     18  C   UNL     1     199.383 200.332 188.275  1.00  0.00     0.016 C 
ATOM     19  C   UNL     1     205.160 203.004 186.124  1.00  0.00     0.012 C 
ENDROOT
BRANCH   1  20
ATOM     20  C   UNL     1     205.911 201.745 188.599  1.00  0.00     0.133 C 
ATOM     21  C   UNL     1     207.319 201.280 188.374  1.00  0.00     0.088 C 
ATOM     22  O   UNL     1     205.709 202.637 189.412  1.00  0.00    -0.300 OA
ENDBRANCH   1  20
BRANCH  16  23
ATOM     23  O   UNL     1     198.816 197.829 184.319  1.00  0.00    -0.393 OA
ATOM     24  H   UNL     1     198.219 197.213 183.820  1.00  0.00     0.210 HD
ENDBRANCH  16  23
TORSDOF 2
ENDMDL
MODEL 6
REMARK VINA RESULT:    -3.918      7.617     10.972
REMARK INTER + INTRA:          -4.481
REMARK INTER:                  -4.265
REMARK INTRA:                  -0.217
REMARK UNBOUND:                -0.220
REMARK SMILES CC(=O)[C@@H]1CC[C@H]2[C@@H]3CC=C4C[C@@H](O)CC[C@@]4(C)[C@@H]3CC[C@@]12C
REMARK SMILES IDX 4 1 5 2 6 3 7 4 22 5 21 6 20 7 19 8 8 9 9 10 10 11 11 12
REMARK SMILES IDX 17 13 16 14 15 15 13 16 12 17 18 18 23 19 2 20 1 21 3 22
REMARK SMILES IDX 14 23
REMARK H PARENT 14 24
REMARK Flexibility Score: inf
ROOT
ATOM      1  C   UNL     1     201.108 209.947 187.846  1.00  0.00     0.062 C 
ATOM      2  C   UNL     1     199.748 209.595 187.224  1.00  0.00     0.012 C 
ATOM      3  C   UNL     1     199.805 209.998 185.757  1.00  0.00     0.005 C 
ATOM      4  C   UNL     1     200.986 210.965 185.585  1.00  0.00    -0.001 C 
ATOM      5  C   UNL     1     201.988 210.562 186.706  1.00  0.00    -0.020 C 
ATOM      6  C   UNL     1     202.807 211.771 187.227  1.00  0.00     0.008 C 
ATOM      7  C   UNL     1     201.979 213.016 187.617  1.00  0.00     0.005 C 
ATOM      8  C   UNL     1     200.546 213.090 187.006  1.00  0.00     0.003 C 
ATOM      9  C   UNL     1     200.533 212.465 185.594  1.00  0.00     0.000 C 
ATOM     10  C   UNL     1     201.374 213.333 184.640  1.00  0.00     0.031 C 
ATOM     11  C   UNL     1     200.947 214.774 184.686  1.00  0.00    -0.027 C 
ATOM     12  C   UNL     1     200.342 215.345 185.754  1.00  0.00    -0.065 C 
ATOM     13  C   UNL     1     199.925 214.548 186.997  1.00  0.00    -0.008 C 
ATOM     14  C   UNL     1     198.364 214.454 186.977  1.00  0.00     0.014 C 
ATOM     15  C   UNL     1     197.653 215.808 186.751  1.00  0.00     0.033 C 
ATOM     16  C   UNL     1     198.192 216.569 185.520  1.00  0.00     0.118 C 
ATOM     17  C   UNL     1     199.719 216.713 185.580  1.00  0.00     0.063 C 
ATOM     18  C   UNL     1     200.347 215.313 188.286  1.00  0.00     0.016 C 
ATOM     19  C   UNL     1     202.988 209.529 186.118  1.00  0.00     0.012 C 
ENDROOT
BRANCH   1  20
ATOM     20  C   UNL     1     201.734 208.779 188.596  1.00  0.00     0.133 C 
ATOM     21  C   UNL     1     201.243 207.377 188.392  1.00  0.00     0.088 C 
ATOM     22  O   UNL     1     202.645 208.973 189.389  1.00  0.00    -0.300 OA
ENDBRANCH   1  20
BRANCH  16  23
ATOM     23  O   UNL     1     197.833 215.896 184.339  1.00  0.00    -0.393 OA
ATOM     24  H   UNL     1     198.480 215.151 184.225  1.00  0.00     0.210 HD
ENDBRANCH  16  23
TORSDOF 2
ENDMDL
MODEL 7
REMARK VINA RESULT:    -3.903      6.598     10.834
REMARK INTER + INTRA:          -4.465
REMARK INTER:                  -4.257
REMARK INTRA:                  -0.209
REMARK UNBOUND:                -0.220
REMARK SMILES CC(=O)[C@@H]1CC[C@H]2[C@@H]3CC=C4C[C@@H](O)CC[C@@]4(C)[C@@H]3CC[C@@]12C
REMARK SMILES IDX 4 1 5 2 6 3 7 4 22 5 21 6 20 7 19 8 8 9 9 10 10 11 11 12
REMARK SMILES IDX 17 13 16 14 15 15 13 16 12 17 18 18 23 19 2 20 1 21 3 22
REMARK SMILES IDX 14 23
REMARK H PARENT 14 24
REMARK Flexibility Score: inf
ROOT
ATOM      1  C   UNL     1     209.888 213.507 187.874  1.00  0.00     0.062 C 
ATOM      2  C   UNL     1     209.499 214.850 187.238  1.00  0.00     0.012 C 
ATOM      3  C   UNL     1     209.909 214.792 185.774  1.00  0.00     0.005 C 
ATOM      4  C   UNL     1     210.912 213.639 185.616  1.00  0.00    -0.001 C 
ATOM      5  C   UNL     1     210.534 212.636 186.745  1.00  0.00    -0.020 C 
ATOM      6  C   UNL     1     211.764 211.858 187.278  1.00  0.00     0.008 C 
ATOM      7  C   UNL     1     212.982 212.726 187.666  1.00  0.00     0.005 C 
ATOM      8  C   UNL     1     213.017 214.155 187.043  1.00  0.00     0.003 C 
ATOM      9  C   UNL     1     212.398 214.136 185.628  1.00  0.00     0.000 C 
ATOM     10  C   UNL     1     213.295 213.313 184.685  1.00  0.00     0.031 C 
ATOM     11  C   UNL     1     214.723 213.784 184.733  1.00  0.00    -0.027 C 
ATOM     12  C   UNL     1     215.271 214.415 185.798  1.00  0.00    -0.065 C 
ATOM     13  C   UNL     1     214.456 214.818 187.035  1.00  0.00    -0.008 C 
ATOM     14  C   UNL     1     214.315 216.376 187.000  1.00  0.00     0.014 C 
ATOM     15  C   UNL     1     215.649 217.125 186.774  1.00  0.00     0.033 C 
ATOM     16  C   UNL     1     216.430 216.598 185.550  1.00  0.00     0.118 C 
ATOM     17  C   UNL     1     216.620 215.076 185.625  1.00  0.00     0.063 C 
ATOM     18  C   UNL     1     215.227 214.431 188.330  1.00  0.00     0.016 C 
ATOM     19  C   UNL     1     209.533 211.600 186.162  1.00  0.00     0.012 C 
ENDROOT
BRANCH   1  20
ATOM     20  C   UNL     1     208.736 212.853 188.625  1.00  0.00     0.133 C 
ATOM     21  C   UNL     1     208.992 211.848 189.709  1.00  0.00     0.088 C 
ATOM     22  O   UNL     1     207.579 213.134 188.345  1.00  0.00    -0.300 OA
ENDBRANCH   1  20
BRANCH  16  23
ATOM     23  O   UNL     1     215.753 216.926 184.363  1.00  0.00    -0.393 OA
ATOM     24  H   UNL     1     215.934 217.886 184.185  1.00  0.00     0.210 HD
ENDBRANCH  16  23
TORSDOF 2
ENDMDL
MODEL 8
REMARK VINA RESULT:    -3.894      2.897      5.000
REMARK INTER + INTRA:          -4.456
REMARK INTER:                  -4.236
REMARK INTRA:                  -0.220
REMARK UNBOUND:                -0.220
REMARK SMILES CC(=O)[C@@H]1CC[C@H]2[C@@H]3CC=C4C[C@@H](O)CC[C@@]4(C)[C@@H]3CC[C@@]12C
REMARK SMILES IDX 4 1 5 2 6 3 7 4 22 5 21 6 20 7 19 8 8 9 9 10 10 11 11 12
REMARK SMILES IDX 17 13 16 14 15 15 13 16 12 17 18 18 23 19 2 20 1 21 3 22
REMARK SMILES IDX 14 23
REMARK H PARENT 14 24
REMARK Flexibility Score: inf
ROOT
ATOM      1  C   UNL     1     203.575 207.675 187.470  1.00  0.00     0.062 C 
ATOM      2  C   UNL     1     204.439 207.897 188.720  1.00  0.00     0.012 C 
ATOM      3  C   UNL     1     205.349 209.084 188.436  1.00  0.00     0.005 C 
ATOM      4  C   UNL     1     205.365 209.305 186.915  1.00  0.00    -0.001 C 
ATOM      5  C   UNL     1     203.985 208.771 186.429  1.00  0.00    -0.020 C 
ATOM      6  C   UNL     1     204.054 208.181 184.997  1.00  0.00     0.008 C 
ATOM      7  C   UNL     1     205.184 207.155 184.755  1.00  0.00     0.005 C 
ATOM      8  C   UNL     1     206.366 207.203 185.770  1.00  0.00     0.003 C 
ATOM      9  C   UNL     1     206.616 208.656 186.232  1.00  0.00     0.000 C 
ATOM     10  C   UNL     1     207.130 209.491 185.045  1.00  0.00     0.031 C 
ATOM     11  C   UNL     1     208.311 208.838 184.382  1.00  0.00    -0.027 C 
ATOM     12  C   UNL     1     208.552 207.506 184.418  1.00  0.00    -0.065 C 
ATOM     13  C   UNL     1     207.698 206.530 185.239  1.00  0.00    -0.008 C 
ATOM     14  C   UNL     1     208.573 206.067 186.451  1.00  0.00     0.014 C 
ATOM     15  C   UNL     1     209.991 205.590 186.061  1.00  0.00     0.033 C 
ATOM     16  C   UNL     1     210.741 206.608 185.174  1.00  0.00     0.118 C 
ATOM     17  C   UNL     1     209.902 207.007 183.952  1.00  0.00     0.063 C 
ATOM     18  C   UNL     1     207.355 205.275 184.384  1.00  0.00     0.016 C 
ATOM     19  C   UNL     1     202.983 209.958 186.406  1.00  0.00     0.012 C 
ENDROOT
BRANCH   1  20
ATOM     20  C   UNL     1     202.087 207.598 187.785  1.00  0.00     0.133 C 
ATOM     21  C   UNL     1     201.544 208.122 189.082  1.00  0.00     0.088 C 
ATOM     22  O   UNL     1     201.312 207.095 186.983  1.00  0.00    -0.300 OA
ENDBRANCH   1  20
BRANCH  16  23
ATOM     23  O   UNL     1     211.058 207.758 185.918  1.00  0.00    -0.393 OA
ATOM     24  H   UNL     1     212.028 207.708 186.126  1.00  0.00     0.210 HD
ENDBRANCH  16  23
TORSDOF 2
ENDMDL
MODEL 9
REMARK VINA RESULT:    -3.884      0.934      6.458
REMARK INTER + INTRA:          -4.444
REMARK INTER:                  -4.229
REMARK INTRA:                  -0.215
REMARK UNBOUND:                -0.220
REMARK SMILES CC(=O)[C@@H]1CC[C@H]2[C@@H]3CC=C4C[C@@H](O)CC[C@@]4(C)[C@@H]3CC[C@@]12C
REMARK SMILES IDX 4 1 5 2 6 3 7 4 22 5 21 6 20 7 19 8 8 9 9 10 10 11 11 12
REMARK SMILES IDX 17 13 16 14 15 15 13 16 12 17 18 18 23 19 2 20 1 21 3 22
REMARK SMILES IDX 14 23
REMARK H PARENT 14 24
REMARK Flexibility Score: inf
ROOT
ATOM      1  C   UNL     1     207.093 203.561 187.476  1.00  0.00     0.062 C 
ATOM      2  C   UNL     1     206.857 204.433 188.718  1.00  0.00     0.012 C 
ATOM      3  C   UNL     1     205.657 205.322 188.425  1.00  0.00     0.005 C 
ATOM      4  C   UNL     1     205.436 205.319 186.904  1.00  0.00    -0.001 C 
ATOM      5  C   UNL     1     205.992 203.943 186.432  1.00  0.00    -0.020 C 
ATOM      6  C   UNL     1     206.582 204.007 184.999  1.00  0.00     0.008 C 
ATOM      7  C   UNL     1     207.589 205.151 184.747  1.00  0.00     0.005 C 
ATOM      8  C   UNL     1     207.522 206.342 185.750  1.00  0.00     0.003 C 
ATOM      9  C   UNL     1     206.066 206.574 186.209  1.00  0.00     0.000 C 
ATOM     10  C   UNL     1     205.223 207.063 185.017  1.00  0.00     0.031 C 
ATOM     11  C   UNL     1     205.858 208.248 184.342  1.00  0.00    -0.027 C 
ATOM     12  C   UNL     1     207.186 208.510 184.377  1.00  0.00    -0.065 C 
ATOM     13  C   UNL     1     208.175 207.680 185.206  1.00  0.00    -0.008 C 
ATOM     14  C   UNL     1     208.623 208.573 186.411  1.00  0.00     0.014 C 
ATOM     15  C   UNL     1     209.077 209.995 186.007  1.00  0.00     0.033 C 
ATOM     16  C   UNL     1     208.048 210.720 185.113  1.00  0.00     0.118 C 
ATOM     17  C   UNL     1     207.663 209.863 183.899  1.00  0.00     0.063 C 
ATOM     18  C   UNL     1     209.436 207.348 184.356  1.00  0.00     0.016 C 
ATOM     19  C   UNL     1     204.821 202.923 186.418  1.00  0.00     0.012 C 
ENDROOT
BRANCH   1  20
ATOM     20  C   UNL     1     207.194 202.077 187.806  1.00  0.00     0.133 C 
ATOM     21  C   UNL     1     206.653 201.534 189.096  1.00  0.00     0.088 C 
ATOM     22  O   UNL     1     207.730 201.306 187.022  1.00  0.00    -0.300 OA
ENDBRANCH   1  20
BRANCH  16  23
ATOM     23  O   UNL     1     206.893 211.026 185.853  1.00  0.00    -0.393 OA
ATOM     24  H   UNL     1     206.191 210.383 185.569  1.00  0.00     0.210 HD
ENDBRANCH  16  23
TORSDOF 2
ENDMDL
