MODEL 1
REMARK VINA RESULT:    -5.295      0.000      0.000
REMARK INTER + INTRA:          -9.387
REMARK INTER:                  -8.390
REMARK INTRA:                  -0.997
REMARK UNBOUND:                -0.997
REMARK SMILES CCCCCCCCCCCC(=O)[O-]
REMARK SMILES IDX 7 1 8 2 9 3 10 4 11 5 12 6 13 7 14 8 6 9 5 10 4 11 3 12 2 13
REMARK SMILES IDX 1 14
REMARK H PARENT
REMARK Flexibility Score: inf
ROOT
ATOM      1  C   UNL     1     -12.841 -11.518  11.004  1.00  0.00     0.000 C 
ENDROOT
BRANCH   1   2
ATOM      2  C   UNL     1     -11.697 -10.633  11.538  1.00  0.00     0.000 C 
BRANCH   2   3
ATOM      3  C   UNL     1     -11.794  -9.143  11.169  1.00  0.00     0.000 C 
BRANCH   3   4
ATOM      4  C   UNL     1     -11.252  -8.841   9.760  1.00  0.00     0.006 C 
BRANCH   4   5
ATOM      5  C   UNL     1      -9.899  -9.517   9.505  1.00  0.00     0.053 C 
BRANCH   5   6
ATOM      6  C   UNL     1      -9.881 -10.249   8.198  1.00  0.00     0.041 C 
ATOM      7  O   UNL     1      -8.810 -10.753   7.768  1.00  0.00    -0.550 OA
ATOM      8  O   UNL     1     -11.053 -10.399   7.469  1.00  0.00    -0.550 OA
ENDBRANCH   5   6
ENDBRANCH   4   5
ENDBRANCH   3   4
ENDBRANCH   2   3
ENDBRANCH   1   2
BRANCH   1   9
ATOM      9  C   UNL     1     -12.432 -12.541   9.928  1.00  0.00     0.000 C 
BRANCH   9  10
ATOM     10  C   UNL     1     -11.007 -13.082  10.131  1.00  0.00    -0.000 C 
BRANCH  10  11
ATOM     11  C   UNL     1     -10.494 -13.880   8.921  1.00  0.00    -0.000 C 
BRANCH  11  12
ATOM     12  C   UNL     1     -11.225 -15.210   8.657  1.00  0.00    -0.000 C 
BRANCH  12  13
ATOM     13  C   UNL     1     -10.547 -16.434   9.307  1.00  0.00    -0.003 C 
ATOM     14  C   UNL     1     -11.456 -17.663   9.330  1.00  0.00     0.004 C 
ENDBRANCH  12  13
ENDBRANCH  11  12
ENDBRANCH  10  11
ENDBRANCH   9  10
ENDBRANCH   1   9
TORSDOF 10
ENDMDL
MODEL 2
REMARK VINA RESULT:    -5.267      1.142      1.743
REMARK INTER + INTRA:          -9.342
REMARK INTER:                  -8.368
REMARK INTRA:                  -0.974
REMARK UNBOUND:                -0.997
REMARK SMILES CCCCCCCCCCCC(=O)[O-]
REMARK SMILES IDX 7 1 8 2 9 3 10 4 11 5 12 6 13 7 14 8 6 9 5 10 4 11 3 12 2 13
REMARK SMILES IDX 1 14
REMARK H PARENT
REMARK Flexibility Score: inf
ROOT
ATOM      1  C   UNL     1     -13.513 -10.327  10.754  1.00  0.00     0.000 C 
ENDROOT
BRANCH   1   2
ATOM      2  C   UNL     1     -12.896  -9.004  10.256  1.00  0.00     0.000 C 
BRANCH   2   3
ATOM      3  C   UNL     1     -11.366  -8.903  10.391  1.00  0.00     0.000 C 
BRANCH   3   4
ATOM      4  C   UNL     1     -10.637  -9.060   9.045  1.00  0.00     0.006 C 
BRANCH   4   5
ATOM      5  C   UNL     1      -9.168  -9.464   9.227  1.00  0.00     0.053 C 
BRANCH   5   6
ATOM      6  C   UNL     1      -8.489  -9.698   7.913  1.00  0.00     0.041 C 
ATOM      7  O   UNL     1      -7.858  -8.766   7.349  1.00  0.00    -0.550 OA
ATOM      8  O   UNL     1      -8.528 -10.956   7.325  1.00  0.00    -0.550 OA
ENDBRANCH   5   6
ENDBRANCH   4   5
ENDBRANCH   3   4
ENDBRANCH   2   3
ENDBRANCH   1   2
BRANCH   1   9
ATOM      9  C   UNL     1     -12.505 -11.365  11.280  1.00  0.00     0.000 C 
BRANCH   9  10
ATOM     10  C   UNL     1     -12.277 -12.526  10.298  1.00  0.00    -0.000 C 
BRANCH  10  11
ATOM     11  C   UNL     1     -10.789 -12.768   9.995  1.00  0.00    -0.000 C 
BRANCH  11  12
ATOM     12  C   UNL     1     -10.503 -13.531   8.688  1.00  0.00    -0.000 C 
BRANCH  12  13
ATOM     13  C   UNL     1     -11.037 -14.978   8.681  1.00  0.00    -0.003 C 
ATOM     14  C   UNL     1     -10.231 -15.904   9.592  1.00  0.00     0.004 C 
ENDBRANCH  12  13
ENDBRANCH  11  12
ENDBRANCH  10  11
ENDBRANCH   9  10
ENDBRANCH   1   9
TORSDOF 10
ENDMDL
MODEL 3
REMARK VINA RESULT:    -5.243      2.476      5.291
REMARK INTER + INTRA:          -9.304
REMARK INTER:                  -8.317
REMARK INTRA:                  -0.987
REMARK UNBOUND:                -0.997
REMARK SMILES CCCCCCCCCCCC(=O)[O-]
REMARK SMILES IDX 7 1 8 2 9 3 10 4 11 5 12 6 13 7 14 8 6 9 5 10 4 11 3 12 2 13
REMARK SMILES IDX 1 14
REMARK H PARENT
REMARK Flexibility Score: inf
ROOT
ATOM      1  C   UNL     1     -13.069 -11.077  10.710  1.00  0.00     0.000 C 
ENDROOT
BRANCH   1   2
ATOM      2  C   UNL     1     -12.727 -12.487  10.187  1.00  0.00     0.000 C 
BRANCH   2   3
ATOM      3  C   UNL     1     -11.236 -12.864  10.247  1.00  0.00     0.000 C 
BRANCH   3   4
ATOM      4  C   UNL     1     -10.723 -13.478   8.932  1.00  0.00     0.006 C 
BRANCH   4   5
ATOM      5  C   UNL     1     -11.418 -14.806   8.604  1.00  0.00     0.053 C 
BRANCH   5   6
ATOM      6  C   UNL     1     -10.543 -15.982   8.913  1.00  0.00     0.041 C 
ATOM      7  O   UNL     1      -9.290 -15.877   8.844  1.00  0.00    -0.550 OA
ATOM      8  O   UNL     1     -11.111 -17.187   9.304  1.00  0.00    -0.550 OA
ENDBRANCH   5   6
ENDBRANCH   4   5
ENDBRANCH   3   4
ENDBRANCH   2   3
ENDBRANCH   1   2
BRANCH   1   9
ATOM      9  C   UNL     1     -11.913 -10.338  11.410  1.00  0.00     0.000 C 
BRANCH   9  10
ATOM     10  C   UNL     1     -11.518  -9.035  10.694  1.00  0.00    -0.000 C 
BRANCH  10  11
ATOM     11  C   UNL     1     -10.884  -9.281   9.315  1.00  0.00    -0.000 C 
BRANCH  11  12
ATOM     12  C   UNL     1      -9.434  -9.802   9.345  1.00  0.00    -0.000 C 
BRANCH  12  13
ATOM     13  C   UNL     1      -8.923 -10.306   7.980  1.00  0.00    -0.003 C 
ATOM     14  C   UNL     1      -7.852  -9.393   7.384  1.00  0.00     0.004 C 
ENDBRANCH  12  13
ENDBRANCH  11  12
ENDBRANCH  10  11
ENDBRANCH   9  10
ENDBRANCH   1   9
TORSDOF 10
ENDMDL
MODEL 4
REMARK VINA RESULT:    -5.224      2.164      4.703
REMARK INTER + INTRA:          -9.276
REMARK INTER:                  -8.078
REMARK INTRA:                  -1.198
REMARK UNBOUND:                -0.997
REMARK SMILES CCCCCCCCCCCC(=O)[O-]
REMARK SMILES IDX 7 1 8 2 9 3 10 4 11 5 12 6 13 7 14 8 6 9 5 10 4 11 3 12 2 13
REMARK SMILES IDX 1 14
REMARK H PARENT
REMARK Flexibility Score: inf
ROOT
ATOM      1  C   UNL     1     -12.935  -8.901  10.133  1.00  0.00     0.000 C 
ENDROOT
BRANCH   1   2
ATOM      2  C   UNL     1     -13.425 -10.272  10.645  1.00  0.00     0.000 C 
BRANCH   2   3
ATOM      3  C   UNL     1     -12.410 -11.054  11.497  1.00  0.00     0.000 C 
BRANCH   3   4
ATOM      4  C   UNL     1     -11.776 -12.232  10.736  1.00  0.00     0.006 C 
BRANCH   4   5
ATOM      5  C   UNL     1     -12.647 -12.696   9.561  1.00  0.00     0.053 C 
BRANCH   5   6
ATOM      6  C   UNL     1     -11.929 -13.683   8.692  1.00  0.00     0.041 C 
ATOM      7  O   UNL     1     -12.541 -14.275   7.765  1.00  0.00    -0.550 OA
ATOM      8  O   UNL     1     -10.576 -13.928   8.890  1.00  0.00    -0.550 OA
ENDBRANCH   5   6
ENDBRANCH   4   5
ENDBRANCH   3   4
ENDBRANCH   2   3
ENDBRANCH   1   2
BRANCH   1   9
ATOM      9  C   UNL     1     -11.547  -8.469  10.641  1.00  0.00     0.000 C 
BRANCH   9  10
ATOM     10  C   UNL     1     -10.535  -8.257   9.502  1.00  0.00    -0.000 C 
BRANCH  10  11
ATOM     11  C   UNL     1      -9.577  -9.447   9.326  1.00  0.00    -0.000 C 
BRANCH  11  12
ATOM     12  C   UNL     1      -9.905 -10.381   8.146  1.00  0.00    -0.000 C 
BRANCH  12  13
ATOM     13  C   UNL     1      -8.662 -10.892   7.389  1.00  0.00    -0.003 C 
ATOM     14  C   UNL     1      -7.566  -9.831   7.282  1.00  0.00     0.004 C 
ENDBRANCH  12  13
ENDBRANCH  11  12
ENDBRANCH  10  11
ENDBRANCH   9  10
ENDBRANCH   1   9
TORSDOF 10
ENDMDL
MODEL 5
REMARK VINA RESULT:    -5.173      2.224      5.167
REMARK INTER + INTRA:          -9.193
REMARK INTER:                  -8.047
REMARK INTRA:                  -1.147
REMARK UNBOUND:                -0.997
REMARK SMILES CCCCCCCCCCCC(=O)[O-]
REMARK SMILES IDX 7 1 8 2 9 3 10 4 11 5 12 6 13 7 14 8 6 9 5 10 4 11 3 12 2 13
REMARK SMILES IDX 1 14
REMARK H PARENT
REMARK Flexibility Score: inf
ROOT
ATOM      1  C   UNL     1      -9.293  -9.389   8.990  1.00  0.00     0.000 C 
ENDROOT
BRANCH   1   2
ATOM      2  C   UNL     1      -8.643 -10.205   7.854  1.00  0.00     0.000 C 
BRANCH   2   3
ATOM      3  C   UNL     1      -9.422 -11.460   7.421  1.00  0.00     0.000 C 
BRANCH   3   4
ATOM      4  C   UNL     1     -10.675 -11.709   8.279  1.00  0.00     0.006 C 
BRANCH   4   5
ATOM      5  C   UNL     1     -10.518 -12.935   9.188  1.00  0.00     0.053 C 
BRANCH   5   6
ATOM      6  C   UNL     1     -11.210 -14.138   8.625  1.00  0.00     0.041 C 
ATOM      7  O   UNL     1     -10.799 -15.295   8.904  1.00  0.00    -0.550 OA
ATOM      8  O   UNL     1     -12.327 -13.982   7.815  1.00  0.00    -0.550 OA
ENDBRANCH   5   6
ENDBRANCH   4   5
ENDBRANCH   3   4
ENDBRANCH   2   3
ENDBRANCH   1   2
BRANCH   1   9
ATOM      9  C   UNL     1     -10.113  -8.168   8.534  1.00  0.00     0.000 C 
BRANCH   9  10
ATOM     10  C   UNL     1     -10.991  -7.587   9.656  1.00  0.00    -0.000 C 
BRANCH  10  11
ATOM     11  C   UNL     1     -11.578  -8.670  10.576  1.00  0.00    -0.000 C 
BRANCH  11  12
ATOM     12  C   UNL     1     -12.894  -9.302  10.084  1.00  0.00    -0.000 C 
BRANCH  12  13
ATOM     13  C   UNL     1     -13.292 -10.585  10.842  1.00  0.00    -0.003 C 
ATOM     14  C   UNL     1     -12.279 -10.964  11.923  1.00  0.00     0.004 C 
ENDBRANCH  12  13
ENDBRANCH  11  12
ENDBRANCH  10  11
ENDBRANCH   9  10
ENDBRANCH   1   9
TORSDOF 10
ENDMDL
MODEL 6
REMARK VINA RESULT:    -5.068      2.454      4.320
REMARK INTER + INTRA:          -9.028
REMARK INTER:                  -7.824
REMARK INTRA:                  -1.205
REMARK UNBOUND:                -0.997
REMARK SMILES CCCCCCCCCCCC(=O)[O-]
REMARK SMILES IDX 7 1 8 2 9 3 10 4 11 5 12 6 13 7 14 8 6 9 5 10 4 11 3 12 2 13
REMARK SMILES IDX 1 14
REMARK H PARENT
REMARK Flexibility Score: inf
ROOT
ATOM      1  C   UNL     1     -10.731  -7.809   8.661  1.00  0.00     0.000 C 
ENDROOT
BRANCH   1   2
ATOM      2  C   UNL     1     -11.590  -8.755   7.798  1.00  0.00     0.000 C 
BRANCH   2   3
ATOM      3  C   UNL     1     -11.035 -10.181   7.638  1.00  0.00     0.000 C 
BRANCH   3   4
ATOM      4  C   UNL     1      -9.687 -10.380   8.353  1.00  0.00     0.006 C 
BRANCH   4   5
ATOM      5  C   UNL     1      -8.597 -10.889   7.400  1.00  0.00     0.053 C 
BRANCH   5   6
ATOM      6  C   UNL     1      -7.530  -9.862   7.175  1.00  0.00     0.041 C 
ATOM      7  O   UNL     1      -7.804  -8.636   7.252  1.00  0.00    -0.550 OA
ATOM      8  O   UNL     1      -6.227 -10.261   6.909  1.00  0.00    -0.550 OA
ENDBRANCH   5   6
ENDBRANCH   4   5
ENDBRANCH   3   4
ENDBRANCH   2   3
ENDBRANCH   1   2
BRANCH   1   9
ATOM      9  C   UNL     1     -11.362  -7.390  10.001  1.00  0.00     0.000 C 
BRANCH   9  10
ATOM     10  C   UNL     1     -12.538  -8.291  10.415  1.00  0.00    -0.000 C 
BRANCH  10  11
ATOM     11  C   UNL     1     -12.085  -9.557  11.161  1.00  0.00    -0.000 C 
BRANCH  11  12
ATOM     12  C   UNL     1     -12.986 -10.791  10.962  1.00  0.00    -0.000 C 
BRANCH  12  13
ATOM     13  C   UNL     1     -12.207 -12.114  10.810  1.00  0.00    -0.003 C 
ATOM     14  C   UNL     1     -12.636 -12.907   9.576  1.00  0.00     0.004 C 
ENDBRANCH  12  13
ENDBRANCH  11  12
ENDBRANCH  10  11
ENDBRANCH   9  10
ENDBRANCH   1   9
TORSDOF 10
ENDMDL
MODEL 7
REMARK VINA RESULT:    -5.018      2.342      3.651
REMARK INTER + INTRA:          -8.948
REMARK INTER:                  -8.051
REMARK INTRA:                  -0.897
REMARK UNBOUND:                -0.997
REMARK SMILES CCCCCCCCCCCC(=O)[O-]
REMARK SMILES IDX 7 1 8 2 9 3 10 4 11 5 12 6 13 7 14 8 6 9 5 10 4 11 3 12 2 13
REMARK SMILES IDX 1 14
REMARK H PARENT
REMARK Flexibility Score: inf
ROOT
ATOM      1  C   UNL     1      -9.326  -9.512   9.022  1.00  0.00     0.000 C 
ENDROOT
BRANCH   1   2
ATOM      2  C   UNL     1     -10.046  -8.172   8.769  1.00  0.00     0.000 C 
BRANCH   2   3
ATOM      3  C   UNL     1     -10.842  -7.619   9.964  1.00  0.00     0.000 C 
BRANCH   3   4
ATOM      4  C   UNL     1     -11.729  -8.684  10.633  1.00  0.00     0.006 C 
BRANCH   4   5
ATOM      5  C   UNL     1     -12.886  -9.126   9.726  1.00  0.00     0.053 C 
BRANCH   5   6
ATOM      6  C   UNL     1     -13.925  -9.893  10.484  1.00  0.00     0.041 C 
ATOM      7  O   UNL     1     -15.131  -9.532  10.450  1.00  0.00    -0.550 OA
ATOM      8  O   UNL     1     -13.566 -11.025  11.204  1.00  0.00    -0.550 OA
ENDBRANCH   5   6
ENDBRANCH   4   5
ENDBRANCH   3   4
ENDBRANCH   2   3
ENDBRANCH   1   2
BRANCH   1   9
ATOM      9  C   UNL     1      -9.240 -10.451   7.805  1.00  0.00     0.000 C 
BRANCH   9  10
ATOM     10  C   UNL     1      -9.762 -11.867   8.106  1.00  0.00    -0.000 C 
BRANCH  10  11
ATOM     11  C   UNL     1     -10.242 -12.030   9.557  1.00  0.00    -0.000 C 
BRANCH  11  12
ATOM     12  C   UNL     1     -10.969 -13.354   9.861  1.00  0.00    -0.000 C 
BRANCH  12  13
ATOM     13  C   UNL     1     -10.562 -14.516   8.932  1.00  0.00    -0.003 C 
ATOM     14  C   UNL     1     -10.216 -15.789   9.705  1.00  0.00     0.004 C 
ENDBRANCH  12  13
ENDBRANCH  11  12
ENDBRANCH  10  11
ENDBRANCH   9  10
ENDBRANCH   1   9
TORSDOF 10
ENDMDL
MODEL 8
REMARK VINA RESULT:    -5.014      2.026      4.158
REMARK INTER + INTRA:          -8.942
REMARK INTER:                  -7.697
REMARK INTRA:                  -1.246
REMARK UNBOUND:                -0.997
REMARK SMILES CCCCCCCCCCCC(=O)[O-]
REMARK SMILES IDX 7 1 8 2 9 3 10 4 11 5 12 6 13 7 14 8 6 9 5 10 4 11 3 12 2 13
REMARK SMILES IDX 1 14
REMARK H PARENT
REMARK Flexibility Score: inf
ROOT
ATOM      1  C   UNL     1     -10.035 -11.814   7.599  1.00  0.00     0.000 C 
ENDROOT
BRANCH   1   2
ATOM      2  C   UNL     1      -8.702 -11.063   7.403  1.00  0.00     0.000 C 
BRANCH   2   3
ATOM      3  C   UNL     1      -8.648  -9.653   8.016  1.00  0.00     0.000 C 
BRANCH   3   4
ATOM      4  C   UNL     1      -9.565  -9.501   9.243  1.00  0.00     0.006 C 
BRANCH   4   5
ATOM      5  C   UNL     1     -10.305  -8.157   9.247  1.00  0.00     0.053 C 
BRANCH   5   6
ATOM      6  C   UNL     1     -11.738  -8.310   8.838  1.00  0.00     0.041 C 
ATOM      7  O   UNL     1     -12.029  -8.819   7.724  1.00  0.00    -0.550 OA
ATOM      8  O   UNL     1     -12.753  -7.915   9.700  1.00  0.00    -0.550 OA
ENDBRANCH   5   6
ENDBRANCH   4   5
ENDBRANCH   3   4
ENDBRANCH   2   3
ENDBRANCH   1   2
BRANCH   1   9
ATOM      9  C   UNL     1      -9.923 -13.174   8.311  1.00  0.00     0.000 C 
BRANCH   9  10
ATOM     10  C   UNL     1     -11.137 -13.481   9.205  1.00  0.00    -0.000 C 
BRANCH  10  11
ATOM     11  C   UNL     1     -11.378 -12.403  10.275  1.00  0.00    -0.000 C 
BRANCH  11  12
ATOM     12  C   UNL     1     -12.702 -11.629  10.136  1.00  0.00    -0.000 C 
BRANCH  12  13
ATOM     13  C   UNL     1     -13.156 -10.932  11.435  1.00  0.00    -0.003 C 
ATOM     14  C   UNL     1     -11.979 -10.464  12.290  1.00  0.00     0.004 C 
ENDBRANCH  12  13
ENDBRANCH  11  12
ENDBRANCH  10  11
ENDBRANCH   9  10
ENDBRANCH   1   9
TORSDOF 10
ENDMDL
MODEL 9
REMARK VINA RESULT:    -4.925      2.342      4.275
REMARK INTER + INTRA:          -8.802
REMARK INTER:                  -7.447
REMARK INTRA:                  -1.355
REMARK UNBOUND:                -0.997
REMARK SMILES CCCCCCCCCCCC(=O)[O-]
REMARK SMILES IDX 7 1 8 2 9 3 10 4 11 5 12 6 13 7 14 8 6 9 5 10 4 11 3 12 2 13
REMARK SMILES IDX 1 14
REMARK H PARENT
REMARK Flexibility Score: inf
ROOT
ATOM      1  C   UNL     1     -10.814 -12.243  10.375  1.00  0.00     0.000 C 
ENDROOT
BRANCH   1   2
ATOM      2  C   UNL     1     -12.013 -11.374  10.806  1.00  0.00     0.000 C 
BRANCH   2   3
ATOM      3  C   UNL     1     -11.651 -10.084  11.562  1.00  0.00     0.000 C 
BRANCH   3   4
ATOM      4  C   UNL     1     -11.918  -8.813  10.736  1.00  0.00     0.006 C 
BRANCH   4   5
ATOM      5  C   UNL     1     -12.701  -9.113   9.451  1.00  0.00     0.053 C 
BRANCH   5   6
ATOM      6  C   UNL     1     -12.503  -8.048   8.417  1.00  0.00     0.041 C 
ATOM      7  O   UNL     1     -12.439  -6.837   8.757  1.00  0.00    -0.550 OA
ATOM      8  O   UNL     1     -12.361  -8.395   7.080  1.00  0.00    -0.550 OA
ENDBRANCH   5   6
ENDBRANCH   4   5
ENDBRANCH   3   4
ENDBRANCH   2   3
ENDBRANCH   1   2
BRANCH   1   9
ATOM      9  C   UNL     1     -10.927 -12.869   8.974  1.00  0.00     0.000 C 
BRANCH   9  10
ATOM     10  C   UNL     1     -10.970 -11.818   7.852  1.00  0.00    -0.000 C 
BRANCH  10  11
ATOM     11  C   UNL     1      -9.655 -11.738   7.059  1.00  0.00    -0.000 C 
BRANCH  11  12
ATOM     12  C   UNL     1      -8.546 -10.894   7.716  1.00  0.00    -0.000 C 
BRANCH  12  13
ATOM     13  C   UNL     1      -9.055  -9.589   8.362  1.00  0.00    -0.003 C 
ATOM     14  C   UNL     1      -8.862  -8.373   7.456  1.00  0.00     0.004 C 
ENDBRANCH  12  13
ENDBRANCH  11  12
ENDBRANCH  10  11
ENDBRANCH   9  10
ENDBRANCH   1   9
TORSDOF 10
ENDMDL
