MODEL 1
REMARK VINA RESULT:    -5.913      0.000      0.000
REMARK INTER + INTRA:          -6.356
REMARK INTER:                  -6.259
REMARK INTRA:                  -0.097
REMARK UNBOUND:                -0.097
REMARK SMILES C=C(C)[C@@H]1CC=C(C)C(=O)C1
REMARK SMILES IDX 8 1 7 2 6 3 5 4 4 5 11 6 9 7 10 8 2 9 1 10 3 11
REMARK H PARENT
REMARK Flexibility Score: inf
ROOT
ATOM      1  C   UNL     1      -7.399  33.049  20.119  1.00  0.00     0.048 C 
ATOM      2  C   UNL     1      -7.731  33.341  21.556  1.00  0.00    -0.012 C 
ATOM      3  C   UNL     1      -7.839  34.615  21.972  1.00  0.00    -0.019 C 
ATOM      4  C   UNL     1      -8.188  34.964  23.395  1.00  0.00     0.036 C 
ATOM      5  C   UNL     1      -7.627  33.917  24.375  1.00  0.00     0.025 C 
ATOM      6  C   UNL     1      -8.109  32.507  23.986  1.00  0.00     0.089 C 
ATOM      7  C   UNL     1      -7.816  32.230  22.537  1.00  0.00     0.158 C 
ATOM      8  O   UNL     1      -7.680  31.037  22.156  1.00  0.00    -0.295 OA
ENDROOT
BRANCH   5   9
ATOM      9  C   UNL     1      -7.990  34.251  25.815  1.00  0.00    -0.077 C 
ATOM     10  C   UNL     1      -7.793  33.345  26.787  1.00  0.00     0.008 C 
ATOM     11  C   UNL     1      -8.578  35.590  26.188  1.00  0.00     0.039 C 
ENDBRANCH   5   9
TORSDOF 1
ENDMDL
MODEL 2
REMARK VINA RESULT:    -5.895      1.973      3.393
REMARK INTER + INTRA:          -6.337
REMARK INTER:                  -6.245
REMARK INTRA:                  -0.092
REMARK UNBOUND:                -0.097
REMARK SMILES C=C(C)[C@@H]1CC=C(C)C(=O)C1
REMARK SMILES IDX 8 1 7 2 6 3 5 4 4 5 11 6 9 7 10 8 2 9 1 10 3 11
REMARK H PARENT
REMARK Flexibility Score: inf
ROOT
ATOM      1  C   UNL     1      -8.882  28.459  22.359  1.00  0.00     0.048 C 
ATOM      2  C   UNL     1      -8.451  29.895  22.476  1.00  0.00    -0.012 C 
ATOM      3  C   UNL     1      -7.627  30.267  23.471  1.00  0.00    -0.019 C 
ATOM      4  C   UNL     1      -7.149  31.686  23.624  1.00  0.00     0.036 C 
ATOM      5  C   UNL     1      -8.220  32.685  23.146  1.00  0.00     0.025 C 
ATOM      6  C   UNL     1      -8.643  32.365  21.700  1.00  0.00     0.089 C 
ATOM      7  C   UNL     1      -9.033  30.918  21.572  1.00  0.00     0.158 C 
ATOM      8  O   UNL     1      -9.834  30.577  20.661  1.00  0.00    -0.295 OA
ENDROOT
BRANCH   5   9
ATOM      9  C   UNL     1      -7.740  34.124  23.279  1.00  0.00    -0.077 C 
ATOM     10  C   UNL     1      -7.472  34.635  24.491  1.00  0.00     0.008 C 
ATOM     11  C   UNL     1      -7.555  35.007  22.069  1.00  0.00     0.039 C 
ENDBRANCH   5   9
TORSDOF 1
ENDMDL
MODEL 3
REMARK VINA RESULT:    -5.797      1.994      3.451
REMARK INTER + INTRA:          -6.233
REMARK INTER:                  -6.142
REMARK INTRA:                  -0.091
REMARK UNBOUND:                -0.097
REMARK SMILES C=C(C)[C@@H]1CC=C(C)C(=O)C1
REMARK SMILES IDX 8 1 7 2 6 3 5 4 4 5 11 6 9 7 10 8 2 9 1 10 3 11
REMARK H PARENT
REMARK Flexibility Score: inf
ROOT
ATOM      1  C   UNL     1      -8.603  28.369  22.476  1.00  0.00     0.048 C 
ATOM      2  C   UNL     1      -8.575  29.861  22.655  1.00  0.00    -0.012 C 
ATOM      3  C   UNL     1      -8.996  30.662  21.660  1.00  0.00    -0.019 C 
ATOM      4  C   UNL     1      -9.006  32.162  21.792  1.00  0.00     0.036 C 
ATOM      5  C   UNL     1      -7.849  32.647  22.686  1.00  0.00     0.025 C 
ATOM      6  C   UNL     1      -7.896  31.941  24.053  1.00  0.00     0.089 C 
ATOM      7  C   UNL     1      -7.969  30.449  23.875  1.00  0.00     0.158 C 
ATOM      8  O   UNL     1      -7.541  29.700  24.794  1.00  0.00    -0.295 OA
ENDROOT
BRANCH   5   9
ATOM      9  C   UNL     1      -7.862  34.161  22.842  1.00  0.00    -0.077 C 
ATOM     10  C   UNL     1      -7.572  34.949  21.793  1.00  0.00     0.008 C 
ATOM     11  C   UNL     1      -8.196  34.814  24.160  1.00  0.00     0.039 C 
ENDBRANCH   5   9
TORSDOF 1
ENDMDL
MODEL 4
REMARK VINA RESULT:    -5.787      2.597      4.864
REMARK INTER + INTRA:          -6.223
REMARK INTER:                  -6.126
REMARK INTRA:                  -0.096
REMARK UNBOUND:                -0.097
REMARK SMILES C=C(C)[C@@H]1CC=C(C)C(=O)C1
REMARK SMILES IDX 8 1 7 2 6 3 5 4 4 5 11 6 9 7 10 8 2 9 1 10 3 11
REMARK H PARENT
REMARK Flexibility Score: inf
ROOT
ATOM      1  C   UNL     1      -7.303  30.134  26.581  1.00  0.00     0.048 C 
ATOM      2  C   UNL     1      -7.689  30.560  25.192  1.00  0.00    -0.012 C 
ATOM      3  C   UNL     1      -7.010  30.085  24.133  1.00  0.00    -0.019 C 
ATOM      4  C   UNL     1      -7.366  30.464  22.720  1.00  0.00     0.036 C 
ATOM      5  C   UNL     1      -7.915  31.902  22.654  1.00  0.00     0.025 C 
ATOM      6  C   UNL     1      -9.104  32.065  23.619  1.00  0.00     0.089 C 
ATOM      7  C   UNL     1      -8.733  31.598  25.000  1.00  0.00     0.158 C 
ATOM      8  O   UNL     1      -9.346  32.071  25.993  1.00  0.00    -0.295 OA
ENDROOT
BRANCH   5   9
ATOM      9  C   UNL     1      -8.296  32.288  21.232  1.00  0.00    -0.077 C 
ATOM     10  C   UNL     1      -9.403  31.777  20.669  1.00  0.00     0.008 C 
ATOM     11  C   UNL     1      -7.452  33.242  20.423  1.00  0.00     0.039 C 
ENDBRANCH   5   9
TORSDOF 1
ENDMDL
MODEL 5
REMARK VINA RESULT:    -5.781      1.524      4.280
REMARK INTER + INTRA:          -6.216
REMARK INTER:                  -6.125
REMARK INTRA:                  -0.091
REMARK UNBOUND:                -0.097
REMARK SMILES C=C(C)[C@@H]1CC=C(C)C(=O)C1
REMARK SMILES IDX 8 1 7 2 6 3 5 4 4 5 11 6 9 7 10 8 2 9 1 10 3 11
REMARK H PARENT
REMARK Flexibility Score: inf
ROOT
ATOM      1  C   UNL     1      -8.016  34.663  26.519  1.00  0.00     0.048 C 
ATOM      2  C   UNL     1      -7.932  34.147  25.109  1.00  0.00    -0.012 C 
ATOM      3  C   UNL     1      -7.997  35.007  24.078  1.00  0.00    -0.019 C 
ATOM      4  C   UNL     1      -7.899  34.546  22.647  1.00  0.00     0.036 C 
ATOM      5  C   UNL     1      -8.513  33.144  22.474  1.00  0.00     0.025 C 
ATOM      6  C   UNL     1      -7.860  32.150  23.452  1.00  0.00     0.089 C 
ATOM      7  C   UNL     1      -7.905  32.685  24.857  1.00  0.00     0.158 C 
ATOM      8  O   UNL     1      -7.880  31.875  25.822  1.00  0.00    -0.295 OA
ENDROOT
BRANCH   5   9
ATOM      9  C   UNL     1      -8.402  32.662  21.034  1.00  0.00    -0.077 C 
ATOM     10  C   UNL     1      -9.295  31.784  20.548  1.00  0.00     0.008 C 
ATOM     11  C   UNL     1      -7.300  33.146  20.125  1.00  0.00     0.039 C 
ENDBRANCH   5   9
TORSDOF 1
ENDMDL
MODEL 6
REMARK VINA RESULT:    -5.777      2.006      4.144
REMARK INTER + INTRA:          -6.212
REMARK INTER:                  -6.113
REMARK INTRA:                  -0.098
REMARK UNBOUND:                -0.097
REMARK SMILES C=C(C)[C@@H]1CC=C(C)C(=O)C1
REMARK SMILES IDX 8 1 7 2 6 3 5 4 4 5 11 6 9 7 10 8 2 9 1 10 3 11
REMARK H PARENT
REMARK Flexibility Score: inf
ROOT
ATOM      1  C   UNL     1      -9.051  29.115  24.926  1.00  0.00     0.048 C 
ATOM      2  C   UNL     1      -8.540  30.215  24.036  1.00  0.00    -0.012 C 
ATOM      3  C   UNL     1      -8.198  31.400  24.568  1.00  0.00    -0.019 C 
ATOM      4  C   UNL     1      -7.664  32.529  23.727  1.00  0.00     0.036 C 
ATOM      5  C   UNL     1      -8.283  32.509  22.316  1.00  0.00     0.025 C 
ATOM      6  C   UNL     1      -8.065  31.136  21.656  1.00  0.00     0.089 C 
ATOM      7  C   UNL     1      -8.535  30.032  22.563  1.00  0.00     0.158 C 
ATOM      8  O   UNL     1      -8.890  28.933  22.059  1.00  0.00    -0.295 OA
ENDROOT
BRANCH   5   9
ATOM      9  C   UNL     1      -7.735  33.636  21.451  1.00  0.00    -0.077 C 
ATOM     10  C   UNL     1      -7.397  33.400  20.173  1.00  0.00     0.008 C 
ATOM     11  C   UNL     1      -7.556  35.031  21.997  1.00  0.00     0.039 C 
ENDBRANCH   5   9
TORSDOF 1
ENDMDL
MODEL 7
REMARK VINA RESULT:    -5.701      2.214      4.209
REMARK INTER + INTRA:          -6.132
REMARK INTER:                  -6.034
REMARK INTRA:                  -0.097
REMARK UNBOUND:                -0.097
REMARK SMILES C=C(C)[C@@H]1CC=C(C)C(=O)C1
REMARK SMILES IDX 8 1 7 2 6 3 5 4 4 5 11 6 9 7 10 8 2 9 1 10 3 11
REMARK H PARENT
REMARK Flexibility Score: inf
ROOT
ATOM      1  C   UNL     1      -8.880  35.948  25.134  1.00  0.00     0.048 C 
ATOM      2  C   UNL     1      -8.430  34.594  24.661  1.00  0.00    -0.012 C 
ATOM      3  C   UNL     1      -8.258  34.368  23.347  1.00  0.00    -0.019 C 
ATOM      4  C   UNL     1      -7.792  33.036  22.820  1.00  0.00     0.036 C 
ATOM      5  C   UNL     1      -8.302  31.882  23.703  1.00  0.00     0.025 C 
ATOM      6  C   UNL     1      -7.889  32.106  25.169  1.00  0.00     0.089 C 
ATOM      7  C   UNL     1      -8.299  33.477  25.630  1.00  0.00     0.158 C 
ATOM      8  O   UNL     1      -8.495  33.678  26.859  1.00  0.00    -0.295 OA
ENDROOT
BRANCH   5   9
ATOM      9  C   UNL     1      -7.821  30.532  23.189  1.00  0.00    -0.077 C 
ATOM     10  C   UNL     1      -6.662  30.017  23.632  1.00  0.00     0.008 C 
ATOM     11  C   UNL     1      -8.618  29.745  22.179  1.00  0.00     0.039 C 
ENDBRANCH   5   9
TORSDOF 1
ENDMDL
MODEL 8
REMARK VINA RESULT:    -5.660      2.474      4.148
REMARK INTER + INTRA:          -6.088
REMARK INTER:                  -5.989
REMARK INTRA:                  -0.098
REMARK UNBOUND:                -0.097
REMARK SMILES C=C(C)[C@@H]1CC=C(C)C(=O)C1
REMARK SMILES IDX 8 1 7 2 6 3 5 4 4 5 11 6 9 7 10 8 2 9 1 10 3 11
REMARK H PARENT
REMARK Flexibility Score: inf
ROOT
ATOM      1  C   UNL     1      -7.846  34.772  22.005  1.00  0.00     0.048 C 
ATOM      2  C   UNL     1      -7.954  33.308  22.328  1.00  0.00    -0.012 C 
ATOM      3  C   UNL     1      -8.368  32.444  21.385  1.00  0.00    -0.019 C 
ATOM      4  C   UNL     1      -8.477  30.965  21.649  1.00  0.00     0.036 C 
ATOM      5  C   UNL     1      -8.862  30.691  23.115  1.00  0.00     0.025 C 
ATOM      6  C   UNL     1      -7.868  31.382  24.067  1.00  0.00     0.089 C 
ATOM      7  C   UNL     1      -7.726  32.838  23.717  1.00  0.00     0.158 C 
ATOM      8  O   UNL     1      -7.373  33.652  24.612  1.00  0.00    -0.295 OA
ENDROOT
BRANCH   5   9
ATOM      9  C   UNL     1      -8.956  29.198  23.397  1.00  0.00    -0.077 C 
ATOM     10  C   UNL     1      -8.654  28.311  22.435  1.00  0.00     0.008 C 
ATOM     11  C   UNL     1      -9.386  28.678  24.746  1.00  0.00     0.039 C 
ENDBRANCH   5   9
TORSDOF 1
ENDMDL
MODEL 9
REMARK VINA RESULT:    -5.618      2.204      3.944
REMARK INTER + INTRA:          -6.044
REMARK INTER:                  -5.947
REMARK INTRA:                  -0.097
REMARK UNBOUND:                -0.097
REMARK SMILES C=C(C)[C@@H]1CC=C(C)C(=O)C1
REMARK SMILES IDX 8 1 7 2 6 3 5 4 4 5 11 6 9 7 10 8 2 9 1 10 3 11
REMARK H PARENT
REMARK Flexibility Score: inf
ROOT
ATOM      1  C   UNL     1      -7.533  34.995  22.031  1.00  0.00     0.048 C 
ATOM      2  C   UNL     1      -7.977  33.593  22.341  1.00  0.00    -0.012 C 
ATOM      3  C   UNL     1      -8.351  33.271  23.592  1.00  0.00    -0.019 C 
ATOM      4  C   UNL     1      -8.821  31.887  23.954  1.00  0.00     0.036 C 
ATOM      5  C   UNL     1      -8.106  30.819  23.104  1.00  0.00     0.025 C 
ATOM      6  C   UNL     1      -8.284  31.122  21.605  1.00  0.00     0.089 C 
ATOM      7  C   UNL     1      -7.882  32.539  21.300  1.00  0.00     0.158 C 
ATOM      8  O   UNL     1      -7.497  32.831  20.137  1.00  0.00    -0.295 OA
ENDROOT
BRANCH   5   9
ATOM      9  C   UNL     1      -8.589  29.417  23.449  1.00  0.00    -0.077 C 
ATOM     10  C   UNL     1      -9.020  29.140  24.690  1.00  0.00     0.008 C 
ATOM     11  C   UNL     1      -8.594  28.312  22.422  1.00  0.00     0.039 C 
ENDBRANCH   5   9
TORSDOF 1
ENDMDL
