MODEL 1
REMARK VINA RESULT:     1.530      0.000      0.000
REMARK INTER + INTRA:           1.473
REMARK INTER:                   1.620
REMARK INTRA:                  -0.147
REMARK UNBOUND:                -0.147
REMARK SMILES C=C1CC=C(C(C)C)CC1
REMARK SMILES IDX 5 1 4 2 3 3 2 4 1 5 10 6 9 7 6 8 7 9 8 10
REMARK H PARENT
REMARK Flexibility Score: inf
ROOT
ATOM      1  C   UNL     1      -0.991   5.723 -10.992  1.00  0.00    -0.071 C 
ATOM      2  C   UNL     1      -1.771   6.217 -10.007  1.00  0.00    -0.023 C 
ATOM      3  C   UNL     1      -1.350   6.139  -8.562  1.00  0.00     0.057 C 
ATOM      4  C   UNL     1       0.148   6.308  -8.425  1.00  0.00    -0.073 C 
ATOM      5  C   UNL     1       0.669   6.791  -7.289  1.00  0.00     0.008 C 
ATOM      6  C   UNL     1       1.067   5.901  -9.560  1.00  0.00     0.035 C 
ATOM      7  C   UNL     1       0.323   5.070 -10.615  1.00  0.00     0.035 C 
ENDROOT
BRANCH   1   8
ATOM      8  C   UNL     1      -1.393   5.835 -12.455  1.00  0.00     0.008 C 
ATOM      9  C   UNL     1      -0.213   5.518 -13.382  1.00  0.00     0.012 C 
ATOM     10  C   UNL     1      -2.597   4.940 -12.769  1.00  0.00     0.012 C 
ENDBRANCH   1   8
TORSDOF 1
ENDMDL
MODEL 2
REMARK VINA RESULT:     2.473      0.639      2.051
REMARK INTER + INTRA:           2.470
REMARK INTER:                   2.615
REMARK INTRA:                  -0.145
REMARK UNBOUND:                -0.147
REMARK SMILES C=C1CC=C(C(C)C)CC1
REMARK SMILES IDX 5 1 4 2 3 3 2 4 1 5 10 6 9 7 6 8 7 9 8 10
REMARK H PARENT
REMARK Flexibility Score: inf
ROOT
ATOM      1  C   UNL     1      -0.851   5.528 -11.445  1.00  0.00    -0.071 C 
ATOM      2  C   UNL     1       0.453   5.350 -11.142  1.00  0.00    -0.023 C 
ATOM      3  C   UNL     1       1.073   6.012  -9.938  1.00  0.00     0.057 C 
ATOM      4  C   UNL     1       0.088   6.086  -8.792  1.00  0.00    -0.073 C 
ATOM      5  C   UNL     1       0.529   6.129  -7.527  1.00  0.00     0.008 C 
ATOM      6  C   UNL     1      -1.401   6.145  -9.071  1.00  0.00     0.035 C 
ATOM      7  C   UNL     1      -1.685   6.426 -10.554  1.00  0.00     0.035 C 
ENDROOT
BRANCH   1   8
ATOM      8  C   UNL     1      -1.492   4.831 -12.635  1.00  0.00     0.008 C 
ATOM      9  C   UNL     1      -2.984   5.170 -12.741  1.00  0.00     0.012 C 
ATOM     10  C   UNL     1      -0.756   5.166 -13.937  1.00  0.00     0.012 C 
ENDBRANCH   1   8
TORSDOF 1
ENDMDL
MODEL 3
REMARK VINA RESULT:     2.979      0.960      4.590
REMARK INTER + INTRA:           3.006
REMARK INTER:                   3.151
REMARK INTRA:                  -0.145
REMARK UNBOUND:                -0.147
REMARK SMILES C=C1CC=C(C(C)C)CC1
REMARK SMILES IDX 5 1 4 2 3 3 2 4 1 5 10 6 9 7 6 8 7 9 8 10
REMARK H PARENT
REMARK Flexibility Score: inf
ROOT
ATOM      1  C   UNL     1      -0.212   6.427  -8.908  1.00  0.00    -0.071 C 
ATOM      2  C   UNL     1       0.827   5.949  -9.626  1.00  0.00    -0.023 C 
ATOM      3  C   UNL     1       0.607   5.074 -10.833  1.00  0.00     0.057 C 
ATOM      4  C   UNL     1      -0.635   5.495 -11.589  1.00  0.00    -0.073 C 
ATOM      5  C   UNL     1      -0.740   5.249 -12.902  1.00  0.00     0.008 C 
ATOM      6  C   UNL     1      -1.779   6.168 -10.856  1.00  0.00     0.035 C 
ATOM      7  C   UNL     1      -1.617   6.053  -9.333  1.00  0.00     0.035 C 
ENDROOT
BRANCH   1   8
ATOM      8  C   UNL     1       0.002   7.342  -7.713  1.00  0.00     0.008 C 
ATOM      9  C   UNL     1      -1.333   7.832  -7.140  1.00  0.00     0.012 C 
ATOM     10  C   UNL     1       0.848   6.656  -6.634  1.00  0.00     0.012 C 
ENDBRANCH   1   8
TORSDOF 1
ENDMDL
MODEL 4
REMARK VINA RESULT:     3.025      1.463      2.685
REMARK INTER + INTRA:           3.055
REMARK INTER:                   3.190
REMARK INTRA:                  -0.135
REMARK UNBOUND:                -0.147
REMARK SMILES C=C1CC=C(C(C)C)CC1
REMARK SMILES IDX 5 1 4 2 3 3 2 4 1 5 10 6 9 7 6 8 7 9 8 10
REMARK H PARENT
REMARK Flexibility Score: inf
ROOT
ATOM      1  C   UNL     1       0.037   5.914  -9.140  1.00  0.00    -0.071 C 
ATOM      2  C   UNL     1      -1.263   6.269  -9.224  1.00  0.00    -0.023 C 
ATOM      3  C   UNL     1      -1.983   6.887  -8.052  1.00  0.00     0.057 C 
ATOM      4  C   UNL     1      -1.056   7.787  -7.261  1.00  0.00    -0.073 C 
ATOM      5  C   UNL     1      -1.556   8.806  -6.548  1.00  0.00     0.008 C 
ATOM      6  C   UNL     1       0.435   7.518  -7.246  1.00  0.00     0.035 C 
ATOM      7  C   UNL     1       0.764   6.136  -7.830  1.00  0.00     0.035 C 
ENDROOT
BRANCH   1   8
ATOM      8  C   UNL     1       0.778   5.327 -10.331  1.00  0.00     0.008 C 
ATOM      9  C   UNL     1       1.326   3.931 -10.012  1.00  0.00     0.012 C 
ATOM     10  C   UNL     1      -0.112   5.299 -11.579  1.00  0.00     0.012 C 
ENDBRANCH   1   8
TORSDOF 1
ENDMDL
MODEL 5
REMARK VINA RESULT:     3.213      1.036      4.190
REMARK INTER + INTRA:           3.253
REMARK INTER:                   3.427
REMARK INTRA:                  -0.174
REMARK UNBOUND:                -0.147
REMARK SMILES C=C1CC=C(C(C)C)CC1
REMARK SMILES IDX 5 1 4 2 3 3 2 4 1 5 10 6 9 7 6 8 7 9 8 10
REMARK H PARENT
REMARK Flexibility Score: inf
ROOT
ATOM      1  C   UNL     1      -0.045   5.813 -10.627  1.00  0.00    -0.071 C 
ATOM      2  C   UNL     1      -1.337   5.764 -10.238  1.00  0.00    -0.023 C 
ATOM      3  C   UNL     1      -2.459   5.957 -11.226  1.00  0.00     0.057 C 
ATOM      4  C   UNL     1      -2.106   5.358 -12.571  1.00  0.00    -0.073 C 
ATOM      5  C   UNL     1      -3.075   4.943 -13.397  1.00  0.00     0.008 C 
ATOM      6  C   UNL     1      -0.656   5.258 -13.001  1.00  0.00     0.035 C 
ATOM      7  C   UNL     1       0.261   6.082 -12.086  1.00  0.00     0.035 C 
ENDROOT
BRANCH   1   8
ATOM      8  C   UNL     1       1.090   5.580  -9.642  1.00  0.00     0.008 C 
ATOM      9  C   UNL     1       0.686   5.989  -8.220  1.00  0.00     0.012 C 
ATOM     10  C   UNL     1       1.571   4.125  -9.684  1.00  0.00     0.012 C 
ENDBRANCH   1   8
TORSDOF 1
ENDMDL
MODEL 6
REMARK VINA RESULT:     4.479     11.702     13.862
REMARK INTER + INTRA:           4.594
REMARK INTER:                   4.731
REMARK INTRA:                  -0.137
REMARK UNBOUND:                -0.147
REMARK SMILES C=C1CC=C(C(C)C)CC1
REMARK SMILES IDX 5 1 4 2 3 3 2 4 1 5 10 6 9 7 6 8 7 9 8 10
REMARK H PARENT
REMARK Flexibility Score: inf
ROOT
ATOM      1  C   UNL     1      11.990   7.872  -8.149  1.00  0.00    -0.071 C 
ATOM      2  C   UNL     1      13.133   7.226  -8.463  1.00  0.00    -0.023 C 
ATOM      3  C   UNL     1      13.686   7.254  -9.865  1.00  0.00     0.057 C 
ATOM      4  C   UNL     1      13.432   8.595 -10.521  1.00  0.00    -0.073 C 
ATOM      5  C   UNL     1      14.244   9.033 -11.493  1.00  0.00     0.008 C 
ATOM      6  C   UNL     1      12.238   9.431 -10.105  1.00  0.00     0.035 C 
ATOM      7  C   UNL     1      11.258   8.622  -9.242  1.00  0.00     0.035 C 
ENDROOT
BRANCH   1   8
ATOM      8  C   UNL     1      11.448   7.880  -6.728  1.00  0.00     0.008 C 
ATOM      9  C   UNL     1       9.921   7.742  -6.713  1.00  0.00     0.012 C 
ATOM     10  C   UNL     1      12.109   6.791  -5.875  1.00  0.00     0.012 C 
ENDBRANCH   1   8
TORSDOF 1
ENDMDL
