MODEL 1
REMARK VINA RESULT:    -4.318      0.000      0.000
REMARK INTER + INTRA:          -9.475
REMARK INTER:                  -7.851
REMARK INTRA:                  -1.624
REMARK UNBOUND:                -1.624
REMARK SMILES CCCCCCCCCCCCCC[C@@H](C)C(=O)[O-]
REMARK SMILES IDX 9 1 10 2 11 3 12 4 13 5 14 6 15 7 16 8 17 9 18 10 19 11 8 12
REMARK SMILES IDX 7 13 6 14 5 15 4 16 3 17 2 18 1 19
REMARK H PARENT
REMARK Flexibility Score: inf
ROOT
ATOM      1  C   UNL     1      28.782 -21.433  22.172  1.00  0.00     0.000 C 
ENDROOT
BRANCH   1   2
ATOM      2  C   UNL     1      29.945 -20.427  22.156  1.00  0.00     0.000 C 
BRANCH   2   3
ATOM      3  C   UNL     1      29.460 -18.967  22.114  1.00  0.00     0.000 C 
BRANCH   3   4
ATOM      4  C   UNL     1      30.540 -17.972  22.571  1.00  0.00     0.000 C 
BRANCH   4   5
ATOM      5  C   UNL     1      30.021 -16.526  22.644  1.00  0.00     0.001 C 
BRANCH   5   6
ATOM      6  C   UNL     1      28.691 -16.332  21.885  1.00  0.00     0.009 C 
BRANCH   6   7
ATOM      7  C   UNL     1      28.182 -14.873  21.889  1.00  0.00     0.032 C 
ATOM      8  C   UNL     1      27.861 -14.418  23.317  1.00  0.00     0.014 C 
BRANCH   7   9
ATOM      9  C   UNL     1      29.185 -13.933  21.278  1.00  0.00     0.044 C 
ATOM     10  O   UNL     1      29.730 -13.044  21.985  1.00  0.00    -0.550 OA
ATOM     11  O   UNL     1      29.513 -14.035  19.931  1.00  0.00    -0.550 OA
ENDBRANCH   7   9
ENDBRANCH   6   7
ENDBRANCH   5   6
ENDBRANCH   4   5
ENDBRANCH   3   4
ENDBRANCH   2   3
ENDBRANCH   1   2
BRANCH   1  12
ATOM     12  C   UNL     1      29.075 -22.665  23.046  1.00  0.00     0.000 C 
BRANCH  12  13
ATOM     13  C   UNL     1      29.355 -22.299  24.513  1.00  0.00    -0.000 C 
BRANCH  13  14
ATOM     14  C   UNL     1      28.443 -23.056  25.494  1.00  0.00    -0.000 C 
BRANCH  14  15
ATOM     15  C   UNL     1      27.519 -22.116  26.284  1.00  0.00    -0.000 C 
BRANCH  15  16
ATOM     16  C   UNL     1      27.130 -20.858  25.487  1.00  0.00    -0.000 C 
BRANCH  16  17
ATOM     17  C   UNL     1      27.415 -19.554  26.253  1.00  0.00    -0.000 C 
BRANCH  17  18
ATOM     18  C   UNL     1      28.900 -19.156  26.315  1.00  0.00    -0.003 C 
ATOM     19  C   UNL     1      29.143 -17.695  25.941  1.00  0.00     0.004 C 
ENDBRANCH  17  18
ENDBRANCH  16  17
ENDBRANCH  15  16
ENDBRANCH  14  15
ENDBRANCH  13  14
ENDBRANCH  12  13
ENDBRANCH   1  12
TORSDOF 14
ENDMDL
MODEL 2
REMARK VINA RESULT:    -4.242      7.018     11.975
REMARK INTER + INTRA:          -9.338
REMARK INTER:                  -6.611
REMARK INTRA:                  -2.727
REMARK UNBOUND:                -1.624
REMARK SMILES CCCCCCCCCCCCCC[C@@H](C)C(=O)[O-]
REMARK SMILES IDX 9 1 10 2 11 3 12 4 13 5 14 6 15 7 16 8 17 9 18 10 19 11 8 12
REMARK SMILES IDX 7 13 6 14 5 15 4 16 3 17 2 18 1 19
REMARK H PARENT
REMARK Flexibility Score: inf
ROOT
ATOM      1  C   UNL     1      32.169  -6.199  18.376  1.00  0.00     0.000 C 
ENDROOT
BRANCH   1   2
ATOM      2  C   UNL     1      32.371  -6.395  19.888  1.00  0.00     0.000 C 
BRANCH   2   3
ATOM      3  C   UNL     1      31.338  -7.358  20.500  1.00  0.00     0.000 C 
BRANCH   3   4
ATOM      4  C   UNL     1      31.993  -8.575  21.174  1.00  0.00     0.000 C 
BRANCH   4   5
ATOM      5  C   UNL     1      31.011  -9.744  21.369  1.00  0.00     0.001 C 
BRANCH   5   6
ATOM      6  C   UNL     1      31.658 -11.117  21.086  1.00  0.00     0.009 C 
BRANCH   6   7
ATOM      7  C   UNL     1      30.671 -12.159  20.513  1.00  0.00     0.032 C 
ATOM      8  C   UNL     1      31.404 -13.149  19.600  1.00  0.00     0.014 C 
BRANCH   7   9
ATOM      9  C   UNL     1      29.963 -12.914  21.604  1.00  0.00     0.044 C 
ATOM     10  O   UNL     1      28.878 -13.507  21.360  1.00  0.00    -0.550 OA
ATOM     11  O   UNL     1      30.494 -12.957  22.887  1.00  0.00    -0.550 OA
ENDBRANCH   7   9
ENDBRANCH   6   7
ENDBRANCH   5   6
ENDBRANCH   4   5
ENDBRANCH   3   4
ENDBRANCH   2   3
ENDBRANCH   1   2
BRANCH   1  12
ATOM     12  C   UNL     1      31.432  -7.379  17.718  1.00  0.00     0.000 C 
BRANCH  12  13
ATOM     13  C   UNL     1      32.050  -7.788  16.372  1.00  0.00    -0.000 C 
BRANCH  13  14
ATOM     14  C   UNL     1      32.299  -9.304  16.273  1.00  0.00    -0.000 C 
BRANCH  14  15
ATOM     15  C   UNL     1      32.375  -9.980  17.651  1.00  0.00    -0.000 C 
BRANCH  15  16
ATOM     16  C   UNL     1      33.685 -10.761  17.858  1.00  0.00    -0.000 C 
BRANCH  16  17
ATOM     17  C   UNL     1      34.556 -10.180  18.985  1.00  0.00    -0.000 C 
BRANCH  17  18
ATOM     18  C   UNL     1      34.939  -8.701  18.805  1.00  0.00    -0.003 C 
ATOM     19  C   UNL     1      35.784  -8.450  17.557  1.00  0.00     0.004 C 
ENDBRANCH  17  18
ENDBRANCH  16  17
ENDBRANCH  15  16
ENDBRANCH  14  15
ENDBRANCH  13  14
ENDBRANCH  12  13
ENDBRANCH   1  12
TORSDOF 14
ENDMDL
MODEL 3
REMARK VINA RESULT:    -4.207      5.265     10.791
REMARK INTER + INTRA:          -9.274
REMARK INTER:                  -7.797
REMARK INTRA:                  -1.478
REMARK UNBOUND:                -1.624
REMARK SMILES CCCCCCCCCCCCCC[C@@H](C)C(=O)[O-]
REMARK SMILES IDX 9 1 10 2 11 3 12 4 13 5 14 6 15 7 16 8 17 9 18 10 19 11 8 12
REMARK SMILES IDX 7 13 6 14 5 15 4 16 3 17 2 18 1 19
REMARK H PARENT
REMARK Flexibility Score: inf
ROOT
ATOM      1  C   UNL     1      33.256 -10.881  17.731  1.00  0.00     0.000 C 
ENDROOT
BRANCH   1   2
ATOM      2  C   UNL     1      32.427 -11.766  18.677  1.00  0.00     0.000 C 
BRANCH   2   3
ATOM      3  C   UNL     1      31.821 -10.972  19.847  1.00  0.00     0.000 C 
BRANCH   3   4
ATOM      4  C   UNL     1      30.949 -11.845  20.765  1.00  0.00     0.000 C 
BRANCH   4   5
ATOM      5  C   UNL     1      30.390 -13.085  20.048  1.00  0.00     0.001 C 
BRANCH   5   6
ATOM      6  C   UNL     1      28.940 -13.412  20.468  1.00  0.00     0.009 C 
BRANCH   6   7
ATOM      7  C   UNL     1      28.839 -14.142  21.826  1.00  0.00     0.032 C 
ATOM      8  C   UNL     1      27.514 -13.805  22.521  1.00  0.00     0.014 C 
BRANCH   7   9
ATOM      9  C   UNL     1      28.955 -15.633  21.665  1.00  0.00     0.044 C 
ATOM     10  O   UNL     1      28.121 -16.259  20.956  1.00  0.00    -0.550 OA
ATOM     11  O   UNL     1      29.975 -16.331  22.300  1.00  0.00    -0.550 OA
ENDBRANCH   7   9
ENDBRANCH   6   7
ENDBRANCH   5   6
ENDBRANCH   4   5
ENDBRANCH   3   4
ENDBRANCH   2   3
ENDBRANCH   1   2
BRANCH   1  12
ATOM     12  C   UNL     1      32.395  -9.855  16.973  1.00  0.00     0.000 C 
BRANCH  12  13
ATOM     13  C   UNL     1      32.924  -8.419  17.112  1.00  0.00    -0.000 C 
BRANCH  13  14
ATOM     14  C   UNL     1      31.799  -7.394  17.340  1.00  0.00    -0.000 C 
BRANCH  14  15
ATOM     15  C   UNL     1      31.295  -7.386  18.792  1.00  0.00    -0.000 C 
BRANCH  15  16
ATOM     16  C   UNL     1      32.359  -6.887  19.787  1.00  0.00    -0.000 C 
BRANCH  16  17
ATOM     17  C   UNL     1      32.087  -7.343  21.230  1.00  0.00    -0.000 C 
BRANCH  17  18
ATOM     18  C   UNL     1      30.600  -7.389  21.622  1.00  0.00    -0.003 C 
ATOM     19  C   UNL     1      30.230  -8.638  22.421  1.00  0.00     0.004 C 
ENDBRANCH  17  18
ENDBRANCH  16  17
ENDBRANCH  15  16
ENDBRANCH  14  15
ENDBRANCH  13  14
ENDBRANCH  12  13
ENDBRANCH   1  12
TORSDOF 14
ENDMDL
MODEL 4
REMARK VINA RESULT:    -4.179      1.327      2.729
REMARK INTER + INTRA:          -9.224
REMARK INTER:                  -7.507
REMARK INTRA:                  -1.717
REMARK UNBOUND:                -1.624
REMARK SMILES CCCCCCCCCCCCCC[C@@H](C)C(=O)[O-]
REMARK SMILES IDX 9 1 10 2 11 3 12 4 13 5 14 6 15 7 16 8 17 9 18 10 19 11 8 12
REMARK SMILES IDX 7 13 6 14 5 15 4 16 3 17 2 18 1 19
REMARK H PARENT
REMARK Flexibility Score: inf
ROOT
ATOM      1  C   UNL     1      30.287 -19.682  23.293  1.00  0.00     0.000 C 
ENDROOT
BRANCH   1   2
ATOM      2  C   UNL     1      31.351 -18.717  22.746  1.00  0.00     0.000 C 
BRANCH   2   3
ATOM      3  C   UNL     1      31.682 -17.584  23.733  1.00  0.00     0.000 C 
BRANCH   3   4
ATOM      4  C   UNL     1      30.551 -17.332  24.744  1.00  0.00     0.000 C 
BRANCH   4   5
ATOM      5  C   UNL     1      29.981 -15.906  24.654  1.00  0.00     0.001 C 
BRANCH   5   6
ATOM      6  C   UNL     1      29.886 -15.395  23.201  1.00  0.00     0.009 C 
BRANCH   6   7
ATOM      7  C   UNL     1      28.444 -15.374  22.646  1.00  0.00     0.032 C 
ATOM      8  C   UNL     1      27.746 -14.057  23.007  1.00  0.00     0.014 C 
BRANCH   7   9
ATOM      9  C   UNL     1      28.419 -15.561  21.154  1.00  0.00     0.044 C 
ATOM     10  O   UNL     1      28.964 -14.709  20.401  1.00  0.00    -0.550 OA
ATOM     11  O   UNL     1      27.794 -16.669  20.594  1.00  0.00    -0.550 OA
ENDBRANCH   7   9
ENDBRANCH   6   7
ENDBRANCH   5   6
ENDBRANCH   4   5
ENDBRANCH   3   4
ENDBRANCH   2   3
ENDBRANCH   1   2
BRANCH   1  12
ATOM     12  C   UNL     1      29.058 -19.795  22.373  1.00  0.00     0.000 C 
BRANCH  12  13
ATOM     13  C   UNL     1      28.683 -21.252  22.060  1.00  0.00    -0.000 C 
BRANCH  13  14
ATOM     14  C   UNL     1      29.582 -22.263  22.793  1.00  0.00    -0.000 C 
BRANCH  14  15
ATOM     15  C   UNL     1      28.803 -23.491  23.292  1.00  0.00    -0.000 C 
BRANCH  15  16
ATOM     16  C   UNL     1      29.049 -23.785  24.783  1.00  0.00    -0.000 C 
BRANCH  16  17
ATOM     17  C   UNL     1      28.975 -22.523  25.660  1.00  0.00    -0.000 C 
BRANCH  17  18
ATOM     18  C   UNL     1      27.554 -22.117  26.087  1.00  0.00    -0.003 C 
ATOM     19  C   UNL     1      27.170 -20.712  25.625  1.00  0.00     0.004 C 
ENDBRANCH  17  18
ENDBRANCH  16  17
ENDBRANCH  15  16
ENDBRANCH  14  15
ENDBRANCH  13  14
ENDBRANCH  12  13
ENDBRANCH   1  12
TORSDOF 14
ENDMDL
MODEL 5
REMARK VINA RESULT:    -4.167      5.877     10.523
REMARK INTER + INTRA:          -9.202
REMARK INTER:                  -7.657
REMARK INTRA:                  -1.545
REMARK UNBOUND:                -1.624
REMARK SMILES CCCCCCCCCCCCCC[C@@H](C)C(=O)[O-]
REMARK SMILES IDX 9 1 10 2 11 3 12 4 13 5 14 6 15 7 16 8 17 9 18 10 19 11 8 12
REMARK SMILES IDX 7 13 6 14 5 15 4 16 3 17 2 18 1 19
REMARK H PARENT
REMARK Flexibility Score: inf
ROOT
ATOM      1  C   UNL     1      32.204  -9.480  16.692  1.00  0.00     0.000 C 
ENDROOT
BRANCH   1   2
ATOM      2  C   UNL     1      32.215  -7.943  16.719  1.00  0.00     0.000 C 
BRANCH   2   3
ATOM      3  C   UNL     1      31.394  -7.368  17.887  1.00  0.00     0.000 C 
BRANCH   3   4
ATOM      4  C   UNL     1      32.151  -6.276  18.661  1.00  0.00     0.000 C 
BRANCH   4   5
ATOM      5  C   UNL     1      32.350  -6.630  20.145  1.00  0.00     0.001 C 
BRANCH   5   6
ATOM      6  C   UNL     1      31.273  -7.602  20.673  1.00  0.00     0.009 C 
BRANCH   6   7
ATOM      7  C   UNL     1      31.528  -8.081  22.120  1.00  0.00     0.032 C 
ATOM      8  C   UNL     1      32.576  -7.195  22.804  1.00  0.00     0.014 C 
BRANCH   7   9
ATOM      9  C   UNL     1      30.265  -8.083  22.936  1.00  0.00     0.044 C 
ATOM     10  O   UNL     1      29.723  -6.993  23.264  1.00  0.00    -0.550 OA
ATOM     11  O   UNL     1      29.690  -9.283  23.338  1.00  0.00    -0.550 OA
ENDBRANCH   7   9
ENDBRANCH   6   7
ENDBRANCH   5   6
ENDBRANCH   4   5
ENDBRANCH   3   4
ENDBRANCH   2   3
ENDBRANCH   1   2
BRANCH   1  12
ATOM     12  C   UNL     1      32.606 -10.100  18.042  1.00  0.00     0.000 C 
BRANCH  12  13
ATOM     13  C   UNL     1      32.795 -11.623  17.962  1.00  0.00    -0.000 C 
BRANCH  13  14
ATOM     14  C   UNL     1      32.110 -12.366  19.123  1.00  0.00    -0.000 C 
BRANCH  14  15
ATOM     15  C   UNL     1      31.752 -11.432  20.290  1.00  0.00    -0.000 C 
BRANCH  15  16
ATOM     16  C   UNL     1      30.408 -11.794  20.949  1.00  0.00    -0.000 C 
BRANCH  16  17
ATOM     17  C   UNL     1      29.753 -13.038  20.324  1.00  0.00    -0.000 C 
BRANCH  17  18
ATOM     18  C   UNL     1      28.686 -13.714  21.203  1.00  0.00    -0.003 C 
ATOM     19  C   UNL     1      28.788 -15.239  21.199  1.00  0.00     0.004 C 
ENDBRANCH  17  18
ENDBRANCH  16  17
ENDBRANCH  15  16
ENDBRANCH  14  15
ENDBRANCH  13  14
ENDBRANCH  12  13
ENDBRANCH   1  12
TORSDOF 14
ENDMDL
MODEL 6
REMARK VINA RESULT:    -4.156      3.534      6.057
REMARK INTER + INTRA:          -9.182
REMARK INTER:                  -6.658
REMARK INTRA:                  -2.524
REMARK UNBOUND:                -1.624
REMARK SMILES CCCCCCCCCCCCCC[C@@H](C)C(=O)[O-]
REMARK SMILES IDX 9 1 10 2 11 3 12 4 13 5 14 6 15 7 16 8 17 9 18 10 19 11 8 12
REMARK SMILES IDX 7 13 6 14 5 15 4 16 3 17 2 18 1 19
REMARK H PARENT
REMARK Flexibility Score: inf
ROOT
ATOM      1  C   UNL     1      29.065 -22.646  22.960  1.00  0.00     0.000 C 
ENDROOT
BRANCH   1   2
ATOM      2  C   UNL     1      29.265 -22.169  24.408  1.00  0.00     0.000 C 
BRANCH   2   3
ATOM      3  C   UNL     1      28.482 -23.022  25.422  1.00  0.00     0.000 C 
BRANCH   3   4
ATOM      4  C   UNL     1      27.545 -22.180  26.305  1.00  0.00     0.000 C 
BRANCH   4   5
ATOM      5  C   UNL     1      27.068 -20.895  25.605  1.00  0.00     0.001 C 
BRANCH   5   6
ATOM      6  C   UNL     1      27.370 -19.624  26.427  1.00  0.00     0.009 C 
BRANCH   6   7
ATOM      7  C   UNL     1      28.812 -19.098  26.247  1.00  0.00     0.032 C 
ATOM      8  C   UNL     1      28.799 -17.624  25.825  1.00  0.00     0.014 C 
BRANCH   7   9
ATOM      9  C   UNL     1      29.621 -19.252  27.505  1.00  0.00     0.044 C 
ATOM     10  O   UNL     1      29.879 -18.245  28.217  1.00  0.00    -0.550 OA
ATOM     11  O   UNL     1      30.095 -20.501  27.887  1.00  0.00    -0.550 OA
ENDBRANCH   7   9
ENDBRANCH   6   7
ENDBRANCH   5   6
ENDBRANCH   4   5
ENDBRANCH   3   4
ENDBRANCH   2   3
ENDBRANCH   1   2
BRANCH   1  12
ATOM     12  C   UNL     1      29.057 -21.486  21.949  1.00  0.00     0.000 C 
BRANCH  12  13
ATOM     13  C   UNL     1      28.730 -20.133  22.602  1.00  0.00    -0.000 C 
BRANCH  13  14
ATOM     14  C   UNL     1      29.786 -19.058  22.292  1.00  0.00    -0.000 C 
BRANCH  14  15
ATOM     15  C   UNL     1      31.023 -19.168  23.197  1.00  0.00    -0.000 C 
BRANCH  15  16
ATOM     16  C   UNL     1      32.327 -19.353  22.400  1.00  0.00    -0.000 C 
BRANCH  16  17
ATOM     17  C   UNL     1      32.889 -20.781  22.499  1.00  0.00    -0.000 C 
BRANCH  17  18
ATOM     18  C   UNL     1      32.598 -21.674  21.280  1.00  0.00    -0.003 C 
ATOM     19  C   UNL     1      32.243 -20.876  20.027  1.00  0.00     0.004 C 
ENDBRANCH  17  18
ENDBRANCH  16  17
ENDBRANCH  15  16
ENDBRANCH  14  15
ENDBRANCH  13  14
ENDBRANCH  12  13
ENDBRANCH   1  12
TORSDOF 14
ENDMDL
MODEL 7
REMARK VINA RESULT:    -4.141      5.845      9.983
REMARK INTER + INTRA:          -9.155
REMARK INTER:                  -7.638
REMARK INTRA:                  -1.517
REMARK UNBOUND:                -1.624
REMARK SMILES CCCCCCCCCCCCCC[C@@H](C)C(=O)[O-]
REMARK SMILES IDX 9 1 10 2 11 3 12 4 13 5 14 6 15 7 16 8 17 9 18 10 19 11 8 12
REMARK SMILES IDX 7 13 6 14 5 15 4 16 3 17 2 18 1 19
REMARK H PARENT
REMARK Flexibility Score: inf
ROOT
ATOM      1  C   UNL     1      32.571 -11.213  17.823  1.00  0.00     0.000 C 
ENDROOT
BRANCH   1   2
ATOM      2  C   UNL     1      32.852  -9.702  17.840  1.00  0.00     0.000 C 
BRANCH   2   3
ATOM      3  C   UNL     1      32.184  -8.966  16.665  1.00  0.00     0.000 C 
BRANCH   3   4
ATOM      4  C   UNL     1      31.823  -7.511  17.007  1.00  0.00     0.000 C 
BRANCH   4   5
ATOM      5  C   UNL     1      31.395  -7.336  18.475  1.00  0.00     0.001 C 
BRANCH   5   6
ATOM      6  C   UNL     1      32.293  -6.340  19.241  1.00  0.00     0.009 C 
BRANCH   6   7
ATOM      7  C   UNL     1      32.306  -6.568  20.769  1.00  0.00     0.032 C 
ATOM      8  C   UNL     1      31.061  -7.348  21.209  1.00  0.00     0.014 C 
BRANCH   7   9
ATOM      9  C   UNL     1      33.540  -7.305  21.210  1.00  0.00     0.044 C 
ATOM     10  O   UNL     1      34.372  -7.713  20.356  1.00  0.00    -0.550 OA
ATOM     11  O   UNL     1      33.770  -7.546  22.560  1.00  0.00    -0.550 OA
ENDBRANCH   7   9
ENDBRANCH   6   7
ENDBRANCH   5   6
ENDBRANCH   4   5
ENDBRANCH   3   4
ENDBRANCH   2   3
ENDBRANCH   1   2
BRANCH   1  12
ATOM     12  C   UNL     1      32.457 -11.811  19.237  1.00  0.00     0.000 C 
BRANCH  12  13
ATOM     13  C   UNL     1      31.891 -10.813  20.259  1.00  0.00    -0.000 C 
BRANCH  13  14
ATOM     14  C   UNL     1      30.700 -11.386  21.047  1.00  0.00    -0.000 C 
BRANCH  14  15
ATOM     15  C   UNL     1      30.614 -12.918  20.954  1.00  0.00    -0.000 C 
BRANCH  15  16
ATOM     16  C   UNL     1      29.248 -13.406  20.438  1.00  0.00    -0.000 C 
BRANCH  16  17
ATOM     17  C   UNL     1      28.854 -14.781  21.003  1.00  0.00    -0.000 C 
BRANCH  17  18
ATOM     18  C   UNL     1      28.914 -14.889  22.537  1.00  0.00    -0.003 C 
ATOM     19  C   UNL     1      27.831 -14.068  23.236  1.00  0.00     0.004 C 
ENDBRANCH  17  18
ENDBRANCH  16  17
ENDBRANCH  15  16
ENDBRANCH  14  15
ENDBRANCH  13  14
ENDBRANCH  12  13
ENDBRANCH   1  12
TORSDOF 14
ENDMDL
MODEL 8
REMARK VINA RESULT:    -4.131      6.246     11.495
REMARK INTER + INTRA:          -9.137
REMARK INTER:                  -6.976
REMARK INTRA:                  -2.161
REMARK UNBOUND:                -1.624
REMARK SMILES CCCCCCCCCCCCCC[C@@H](C)C(=O)[O-]
REMARK SMILES IDX 9 1 10 2 11 3 12 4 13 5 14 6 15 7 16 8 17 9 18 10 19 11 8 12
REMARK SMILES IDX 7 13 6 14 5 15 4 16 3 17 2 18 1 19
REMARK H PARENT
REMARK Flexibility Score: inf
ROOT
ATOM      1  C   UNL     1      31.023  -7.390  20.738  1.00  0.00     0.000 C 
ENDROOT
BRANCH   1   2
ATOM      2  C   UNL     1      30.820  -7.389  22.262  1.00  0.00     0.000 C 
BRANCH   2   3
ATOM      3  C   UNL     1      30.631  -8.806  22.832  1.00  0.00     0.000 C 
BRANCH   3   4
ATOM      4  C   UNL     1      30.664  -9.890  21.742  1.00  0.00     0.000 C 
BRANCH   4   5
ATOM      5  C   UNL     1      31.402 -11.163  22.193  1.00  0.00     0.001 C 
BRANCH   5   6
ATOM      6  C   UNL     1      30.451 -12.365  22.383  1.00  0.00     0.009 C 
BRANCH   6   7
ATOM      7  C   UNL     1      29.754 -12.815  21.080  1.00  0.00     0.032 C 
ATOM      8  C   UNL     1      30.791 -13.199  20.018  1.00  0.00     0.014 C 
BRANCH   7   9
ATOM      9  C   UNL     1      28.826 -13.974  21.317  1.00  0.00     0.044 C 
ATOM     10  O   UNL     1      27.592 -13.774  21.476  1.00  0.00    -0.550 OA
ATOM     11  O   UNL     1      29.322 -15.272  21.369  1.00  0.00    -0.550 OA
ENDBRANCH   7   9
ENDBRANCH   6   7
ENDBRANCH   5   6
ENDBRANCH   4   5
ENDBRANCH   3   4
ENDBRANCH   2   3
ENDBRANCH   1   2
BRANCH   1  12
ATOM     12  C   UNL     1      32.235  -6.548  20.301  1.00  0.00     0.000 C 
BRANCH  12  13
ATOM     13  C   UNL     1      32.328  -6.391  18.774  1.00  0.00    -0.000 C 
BRANCH  13  14
ATOM     14  C   UNL     1      31.375  -7.338  18.024  1.00  0.00    -0.000 C 
BRANCH  14  15
ATOM     15  C   UNL     1      32.007  -7.924  16.752  1.00  0.00    -0.000 C 
BRANCH  15  16
ATOM     16  C   UNL     1      32.608  -9.324  16.978  1.00  0.00    -0.000 C 
BRANCH  16  17
ATOM     17  C   UNL     1      32.234  -9.920  18.346  1.00  0.00    -0.000 C 
BRANCH  17  18
ATOM     18  C   UNL     1      33.392 -10.615  19.084  1.00  0.00    -0.003 C 
ATOM     19  C   UNL     1      34.054  -9.721  20.131  1.00  0.00     0.004 C 
ENDBRANCH  17  18
ENDBRANCH  16  17
ENDBRANCH  15  16
ENDBRANCH  14  15
ENDBRANCH  13  14
ENDBRANCH  12  13
ENDBRANCH   1  12
TORSDOF 14
ENDMDL
MODEL 9
REMARK VINA RESULT:    -4.092      1.248      3.284
REMARK INTER + INTRA:          -9.065
REMARK INTER:                  -7.128
REMARK INTRA:                  -1.937
REMARK UNBOUND:                -1.624
REMARK SMILES CCCCCCCCCCCCCC[C@@H](C)C(=O)[O-]
REMARK SMILES IDX 9 1 10 2 11 3 12 4 13 5 14 6 15 7 16 8 17 9 18 10 19 11 8 12
REMARK SMILES IDX 7 13 6 14 5 15 4 16 3 17 2 18 1 19
REMARK H PARENT
REMARK Flexibility Score: inf
ROOT
ATOM      1  C   UNL     1      27.702 -20.747  26.006  1.00  0.00     0.000 C 
ENDROOT
BRANCH   1   2
ATOM      2  C   UNL     1      28.655 -19.668  26.547  1.00  0.00     0.000 C 
BRANCH   2   3
ATOM      3  C   UNL     1      29.941 -19.544  25.710  1.00  0.00     0.000 C 
BRANCH   3   4
ATOM      4  C   UNL     1      30.214 -18.100  25.257  1.00  0.00     0.000 C 
BRANCH   4   5
ATOM      5  C   UNL     1      29.010 -17.465  24.541  1.00  0.00     0.001 C 
BRANCH   5   6
ATOM      6  C   UNL     1      29.425 -16.370  23.536  1.00  0.00     0.009 C 
BRANCH   6   7
ATOM      7  C   UNL     1      28.227 -15.644  22.882  1.00  0.00     0.032 C 
ATOM      8  C   UNL     1      28.152 -14.189  23.361  1.00  0.00     0.014 C 
BRANCH   7   9
ATOM      9  C   UNL     1      28.312 -15.674  21.381  1.00  0.00     0.044 C 
ATOM     10  O   UNL     1      28.840 -14.713  20.759  1.00  0.00    -0.550 OA
ATOM     11  O   UNL     1      27.805 -16.755  20.670  1.00  0.00    -0.550 OA
ENDBRANCH   7   9
ENDBRANCH   6   7
ENDBRANCH   5   6
ENDBRANCH   4   5
ENDBRANCH   3   4
ENDBRANCH   2   3
ENDBRANCH   1   2
BRANCH   1  12
ATOM     12  C   UNL     1      28.102 -22.166  26.447  1.00  0.00     0.000 C 
BRANCH  12  13
ATOM     13  C   UNL     1      28.195 -23.149  25.269  1.00  0.00    -0.000 C 
BRANCH  13  14
ATOM     14  C   UNL     1      29.471 -22.950  24.433  1.00  0.00    -0.000 C 
BRANCH  14  15
ATOM     15  C   UNL     1      29.168 -22.637  22.960  1.00  0.00    -0.000 C 
BRANCH  15  16
ATOM     16  C   UNL     1      28.523 -21.252  22.767  1.00  0.00    -0.000 C 
BRANCH  16  17
ATOM     17  C   UNL     1      29.416 -20.283  21.973  1.00  0.00    -0.000 C 
BRANCH  17  18
ATOM     18  C   UNL     1      30.856 -20.776  21.743  1.00  0.00    -0.003 C 
ATOM     19  C   UNL     1      31.899 -19.936  22.478  1.00  0.00     0.004 C 
ENDBRANCH  17  18
ENDBRANCH  16  17
ENDBRANCH  15  16
ENDBRANCH  14  15
ENDBRANCH  13  14
ENDBRANCH  12  13
ENDBRANCH   1  12
TORSDOF 14
ENDMDL
