MODEL 1
REMARK VINA RESULT:    -3.801      0.000      0.000
REMARK INTER + INTRA:          -6.013
REMARK INTER:                  -5.579
REMARK INTRA:                  -0.434
REMARK UNBOUND:                -0.434
REMARK SMILES O=C([O-])CCCCCCCC(=O)[O-]
REMARK SMILES IDX 7 1 6 2 5 3 4 4 2 5 1 6 3 7 8 8 9 9 10 10 11 11 12 12 13 13
REMARK H PARENT
REMARK Flexibility Score: inf
ROOT
ATOM      1  C   UNL     1      -5.047  -4.828   7.096  1.00  0.00     0.000 C 
ENDROOT
BRANCH   1   2
ATOM      2  C   UNL     1      -4.788  -5.408   8.492  1.00  0.00     0.000 C 
BRANCH   2   3
ATOM      3  C   UNL     1      -3.573  -6.346   8.482  1.00  0.00     0.006 C 
BRANCH   3   4
ATOM      4  C   UNL     1      -3.735  -7.497   7.480  1.00  0.00     0.053 C 
BRANCH   4   5
ATOM      5  C   UNL     1      -2.621  -7.523   6.479  1.00  0.00     0.041 C 
ATOM      6  O   UNL     1      -1.539  -8.106   6.750  1.00  0.00    -0.550 OA
ATOM      7  O   UNL     1      -2.767  -6.875   5.258  1.00  0.00    -0.550 OA
ENDBRANCH   4   5
ENDBRANCH   3   4
ENDBRANCH   2   3
ENDBRANCH   1   2
BRANCH   1   8
ATOM      8  C   UNL     1      -6.053  -3.669   7.160  1.00  0.00     0.000 C 
BRANCH   8   9
ATOM      9  C   UNL     1      -7.489  -4.139   7.457  1.00  0.00     0.006 C 
BRANCH   9  10
ATOM     10  C   UNL     1      -8.000  -5.242   6.517  1.00  0.00     0.053 C 
BRANCH  10  11
ATOM     11  C   UNL     1      -8.669  -4.677   5.301  1.00  0.00     0.041 C 
ATOM     12  O   UNL     1      -8.152  -4.831   4.164  1.00  0.00    -0.550 OA
ATOM     13  O   UNL     1      -9.849  -3.954   5.429  1.00  0.00    -0.550 OA
ENDBRANCH  10  11
ENDBRANCH   9  10
ENDBRANCH   8   9
ENDBRANCH   1   8
TORSDOF 8
ENDMDL
MODEL 2
REMARK VINA RESULT:    -3.791      2.573      6.107
REMARK INTER + INTRA:          -5.997
REMARK INTER:                  -5.494
REMARK INTRA:                  -0.503
REMARK UNBOUND:                -0.434
REMARK SMILES O=C([O-])CCCCCCCC(=O)[O-]
REMARK SMILES IDX 7 1 6 2 5 3 4 4 2 5 1 6 3 7 8 8 9 9 10 10 11 11 12 12 13 13
REMARK H PARENT
REMARK Flexibility Score: inf
ROOT
ATOM      1  C   UNL     1      -4.295  -5.442   8.803  1.00  0.00     0.000 C 
ENDROOT
BRANCH   1   2
ATOM      2  C   UNL     1      -4.910  -5.069   7.449  1.00  0.00     0.000 C 
BRANCH   2   3
ATOM      3  C   UNL     1      -5.650  -3.727   7.532  1.00  0.00     0.006 C 
BRANCH   3   4
ATOM      4  C   UNL     1      -5.957  -3.320   8.980  1.00  0.00     0.053 C 
BRANCH   4   5
ATOM      5  C   UNL     1      -6.810  -2.091   9.044  1.00  0.00     0.041 C 
ATOM      6  O   UNL     1      -8.028  -2.180   9.349  1.00  0.00    -0.550 OA
ATOM      7  O   UNL     1      -6.267  -0.850   8.735  1.00  0.00    -0.550 OA
ENDBRANCH   4   5
ENDBRANCH   3   4
ENDBRANCH   2   3
ENDBRANCH   1   2
BRANCH   1   8
ATOM      8  C   UNL     1      -4.163  -6.966   8.946  1.00  0.00     0.000 C 
BRANCH   8   9
ATOM      9  C   UNL     1      -4.586  -7.725   7.675  1.00  0.00     0.006 C 
BRANCH   9  10
ATOM     10  C   UNL     1      -3.496  -8.637   7.091  1.00  0.00     0.053 C 
BRANCH  10  11
ATOM     11  C   UNL     1      -2.431  -7.855   6.383  1.00  0.00     0.041 C 
ATOM     12  O   UNL     1      -1.225  -7.977   6.723  1.00  0.00    -0.550 OA
ATOM     13  O   UNL     1      -2.775  -6.970   5.370  1.00  0.00    -0.550 OA
ENDBRANCH  10  11
ENDBRANCH   9  10
ENDBRANCH   8   9
ENDBRANCH   1   8
TORSDOF 8
ENDMDL
MODEL 3
REMARK VINA RESULT:    -3.711      1.438      2.181
REMARK INTER + INTRA:          -5.881
REMARK INTER:                  -5.374
REMARK INTRA:                  -0.507
REMARK UNBOUND:                -0.434
REMARK SMILES O=C([O-])CCCCCCCC(=O)[O-]
REMARK SMILES IDX 7 1 6 2 5 3 4 4 2 5 1 6 3 7 8 8 9 9 10 10 11 11 12 12 13 13
REMARK H PARENT
REMARK Flexibility Score: inf
ROOT
ATOM      1  C   UNL     1      -5.432  -5.228   9.736  1.00  0.00     0.000 C 
ENDROOT
BRANCH   1   2
ATOM      2  C   UNL     1      -4.253  -6.182   9.511  1.00  0.00     0.000 C 
BRANCH   2   3
ATOM      3  C   UNL     1      -3.902  -6.283   8.020  1.00  0.00     0.006 C 
BRANCH   3   4
ATOM      4  C   UNL     1      -3.121  -7.563   7.693  1.00  0.00     0.053 C 
BRANCH   4   5
ATOM      5  C   UNL     1      -2.624  -7.565   6.280  1.00  0.00     0.041 C 
ATOM      6  O   UNL     1      -3.017  -6.687   5.469  1.00  0.00    -0.550 OA
ATOM      7  O   UNL     1      -1.750  -8.556   5.851  1.00  0.00    -0.550 OA
ENDBRANCH   4   5
ENDBRANCH   3   4
ENDBRANCH   2   3
ENDBRANCH   1   2
BRANCH   1   8
ATOM      8  C   UNL     1      -5.034  -3.777   9.425  1.00  0.00     0.000 C 
BRANCH   8   9
ATOM      9  C   UNL     1      -6.075  -3.045   8.557  1.00  0.00     0.006 C 
BRANCH   9  10
ATOM     10  C   UNL     1      -7.117  -3.968   7.905  1.00  0.00     0.053 C 
BRANCH  10  11
ATOM     11  C   UNL     1      -6.782  -4.268   6.476  1.00  0.00     0.041 C 
ATOM     12  O   UNL     1      -7.634  -4.815   5.727  1.00  0.00    -0.550 OA
ATOM     13  O   UNL     1      -5.519  -3.972   5.980  1.00  0.00    -0.550 OA
ENDBRANCH  10  11
ENDBRANCH   9  10
ENDBRANCH   8   9
ENDBRANCH   1   8
TORSDOF 8
ENDMDL
MODEL 4
REMARK VINA RESULT:    -3.670      1.510      5.291
REMARK INTER + INTRA:          -5.821
REMARK INTER:                  -5.337
REMARK INTRA:                  -0.484
REMARK UNBOUND:                -0.434
REMARK SMILES O=C([O-])CCCCCCCC(=O)[O-]
REMARK SMILES IDX 7 1 6 2 5 3 4 4 2 5 1 6 3 7 8 8 9 9 10 10 11 11 12 12 13 13
REMARK H PARENT
REMARK Flexibility Score: inf
ROOT
ATOM      1  C   UNL     1      -5.063  -6.052   9.915  1.00  0.00     0.000 C 
ENDROOT
BRANCH   1   2
ATOM      2  C   UNL     1      -5.883  -4.757   9.940  1.00  0.00     0.000 C 
BRANCH   2   3
ATOM      3  C   UNL     1      -5.367  -3.758   8.895  1.00  0.00     0.006 C 
BRANCH   3   4
ATOM      4  C   UNL     1      -6.453  -3.359   7.886  1.00  0.00     0.053 C 
BRANCH   4   5
ATOM      5  C   UNL     1      -6.313  -4.103   6.594  1.00  0.00     0.041 C 
ATOM      6  O   UNL     1      -5.187  -4.204   6.040  1.00  0.00    -0.550 OA
ATOM      7  O   UNL     1      -7.432  -4.658   5.986  1.00  0.00    -0.550 OA
ENDBRANCH   4   5
ENDBRANCH   3   4
ENDBRANCH   2   3
ENDBRANCH   1   2
BRANCH   1   8
ATOM      8  C   UNL     1      -3.947  -5.978   8.862  1.00  0.00     0.000 C 
BRANCH   8   9
ATOM      9  C   UNL     1      -3.291  -7.344   8.589  1.00  0.00     0.006 C 
BRANCH   9  10
ATOM     10  C   UNL     1      -3.661  -7.962   7.231  1.00  0.00     0.053 C 
BRANCH  10  11
ATOM     11  C   UNL     1      -2.597  -7.731   6.202  1.00  0.00     0.041 C 
ATOM     12  O   UNL     1      -1.527  -8.396   6.237  1.00  0.00    -0.550 OA
ATOM     13  O   UNL     1      -2.773  -6.761   5.225  1.00  0.00    -0.550 OA
ENDBRANCH  10  11
ENDBRANCH   9  10
ENDBRANCH   8   9
ENDBRANCH   1   8
TORSDOF 8
ENDMDL
MODEL 5
REMARK VINA RESULT:    -3.657      0.470      5.872
REMARK INTER + INTRA:          -5.800
REMARK INTER:                  -5.432
REMARK INTRA:                  -0.368
REMARK UNBOUND:                -0.434
REMARK SMILES O=C([O-])CCCCCCCC(=O)[O-]
REMARK SMILES IDX 7 1 6 2 5 3 4 4 2 5 1 6 3 7 8 8 9 9 10 10 11 11 12 12 13 13
REMARK H PARENT
REMARK Flexibility Score: inf
ROOT
ATOM      1  C   UNL     1      -5.323  -5.584   7.669  1.00  0.00     0.000 C 
ENDROOT
BRANCH   1   2
ATOM      2  C   UNL     1      -5.553  -4.144   7.197  1.00  0.00     0.000 C 
BRANCH   2   3
ATOM      3  C   UNL     1      -7.052  -3.831   7.095  1.00  0.00     0.006 C 
BRANCH   3   4
ATOM      4  C   UNL     1      -7.857  -5.014   6.540  1.00  0.00     0.053 C 
BRANCH   4   5
ATOM      5  C   UNL     1      -8.666  -4.623   5.341  1.00  0.00     0.041 C 
ATOM      6  O   UNL     1      -8.261  -4.908   4.184  1.00  0.00    -0.550 OA
ATOM      7  O   UNL     1      -9.850  -3.915   5.502  1.00  0.00    -0.550 OA
ENDBRANCH   4   5
ENDBRANCH   3   4
ENDBRANCH   2   3
ENDBRANCH   1   2
BRANCH   1   8
ATOM      8  C   UNL     1      -4.290  -5.633   8.806  1.00  0.00     0.000 C 
BRANCH   8   9
ATOM      9  C   UNL     1      -3.265  -6.769   8.633  1.00  0.00     0.006 C 
BRANCH   9  10
ATOM     10  C   UNL     1      -3.583  -7.738   7.484  1.00  0.00     0.053 C 
BRANCH  10  11
ATOM     11  C   UNL     1      -2.547  -7.685   6.403  1.00  0.00     0.041 C 
ATOM     12  O   UNL     1      -1.455  -8.297   6.541  1.00  0.00    -0.550 OA
ATOM     13  O   UNL     1      -2.774  -6.933   5.257  1.00  0.00    -0.550 OA
ENDBRANCH  10  11
ENDBRANCH   9  10
ENDBRANCH   8   9
ENDBRANCH   1   8
TORSDOF 8
ENDMDL
MODEL 6
REMARK VINA RESULT:    -3.632      2.802      3.537
REMARK INTER + INTRA:          -5.764
REMARK INTER:                  -5.360
REMARK INTRA:                  -0.404
REMARK UNBOUND:                -0.434
REMARK SMILES O=C([O-])CCCCCCCC(=O)[O-]
REMARK SMILES IDX 7 1 6 2 5 3 4 4 2 5 1 6 3 7 8 8 9 9 10 10 11 11 12 12 13 13
REMARK H PARENT
REMARK Flexibility Score: inf
ROOT
ATOM      1  C   UNL     1      -5.086  -4.974   7.210  1.00  0.00     0.000 C 
ENDROOT
BRANCH   1   2
ATOM      2  C   UNL     1      -4.252  -5.590   8.339  1.00  0.00     0.000 C 
BRANCH   2   3
ATOM      3  C   UNL     1      -4.093  -7.104   8.144  1.00  0.00     0.006 C 
BRANCH   3   4
ATOM      4  C   UNL     1      -2.758  -7.467   7.478  1.00  0.00     0.053 C 
BRANCH   4   5
ATOM      5  C   UNL     1      -2.931  -7.788   6.025  1.00  0.00     0.041 C 
ATOM      6  O   UNL     1      -2.811  -6.884   5.158  1.00  0.00    -0.550 OA
ATOM      7  O   UNL     1      -3.256  -9.080   5.631  1.00  0.00    -0.550 OA
ENDBRANCH   4   5
ENDBRANCH   3   4
ENDBRANCH   2   3
ENDBRANCH   1   2
BRANCH   1   8
ATOM      8  C   UNL     1      -5.741  -3.660   7.662  1.00  0.00     0.000 C 
BRANCH   8   9
ATOM      9  C   UNL     1      -5.808  -3.522   9.194  1.00  0.00     0.006 C 
BRANCH   9  10
ATOM     10  C   UNL     1      -5.484  -2.113   9.717  1.00  0.00     0.053 C 
BRANCH  10  11
ATOM     11  C   UNL     1      -6.572  -1.134   9.397  1.00  0.00     0.041 C 
ATOM     12  O   UNL     1      -7.762  -1.377   9.730  1.00  0.00    -0.550 OA
ATOM     13  O   UNL     1      -6.277   0.034   8.705  1.00  0.00    -0.550 OA
ENDBRANCH  10  11
ENDBRANCH   9  10
ENDBRANCH   8   9
ENDBRANCH   1   8
TORSDOF 8
ENDMDL
MODEL 7
REMARK VINA RESULT:    -3.614      2.018      5.576
REMARK INTER + INTRA:          -5.738
REMARK INTER:                  -5.259
REMARK INTRA:                  -0.479
REMARK UNBOUND:                -0.434
REMARK SMILES O=C([O-])CCCCCCCC(=O)[O-]
REMARK SMILES IDX 7 1 6 2 5 3 4 4 2 5 1 6 3 7 8 8 9 9 10 10 11 11 12 12 13 13
REMARK H PARENT
REMARK Flexibility Score: inf
ROOT
ATOM      1  C   UNL     1      -2.782  -7.180   9.512  1.00  0.00     0.000 C 
ENDROOT
BRANCH   1   2
ATOM      2  C   UNL     1      -4.185  -6.589   9.323  1.00  0.00     0.000 C 
BRANCH   2   3
ATOM      3  C   UNL     1      -4.230  -5.657   8.105  1.00  0.00     0.006 C 
BRANCH   3   4
ATOM      4  C   UNL     1      -5.167  -4.462   8.322  1.00  0.00     0.053 C 
BRANCH   4   5
ATOM      5  C   UNL     1      -5.927  -4.117   7.078  1.00  0.00     0.041 C 
ATOM      6  O   UNL     1      -5.341  -4.091   5.965  1.00  0.00    -0.550 OA
ATOM      7  O   UNL     1      -7.277  -3.795   7.154  1.00  0.00    -0.550 OA
ENDBRANCH   4   5
ENDBRANCH   3   4
ENDBRANCH   2   3
ENDBRANCH   1   2
BRANCH   1   8
ATOM      8  C   UNL     1      -2.627  -8.491   8.726  1.00  0.00     0.000 C 
BRANCH   8   9
ATOM      9  C   UNL     1      -1.455  -8.454   7.728  1.00  0.00     0.006 C 
BRANCH   9  10
ATOM     10  C   UNL     1      -1.802  -8.985   6.327  1.00  0.00     0.053 C 
BRANCH  10  11
ATOM     11  C   UNL     1      -2.919  -8.212   5.696  1.00  0.00     0.041 C 
ATOM     12  O   UNL     1      -4.057  -8.736   5.565  1.00  0.00    -0.550 OA
ATOM     13  O   UNL     1      -2.697  -6.924   5.226  1.00  0.00    -0.550 OA
ENDBRANCH  10  11
ENDBRANCH   9  10
ENDBRANCH   8   9
ENDBRANCH   1   8
TORSDOF 8
ENDMDL
MODEL 8
REMARK VINA RESULT:    -3.599      2.591      3.915
REMARK INTER + INTRA:          -5.716
REMARK INTER:                  -4.864
REMARK INTRA:                  -0.852
REMARK UNBOUND:                -0.434
REMARK SMILES O=C([O-])CCCCCCCC(=O)[O-]
REMARK SMILES IDX 7 1 6 2 5 3 4 4 2 5 1 6 3 7 8 8 9 9 10 10 11 11 12 12 13 13
REMARK H PARENT
REMARK Flexibility Score: inf
ROOT
ATOM      1  C   UNL     1      -2.031  -7.547   9.596  1.00  0.00     0.000 C 
ENDROOT
BRANCH   1   2
ATOM      2  C   UNL     1      -1.153  -8.032   8.436  1.00  0.00     0.000 C 
BRANCH   2   3
ATOM      3  C   UNL     1      -1.816  -9.199   7.693  1.00  0.00     0.006 C 
BRANCH   3   4
ATOM      4  C   UNL     1      -1.783  -9.013   6.170  1.00  0.00     0.053 C 
BRANCH   4   5
ATOM      5  C   UNL     1      -2.929  -8.179   5.686  1.00  0.00     0.041 C 
ATOM      6  O   UNL     1      -2.739  -6.985   5.335  1.00  0.00    -0.550 OA
ATOM      7  O   UNL     1      -4.213  -8.710   5.655  1.00  0.00    -0.550 OA
ENDBRANCH   4   5
ENDBRANCH   3   4
ENDBRANCH   2   3
ENDBRANCH   1   2
BRANCH   1   8
ATOM      8  C   UNL     1      -3.494  -7.970   9.392  1.00  0.00     0.000 C 
BRANCH   8   9
ATOM      9  C   UNL     1      -4.467  -6.776   9.393  1.00  0.00     0.006 C 
BRANCH   9  10
ATOM     10  C   UNL     1      -4.102  -5.663   8.398  1.00  0.00     0.053 C 
BRANCH  10  11
ATOM     11  C   UNL     1      -5.158  -5.481   7.350  1.00  0.00     0.041 C 
ATOM     12  O   UNL     1      -6.033  -6.369   7.172  1.00  0.00    -0.550 OA
ATOM     13  O   UNL     1      -5.157  -4.346   6.550  1.00  0.00    -0.550 OA
ENDBRANCH  10  11
ENDBRANCH   9  10
ENDBRANCH   8   9
ENDBRANCH   1   8
TORSDOF 8
ENDMDL
MODEL 9
REMARK VINA RESULT:    -3.457     18.084     19.835
REMARK INTER + INTRA:          -5.507
REMARK INTER:                  -4.785
REMARK INTRA:                  -0.722
REMARK UNBOUND:                -0.434
REMARK SMILES O=C([O-])CCCCCCCC(=O)[O-]
REMARK SMILES IDX 7 1 6 2 5 3 4 4 2 5 1 6 3 7 8 8 9 9 10 10 11 11 12 12 13 13
REMARK H PARENT
REMARK Flexibility Score: inf
ROOT
ATOM      1  C   UNL     1       7.422   1.450  -8.416  1.00  0.00     0.000 C 
ENDROOT
BRANCH   1   2
ATOM      2  C   UNL     1       7.290   2.341  -7.175  1.00  0.00     0.000 C 
BRANCH   2   3
ATOM      3  C   UNL     1       7.009   3.797  -7.570  1.00  0.00     0.006 C 
BRANCH   3   4
ATOM      4  C   UNL     1       5.909   4.432  -6.709  1.00  0.00     0.053 C 
BRANCH   4   5
ATOM      5  C   UNL     1       4.614   3.688  -6.825  1.00  0.00     0.041 C 
ATOM      6  O   UNL     1       4.033   3.599  -7.938  1.00  0.00    -0.550 OA
ATOM      7  O   UNL     1       4.032   3.122  -5.697  1.00  0.00    -0.550 OA
ENDBRANCH   4   5
ENDBRANCH   3   4
ENDBRANCH   2   3
ENDBRANCH   1   2
BRANCH   1   8
ATOM      8  C   UNL     1       6.227   0.493  -8.537  1.00  0.00     0.000 C 
BRANCH   8   9
ATOM      9  C   UNL     1       5.677   0.047  -7.170  1.00  0.00     0.006 C 
BRANCH   9  10
ATOM     10  C   UNL     1       5.914  -1.437  -6.846  1.00  0.00     0.053 C 
BRANCH  10  11
ATOM     11  C   UNL     1       6.771  -1.614  -5.630  1.00  0.00     0.041 C 
ATOM     12  O   UNL     1       6.569  -2.581  -4.848  1.00  0.00    -0.550 OA
ATOM     13  O   UNL     1       7.773  -0.696  -5.344  1.00  0.00    -0.550 OA
ENDBRANCH  10  11
ENDBRANCH   9  10
ENDBRANCH   8   9
ENDBRANCH   1   8
TORSDOF 8
ENDMDL
