MODEL 1
REMARK VINA RESULT:    -3.205      0.000      0.000
REMARK INTER + INTRA:         -11.663
REMARK INTER:                  -7.328
REMARK INTRA:                  -4.335
REMARK UNBOUND:                -4.335
REMARK SMILES CCCCCCCCCCCCCCCCCCCCCCCC(=O)[O-]
REMARK SMILES IDX 13 1 14 2 15 3 16 4 17 5 18 6 19 7 20 8 21 9 22 10 23 11
REMARK SMILES IDX 24 12 25 13 26 14 12 15 11 16 10 17 9 18 8 19 7 20 6 21 5 22
REMARK SMILES IDX 4 23 3 24 2 25 1 26
REMARK H PARENT
REMARK Flexibility Score: inf
ROOT
ATOM      1  C   UNL     1      86.124  28.093  26.015  1.00  0.00     0.000 C 
ENDROOT
BRANCH   1   2
ATOM      2  C   UNL     1      87.535  28.210  25.417  1.00  0.00     0.000 C 
BRANCH   2   3
ATOM      3  C   UNL     1      88.020  29.665  25.318  1.00  0.00     0.000 C 
BRANCH   3   4
ATOM      4  C   UNL     1      89.267  29.937  26.176  1.00  0.00     0.000 C 
BRANCH   4   5
ATOM      5  C   UNL     1      89.690  28.702  26.992  1.00  0.00     0.000 C 
BRANCH   5   6
ATOM      6  C   UNL     1      89.386  28.861  28.492  1.00  0.00     0.000 C 
BRANCH   6   7
ATOM      7  C   UNL     1      88.678  30.195  28.814  1.00  0.00     0.000 C 
BRANCH   7   8
ATOM      8  C   UNL     1      87.191  30.040  29.189  1.00  0.00     0.000 C 
BRANCH   8   9
ATOM      9  C   UNL     1      86.227  30.977  28.442  1.00  0.00     0.000 C 
BRANCH   9  10
ATOM     10  C   UNL     1      85.158  31.661  29.320  1.00  0.00     0.006 C 
BRANCH  10  11
ATOM     11  C   UNL     1      85.672  32.095  30.705  1.00  0.00     0.053 C 
BRANCH  11  12
ATOM     12  C   UNL     1      84.610  32.017  31.759  1.00  0.00     0.041 C 
ATOM     13  O   UNL     1      83.872  31.001  31.842  1.00  0.00    -0.550 OA
ATOM     14  O   UNL     1      84.412  33.081  32.630  1.00  0.00    -0.550 OA
ENDBRANCH  11  12
ENDBRANCH  10  11
ENDBRANCH   9  10
ENDBRANCH   8   9
ENDBRANCH   7   8
ENDBRANCH   6   7
ENDBRANCH   5   6
ENDBRANCH   4   5
ENDBRANCH   3   4
ENDBRANCH   2   3
ENDBRANCH   1   2
BRANCH   1  15
ATOM     15  C   UNL     1      85.903  26.703  26.632  1.00  0.00     0.000 C 
BRANCH  15  16
ATOM     16  C   UNL     1      86.415  26.617  28.079  1.00  0.00     0.000 C 
BRANCH  16  17
ATOM     17  C   UNL     1      86.079  25.268  28.738  1.00  0.00     0.000 C 
BRANCH  17  18
ATOM     18  C   UNL     1      85.253  24.351  27.809  1.00  0.00    -0.000 C 
BRANCH  18  19
ATOM     19  C   UNL     1      83.911  23.903  28.418  1.00  0.00    -0.000 C 
BRANCH  19  20
ATOM     20  C   UNL     1      83.703  24.298  29.891  1.00  0.00    -0.000 C 
BRANCH  20  21
ATOM     21  C   UNL     1      82.316  24.886  30.215  1.00  0.00    -0.000 C 
BRANCH  21  22
ATOM     22  C   UNL     1      82.171  26.372  29.821  1.00  0.00    -0.000 C 
BRANCH  22  23
ATOM     23  C   UNL     1      83.305  27.243  30.382  1.00  0.00    -0.000 C 
BRANCH  23  24
ATOM     24  C   UNL     1      83.603  28.422  29.449  1.00  0.00    -0.000 C 
BRANCH  24  25
ATOM     25  C   UNL     1      82.986  28.200  28.063  1.00  0.00    -0.003 C 
ATOM     26  C   UNL     1      82.292  29.465  27.559  1.00  0.00     0.004 C 
ENDBRANCH  24  25
ENDBRANCH  23  24
ENDBRANCH  22  23
ENDBRANCH  21  22
ENDBRANCH  20  21
ENDBRANCH  19  20
ENDBRANCH  18  19
ENDBRANCH  17  18
ENDBRANCH  16  17
ENDBRANCH  15  16
ENDBRANCH   1  15
TORSDOF 22
ENDMDL
MODEL 2
REMARK VINA RESULT:    -3.079      1.361      6.008
REMARK INTER + INTRA:         -11.373
REMARK INTER:                  -7.687
REMARK INTRA:                  -3.686
REMARK UNBOUND:                -4.335
REMARK SMILES CCCCCCCCCCCCCCCCCCCCCCCC(=O)[O-]
REMARK SMILES IDX 13 1 14 2 15 3 16 4 17 5 18 6 19 7 20 8 21 9 22 10 23 11
REMARK SMILES IDX 24 12 25 13 26 14 12 15 11 16 10 17 9 18 8 19 7 20 6 21 5 22
REMARK SMILES IDX 4 23 3 24 2 25 1 26
REMARK H PARENT
REMARK Flexibility Score: inf
ROOT
ATOM      1  C   UNL     1      85.870  24.316  27.590  1.00  0.00     0.000 C 
ENDROOT
BRANCH   1   2
ATOM      2  C   UNL     1      84.877  23.161  27.792  1.00  0.00     0.000 C 
BRANCH   2   3
ATOM      3  C   UNL     1      84.101  23.268  29.115  1.00  0.00     0.000 C 
BRANCH   3   4
ATOM      4  C   UNL     1      82.577  23.197  28.918  1.00  0.00     0.000 C 
BRANCH   4   5
ATOM      5  C   UNL     1      81.810  23.521  30.213  1.00  0.00     0.000 C 
BRANCH   5   6
ATOM      6  C   UNL     1      82.682  24.271  31.236  1.00  0.00     0.000 C 
BRANCH   6   7
ATOM      7  C   UNL     1      82.041  25.596  31.701  1.00  0.00     0.000 C 
BRANCH   7   8
ATOM      8  C   UNL     1      81.932  26.663  30.593  1.00  0.00     0.000 C 
BRANCH   8   9
ATOM      9  C   UNL     1      83.251  27.366  30.231  1.00  0.00     0.000 C 
BRANCH   9  10
ATOM     10  C   UNL     1      83.153  28.894  30.040  1.00  0.00     0.006 C 
BRANCH  10  11
ATOM     11  C   UNL     1      82.876  29.669  31.341  1.00  0.00     0.053 C 
BRANCH  11  12
ATOM     12  C   UNL     1      83.320  31.098  31.262  1.00  0.00     0.041 C 
ATOM     13  O   UNL     1      82.626  31.945  30.640  1.00  0.00    -0.550 OA
ATOM     14  O   UNL     1      84.518  31.490  31.845  1.00  0.00    -0.550 OA
ENDBRANCH  11  12
ENDBRANCH  10  11
ENDBRANCH   9  10
ENDBRANCH   8   9
ENDBRANCH   7   8
ENDBRANCH   6   7
ENDBRANCH   5   6
ENDBRANCH   4   5
ENDBRANCH   3   4
ENDBRANCH   2   3
ENDBRANCH   1   2
BRANCH   1  15
ATOM     15  C   UNL     1      85.775  25.329  28.741  1.00  0.00     0.000 C 
BRANCH  15  16
ATOM     16  C   UNL     1      86.536  26.630  28.441  1.00  0.00     0.000 C 
BRANCH  16  17
ATOM     17  C   UNL     1      86.362  27.086  26.982  1.00  0.00     0.000 C 
BRANCH  17  18
ATOM     18  C   UNL     1      84.954  27.658  26.710  1.00  0.00    -0.000 C 
BRANCH  18  19
ATOM     19  C   UNL     1      84.891  29.196  26.765  1.00  0.00    -0.000 C 
BRANCH  19  20
ATOM     20  C   UNL     1      86.187  29.913  26.345  1.00  0.00    -0.000 C 
BRANCH  20  21
ATOM     21  C   UNL     1      86.660  31.015  27.313  1.00  0.00    -0.000 C 
BRANCH  21  22
ATOM     22  C   UNL     1      86.378  30.693  28.797  1.00  0.00    -0.000 C 
BRANCH  22  23
ATOM     23  C   UNL     1      87.562  29.994  29.482  1.00  0.00    -0.000 C 
BRANCH  23  24
ATOM     24  C   UNL     1      88.851  30.181  28.673  1.00  0.00    -0.000 C 
BRANCH  24  25
ATOM     25  C   UNL     1      89.447  28.829  28.263  1.00  0.00    -0.003 C 
ATOM     26  C   UNL     1      89.784  28.804  26.773  1.00  0.00     0.004 C 
ENDBRANCH  24  25
ENDBRANCH  23  24
ENDBRANCH  22  23
ENDBRANCH  21  22
ENDBRANCH  20  21
ENDBRANCH  19  20
ENDBRANCH  18  19
ENDBRANCH  17  18
ENDBRANCH  16  17
ENDBRANCH  15  16
ENDBRANCH   1  15
TORSDOF 22
ENDMDL
MODEL 3
REMARK VINA RESULT:    -3.060      2.963      6.888
REMARK INTER + INTRA:         -11.331
REMARK INTER:                  -7.485
REMARK INTRA:                  -3.846
REMARK UNBOUND:                -4.335
REMARK SMILES CCCCCCCCCCCCCCCCCCCCCCCC(=O)[O-]
REMARK SMILES IDX 13 1 14 2 15 3 16 4 17 5 18 6 19 7 20 8 21 9 22 10 23 11
REMARK SMILES IDX 24 12 25 13 26 14 12 15 11 16 10 17 9 18 8 19 7 20 6 21 5 22
REMARK SMILES IDX 4 23 3 24 2 25 1 26
REMARK H PARENT
REMARK Flexibility Score: inf
ROOT
ATOM      1  C   UNL     1      89.412  28.502  26.228  1.00  0.00     0.000 C 
ENDROOT
BRANCH   1   2
ATOM      2  C   UNL     1      89.619  29.466  27.406  1.00  0.00     0.000 C 
BRANCH   2   3
ATOM      3  C   UNL     1      89.062  28.918  28.730  1.00  0.00     0.000 C 
BRANCH   3   4
ATOM      4  C   UNL     1      87.742  29.591  29.145  1.00  0.00     0.000 C 
BRANCH   4   5
ATOM      5  C   UNL     1      86.524  28.685  28.888  1.00  0.00     0.000 C 
BRANCH   5   6
ATOM      6  C   UNL     1      86.888  27.190  28.932  1.00  0.00     0.000 C 
BRANCH   6   7
ATOM      7  C   UNL     1      85.658  26.277  28.742  1.00  0.00     0.000 C 
BRANCH   7   8
ATOM      8  C   UNL     1      85.937  25.018  27.896  1.00  0.00     0.000 C 
BRANCH   8   9
ATOM      9  C   UNL     1      84.728  24.093  27.681  1.00  0.00     0.000 C 
BRANCH   9  10
ATOM     10  C   UNL     1      84.502  23.036  28.781  1.00  0.00     0.006 C 
BRANCH  10  11
ATOM     11  C   UNL     1      83.106  23.094  29.428  1.00  0.00     0.053 C 
BRANCH  11  12
ATOM     12  C   UNL     1      83.071  23.977  30.637  1.00  0.00     0.041 C 
ATOM     13  O   UNL     1      83.262  23.491  31.783  1.00  0.00    -0.550 OA
ATOM     14  O   UNL     1      82.796  25.332  30.505  1.00  0.00    -0.550 OA
ENDBRANCH  11  12
ENDBRANCH  10  11
ENDBRANCH   9  10
ENDBRANCH   8   9
ENDBRANCH   7   8
ENDBRANCH   6   7
ENDBRANCH   5   6
ENDBRANCH   4   5
ENDBRANCH   3   4
ENDBRANCH   2   3
ENDBRANCH   1   2
BRANCH   1  15
ATOM     15  C   UNL     1      90.286  28.903  25.030  1.00  0.00     0.000 C 
BRANCH  15  16
ATOM     16  C   UNL     1      90.454  30.426  24.910  1.00  0.00     0.000 C 
BRANCH  16  17
ATOM     17  C   UNL     1      90.143  30.938  23.493  1.00  0.00     0.000 C 
BRANCH  17  18
ATOM     18  C   UNL     1      88.649  31.280  23.307  1.00  0.00    -0.000 C 
BRANCH  18  19
ATOM     19  C   UNL     1      88.233  32.608  23.969  1.00  0.00    -0.000 C 
BRANCH  19  20
ATOM     20  C   UNL     1      86.965  32.528  24.838  1.00  0.00    -0.000 C 
BRANCH  20  21
ATOM     21  C   UNL     1      86.981  31.418  25.907  1.00  0.00    -0.000 C 
BRANCH  21  22
ATOM     22  C   UNL     1      85.790  30.441  25.797  1.00  0.00    -0.000 C 
BRANCH  22  23
ATOM     23  C   UNL     1      86.048  29.310  24.789  1.00  0.00    -0.000 C 
BRANCH  23  24
ATOM     24  C   UNL     1      85.706  27.945  25.398  1.00  0.00    -0.000 C 
BRANCH  24  25
ATOM     25  C   UNL     1      86.346  26.806  24.595  1.00  0.00    -0.003 C 
ATOM     26  C   UNL     1      87.234  27.351  23.478  1.00  0.00     0.004 C 
ENDBRANCH  24  25
ENDBRANCH  23  24
ENDBRANCH  22  23
ENDBRANCH  21  22
ENDBRANCH  20  21
ENDBRANCH  19  20
ENDBRANCH  18  19
ENDBRANCH  17  18
ENDBRANCH  16  17
ENDBRANCH  15  16
ENDBRANCH   1  15
TORSDOF 22
ENDMDL
MODEL 4
REMARK VINA RESULT:    -3.020      1.514      3.512
REMARK INTER + INTRA:         -11.239
REMARK INTER:                  -7.465
REMARK INTRA:                  -3.775
REMARK UNBOUND:                -4.335
REMARK SMILES CCCCCCCCCCCCCCCCCCCCCCCC(=O)[O-]
REMARK SMILES IDX 13 1 14 2 15 3 16 4 17 5 18 6 19 7 20 8 21 9 22 10 23 11
REMARK SMILES IDX 24 12 25 13 26 14 12 15 11 16 10 17 9 18 8 19 7 20 6 21 5 22
REMARK SMILES IDX 4 23 3 24 2 25 1 26
REMARK H PARENT
REMARK Flexibility Score: inf
ROOT
ATOM      1  C   UNL     1      89.201  28.674  26.786  1.00  0.00     0.000 C 
ENDROOT
BRANCH   1   2
ATOM      2  C   UNL     1      88.298  28.953  25.575  1.00  0.00     0.000 C 
BRANCH   2   3
ATOM      3  C   UNL     1      87.490  30.253  25.721  1.00  0.00     0.000 C 
BRANCH   3   4
ATOM      4  C   UNL     1      86.005  30.075  25.362  1.00  0.00     0.000 C 
BRANCH   4   5
ATOM      5  C   UNL     1      85.075  30.686  26.425  1.00  0.00     0.000 C 
BRANCH   5   6
ATOM      6  C   UNL     1      85.850  31.475  27.496  1.00  0.00     0.000 C 
BRANCH   6   7
ATOM      7  C   UNL     1      85.014  31.721  28.770  1.00  0.00     0.000 C 
BRANCH   7   8
ATOM      8  C   UNL     1      84.305  30.462  29.308  1.00  0.00     0.000 C 
BRANCH   8   9
ATOM      9  C   UNL     1      83.639  30.625  30.685  1.00  0.00     0.000 C 
BRANCH   9  10
ATOM     10  C   UNL     1      83.742  32.033  31.305  1.00  0.00     0.006 C 
BRANCH  10  11
ATOM     11  C   UNL     1      84.794  32.149  32.424  1.00  0.00     0.053 C 
BRANCH  11  12
ATOM     12  C   UNL     1      85.567  33.429  32.352  1.00  0.00     0.041 C 
ATOM     13  O   UNL     1      86.453  33.685  33.209  1.00  0.00    -0.550 OA
ATOM     14  O   UNL     1      85.289  34.358  31.357  1.00  0.00    -0.550 OA
ENDBRANCH  11  12
ENDBRANCH  10  11
ENDBRANCH   9  10
ENDBRANCH   8   9
ENDBRANCH   7   8
ENDBRANCH   6   7
ENDBRANCH   5   6
ENDBRANCH   4   5
ENDBRANCH   3   4
ENDBRANCH   2   3
ENDBRANCH   1   2
BRANCH   1  15
ATOM     15  C   UNL     1      89.008  29.744  27.873  1.00  0.00     0.000 C 
BRANCH  15  16
ATOM     16  C   UNL     1      88.270  29.199  29.107  1.00  0.00     0.000 C 
BRANCH  16  17
ATOM     17  C   UNL     1      87.777  27.756  28.903  1.00  0.00     0.000 C 
BRANCH  17  18
ATOM     18  C   UNL     1      86.236  27.659  28.889  1.00  0.00    -0.000 C 
BRANCH  18  19
ATOM     19  C   UNL     1      85.660  27.165  27.548  1.00  0.00    -0.000 C 
BRANCH  19  20
ATOM     20  C   UNL     1      86.074  25.736  27.153  1.00  0.00    -0.000 C 
BRANCH  20  21
ATOM     21  C   UNL     1      85.919  24.685  28.269  1.00  0.00    -0.000 C 
BRANCH  21  22
ATOM     22  C   UNL     1      85.070  23.464  27.851  1.00  0.00    -0.000 C 
BRANCH  22  23
ATOM     23  C   UNL     1      83.983  23.124  28.882  1.00  0.00    -0.000 C 
BRANCH  23  24
ATOM     24  C   UNL     1      83.736  24.306  29.828  1.00  0.00    -0.000 C 
BRANCH  24  25
ATOM     25  C   UNL     1      82.514  25.120  29.386  1.00  0.00    -0.003 C 
ATOM     26  C   UNL     1      82.703  26.606  29.689  1.00  0.00     0.004 C 
ENDBRANCH  24  25
ENDBRANCH  23  24
ENDBRANCH  22  23
ENDBRANCH  21  22
ENDBRANCH  20  21
ENDBRANCH  19  20
ENDBRANCH  18  19
ENDBRANCH  17  18
ENDBRANCH  16  17
ENDBRANCH  15  16
ENDBRANCH   1  15
TORSDOF 22
ENDMDL
MODEL 5
REMARK VINA RESULT:    -3.006      2.756      5.798
REMARK INTER + INTRA:         -11.207
REMARK INTER:                  -6.916
REMARK INTRA:                  -4.291
REMARK UNBOUND:                -4.335
REMARK SMILES CCCCCCCCCCCCCCCCCCCCCCCC(=O)[O-]
REMARK SMILES IDX 13 1 14 2 15 3 16 4 17 5 18 6 19 7 20 8 21 9 22 10 23 11
REMARK SMILES IDX 24 12 25 13 26 14 12 15 11 16 10 17 9 18 8 19 7 20 6 21 5 22
REMARK SMILES IDX 4 23 3 24 2 25 1 26
REMARK H PARENT
REMARK Flexibility Score: inf
ROOT
ATOM      1  C   UNL     1      89.635  29.234  27.720  1.00  0.00     0.000 C 
ENDROOT
BRANCH   1   2
ATOM      2  C   UNL     1      88.749  30.044  28.679  1.00  0.00     0.000 C 
BRANCH   2   3
ATOM      3  C   UNL     1      87.577  29.224  29.243  1.00  0.00     0.000 C 
BRANCH   3   4
ATOM      4  C   UNL     1      87.292  27.953  28.425  1.00  0.00     0.000 C 
BRANCH   4   5
ATOM      5  C   UNL     1      86.883  26.768  29.320  1.00  0.00     0.000 C 
BRANCH   5   6
ATOM      6  C   UNL     1      86.207  25.640  28.521  1.00  0.00     0.000 C 
BRANCH   6   7
ATOM      7  C   UNL     1      85.910  26.044  27.061  1.00  0.00     0.000 C 
BRANCH   7   8
ATOM      8  C   UNL     1      84.410  26.062  26.708  1.00  0.00     0.000 C 
BRANCH   8   9
ATOM      9  C   UNL     1      83.484  26.597  27.814  1.00  0.00     0.000 C 
BRANCH   9  10
ATOM     10  C   UNL     1      82.580  25.543  28.485  1.00  0.00     0.006 C 
BRANCH  10  11
ATOM     11  C   UNL     1      82.799  25.407  30.003  1.00  0.00     0.053 C 
BRANCH  11  12
ATOM     12  C   UNL     1      83.247  24.033  30.395  1.00  0.00     0.041 C 
ATOM     13  O   UNL     1      83.189  23.665  31.598  1.00  0.00    -0.550 OA
ATOM     14  O   UNL     1      83.761  23.166  29.439  1.00  0.00    -0.550 OA
ENDBRANCH  11  12
ENDBRANCH  10  11
ENDBRANCH   9  10
ENDBRANCH   8   9
ENDBRANCH   7   8
ENDBRANCH   6   7
ENDBRANCH   5   6
ENDBRANCH   4   5
ENDBRANCH   3   4
ENDBRANCH   2   3
ENDBRANCH   1   2
BRANCH   1  15
ATOM     15  C   UNL     1      89.567  29.806  26.295  1.00  0.00     0.000 C 
BRANCH  15  16
ATOM     16  C   UNL     1      89.521  28.705  25.223  1.00  0.00     0.000 C 
BRANCH  16  17
ATOM     17  C   UNL     1      88.108  28.507  24.648  1.00  0.00     0.000 C 
BRANCH  17  18
ATOM     18  C   UNL     1      87.176  29.698  24.960  1.00  0.00    -0.000 C 
BRANCH  18  19
ATOM     19  C   UNL     1      85.712  29.288  25.207  1.00  0.00    -0.000 C 
BRANCH  19  20
ATOM     20  C   UNL     1      85.046  29.962  26.420  1.00  0.00    -0.000 C 
BRANCH  20  21
ATOM     21  C   UNL     1      85.707  31.278  26.873  1.00  0.00    -0.000 C 
BRANCH  21  22
ATOM     22  C   UNL     1      85.199  31.782  28.243  1.00  0.00    -0.000 C 
BRANCH  22  23
ATOM     23  C   UNL     1      83.671  31.932  28.284  1.00  0.00    -0.000 C 
BRANCH  23  24
ATOM     24  C   UNL     1      83.090  31.268  29.538  1.00  0.00    -0.000 C 
BRANCH  24  25
ATOM     25  C   UNL     1      83.783  29.931  29.828  1.00  0.00    -0.003 C 
ATOM     26  C   UNL     1      82.893  29.020  30.672  1.00  0.00     0.004 C 
ENDBRANCH  24  25
ENDBRANCH  23  24
ENDBRANCH  22  23
ENDBRANCH  21  22
ENDBRANCH  20  21
ENDBRANCH  19  20
ENDBRANCH  18  19
ENDBRANCH  17  18
ENDBRANCH  16  17
ENDBRANCH  15  16
ENDBRANCH   1  15
TORSDOF 22
ENDMDL
MODEL 6
REMARK VINA RESULT:    -2.962      1.785      4.751
REMARK INTER + INTRA:         -11.106
REMARK INTER:                  -7.295
REMARK INTRA:                  -3.812
REMARK UNBOUND:                -4.335
REMARK SMILES CCCCCCCCCCCCCCCCCCCCCCCC(=O)[O-]
REMARK SMILES IDX 13 1 14 2 15 3 16 4 17 5 18 6 19 7 20 8 21 9 22 10 23 11
REMARK SMILES IDX 24 12 25 13 26 14 12 15 11 16 10 17 9 18 8 19 7 20 6 21 5 22
REMARK SMILES IDX 4 23 3 24 2 25 1 26
REMARK H PARENT
REMARK Flexibility Score: inf
ROOT
ATOM      1  C   UNL     1      86.231  30.034  25.771  1.00  0.00     0.000 C 
ENDROOT
BRANCH   1   2
ATOM      2  C   UNL     1      86.391  31.448  26.348  1.00  0.00     0.000 C 
BRANCH   2   3
ATOM      3  C   UNL     1      85.701  31.617  27.711  1.00  0.00     0.000 C 
BRANCH   3   4
ATOM      4  C   UNL     1      84.390  30.819  27.819  1.00  0.00     0.000 C 
BRANCH   4   5
ATOM      5  C   UNL     1      84.087  30.395  29.267  1.00  0.00     0.000 C 
BRANCH   5   6
ATOM      6  C   UNL     1      82.611  30.614  29.643  1.00  0.00     0.000 C 
BRANCH   6   7
ATOM      7  C   UNL     1      82.169  32.084  29.473  1.00  0.00     0.000 C 
BRANCH   7   8
ATOM      8  C   UNL     1      82.766  33.043  30.523  1.00  0.00     0.000 C 
BRANCH   8   9
ATOM      9  C   UNL     1      83.706  34.123  29.961  1.00  0.00     0.000 C 
BRANCH   9  10
ATOM     10  C   UNL     1      84.813  34.600  30.923  1.00  0.00     0.006 C 
BRANCH  10  11
ATOM     11  C   UNL     1      85.642  33.457  31.538  1.00  0.00     0.053 C 
BRANCH  11  12
ATOM     12  C   UNL     1      85.929  33.675  32.991  1.00  0.00     0.041 C 
ATOM     13  O   UNL     1      86.377  34.782  33.391  1.00  0.00    -0.550 OA
ATOM     14  O   UNL     1      85.734  32.646  33.904  1.00  0.00    -0.550 OA
ENDBRANCH  11  12
ENDBRANCH  10  11
ENDBRANCH   9  10
ENDBRANCH   8   9
ENDBRANCH   7   8
ENDBRANCH   6   7
ENDBRANCH   5   6
ENDBRANCH   4   5
ENDBRANCH   3   4
ENDBRANCH   2   3
ENDBRANCH   1   2
BRANCH   1  15
ATOM     15  C   UNL     1      87.583  29.479  25.296  1.00  0.00     0.000 C 
BRANCH  15  16
ATOM     16  C   UNL     1      88.768  30.082  26.067  1.00  0.00     0.000 C 
BRANCH  16  17
ATOM     17  C   UNL     1      89.782  29.013  26.510  1.00  0.00     0.000 C 
BRANCH  17  18
ATOM     18  C   UNL     1      89.736  28.757  28.032  1.00  0.00    -0.000 C 
BRANCH  18  19
ATOM     19  C   UNL     1      88.748  29.670  28.783  1.00  0.00    -0.000 C 
BRANCH  19  20
ATOM     20  C   UNL     1      87.479  28.967  29.296  1.00  0.00    -0.000 C 
BRANCH  20  21
ATOM     21  C   UNL     1      87.445  27.443  29.069  1.00  0.00    -0.000 C 
BRANCH  21  22
ATOM     22  C   UNL     1      86.503  27.012  27.923  1.00  0.00    -0.000 C 
BRANCH  22  23
ATOM     23  C   UNL     1      85.927  25.604  28.133  1.00  0.00    -0.000 C 
BRANCH  23  24
ATOM     24  C   UNL     1      84.398  25.614  28.017  1.00  0.00    -0.000 C 
BRANCH  24  25
ATOM     25  C   UNL     1      83.820  26.964  28.459  1.00  0.00    -0.003 C 
ATOM     26  C   UNL     1      83.212  26.872  29.858  1.00  0.00     0.004 C 
ENDBRANCH  24  25
ENDBRANCH  23  24
ENDBRANCH  22  23
ENDBRANCH  21  22
ENDBRANCH  20  21
ENDBRANCH  19  20
ENDBRANCH  18  19
ENDBRANCH  17  18
ENDBRANCH  16  17
ENDBRANCH  15  16
ENDBRANCH   1  15
TORSDOF 22
ENDMDL
MODEL 7
REMARK VINA RESULT:    -2.951      3.019      6.357
REMARK INTER + INTRA:         -11.082
REMARK INTER:                  -7.741
REMARK INTRA:                  -3.340
REMARK UNBOUND:                -4.335
REMARK SMILES CCCCCCCCCCCCCCCCCCCCCCCC(=O)[O-]
REMARK SMILES IDX 13 1 14 2 15 3 16 4 17 5 18 6 19 7 20 8 21 9 22 10 23 11
REMARK SMILES IDX 24 12 25 13 26 14 12 15 11 16 10 17 9 18 8 19 7 20 6 21 5 22
REMARK SMILES IDX 4 23 3 24 2 25 1 26
REMARK H PARENT
REMARK Flexibility Score: inf
ROOT
ATOM      1  C   UNL     1      85.975  29.486  25.137  1.00  0.00     0.000 C 
ENDROOT
BRANCH   1   2
ATOM      2  C   UNL     1      87.415  30.015  25.203  1.00  0.00     0.000 C 
BRANCH   2   3
ATOM      3  C   UNL     1      88.452  28.896  25.399  1.00  0.00     0.000 C 
BRANCH   3   4
ATOM      4  C   UNL     1      89.707  29.372  26.150  1.00  0.00     0.000 C 
BRANCH   4   5
ATOM      5  C   UNL     1      89.723  28.895  27.613  1.00  0.00     0.000 C 
BRANCH   5   6
ATOM      6  C   UNL     1      89.060  29.907  28.565  1.00  0.00     0.000 C 
BRANCH   6   7
ATOM      7  C   UNL     1      87.724  29.390  29.140  1.00  0.00     0.000 C 
BRANCH   7   8
ATOM      8  C   UNL     1      87.566  27.858  29.077  1.00  0.00     0.000 C 
BRANCH   8   9
ATOM      9  C   UNL     1      86.214  27.363  28.535  1.00  0.00     0.000 C 
BRANCH   9  10
ATOM     10  C   UNL     1      86.288  26.536  27.235  1.00  0.00     0.006 C 
BRANCH  10  11
ATOM     11  C   UNL     1      85.167  25.489  27.095  1.00  0.00     0.053 C 
BRANCH  11  12
ATOM     12  C   UNL     1      85.170  24.495  28.216  1.00  0.00     0.041 C 
ATOM     13  O   UNL     1      86.047  23.594  28.263  1.00  0.00    -0.550 OA
ATOM     14  O   UNL     1      84.183  24.542  29.193  1.00  0.00    -0.550 OA
ENDBRANCH  11  12
ENDBRANCH  10  11
ENDBRANCH   9  10
ENDBRANCH   8   9
ENDBRANCH   7   8
ENDBRANCH   6   7
ENDBRANCH   5   6
ENDBRANCH   4   5
ENDBRANCH   3   4
ENDBRANCH   2   3
ENDBRANCH   1   2
BRANCH   1  15
ATOM     15  C   UNL     1      85.105  30.122  26.233  1.00  0.00     0.000 C 
BRANCH  15  16
ATOM     16  C   UNL     1      85.733  31.401  26.810  1.00  0.00     0.000 C 
BRANCH  16  17
ATOM     17  C   UNL     1      84.971  31.922  28.041  1.00  0.00     0.000 C 
BRANCH  17  18
ATOM     18  C   UNL     1      84.216  30.797  28.782  1.00  0.00    -0.000 C 
BRANCH  18  19
ATOM     19  C   UNL     1      84.464  30.785  30.302  1.00  0.00    -0.000 C 
BRANCH  19  20
ATOM     20  C   UNL     1      84.346  32.157  30.989  1.00  0.00    -0.000 C 
BRANCH  20  21
ATOM     21  C   UNL     1      85.111  32.282  32.322  1.00  0.00    -0.000 C 
BRANCH  21  22
ATOM     22  C   UNL     1      85.936  33.583  32.437  1.00  0.00    -0.000 C 
BRANCH  22  23
ATOM     23  C   UNL     1      85.051  34.834  32.540  1.00  0.00    -0.000 C 
BRANCH  23  24
ATOM     24  C   UNL     1      85.187  35.706  31.286  1.00  0.00    -0.000 C 
BRANCH  24  25
ATOM     25  C   UNL     1      85.310  37.189  31.655  1.00  0.00    -0.003 C 
ATOM     26  C   UNL     1      86.696  37.730  31.310  1.00  0.00     0.004 C 
ENDBRANCH  24  25
ENDBRANCH  23  24
ENDBRANCH  22  23
ENDBRANCH  21  22
ENDBRANCH  20  21
ENDBRANCH  19  20
ENDBRANCH  18  19
ENDBRANCH  17  18
ENDBRANCH  16  17
ENDBRANCH  15  16
ENDBRANCH   1  15
TORSDOF 22
ENDMDL
MODEL 8
REMARK VINA RESULT:    -2.904      1.394      5.495
REMARK INTER + INTRA:         -10.975
REMARK INTER:                  -6.607
REMARK INTRA:                  -4.368
REMARK UNBOUND:                -4.335
REMARK SMILES CCCCCCCCCCCCCCCCCCCCCCCC(=O)[O-]
REMARK SMILES IDX 13 1 14 2 15 3 16 4 17 5 18 6 19 7 20 8 21 9 22 10 23 11
REMARK SMILES IDX 24 12 25 13 26 14 12 15 11 16 10 17 9 18 8 19 7 20 6 21 5 22
REMARK SMILES IDX 4 23 3 24 2 25 1 26
REMARK H PARENT
REMARK Flexibility Score: inf
ROOT
ATOM      1  C   UNL     1      83.980  26.395  26.462  1.00  0.00     0.000 C 
ENDROOT
BRANCH   1   2
ATOM      2  C   UNL     1      83.171  25.108  26.241  1.00  0.00     0.000 C 
BRANCH   2   3
ATOM      3  C   UNL     1      82.238  24.782  27.418  1.00  0.00     0.000 C 
BRANCH   3   4
ATOM      4  C   UNL     1      82.802  25.245  28.772  1.00  0.00     0.000 C 
BRANCH   4   5
ATOM      5  C   UNL     1      81.963  26.377  29.393  1.00  0.00     0.000 C 
BRANCH   5   6
ATOM      6  C   UNL     1      82.653  27.013  30.613  1.00  0.00     0.000 C 
BRANCH   6   7
ATOM      7  C   UNL     1      83.189  28.430  30.318  1.00  0.00     0.000 C 
BRANCH   7   8
ATOM      8  C   UNL     1      82.761  28.989  28.947  1.00  0.00     0.000 C 
BRANCH   8   9
ATOM      9  C   UNL     1      83.656  30.109  28.389  1.00  0.00     0.000 C 
BRANCH   9  10
ATOM     10  C   UNL     1      84.696  30.676  29.376  1.00  0.00     0.006 C 
BRANCH  10  11
ATOM     11  C   UNL     1      84.793  32.213  29.368  1.00  0.00     0.053 C 
BRANCH  11  12
ATOM     12  C   UNL     1      85.134  32.772  30.715  1.00  0.00     0.041 C 
ATOM     13  O   UNL     1      85.123  34.016  30.907  1.00  0.00    -0.550 OA
ATOM     14  O   UNL     1      85.497  31.922  31.752  1.00  0.00    -0.550 OA
ENDBRANCH  11  12
ENDBRANCH  10  11
ENDBRANCH   9  10
ENDBRANCH   8   9
ENDBRANCH   7   8
ENDBRANCH   6   7
ENDBRANCH   5   6
ENDBRANCH   4   5
ENDBRANCH   3   4
ENDBRANCH   2   3
ENDBRANCH   1   2
BRANCH   1  15
ATOM     15  C   UNL     1      85.479  26.147  26.234  1.00  0.00     0.000 C 
BRANCH  15  16
ATOM     16  C   UNL     1      86.271  26.088  27.550  1.00  0.00     0.000 C 
BRANCH  16  17
ATOM     17  C   UNL     1      86.168  27.396  28.353  1.00  0.00     0.000 C 
BRANCH  17  18
ATOM     18  C   UNL     1      87.406  27.637  29.243  1.00  0.00    -0.000 C 
BRANCH  18  19
ATOM     19  C   UNL     1      87.739  29.128  29.448  1.00  0.00    -0.000 C 
BRANCH  19  20
ATOM     20  C   UNL     1      88.948  29.638  28.644  1.00  0.00    -0.000 C 
BRANCH  20  21
ATOM     21  C   UNL     1      89.764  28.539  27.934  1.00  0.00    -0.000 C 
BRANCH  21  22
ATOM     22  C   UNL     1      89.801  28.697  26.397  1.00  0.00    -0.000 C 
BRANCH  22  23
ATOM     23  C   UNL     1      88.837  29.782  25.894  1.00  0.00    -0.000 C 
BRANCH  23  24
ATOM     24  C   UNL     1      87.543  29.159  25.356  1.00  0.00    -0.000 C 
BRANCH  24  25
ATOM     25  C   UNL     1      86.317  29.965  25.799  1.00  0.00    -0.003 C 
ATOM     26  C   UNL     1      86.716  31.362  26.271  1.00  0.00     0.004 C 
ENDBRANCH  24  25
ENDBRANCH  23  24
ENDBRANCH  22  23
ENDBRANCH  21  22
ENDBRANCH  20  21
ENDBRANCH  19  20
ENDBRANCH  18  19
ENDBRANCH  17  18
ENDBRANCH  16  17
ENDBRANCH  15  16
ENDBRANCH   1  15
TORSDOF 22
ENDMDL
MODEL 9
REMARK VINA RESULT:    -2.899      1.851      3.493
REMARK INTER + INTRA:         -10.963
REMARK INTER:                  -7.348
REMARK INTRA:                  -3.615
REMARK UNBOUND:                -4.335
REMARK SMILES CCCCCCCCCCCCCCCCCCCCCCCC(=O)[O-]
REMARK SMILES IDX 13 1 14 2 15 3 16 4 17 5 18 6 19 7 20 8 21 9 22 10 23 11
REMARK SMILES IDX 24 12 25 13 26 14 12 15 11 16 10 17 9 18 8 19 7 20 6 21 5 22
REMARK SMILES IDX 4 23 3 24 2 25 1 26
REMARK H PARENT
REMARK Flexibility Score: inf
ROOT
ATOM      1  C   UNL     1      87.961  29.084  25.085  1.00  0.00     0.000 C 
ENDROOT
BRANCH   1   2
ATOM      2  C   UNL     1      89.372  28.813  25.629  1.00  0.00     0.000 C 
BRANCH   2   3
ATOM      3  C   UNL     1      89.658  29.560  26.941  1.00  0.00     0.000 C 
BRANCH   3   4
ATOM      4  C   UNL     1      89.272  28.746  28.187  1.00  0.00     0.000 C 
BRANCH   4   5
ATOM      5  C   UNL     1      88.300  29.512  29.103  1.00  0.00     0.000 C 
BRANCH   5   6
ATOM      6  C   UNL     1      87.690  30.743  28.407  1.00  0.00     0.000 C 
BRANCH   6   7
ATOM      7  C   UNL     1      86.196  30.552  28.071  1.00  0.00     0.000 C 
BRANCH   7   8
ATOM      8  C   UNL     1      85.367  29.946  29.221  1.00  0.00     0.000 C 
BRANCH   8   9
ATOM      9  C   UNL     1      84.175  30.798  29.688  1.00  0.00     0.000 C 
BRANCH   9  10
ATOM     10  C   UNL     1      84.385  31.553  31.017  1.00  0.00     0.006 C 
BRANCH  10  11
ATOM     11  C   UNL     1      85.779  32.191  31.161  1.00  0.00     0.053 C 
BRANCH  11  12
ATOM     12  C   UNL     1      85.742  33.485  31.913  1.00  0.00     0.041 C 
ATOM     13  O   UNL     1      86.137  33.538  33.107  1.00  0.00    -0.550 OA
ATOM     14  O   UNL     1      85.239  34.630  31.307  1.00  0.00    -0.550 OA
ENDBRANCH  11  12
ENDBRANCH  10  11
ENDBRANCH   9  10
ENDBRANCH   8   9
ENDBRANCH   7   8
ENDBRANCH   6   7
ENDBRANCH   5   6
ENDBRANCH   4   5
ENDBRANCH   3   4
ENDBRANCH   2   3
ENDBRANCH   1   2
BRANCH   1  15
ATOM     15  C   UNL     1      87.157  27.779  24.971  1.00  0.00     0.000 C 
BRANCH  15  16
ATOM     16  C   UNL     1      85.666  27.979  25.289  1.00  0.00     0.000 C 
BRANCH  16  17
ATOM     17  C   UNL     1      85.219  27.175  26.521  1.00  0.00     0.000 C 
BRANCH  17  18
ATOM     18  C   UNL     1      86.398  26.829  27.456  1.00  0.00    -0.000 C 
BRANCH  18  19
ATOM     19  C   UNL     1      85.997  25.953  28.658  1.00  0.00    -0.000 C 
BRANCH  19  20
ATOM     20  C   UNL     1      85.925  24.444  28.364  1.00  0.00    -0.000 C 
BRANCH  20  21
ATOM     21  C   UNL     1      84.527  23.817  28.531  1.00  0.00    -0.000 C 
BRANCH  21  22
ATOM     22  C   UNL     1      84.132  22.875  27.372  1.00  0.00    -0.000 C 
BRANCH  22  23
ATOM     23  C   UNL     1      85.059  23.018  26.156  1.00  0.00    -0.000 C 
BRANCH  23  24
ATOM     24  C   UNL     1      84.440  23.942  25.100  1.00  0.00    -0.000 C 
BRANCH  24  25
ATOM     25  C   UNL     1      85.452  24.278  23.998  1.00  0.00    -0.003 C 
ATOM     26  C   UNL     1      84.810  25.121  22.898  1.00  0.00     0.004 C 
ENDBRANCH  24  25
ENDBRANCH  23  24
ENDBRANCH  22  23
ENDBRANCH  21  22
ENDBRANCH  20  21
ENDBRANCH  19  20
ENDBRANCH  18  19
ENDBRANCH  17  18
ENDBRANCH  16  17
ENDBRANCH  15  16
ENDBRANCH   1  15
TORSDOF 22
ENDMDL
