MODEL 1
REMARK VINA RESULT:    -3.410      0.000      0.000
REMARK INTER + INTRA:         -11.847
REMARK INTER:                  -8.592
REMARK INTRA:                  -3.255
REMARK UNBOUND:                -3.255
REMARK SMILES CCCCCCCCCCCCCCCCCCCCCCCCCCCC(=O)[O-]
REMARK SMILES IDX 15 1 16 2 17 3 18 4 19 5 20 6 21 7 22 8 23 9 24 10 25 11
REMARK SMILES IDX 26 12 27 13 28 14 29 15 30 16 14 17 13 18 12 19 11 20 10 21
REMARK SMILES IDX 9 22 8 23 7 24 6 25 5 26 4 27 3 28 2 29 1 30
REMARK H PARENT
REMARK Flexibility Score: inf
ROOT
ATOM      1  C   UNL     1      -2.358   5.178   9.323  1.00  0.00     0.000 C 
ENDROOT
BRANCH   1   2
ATOM      2  C   UNL     1      -3.775   5.471   9.855  1.00  0.00     0.000 C 
BRANCH   2   3
ATOM      3  C   UNL     1      -4.837   5.744   8.772  1.00  0.00     0.000 C 
BRANCH   3   4
ATOM      4  C   UNL     1      -5.951   6.724   9.183  1.00  0.00     0.000 C 
BRANCH   4   5
ATOM      5  C   UNL     1      -5.768   8.126   8.583  1.00  0.00     0.000 C 
BRANCH   5   6
ATOM      6  C   UNL     1      -5.222   9.102   9.633  1.00  0.00     0.000 C 
BRANCH   6   7
ATOM      7  C   UNL     1      -4.135  10.007   9.031  1.00  0.00     0.000 C 
BRANCH   7   8
ATOM      8  C   UNL     1      -2.833   9.990   9.847  1.00  0.00     0.000 C 
BRANCH   8   9
ATOM      9  C   UNL     1      -1.940   8.783   9.516  1.00  0.00     0.000 C 
BRANCH   9  10
ATOM     10  C   UNL     1      -0.796   9.193   8.577  1.00  0.00     0.000 C 
BRANCH  10  11
ATOM     11  C   UNL     1       0.312   9.980   9.294  1.00  0.00     0.000 C 
BRANCH  11  12
ATOM     12  C   UNL     1       1.585   9.150   9.514  1.00  0.00     0.006 C 
BRANCH  12  13
ATOM     13  C   UNL     1       1.619   7.942   8.571  1.00  0.00     0.053 C 
BRANCH  13  14
ATOM     14  C   UNL     1       2.562   8.174   7.430  1.00  0.00     0.041 C 
ATOM     15  O   UNL     1       2.119   8.317   6.260  1.00  0.00    -0.550 OA
ATOM     16  O   UNL     1       3.934   8.197   7.652  1.00  0.00    -0.550 OA
ENDBRANCH  13  14
ENDBRANCH  12  13
ENDBRANCH  11  12
ENDBRANCH  10  11
ENDBRANCH   9  10
ENDBRANCH   8   9
ENDBRANCH   7   8
ENDBRANCH   6   7
ENDBRANCH   5   6
ENDBRANCH   4   5
ENDBRANCH   3   4
ENDBRANCH   2   3
ENDBRANCH   1   2
BRANCH   1  17
ATOM     17  C   UNL     1      -1.941   3.693   9.357  1.00  0.00     0.000 C 
BRANCH  17  18
ATOM     18  C   UNL     1      -2.997   2.734   9.935  1.00  0.00     0.000 C 
BRANCH  18  19
ATOM     19  C   UNL     1      -3.299   1.548   9.003  1.00  0.00     0.000 C 
BRANCH  19  20
ATOM     20  C   UNL     1      -4.663   0.901   9.297  1.00  0.00     0.000 C 
BRANCH  20  21
ATOM     21  C   UNL     1      -5.724   1.934   9.719  1.00  0.00     0.000 C 
BRANCH  21  22
ATOM     22  C   UNL     1      -7.158   1.402   9.566  1.00  0.00    -0.000 C 
BRANCH  22  23
ATOM     23  C   UNL     1      -8.062   2.353   8.762  1.00  0.00    -0.000 C 
BRANCH  23  24
ATOM     24  C   UNL     1      -7.835   3.835   9.132  1.00  0.00    -0.000 C 
BRANCH  24  25
ATOM     25  C   UNL     1      -9.112   4.693   9.062  1.00  0.00    -0.000 C 
BRANCH  25  26
ATOM     26  C   UNL     1      -9.528   5.120   7.642  1.00  0.00    -0.000 C 
BRANCH  26  27
ATOM     27  C   UNL     1      -9.148   6.565   7.257  1.00  0.00    -0.000 C 
BRANCH  27  28
ATOM     28  C   UNL     1      -8.343   6.707   5.953  1.00  0.00    -0.000 C 
BRANCH  28  29
ATOM     29  C   UNL     1      -7.923   8.154   5.663  1.00  0.00    -0.003 C 
ATOM     30  C   UNL     1      -8.691   9.136   6.545  1.00  0.00     0.004 C 
ENDBRANCH  28  29
ENDBRANCH  27  28
ENDBRANCH  26  27
ENDBRANCH  25  26
ENDBRANCH  24  25
ENDBRANCH  23  24
ENDBRANCH  22  23
ENDBRANCH  21  22
ENDBRANCH  20  21
ENDBRANCH  19  20
ENDBRANCH  18  19
ENDBRANCH  17  18
ENDBRANCH   1  17
TORSDOF 26
ENDMDL
MODEL 2
REMARK VINA RESULT:    -3.360      3.011      7.956
REMARK INTER + INTRA:         -11.723
REMARK INTER:                  -8.468
REMARK INTRA:                  -3.255
REMARK UNBOUND:                -3.255
REMARK SMILES CCCCCCCCCCCCCCCCCCCCCCCCCCCC(=O)[O-]
REMARK SMILES IDX 15 1 16 2 17 3 18 4 19 5 20 6 21 7 22 8 23 9 24 10 25 11
REMARK SMILES IDX 26 12 27 13 28 14 29 15 30 16 14 17 13 18 12 19 11 20 10 21
REMARK SMILES IDX 9 22 8 23 7 24 6 25 5 26 4 27 3 28 2 29 1 30
REMARK H PARENT
REMARK Flexibility Score: inf
ROOT
ATOM      1  C   UNL     1      -2.286   2.045   8.729  1.00  0.00     0.000 C 
ENDROOT
BRANCH   1   2
ATOM      2  C   UNL     1      -3.591   1.433   9.276  1.00  0.00     0.000 C 
BRANCH   2   3
ATOM      3  C   UNL     1      -4.761   2.424   9.437  1.00  0.00     0.000 C 
BRANCH   3   4
ATOM      4  C   UNL     1      -6.159   1.780   9.488  1.00  0.00     0.000 C 
BRANCH   4   5
ATOM      5  C   UNL     1      -7.294   2.798   9.307  1.00  0.00     0.000 C 
BRANCH   5   6
ATOM      6  C   UNL     1      -6.747   4.230   9.302  1.00  0.00     0.000 C 
BRANCH   6   7
ATOM      7  C   UNL     1      -7.890   5.257   9.338  1.00  0.00     0.000 C 
BRANCH   7   8
ATOM      8  C   UNL     1      -8.705   5.281   8.035  1.00  0.00     0.000 C 
BRANCH   8   9
ATOM      9  C   UNL     1      -9.737   6.420   8.000  1.00  0.00     0.000 C 
BRANCH   9  10
ATOM     10  C   UNL     1      -9.331   7.554   8.953  1.00  0.00     0.000 C 
BRANCH  10  11
ATOM     11  C   UNL     1      -9.649   8.949   8.393  1.00  0.00     0.000 C 
BRANCH  11  12
ATOM     12  C   UNL     1      -8.472   9.562   7.621  1.00  0.00     0.006 C 
BRANCH  12  13
ATOM     13  C   UNL     1      -8.905   9.996   6.217  1.00  0.00     0.053 C 
BRANCH  13  14
ATOM     14  C   UNL     1      -8.287   9.124   5.167  1.00  0.00     0.041 C 
ATOM     15  O   UNL     1      -8.305   9.477   3.959  1.00  0.00    -0.550 OA
ATOM     16  O   UNL     1      -7.722   7.903   5.518  1.00  0.00    -0.550 OA
ENDBRANCH  13  14
ENDBRANCH  12  13
ENDBRANCH  11  12
ENDBRANCH  10  11
ENDBRANCH   9  10
ENDBRANCH   8   9
ENDBRANCH   7   8
ENDBRANCH   6   7
ENDBRANCH   5   6
ENDBRANCH   4   5
ENDBRANCH   3   4
ENDBRANCH   2   3
ENDBRANCH   1   2
BRANCH   1  17
ATOM     17  C   UNL     1      -1.559   3.003   9.695  1.00  0.00     0.000 C 
BRANCH  17  18
ATOM     18  C   UNL     1      -1.554   4.480   9.267  1.00  0.00     0.000 C 
BRANCH  18  19
ATOM     19  C   UNL     1      -2.528   5.343  10.088  1.00  0.00     0.000 C 
BRANCH  19  20
ATOM     20  C   UNL     1      -3.647   5.951   9.225  1.00  0.00     0.000 C 
BRANCH  20  21
ATOM     21  C   UNL     1      -4.396   7.085   9.949  1.00  0.00     0.000 C 
BRANCH  21  22
ATOM     22  C   UNL     1      -5.340   7.859   9.014  1.00  0.00    -0.000 C 
BRANCH  22  23
ATOM     23  C   UNL     1      -4.952   9.341   8.871  1.00  0.00    -0.000 C 
BRANCH  23  24
ATOM     24  C   UNL     1      -3.770   9.732   9.786  1.00  0.00    -0.000 C 
BRANCH  24  25
ATOM     25  C   UNL     1      -2.455   9.985   9.026  1.00  0.00    -0.000 C 
BRANCH  25  26
ATOM     26  C   UNL     1      -1.311   9.013   9.371  1.00  0.00    -0.000 C 
BRANCH  26  27
ATOM     27  C   UNL     1      -0.275   8.799   8.248  1.00  0.00    -0.000 C 
BRANCH  27  28
ATOM     28  C   UNL     1       1.161   8.517   8.725  1.00  0.00    -0.000 C 
BRANCH  28  29
ATOM     29  C   UNL     1       2.225   8.939   7.703  1.00  0.00    -0.003 C 
ATOM     30  C   UNL     1       3.314   7.878   7.574  1.00  0.00     0.004 C 
ENDBRANCH  28  29
ENDBRANCH  27  28
ENDBRANCH  26  27
ENDBRANCH  25  26
ENDBRANCH  24  25
ENDBRANCH  23  24
ENDBRANCH  22  23
ENDBRANCH  21  22
ENDBRANCH  20  21
ENDBRANCH  19  20
ENDBRANCH  18  19
ENDBRANCH  17  18
ENDBRANCH   1  17
TORSDOF 26
ENDMDL
MODEL 3
REMARK VINA RESULT:    -3.243      3.169      8.678
REMARK INTER + INTRA:         -11.428
REMARK INTER:                  -8.880
REMARK INTRA:                  -2.548
REMARK UNBOUND:                -3.255
REMARK SMILES CCCCCCCCCCCCCCCCCCCCCCCCCCCC(=O)[O-]
REMARK SMILES IDX 15 1 16 2 17 3 18 4 19 5 20 6 21 7 22 8 23 9 24 10 25 11
REMARK SMILES IDX 26 12 27 13 28 14 29 15 30 16 14 17 13 18 12 19 11 20 10 21
REMARK SMILES IDX 9 22 8 23 7 24 6 25 5 26 4 27 3 28 2 29 1 30
REMARK H PARENT
REMARK Flexibility Score: inf
ROOT
ATOM      1  C   UNL     1      -3.992   1.685   9.084  1.00  0.00     0.000 C 
ENDROOT
BRANCH   1   2
ATOM      2  C   UNL     1      -4.865   0.441   9.344  1.00  0.00     0.000 C 
BRANCH   2   3
ATOM      3  C   UNL     1      -6.290   0.736   9.850  1.00  0.00     0.000 C 
BRANCH   3   4
ATOM      4  C   UNL     1      -7.423   0.286   8.909  1.00  0.00     0.000 C 
BRANCH   4   5
ATOM      5  C   UNL     1      -8.589   1.283   8.855  1.00  0.00     0.000 C 
BRANCH   5   6
ATOM      6  C   UNL     1      -8.187   2.627   9.474  1.00  0.00     0.000 C 
BRANCH   6   7
ATOM      7  C   UNL     1      -8.399   3.778   8.478  1.00  0.00     0.000 C 
BRANCH   7   8
ATOM      8  C   UNL     1      -8.987   5.034   9.141  1.00  0.00     0.000 C 
BRANCH   8   9
ATOM      9  C   UNL     1      -7.924   6.105   9.434  1.00  0.00     0.000 C 
BRANCH   9  10
ATOM     10  C   UNL     1      -8.496   7.514   9.216  1.00  0.00     0.000 C 
BRANCH  10  11
ATOM     11  C   UNL     1      -7.775   8.285   8.099  1.00  0.00     0.000 C 
BRANCH  11  12
ATOM     12  C   UNL     1      -6.890   7.381   7.228  1.00  0.00     0.006 C 
BRANCH  12  13
ATOM     13  C   UNL     1      -7.564   7.086   5.885  1.00  0.00     0.053 C 
BRANCH  13  14
ATOM     14  C   UNL     1      -8.211   8.315   5.324  1.00  0.00     0.041 C 
ATOM     15  O   UNL     1      -7.506   9.229   4.821  1.00  0.00    -0.550 OA
ATOM     16  O   UNL     1      -9.592   8.468   5.387  1.00  0.00    -0.550 OA
ENDBRANCH  13  14
ENDBRANCH  12  13
ENDBRANCH  11  12
ENDBRANCH  10  11
ENDBRANCH   9  10
ENDBRANCH   8   9
ENDBRANCH   7   8
ENDBRANCH   6   7
ENDBRANCH   5   6
ENDBRANCH   4   5
ENDBRANCH   3   4
ENDBRANCH   2   3
ENDBRANCH   1   2
BRANCH   1  17
ATOM     17  C   UNL     1      -4.420   2.954   9.850  1.00  0.00     0.000 C 
BRANCH  17  18
ATOM     18  C   UNL     1      -4.841   4.139   8.963  1.00  0.00     0.000 C 
BRANCH  18  19
ATOM     19  C   UNL     1      -3.949   5.377   9.157  1.00  0.00     0.000 C 
BRANCH  19  20
ATOM     20  C   UNL     1      -2.641   5.049   9.898  1.00  0.00     0.000 C 
BRANCH  20  21
ATOM     21  C   UNL     1      -1.420   5.046   8.960  1.00  0.00     0.000 C 
BRANCH  21  22
ATOM     22  C   UNL     1      -0.344   6.056   9.391  1.00  0.00    -0.000 C 
BRANCH  22  23
ATOM     23  C   UNL     1      -0.326   7.318   8.511  1.00  0.00    -0.000 C 
BRANCH  23  24
ATOM     24  C   UNL     1      -1.240   8.434   9.063  1.00  0.00    -0.000 C 
BRANCH  24  25
ATOM     25  C   UNL     1      -0.655   9.850   8.905  1.00  0.00    -0.000 C 
BRANCH  25  26
ATOM     26  C   UNL     1       0.787  10.015   9.422  1.00  0.00    -0.000 C 
BRANCH  26  27
ATOM     27  C   UNL     1       1.889   9.785   8.367  1.00  0.00    -0.000 C 
BRANCH  27  28
ATOM     28  C   UNL     1       3.305   9.575   8.932  1.00  0.00    -0.000 C 
BRANCH  28  29
ATOM     29  C   UNL     1       4.030   8.378   8.301  1.00  0.00    -0.003 C 
ATOM     30  C   UNL     1       5.505   8.692   8.064  1.00  0.00     0.004 C 
ENDBRANCH  28  29
ENDBRANCH  27  28
ENDBRANCH  26  27
ENDBRANCH  25  26
ENDBRANCH  24  25
ENDBRANCH  23  24
ENDBRANCH  22  23
ENDBRANCH  21  22
ENDBRANCH  20  21
ENDBRANCH  19  20
ENDBRANCH  18  19
ENDBRANCH  17  18
ENDBRANCH   1  17
TORSDOF 26
ENDMDL
MODEL 4
REMARK VINA RESULT:    -3.116      1.821      3.224
REMARK INTER + INTRA:         -11.106
REMARK INTER:                  -9.497
REMARK INTRA:                  -1.609
REMARK UNBOUND:                -3.255
REMARK SMILES CCCCCCCCCCCCCCCCCCCCCCCCCCCC(=O)[O-]
REMARK SMILES IDX 15 1 16 2 17 3 18 4 19 5 20 6 21 7 22 8 23 9 24 10 25 11
REMARK SMILES IDX 26 12 27 13 28 14 29 15 30 16 14 17 13 18 12 19 11 20 10 21
REMARK SMILES IDX 9 22 8 23 7 24 6 25 5 26 4 27 3 28 2 29 1 30
REMARK H PARENT
REMARK Flexibility Score: inf
ROOT
ATOM      1  C   UNL     1      -3.974   2.257   9.612  1.00  0.00     0.000 C 
ENDROOT
BRANCH   1   2
ATOM      2  C   UNL     1      -2.632   1.906   8.940  1.00  0.00     0.000 C 
BRANCH   2   3
ATOM      3  C   UNL     1      -1.471   2.869   9.254  1.00  0.00     0.000 C 
BRANCH   3   4
ATOM      4  C   UNL     1      -1.884   4.194   9.921  1.00  0.00     0.000 C 
BRANCH   4   5
ATOM      5  C   UNL     1      -1.696   5.410   9.003  1.00  0.00     0.000 C 
BRANCH   5   6
ATOM      6  C   UNL     1      -1.064   6.579   9.769  1.00  0.00     0.000 C 
BRANCH   6   7
ATOM      7  C   UNL     1      -1.703   7.916   9.361  1.00  0.00     0.000 C 
BRANCH   7   8
ATOM      8  C   UNL     1      -0.830   8.714   8.380  1.00  0.00     0.000 C 
BRANCH   8   9
ATOM      9  C   UNL     1      -0.333  10.043   8.970  1.00  0.00     0.000 C 
BRANCH   9  10
ATOM     10  C   UNL     1       1.174   9.981   9.259  1.00  0.00     0.000 C 
BRANCH  10  11
ATOM     11  C   UNL     1       1.989   9.450   8.070  1.00  0.00     0.000 C 
BRANCH  11  12
ATOM     12  C   UNL     1       3.214   8.633   8.506  1.00  0.00     0.006 C 
BRANCH  12  13
ATOM     13  C   UNL     1       4.514   9.359   8.142  1.00  0.00     0.053 C 
BRANCH  13  14
ATOM     14  C   UNL     1       5.706   8.647   8.704  1.00  0.00     0.041 C 
ATOM     15  O   UNL     1       6.803   8.662   8.086  1.00  0.00    -0.550 OA
ATOM     16  O   UNL     1       5.597   7.934   9.893  1.00  0.00    -0.550 OA
ENDBRANCH  13  14
ENDBRANCH  12  13
ENDBRANCH  11  12
ENDBRANCH  10  11
ENDBRANCH   9  10
ENDBRANCH   8   9
ENDBRANCH   7   8
ENDBRANCH   6   7
ENDBRANCH   5   6
ENDBRANCH   4   5
ENDBRANCH   3   4
ENDBRANCH   2   3
ENDBRANCH   1   2
BRANCH   1  17
ATOM     17  C   UNL     1      -4.791   1.047  10.111  1.00  0.00     0.000 C 
BRANCH  17  18
ATOM     18  C   UNL     1      -5.298   0.103   9.006  1.00  0.00     0.000 C 
BRANCH  18  19
ATOM     19  C   UNL     1      -6.833   0.067   8.911  1.00  0.00     0.000 C 
BRANCH  19  20
ATOM     20  C   UNL     1      -7.498   1.217   9.686  1.00  0.00     0.000 C 
BRANCH  20  21
ATOM     21  C   UNL     1      -8.233   2.202   8.759  1.00  0.00     0.000 C 
BRANCH  21  22
ATOM     22  C   UNL     1      -9.521   2.756   9.390  1.00  0.00    -0.000 C 
BRANCH  22  23
ATOM     23  C   UNL     1      -9.559   4.295   9.410  1.00  0.00    -0.000 C 
BRANCH  23  24
ATOM     24  C   UNL     1      -8.659   4.921   8.323  1.00  0.00    -0.000 C 
BRANCH  24  25
ATOM     25  C   UNL     1      -8.398   6.425   8.525  1.00  0.00    -0.000 C 
BRANCH  25  26
ATOM     26  C   UNL     1      -6.985   6.895   8.129  1.00  0.00    -0.000 C 
BRANCH  26  27
ATOM     27  C   UNL     1      -6.942   8.013   7.068  1.00  0.00    -0.000 C 
BRANCH  27  28
ATOM     28  C   UNL     1      -7.570   7.653   5.710  1.00  0.00    -0.000 C 
BRANCH  28  29
ATOM     29  C   UNL     1      -8.656   8.646   5.270  1.00  0.00    -0.003 C 
ATOM     30  C   UNL     1      -8.038   9.937   4.742  1.00  0.00     0.004 C 
ENDBRANCH  28  29
ENDBRANCH  27  28
ENDBRANCH  26  27
ENDBRANCH  25  26
ENDBRANCH  24  25
ENDBRANCH  23  24
ENDBRANCH  22  23
ENDBRANCH  21  22
ENDBRANCH  20  21
ENDBRANCH  19  20
ENDBRANCH  18  19
ENDBRANCH  17  18
ENDBRANCH   1  17
TORSDOF 26
ENDMDL
MODEL 5
REMARK VINA RESULT:    -2.872      1.234      2.897
REMARK INTER + INTRA:         -10.493
REMARK INTER:                  -8.129
REMARK INTRA:                  -2.363
REMARK UNBOUND:                -3.255
REMARK SMILES CCCCCCCCCCCCCCCCCCCCCCCCCCCC(=O)[O-]
REMARK SMILES IDX 15 1 16 2 17 3 18 4 19 5 20 6 21 7 22 8 23 9 24 10 25 11
REMARK SMILES IDX 26 12 27 13 28 14 29 15 30 16 14 17 13 18 12 19 11 20 10 21
REMARK SMILES IDX 9 22 8 23 7 24 6 25 5 26 4 27 3 28 2 29 1 30
REMARK H PARENT
REMARK Flexibility Score: inf
ROOT
ATOM      1  C   UNL     1      -3.695   1.501   9.008  1.00  0.00     0.000 C 
ENDROOT
BRANCH   1   2
ATOM      2  C   UNL     1      -3.815   2.704   9.964  1.00  0.00     0.000 C 
BRANCH   2   3
ATOM      3  C   UNL     1      -4.100   4.056   9.283  1.00  0.00     0.000 C 
BRANCH   3   4
ATOM      4  C   UNL     1      -3.335   5.257   9.868  1.00  0.00     0.000 C 
BRANCH   4   5
ATOM      5  C   UNL     1      -4.102   6.580   9.733  1.00  0.00     0.000 C 
BRANCH   5   6
ATOM      6  C   UNL     1      -3.134   7.760   9.581  1.00  0.00     0.000 C 
BRANCH   6   7
ATOM      7  C   UNL     1      -1.699   7.346   9.945  1.00  0.00     0.000 C 
BRANCH   7   8
ATOM      8  C   UNL     1      -0.644   8.032   9.063  1.00  0.00     0.000 C 
BRANCH   8   9
ATOM      9  C   UNL     1      -0.705   9.566   9.147  1.00  0.00     0.000 C 
BRANCH   9  10
ATOM     10  C   UNL     1       0.552  10.124   9.830  1.00  0.00     0.000 C 
BRANCH  10  11
ATOM     11  C   UNL     1       1.746   9.159   9.765  1.00  0.00     0.000 C 
BRANCH  11  12
ATOM     12  C   UNL     1       2.993   9.796   9.133  1.00  0.00     0.006 C 
BRANCH  12  13
ATOM     13  C   UNL     1       2.862   9.857   7.608  1.00  0.00     0.053 C 
BRANCH  13  14
ATOM     14  C   UNL     1       2.637   8.492   7.031  1.00  0.00     0.041 C 
ATOM     15  O   UNL     1       3.515   7.598   7.155  1.00  0.00    -0.550 OA
ATOM     16  O   UNL     1       1.471   8.217   6.325  1.00  0.00    -0.550 OA
ENDBRANCH  13  14
ENDBRANCH  12  13
ENDBRANCH  11  12
ENDBRANCH  10  11
ENDBRANCH   9  10
ENDBRANCH   8   9
ENDBRANCH   7   8
ENDBRANCH   6   7
ENDBRANCH   5   6
ENDBRANCH   4   5
ENDBRANCH   3   4
ENDBRANCH   2   3
ENDBRANCH   1   2
BRANCH   1  17
ATOM     17  C   UNL     1      -4.778   0.417   9.184  1.00  0.00     0.000 C 
BRANCH  17  18
ATOM     18  C   UNL     1      -6.045   0.877   9.927  1.00  0.00     0.000 C 
BRANCH  18  19
ATOM     19  C   UNL     1      -7.329   0.664   9.106  1.00  0.00     0.000 C 
BRANCH  19  20
ATOM     20  C   UNL     1      -8.473   1.590   9.552  1.00  0.00     0.000 C 
BRANCH  20  21
ATOM     21  C   UNL     1      -8.656   2.793   8.608  1.00  0.00     0.000 C 
BRANCH  21  22
ATOM     22  C   UNL     1      -7.755   3.980   8.985  1.00  0.00    -0.000 C 
BRANCH  22  23
ATOM     23  C   UNL     1      -8.543   5.289   9.170  1.00  0.00    -0.000 C 
BRANCH  23  24
ATOM     24  C   UNL     1      -8.077   6.399   8.203  1.00  0.00    -0.000 C 
BRANCH  24  25
ATOM     25  C   UNL     1      -8.618   6.240   6.771  1.00  0.00    -0.000 C 
BRANCH  25  26
ATOM     26  C   UNL     1      -8.612   7.531   5.930  1.00  0.00    -0.000 C 
BRANCH  26  27
ATOM     27  C   UNL     1      -8.376   8.829   6.729  1.00  0.00    -0.000 C 
BRANCH  27  28
ATOM     28  C   UNL     1      -6.918   9.323   6.762  1.00  0.00    -0.000 C 
BRANCH  28  29
ATOM     29  C   UNL     1      -6.295   9.254   8.163  1.00  0.00    -0.003 C 
ATOM     30  C   UNL     1      -7.346   9.493   9.244  1.00  0.00     0.004 C 
ENDBRANCH  28  29
ENDBRANCH  27  28
ENDBRANCH  26  27
ENDBRANCH  25  26
ENDBRANCH  24  25
ENDBRANCH  23  24
ENDBRANCH  22  23
ENDBRANCH  21  22
ENDBRANCH  20  21
ENDBRANCH  19  20
ENDBRANCH  18  19
ENDBRANCH  17  18
ENDBRANCH   1  17
TORSDOF 26
ENDMDL
MODEL 6
REMARK VINA RESULT:    -2.791      4.137     10.261
REMARK INTER + INTRA:         -10.289
REMARK INTER:                  -8.171
REMARK INTRA:                  -2.119
REMARK UNBOUND:                -3.255
REMARK SMILES CCCCCCCCCCCCCCCCCCCCCCCCCCCC(=O)[O-]
REMARK SMILES IDX 15 1 16 2 17 3 18 4 19 5 20 6 21 7 22 8 23 9 24 10 25 11
REMARK SMILES IDX 26 12 27 13 28 14 29 15 30 16 14 17 13 18 12 19 11 20 10 21
REMARK SMILES IDX 9 22 8 23 7 24 6 25 5 26 4 27 3 28 2 29 1 30
REMARK H PARENT
REMARK Flexibility Score: inf
ROOT
ATOM      1  C   UNL     1      -2.368   2.553   9.011  1.00  0.00     0.000 C 
ENDROOT
BRANCH   1   2
ATOM      2  C   UNL     1      -3.416   1.695   9.748  1.00  0.00     0.000 C 
BRANCH   2   3
ATOM      3  C   UNL     1      -4.765   2.393  10.011  1.00  0.00     0.000 C 
BRANCH   3   4
ATOM      4  C   UNL     1      -5.161   3.459   8.973  1.00  0.00     0.000 C 
BRANCH   4   5
ATOM      5  C   UNL     1      -6.050   4.565   9.560  1.00  0.00     0.000 C 
BRANCH   5   6
ATOM      6  C   UNL     1      -5.290   5.895   9.635  1.00  0.00     0.000 C 
BRANCH   6   7
ATOM      7  C   UNL     1      -5.711   6.835   8.494  1.00  0.00     0.000 C 
BRANCH   7   8
ATOM      8  C   UNL     1      -7.223   7.110   8.481  1.00  0.00     0.000 C 
BRANCH   8   9
ATOM      9  C   UNL     1      -7.779   7.305   7.062  1.00  0.00     0.000 C 
BRANCH   9  10
ATOM     10  C   UNL     1      -9.315   7.274   7.070  1.00  0.00     0.000 C 
BRANCH  10  11
ATOM     11  C   UNL     1      -9.890   6.003   6.426  1.00  0.00     0.000 C 
BRANCH  11  12
ATOM     12  C   UNL     1      -9.624   4.741   7.261  1.00  0.00     0.006 C 
BRANCH  12  13
ATOM     13  C   UNL     1     -10.054   3.482   6.501  1.00  0.00     0.053 C 
BRANCH  13  14
ATOM     14  C   UNL     1      -9.719   2.244   7.275  1.00  0.00     0.041 C 
ATOM     15  O   UNL     1     -10.048   1.111   6.833  1.00  0.00    -0.550 OA
ATOM     16  O   UNL     1      -9.073   2.341   8.502  1.00  0.00    -0.550 OA
ENDBRANCH  13  14
ENDBRANCH  12  13
ENDBRANCH  11  12
ENDBRANCH  10  11
ENDBRANCH   9  10
ENDBRANCH   8   9
ENDBRANCH   7   8
ENDBRANCH   6   7
ENDBRANCH   5   6
ENDBRANCH   4   5
ENDBRANCH   3   4
ENDBRANCH   2   3
ENDBRANCH   1   2
BRANCH   1  17
ATOM     17  C   UNL     1      -1.213   3.073   9.893  1.00  0.00     0.000 C 
BRANCH  17  18
ATOM     18  C   UNL     1      -1.162   4.601  10.065  1.00  0.00     0.000 C 
BRANCH  18  19
ATOM     19  C   UNL     1      -1.527   5.359   8.777  1.00  0.00     0.000 C 
BRANCH  19  20
ATOM     20  C   UNL     1      -0.778   6.697   8.650  1.00  0.00     0.000 C 
BRANCH  20  21
ATOM     21  C   UNL     1       0.151   6.966   9.848  1.00  0.00     0.000 C 
BRANCH  21  22
ATOM     22  C   UNL     1       1.178   8.073   9.561  1.00  0.00    -0.000 C 
BRANCH  22  23
ATOM     23  C   UNL     1       2.597   7.522   9.334  1.00  0.00    -0.000 C 
BRANCH  23  24
ATOM     24  C   UNL     1       3.019   7.575   7.849  1.00  0.00    -0.000 C 
BRANCH  24  25
ATOM     25  C   UNL     1       3.123   9.003   7.285  1.00  0.00    -0.000 C 
BRANCH  25  26
ATOM     26  C   UNL     1       3.811  10.019   8.217  1.00  0.00    -0.000 C 
BRANCH  26  27
ATOM     27  C   UNL     1       5.341  10.125   8.050  1.00  0.00    -0.000 C 
BRANCH  27  28
ATOM     28  C   UNL     1       6.151   8.976   8.677  1.00  0.00    -0.000 C 
BRANCH  28  29
ATOM     29  C   UNL     1       7.255   9.468   9.623  1.00  0.00    -0.003 C 
ATOM     30  C   UNL     1       8.592   8.808   9.297  1.00  0.00     0.004 C 
ENDBRANCH  28  29
ENDBRANCH  27  28
ENDBRANCH  26  27
ENDBRANCH  25  26
ENDBRANCH  24  25
ENDBRANCH  23  24
ENDBRANCH  22  23
ENDBRANCH  21  22
ENDBRANCH  20  21
ENDBRANCH  19  20
ENDBRANCH  18  19
ENDBRANCH  17  18
ENDBRANCH   1  17
TORSDOF 26
ENDMDL
MODEL 7
REMARK VINA RESULT:    -2.681      1.640      3.356
REMARK INTER + INTRA:         -10.011
REMARK INTER:                  -8.721
REMARK INTRA:                  -1.291
REMARK UNBOUND:                -3.255
REMARK SMILES CCCCCCCCCCCCCCCCCCCCCCCCCCCC(=O)[O-]
REMARK SMILES IDX 15 1 16 2 17 3 18 4 19 5 20 6 21 7 22 8 23 9 24 10 25 11
REMARK SMILES IDX 26 12 27 13 28 14 29 15 30 16 14 17 13 18 12 19 11 20 10 21
REMARK SMILES IDX 9 22 8 23 7 24 6 25 5 26 4 27 3 28 2 29 1 30
REMARK H PARENT
REMARK Flexibility Score: inf
ROOT
ATOM      1  C   UNL     1      -3.632   1.422   8.702  1.00  0.00     0.000 C 
ENDROOT
BRANCH   1   2
ATOM      2  C   UNL     1      -3.007   2.413   9.704  1.00  0.00     0.000 C 
BRANCH   2   3
ATOM      3  C   UNL     1      -3.252   3.902   9.391  1.00  0.00     0.000 C 
BRANCH   3   4
ATOM      4  C   UNL     1      -2.308   4.883  10.110  1.00  0.00     0.000 C 
BRANCH   4   5
ATOM      5  C   UNL     1      -1.151   5.362   9.221  1.00  0.00     0.000 C 
BRANCH   5   6
ATOM      6  C   UNL     1      -0.636   6.730   9.686  1.00  0.00     0.000 C 
BRANCH   6   7
ATOM      7  C   UNL     1      -0.344   7.645   8.486  1.00  0.00     0.000 C 
BRANCH   7   8
ATOM      8  C   UNL     1      -1.005   9.026   8.620  1.00  0.00     0.000 C 
BRANCH   8   9
ATOM      9  C   UNL     1      -0.011  10.125   9.027  1.00  0.00     0.000 C 
BRANCH   9  10
ATOM     10  C   UNL     1       1.375   9.528   9.311  1.00  0.00     0.000 C 
BRANCH  10  11
ATOM     11  C   UNL     1       2.444   9.997   8.311  1.00  0.00     0.000 C 
BRANCH  11  12
ATOM     12  C   UNL     1       2.773   8.935   7.251  1.00  0.00     0.006 C 
BRANCH  12  13
ATOM     13  C   UNL     1       3.759   7.899   7.803  1.00  0.00     0.053 C 
BRANCH  13  14
ATOM     14  C   UNL     1       4.920   8.564   8.477  1.00  0.00     0.041 C 
ATOM     15  O   UNL     1       5.471   9.566   7.950  1.00  0.00    -0.550 OA
ATOM     16  O   UNL     1       5.418   8.056   9.672  1.00  0.00    -0.550 OA
ENDBRANCH  13  14
ENDBRANCH  12  13
ENDBRANCH  11  12
ENDBRANCH  10  11
ENDBRANCH   9  10
ENDBRANCH   8   9
ENDBRANCH   7   8
ENDBRANCH   6   7
ENDBRANCH   5   6
ENDBRANCH   4   5
ENDBRANCH   3   4
ENDBRANCH   2   3
ENDBRANCH   1   2
BRANCH   1  17
ATOM     17  C   UNL     1      -4.445   0.275   9.339  1.00  0.00     0.000 C 
BRANCH  17  18
ATOM     18  C   UNL     1      -5.961   0.524   9.431  1.00  0.00     0.000 C 
BRANCH  18  19
ATOM     19  C   UNL     1      -6.306   1.987   9.760  1.00  0.00     0.000 C 
BRANCH  19  20
ATOM     20  C   UNL     1      -7.822   2.221   9.874  1.00  0.00     0.000 C 
BRANCH  20  21
ATOM     21  C   UNL     1      -8.386   3.008   8.676  1.00  0.00     0.000 C 
BRANCH  21  22
ATOM     22  C   UNL     1      -8.665   4.481   9.018  1.00  0.00    -0.000 C 
BRANCH  22  23
ATOM     23  C   UNL     1      -7.470   5.170   9.701  1.00  0.00    -0.000 C 
BRANCH  23  24
ATOM     24  C   UNL     1      -6.702   6.106   8.743  1.00  0.00    -0.000 C 
BRANCH  24  25
ATOM     25  C   UNL     1      -7.325   7.509   8.615  1.00  0.00    -0.000 C 
BRANCH  25  26
ATOM     26  C   UNL     1      -6.537   8.488   7.724  1.00  0.00    -0.000 C 
BRANCH  26  27
ATOM     27  C   UNL     1      -7.392   9.561   7.019  1.00  0.00    -0.000 C 
BRANCH  27  28
ATOM     28  C   UNL     1      -7.349   9.529   5.481  1.00  0.00    -0.000 C 
BRANCH  28  29
ATOM     29  C   UNL     1      -8.738   9.380   4.846  1.00  0.00    -0.003 C 
ATOM     30  C   UNL     1      -9.602   8.402   5.638  1.00  0.00     0.004 C 
ENDBRANCH  28  29
ENDBRANCH  27  28
ENDBRANCH  26  27
ENDBRANCH  25  26
ENDBRANCH  24  25
ENDBRANCH  23  24
ENDBRANCH  22  23
ENDBRANCH  21  22
ENDBRANCH  20  21
ENDBRANCH  19  20
ENDBRANCH  18  19
ENDBRANCH  17  18
ENDBRANCH   1  17
TORSDOF 26
ENDMDL
MODEL 8
REMARK VINA RESULT:    -2.634      3.257      5.453
REMARK INTER + INTRA:          -9.894
REMARK INTER:                  -6.727
REMARK INTRA:                  -3.167
REMARK UNBOUND:                -3.255
REMARK SMILES CCCCCCCCCCCCCCCCCCCCCCCCCCCC(=O)[O-]
REMARK SMILES IDX 15 1 16 2 17 3 18 4 19 5 20 6 21 7 22 8 23 9 24 10 25 11
REMARK SMILES IDX 26 12 27 13 28 14 29 15 30 16 14 17 13 18 12 19 11 20 10 21
REMARK SMILES IDX 9 22 8 23 7 24 6 25 5 26 4 27 3 28 2 29 1 30
REMARK H PARENT
REMARK Flexibility Score: inf
ROOT
ATOM      1  C   UNL     1      -2.731   2.223   9.171  1.00  0.00     0.000 C 
ENDROOT
BRANCH   1   2
ATOM      2  C   UNL     1      -1.581   2.951   9.895  1.00  0.00     0.000 C 
BRANCH   2   3
ATOM      3  C   UNL     1      -0.843   4.009   9.053  1.00  0.00     0.000 C 
BRANCH   3   4
ATOM      4  C   UNL     1      -1.010   5.461   9.537  1.00  0.00     0.000 C 
BRANCH   4   5
ATOM      5  C   UNL     1      -0.363   6.486   8.594  1.00  0.00     0.000 C 
BRANCH   5   6
ATOM      6  C   UNL     1      -1.135   7.811   8.615  1.00  0.00     0.000 C 
BRANCH   6   7
ATOM      7  C   UNL     1      -2.035   7.905   9.857  1.00  0.00     0.000 C 
BRANCH   7   8
ATOM      8  C   UNL     1      -2.525   9.337  10.125  1.00  0.00     0.000 C 
BRANCH   8   9
ATOM      9  C   UNL     1      -3.415   9.882   8.996  1.00  0.00     0.000 C 
BRANCH   9  10
ATOM     10  C   UNL     1      -4.865   9.406   9.167  1.00  0.00     0.000 C 
BRANCH  10  11
ATOM     11  C   UNL     1      -5.745   9.721   7.947  1.00  0.00     0.000 C 
BRANCH  11  12
ATOM     12  C   UNL     1      -7.006   8.846   7.882  1.00  0.00     0.006 C 
BRANCH  12  13
ATOM     13  C   UNL     1      -6.827   7.704   6.876  1.00  0.00     0.053 C 
BRANCH  13  14
ATOM     14  C   UNL     1      -7.886   7.746   5.817  1.00  0.00     0.041 C 
ATOM     15  O   UNL     1      -7.802   8.571   4.870  1.00  0.00    -0.550 OA
ATOM     16  O   UNL     1      -8.986   6.899   5.895  1.00  0.00    -0.550 OA
ENDBRANCH  13  14
ENDBRANCH  12  13
ENDBRANCH  11  12
ENDBRANCH  10  11
ENDBRANCH   9  10
ENDBRANCH   8   9
ENDBRANCH   7   8
ENDBRANCH   6   7
ENDBRANCH   5   6
ENDBRANCH   4   5
ENDBRANCH   3   4
ENDBRANCH   2   3
ENDBRANCH   1   2
BRANCH   1  17
ATOM     17  C   UNL     1      -3.755   1.536  10.099  1.00  0.00     0.000 C 
BRANCH  17  18
ATOM     18  C   UNL     1      -4.650   0.486   9.417  1.00  0.00     0.000 C 
BRANCH  18  19
ATOM     19  C   UNL     1      -6.149   0.802   9.553  1.00  0.00     0.000 C 
BRANCH  19  20
ATOM     20  C   UNL     1      -7.039  -0.394   9.175  1.00  0.00     0.000 C 
BRANCH  20  21
ATOM     21  C   UNL     1      -8.366  -0.409   9.956  1.00  0.00     0.000 C 
BRANCH  21  22
ATOM     22  C   UNL     1      -9.494   0.327   9.215  1.00  0.00    -0.000 C 
BRANCH  22  23
ATOM     23  C   UNL     1      -8.981   1.164   8.030  1.00  0.00    -0.000 C 
BRANCH  23  24
ATOM     24  C   UNL     1      -9.970   2.276   7.621  1.00  0.00    -0.000 C 
BRANCH  24  25
ATOM     25  C   UNL     1      -9.716   3.622   8.324  1.00  0.00    -0.000 C 
BRANCH  25  26
ATOM     26  C   UNL     1      -8.587   3.601   9.373  1.00  0.00    -0.000 C 
BRANCH  26  27
ATOM     27  C   UNL     1      -7.630   4.810   9.325  1.00  0.00    -0.000 C 
BRANCH  27  28
ATOM     28  C   UNL     1      -6.247   4.576   9.958  1.00  0.00    -0.000 C 
BRANCH  28  29
ATOM     29  C   UNL     1      -5.232   5.671   9.600  1.00  0.00    -0.003 C 
ATOM     30  C   UNL     1      -4.486   5.329   8.313  1.00  0.00     0.004 C 
ENDBRANCH  28  29
ENDBRANCH  27  28
ENDBRANCH  26  27
ENDBRANCH  25  26
ENDBRANCH  24  25
ENDBRANCH  23  24
ENDBRANCH  22  23
ENDBRANCH  21  22
ENDBRANCH  20  21
ENDBRANCH  19  20
ENDBRANCH  18  19
ENDBRANCH  17  18
ENDBRANCH   1  17
TORSDOF 26
ENDMDL
MODEL 9
REMARK VINA RESULT:    -2.586      2.860      9.293
REMARK INTER + INTRA:          -9.770
REMARK INTER:                  -7.428
REMARK INTRA:                  -2.342
REMARK UNBOUND:                -3.255
REMARK SMILES CCCCCCCCCCCCCCCCCCCCCCCCCCCC(=O)[O-]
REMARK SMILES IDX 15 1 16 2 17 3 18 4 19 5 20 6 21 7 22 8 23 9 24 10 25 11
REMARK SMILES IDX 26 12 27 13 28 14 29 15 30 16 14 17 13 18 12 19 11 20 10 21
REMARK SMILES IDX 9 22 8 23 7 24 6 25 5 26 4 27 3 28 2 29 1 30
REMARK H PARENT
REMARK Flexibility Score: inf
ROOT
ATOM      1  C   UNL     1      -2.859   1.898   8.993  1.00  0.00     0.000 C 
ENDROOT
BRANCH   1   2
ATOM      2  C   UNL     1      -3.748   1.345  10.125  1.00  0.00     0.000 C 
BRANCH   2   3
ATOM      3  C   UNL     1      -5.264   1.502   9.902  1.00  0.00     0.000 C 
BRANCH   3   4
ATOM      4  C   UNL     1      -5.810   2.927  10.106  1.00  0.00     0.000 C 
BRANCH   4   5
ATOM      5  C   UNL     1      -6.812   3.346   9.020  1.00  0.00     0.000 C 
BRANCH   5   6
ATOM      6  C   UNL     1      -8.212   2.801   9.329  1.00  0.00     0.000 C 
BRANCH   6   7
ATOM      7  C   UNL     1      -9.145   2.960   8.119  1.00  0.00     0.000 C 
BRANCH   7   8
ATOM      8  C   UNL     1      -9.918   4.288   8.138  1.00  0.00     0.000 C 
BRANCH   8   9
ATOM      9  C   UNL     1      -9.862   4.990   9.505  1.00  0.00     0.000 C 
BRANCH   9  10
ATOM     10  C   UNL     1      -9.724   6.509   9.332  1.00  0.00     0.000 C 
BRANCH  10  11
ATOM     11  C   UNL     1      -8.737   6.897   8.220  1.00  0.00     0.000 C 
BRANCH  11  12
ATOM     12  C   UNL     1      -7.270   6.800   8.667  1.00  0.00     0.006 C 
BRANCH  12  13
ATOM     13  C   UNL     1      -6.373   7.683   7.792  1.00  0.00     0.053 C 
BRANCH  13  14
ATOM     14  C   UNL     1      -6.087   8.992   8.462  1.00  0.00     0.041 C 
ATOM     15  O   UNL     1      -5.184   9.075   9.335  1.00  0.00    -0.550 OA
ATOM     16  O   UNL     1      -6.842  10.117   8.147  1.00  0.00    -0.550 OA
ENDBRANCH  13  14
ENDBRANCH  12  13
ENDBRANCH  11  12
ENDBRANCH  10  11
ENDBRANCH   9  10
ENDBRANCH   8   9
ENDBRANCH   7   8
ENDBRANCH   6   7
ENDBRANCH   5   6
ENDBRANCH   4   5
ENDBRANCH   3   4
ENDBRANCH   2   3
ENDBRANCH   1   2
BRANCH   1  17
ATOM     17  C   UNL     1      -1.846   2.978   9.427  1.00  0.00     0.000 C 
BRANCH  17  18
ATOM     18  C   UNL     1      -2.443   4.379   9.649  1.00  0.00     0.000 C 
BRANCH  18  19
ATOM     19  C   UNL     1      -1.678   5.479   8.892  1.00  0.00     0.000 C 
BRANCH  19  20
ATOM     20  C   UNL     1      -0.850   6.372   9.831  1.00  0.00     0.000 C 
BRANCH  20  21
ATOM     21  C   UNL     1       0.626   5.938   9.903  1.00  0.00     0.000 C 
BRANCH  21  22
ATOM     22  C   UNL     1       1.570   6.943   9.223  1.00  0.00    -0.000 C 
BRANCH  22  23
ATOM     23  C   UNL     1       0.835   7.888   8.256  1.00  0.00    -0.000 C 
BRANCH  23  24
ATOM     24  C   UNL     1       1.064   9.376   8.599  1.00  0.00    -0.000 C 
BRANCH  24  25
ATOM     25  C   UNL     1       1.954   9.598   9.836  1.00  0.00    -0.000 C 
BRANCH  25  26
ATOM     26  C   UNL     1       3.370  10.121   9.529  1.00  0.00    -0.000 C 
BRANCH  26  27
ATOM     27  C   UNL     1       3.754  10.125   8.035  1.00  0.00    -0.000 C 
BRANCH  27  28
ATOM     28  C   UNL     1       5.246   9.886   7.740  1.00  0.00    -0.000 C 
BRANCH  28  29
ATOM     29  C   UNL     1       5.921   8.974   8.774  1.00  0.00    -0.003 C 
ATOM     30  C   UNL     1       6.995   9.728   9.554  1.00  0.00     0.004 C 
ENDBRANCH  28  29
ENDBRANCH  27  28
ENDBRANCH  26  27
ENDBRANCH  25  26
ENDBRANCH  24  25
ENDBRANCH  23  24
ENDBRANCH  22  23
ENDBRANCH  21  22
ENDBRANCH  20  21
ENDBRANCH  19  20
ENDBRANCH  18  19
ENDBRANCH  17  18
ENDBRANCH   1  17
TORSDOF 26
ENDMDL
