MODEL 1
REMARK VINA RESULT:    -6.039      0.000      0.000
REMARK INTER + INTRA:         -12.335
REMARK INTER:                 -10.981
REMARK INTRA:                  -1.354
REMARK UNBOUND:                -1.354
REMARK SMILES CCCCCC=CCC=CCCCCCCCC(=O)[O-]
REMARK SMILES IDX 11 1 12 2 13 3 14 4 15 5 16 6 17 7 18 8 19 9 20 10 10 11
REMARK SMILES IDX 9 12 8 13 7 14 6 15 5 16 4 17 3 18 2 19 1 20
REMARK H PARENT
REMARK Flexibility Score: inf
ROOT
ATOM      1  C   UNL     1      -8.633 -64.698 -33.284  1.00  0.00     0.027 C 
ENDROOT
BRANCH   1   2
ATOM      2  C   UNL     1      -8.007 -63.736 -34.304  1.00  0.00     0.004 C 
BRANCH   2   3
ATOM      3  C   UNL     1      -8.875 -63.559 -35.560  1.00  0.00     0.000 C 
BRANCH   3   4
ATOM      4  C   UNL     1      -8.051 -63.175 -36.799  1.00  0.00     0.000 C 
BRANCH   4   5
ATOM      5  C   UNL     1      -6.764 -62.442 -36.395  1.00  0.00     0.000 C 
BRANCH   5   6
ATOM      6  C   UNL     1      -5.503 -63.051 -37.035  1.00  0.00     0.006 C 
BRANCH   6   7
ATOM      7  C   UNL     1      -5.509 -64.586 -37.107  1.00  0.00     0.053 C 
BRANCH   7   8
ATOM      8  C   UNL     1      -5.166 -65.086 -38.477  1.00  0.00     0.041 C 
ATOM      9  O   UNL     1      -3.991 -64.978 -38.915  1.00  0.00    -0.550 OA
ATOM     10  O   UNL     1      -6.153 -65.642 -39.281  1.00  0.00    -0.550 OA
ENDBRANCH   7   8
ENDBRANCH   6   7
ENDBRANCH   5   6
ENDBRANCH   4   5
ENDBRANCH   3   4
ENDBRANCH   2   3
ENDBRANCH   1   2
BRANCH   1  11
ATOM     11  C   UNL     1      -9.911 -65.290 -33.811  1.00  0.00    -0.031 C 
ATOM     12  C   UNL     1     -10.629 -66.164 -33.090  1.00  0.00    -0.027 C 
BRANCH  12  13
ATOM     13  C   UNL     1     -11.912 -66.749 -33.611  1.00  0.00     0.054 C 
BRANCH  13  14
ATOM     14  C   UNL     1     -11.783 -67.142 -35.062  1.00  0.00    -0.027 C 
ATOM     15  C   UNL     1     -12.790 -67.623 -35.815  1.00  0.00    -0.031 C 
BRANCH  15  16
ATOM     16  C   UNL     1     -14.181 -67.910 -35.305  1.00  0.00     0.027 C 
BRANCH  16  17
ATOM     17  C   UNL     1     -15.232 -67.004 -35.965  1.00  0.00     0.004 C 
BRANCH  17  18
ATOM     18  C   UNL     1     -16.043 -66.210 -34.928  1.00  0.00     0.000 C 
BRANCH  18  19
ATOM     19  C   UNL     1     -15.782 -66.681 -33.489  1.00  0.00    -0.003 C 
ATOM     20  C   UNL     1     -16.961 -67.454 -32.897  1.00  0.00     0.004 C 
ENDBRANCH  18  19
ENDBRANCH  17  18
ENDBRANCH  16  17
ENDBRANCH  15  16
ENDBRANCH  13  14
ENDBRANCH  12  13
ENDBRANCH   1  11
TORSDOF 14
ENDMDL
MODEL 2
REMARK VINA RESULT:    -5.885      7.362      9.596
REMARK INTER + INTRA:         -12.056
REMARK INTER:                 -11.071
REMARK INTRA:                  -0.985
REMARK UNBOUND:                -1.354
REMARK SMILES CCCCCC=CCC=CCCCCCCCC(=O)[O-]
REMARK SMILES IDX 11 1 12 2 13 3 14 4 15 5 16 6 17 7 18 8 19 9 20 10 10 11
REMARK SMILES IDX 9 12 8 13 7 14 6 15 5 16 4 17 3 18 2 19 1 20
REMARK H PARENT
REMARK Flexibility Score: inf
ROOT
ATOM      1  C   UNL     1      -9.767 -68.178 -29.585  1.00  0.00     0.027 C 
ENDROOT
BRANCH   1   2
ATOM      2  C   UNL     1      -8.606 -67.599 -30.407  1.00  0.00     0.004 C 
BRANCH   2   3
ATOM      3  C   UNL     1      -9.086 -66.830 -31.648  1.00  0.00     0.000 C 
BRANCH   3   4
ATOM      4  C   UNL     1     -10.530 -67.182 -32.041  1.00  0.00     0.000 C 
BRANCH   4   5
ATOM      5  C   UNL     1     -11.100 -66.144 -33.018  1.00  0.00     0.000 C 
BRANCH   5   6
ATOM      6  C   UNL     1     -12.613 -66.312 -33.254  1.00  0.00     0.006 C 
BRANCH   6   7
ATOM      7  C   UNL     1     -13.495 -65.723 -32.142  1.00  0.00     0.053 C 
BRANCH   7   8
ATOM      8  C   UNL     1     -14.942 -66.064 -32.333  1.00  0.00     0.041 C 
ATOM      9  O   UNL     1     -15.727 -66.065 -31.349  1.00  0.00    -0.550 OA
ATOM     10  O   UNL     1     -15.414 -66.412 -33.592  1.00  0.00    -0.550 OA
ENDBRANCH   7   8
ENDBRANCH   6   7
ENDBRANCH   5   6
ENDBRANCH   4   5
ENDBRANCH   3   4
ENDBRANCH   2   3
ENDBRANCH   1   2
BRANCH   1  11
ATOM     11  C   UNL     1      -9.475 -68.107 -28.111  1.00  0.00    -0.031 C 
ATOM     12  C   UNL     1     -10.314 -68.632 -27.205  1.00  0.00    -0.027 C 
BRANCH  12  13
ATOM     13  C   UNL     1     -10.018 -68.571 -25.732  1.00  0.00     0.054 C 
BRANCH  13  14
ATOM     14  C   UNL     1      -9.181 -67.362 -25.392  1.00  0.00    -0.027 C 
ATOM     15  C   UNL     1      -9.565 -66.378 -24.559  1.00  0.00    -0.031 C 
BRANCH  15  16
ATOM     16  C   UNL     1     -10.918 -66.295 -23.896  1.00  0.00     0.027 C 
BRANCH  16  17
ATOM     17  C   UNL     1     -11.895 -65.418 -24.694  1.00  0.00     0.004 C 
BRANCH  17  18
ATOM     18  C   UNL     1     -13.296 -65.387 -24.060  1.00  0.00     0.000 C 
BRANCH  18  19
ATOM     19  C   UNL     1     -13.482 -66.476 -22.991  1.00  0.00    -0.003 C 
ATOM     20  C   UNL     1     -13.827 -65.902 -21.617  1.00  0.00     0.004 C 
ENDBRANCH  18  19
ENDBRANCH  17  18
ENDBRANCH  16  17
ENDBRANCH  15  16
ENDBRANCH  13  14
ENDBRANCH  12  13
ENDBRANCH   1  11
TORSDOF 14
ENDMDL
MODEL 3
REMARK VINA RESULT:    -5.823      6.634      9.043
REMARK INTER + INTRA:         -11.943
REMARK INTER:                 -11.150
REMARK INTRA:                  -0.793
REMARK UNBOUND:                -1.354
REMARK SMILES CCCCCC=CCC=CCCCCCCCC(=O)[O-]
REMARK SMILES IDX 11 1 12 2 13 3 14 4 15 5 16 6 17 7 18 8 19 9 20 10 10 11
REMARK SMILES IDX 9 12 8 13 7 14 6 15 5 16 4 17 3 18 2 19 1 20
REMARK H PARENT
REMARK Flexibility Score: inf
ROOT
ATOM      1  C   UNL     1      -9.441 -67.449 -31.117  1.00  0.00     0.027 C 
ENDROOT
BRANCH   1   2
ATOM      2  C   UNL     1     -10.861 -67.252 -31.666  1.00  0.00     0.004 C 
BRANCH   2   3
ATOM      3  C   UNL     1     -10.887 -66.415 -32.955  1.00  0.00     0.000 C 
BRANCH   3   4
ATOM      4  C   UNL     1     -12.189 -66.594 -33.751  1.00  0.00     0.000 C 
BRANCH   4   5
ATOM      5  C   UNL     1     -11.919 -67.297 -35.089  1.00  0.00     0.000 C 
BRANCH   5   6
ATOM      6  C   UNL     1     -13.211 -67.645 -35.852  1.00  0.00     0.006 C 
BRANCH   6   7
ATOM      7  C   UNL     1     -14.502 -67.407 -35.052  1.00  0.00     0.053 C 
BRANCH   7   8
ATOM      8  C   UNL     1     -15.551 -66.718 -35.870  1.00  0.00     0.041 C 
ATOM      9  O   UNL     1     -15.568 -66.852 -37.121  1.00  0.00    -0.550 OA
ATOM     10  O   UNL     1     -16.490 -65.903 -35.251  1.00  0.00    -0.550 OA
ENDBRANCH   7   8
ENDBRANCH   6   7
ENDBRANCH   5   6
ENDBRANCH   4   5
ENDBRANCH   3   4
ENDBRANCH   2   3
ENDBRANCH   1   2
BRANCH   1  11
ATOM     11  C   UNL     1      -9.471 -68.063 -29.744  1.00  0.00    -0.031 C 
ATOM     12  C   UNL     1      -8.746 -67.558 -28.734  1.00  0.00    -0.027 C 
BRANCH  12  13
ATOM     13  C   UNL     1      -8.783 -68.165 -27.359  1.00  0.00     0.054 C 
BRANCH  13  14
ATOM     14  C   UNL     1     -10.197 -68.479 -26.939  1.00  0.00    -0.027 C 
ATOM     15  C   UNL     1     -10.818 -67.928 -25.880  1.00  0.00    -0.031 C 
BRANCH  15  16
ATOM     16  C   UNL     1     -10.172 -66.969 -24.910  1.00  0.00     0.027 C 
BRANCH  16  17
ATOM     17  C   UNL     1     -11.200 -66.334 -23.961  1.00  0.00     0.004 C 
BRANCH  17  18
ATOM     18  C   UNL     1     -12.644 -66.712 -24.336  1.00  0.00     0.000 C 
BRANCH  18  19
ATOM     19  C   UNL     1     -13.485 -67.106 -23.113  1.00  0.00    -0.003 C 
ATOM     20  C   UNL     1     -13.356 -66.109 -21.960  1.00  0.00     0.004 C 
ENDBRANCH  18  19
ENDBRANCH  17  18
ENDBRANCH  16  17
ENDBRANCH  15  16
ENDBRANCH  13  14
ENDBRANCH  12  13
ENDBRANCH   1  11
TORSDOF 14
ENDMDL
MODEL 4
REMARK VINA RESULT:    -5.787      7.096      9.494
REMARK INTER + INTRA:         -11.878
REMARK INTER:                 -10.869
REMARK INTRA:                  -1.008
REMARK UNBOUND:                -1.354
REMARK SMILES CCCCCC=CCC=CCCCCCCCC(=O)[O-]
REMARK SMILES IDX 11 1 12 2 13 3 14 4 15 5 16 6 17 7 18 8 19 9 20 10 10 11
REMARK SMILES IDX 9 12 8 13 7 14 6 15 5 16 4 17 3 18 2 19 1 20
REMARK H PARENT
REMARK Flexibility Score: inf
ROOT
ATOM      1  C   UNL     1      -9.862 -68.802 -28.568  1.00  0.00     0.027 C 
ENDROOT
BRANCH   1   2
ATOM      2  C   UNL     1      -8.938 -67.801 -27.858  1.00  0.00     0.004 C 
BRANCH   2   3
ATOM      3  C   UNL     1      -9.514 -67.313 -26.519  1.00  0.00     0.000 C 
BRANCH   3   4
ATOM      4  C   UNL     1     -10.398 -68.368 -25.835  1.00  0.00     0.000 C 
BRANCH   4   5
ATOM      5  C   UNL     1     -11.392 -67.707 -24.870  1.00  0.00     0.000 C 
BRANCH   5   6
ATOM      6  C   UNL     1     -11.471 -66.179 -25.048  1.00  0.00     0.006 C 
BRANCH   6   7
ATOM      7  C   UNL     1     -12.901 -65.618 -25.075  1.00  0.00     0.053 C 
BRANCH   7   8
ATOM      8  C   UNL     1     -12.926 -64.132 -24.883  1.00  0.00     0.041 C 
ATOM      9  O   UNL     1     -13.218 -63.374 -25.845  1.00  0.00    -0.550 OA
ATOM     10  O   UNL     1     -12.596 -63.585 -23.650  1.00  0.00    -0.550 OA
ENDBRANCH   7   8
ENDBRANCH   6   7
ENDBRANCH   5   6
ENDBRANCH   4   5
ENDBRANCH   3   4
ENDBRANCH   2   3
ENDBRANCH   1   2
BRANCH   1  11
ATOM     11  C   UNL     1     -10.274 -68.292 -29.922  1.00  0.00    -0.031 C 
ATOM     12  C   UNL     1      -9.443 -67.557 -30.677  1.00  0.00    -0.027 C 
BRANCH  12  13
ATOM     13  C   UNL     1      -9.850 -67.055 -32.035  1.00  0.00     0.054 C 
BRANCH  13  14
ATOM     14  C   UNL     1     -11.304 -66.655 -32.056  1.00  0.00    -0.027 C 
ATOM     15  C   UNL     1     -12.086 -66.677 -33.151  1.00  0.00    -0.031 C 
BRANCH  15  16
ATOM     16  C   UNL     1     -11.609 -67.034 -34.538  1.00  0.00     0.027 C 
BRANCH  16  17
ATOM     17  C   UNL     1     -12.742 -67.604 -35.404  1.00  0.00     0.004 C 
BRANCH  17  18
ATOM     18  C   UNL     1     -14.131 -67.229 -34.861  1.00  0.00     0.000 C 
BRANCH  18  19
ATOM     19  C   UNL     1     -15.262 -68.007 -35.549  1.00  0.00    -0.003 C 
ATOM     20  C   UNL     1     -16.383 -68.397 -34.585  1.00  0.00     0.004 C 
ENDBRANCH  18  19
ENDBRANCH  17  18
ENDBRANCH  16  17
ENDBRANCH  15  16
ENDBRANCH  13  14
ENDBRANCH  12  13
ENDBRANCH   1  11
TORSDOF 14
ENDMDL
MODEL 5
REMARK VINA RESULT:    -5.765      6.743      8.919
REMARK INTER + INTRA:         -11.838
REMARK INTER:                 -10.935
REMARK INTRA:                  -0.903
REMARK UNBOUND:                -1.354
REMARK SMILES CCCCCC=CCC=CCCCCCCCC(=O)[O-]
REMARK SMILES IDX 11 1 12 2 13 3 14 4 15 5 16 6 17 7 18 8 19 9 20 10 10 11
REMARK SMILES IDX 9 12 8 13 7 14 6 15 5 16 4 17 3 18 2 19 1 20
REMARK H PARENT
REMARK Flexibility Score: inf
ROOT
ATOM      1  C   UNL     1     -10.103 -68.417 -29.611  1.00  0.00     0.027 C 
ENDROOT
BRANCH   1   2
ATOM      2  C   UNL     1      -8.858 -67.599 -29.985  1.00  0.00     0.004 C 
BRANCH   2   3
ATOM      3  C   UNL     1      -9.003 -66.888 -31.340  1.00  0.00     0.000 C 
BRANCH   3   4
ATOM      4  C   UNL     1     -10.286 -67.288 -32.084  1.00  0.00     0.000 C 
BRANCH   4   5
ATOM      5  C   UNL     1     -10.871 -66.092 -32.849  1.00  0.00     0.000 C 
BRANCH   5   6
ATOM      6  C   UNL     1     -12.102 -66.468 -33.694  1.00  0.00     0.006 C 
BRANCH   6   7
ATOM      7  C   UNL     1     -11.785 -67.335 -34.923  1.00  0.00     0.053 C 
BRANCH   7   8
ATOM      8  C   UNL     1     -12.986 -67.536 -35.796  1.00  0.00     0.041 C 
ATOM      9  O   UNL     1     -12.872 -67.498 -37.049  1.00  0.00    -0.550 OA
ATOM     10  O   UNL     1     -14.236 -67.732 -35.222  1.00  0.00    -0.550 OA
ENDBRANCH   7   8
ENDBRANCH   6   7
ENDBRANCH   5   6
ENDBRANCH   4   5
ENDBRANCH   3   4
ENDBRANCH   2   3
ENDBRANCH   1   2
BRANCH   1  11
ATOM     11  C   UNL     1     -10.208 -68.592 -28.121  1.00  0.00    -0.031 C 
ATOM     12  C   UNL     1      -9.123 -68.564 -27.333  1.00  0.00    -0.027 C 
BRANCH  12  13
ATOM     13  C   UNL     1      -9.228 -68.729 -25.842  1.00  0.00     0.054 C 
BRANCH  13  14
ATOM     14  C   UNL     1      -8.417 -67.683 -25.118  1.00  0.00    -0.027 C 
ATOM     15  C   UNL     1      -8.877 -66.467 -24.770  1.00  0.00    -0.031 C 
BRANCH  15  16
ATOM     16  C   UNL     1     -10.248 -65.938 -25.113  1.00  0.00     0.027 C 
BRANCH  16  17
ATOM     17  C   UNL     1     -11.199 -65.986 -23.908  1.00  0.00     0.004 C 
BRANCH  17  18
ATOM     18  C   UNL     1     -12.531 -65.272 -24.193  1.00  0.00     0.000 C 
BRANCH  18  19
ATOM     19  C   UNL     1     -13.740 -66.034 -23.630  1.00  0.00    -0.003 C 
ATOM     20  C   UNL     1     -13.380 -66.909 -22.429  1.00  0.00     0.004 C 
ENDBRANCH  18  19
ENDBRANCH  17  18
ENDBRANCH  16  17
ENDBRANCH  15  16
ENDBRANCH  13  14
ENDBRANCH  12  13
ENDBRANCH   1  11
TORSDOF 14
ENDMDL
MODEL 6
REMARK VINA RESULT:    -5.759      6.743      8.894
REMARK INTER + INTRA:         -11.826
REMARK INTER:                 -11.084
REMARK INTRA:                  -0.743
REMARK UNBOUND:                -1.354
REMARK SMILES CCCCCC=CCC=CCCCCCCCC(=O)[O-]
REMARK SMILES IDX 11 1 12 2 13 3 14 4 15 5 16 6 17 7 18 8 19 9 20 10 10 11
REMARK SMILES IDX 9 12 8 13 7 14 6 15 5 16 4 17 3 18 2 19 1 20
REMARK H PARENT
REMARK Flexibility Score: inf
ROOT
ATOM      1  C   UNL     1      -8.806 -67.224 -31.169  1.00  0.00     0.027 C 
ENDROOT
BRANCH   1   2
ATOM      2  C   UNL     1      -8.926 -67.519 -29.667  1.00  0.00     0.004 C 
BRANCH   2   3
ATOM      3  C   UNL     1     -10.071 -68.493 -29.346  1.00  0.00     0.000 C 
BRANCH   3   4
ATOM      4  C   UNL     1      -9.919 -69.150 -27.965  1.00  0.00     0.000 C 
BRANCH   4   5
ATOM      5  C   UNL     1      -9.605 -68.099 -26.891  1.00  0.00     0.000 C 
BRANCH   5   6
ATOM      6  C   UNL     1     -10.724 -67.964 -25.842  1.00  0.00     0.006 C 
BRANCH   6   7
ATOM      7  C   UNL     1     -10.825 -66.571 -25.200  1.00  0.00     0.053 C 
BRANCH   7   8
ATOM      8  C   UNL     1     -11.895 -66.509 -24.153  1.00  0.00     0.041 C 
ATOM      9  O   UNL     1     -11.586 -66.496 -22.933  1.00  0.00    -0.550 OA
ATOM     10  O   UNL     1     -13.232 -66.499 -24.526  1.00  0.00    -0.550 OA
ENDBRANCH   7   8
ENDBRANCH   6   7
ENDBRANCH   5   6
ENDBRANCH   4   5
ENDBRANCH   3   4
ENDBRANCH   2   3
ENDBRANCH   1   2
BRANCH   1  11
ATOM     11  C   UNL     1     -10.152 -67.263 -31.839  1.00  0.00    -0.031 C 
ATOM     12  C   UNL     1     -10.467 -66.415 -32.830  1.00  0.00    -0.027 C 
BRANCH  12  13
ATOM     13  C   UNL     1     -11.808 -66.460 -33.507  1.00  0.00     0.054 C 
BRANCH  13  14
ATOM     14  C   UNL     1     -11.759 -67.297 -34.761  1.00  0.00    -0.027 C 
ATOM     15  C   UNL     1     -12.834 -67.623 -35.504  1.00  0.00    -0.031 C 
BRANCH  15  16
ATOM     16  C   UNL     1     -14.257 -67.262 -35.156  1.00  0.00     0.027 C 
BRANCH  16  17
ATOM     17  C   UNL     1     -15.176 -68.493 -35.153  1.00  0.00     0.004 C 
BRANCH  17  18
ATOM     18  C   UNL     1     -16.584 -68.163 -34.629  1.00  0.00     0.000 C 
BRANCH  18  19
ATOM     19  C   UNL     1     -17.248 -67.018 -35.409  1.00  0.00    -0.003 C 
ATOM     20  C   UNL     1     -18.402 -67.495 -36.290  1.00  0.00     0.004 C 
ENDBRANCH  18  19
ENDBRANCH  17  18
ENDBRANCH  16  17
ENDBRANCH  15  16
ENDBRANCH  13  14
ENDBRANCH  12  13
ENDBRANCH   1  11
TORSDOF 14
ENDMDL
MODEL 7
REMARK VINA RESULT:    -5.734      5.337      8.828
REMARK INTER + INTRA:         -11.781
REMARK INTER:                 -10.940
REMARK INTRA:                  -0.841
REMARK UNBOUND:                -1.354
REMARK SMILES CCCCCC=CCC=CCCCCCCCC(=O)[O-]
REMARK SMILES IDX 11 1 12 2 13 3 14 4 15 5 16 6 17 7 18 8 19 9 20 10 10 11
REMARK SMILES IDX 9 12 8 13 7 14 6 15 5 16 4 17 3 18 2 19 1 20
REMARK H PARENT
REMARK Flexibility Score: inf
ROOT
ATOM      1  C   UNL     1     -11.063 -66.204 -32.879  1.00  0.00     0.027 C 
ENDROOT
BRANCH   1   2
ATOM      2  C   UNL     1     -12.563 -66.477 -33.063  1.00  0.00     0.004 C 
BRANCH   2   3
ATOM      3  C   UNL     1     -13.438 -65.627 -32.129  1.00  0.00     0.000 C 
BRANCH   3   4
ATOM      4  C   UNL     1     -14.921 -66.027 -32.180  1.00  0.00     0.000 C 
BRANCH   4   5
ATOM      5  C   UNL     1     -15.427 -66.071 -33.629  1.00  0.00     0.000 C 
BRANCH   5   6
ATOM      6  C   UNL     1     -16.155 -67.385 -33.968  1.00  0.00     0.006 C 
BRANCH   6   7
ATOM      7  C   UNL     1     -16.828 -67.397 -35.350  1.00  0.00     0.053 C 
BRANCH   7   8
ATOM      8  C   UNL     1     -15.933 -66.844 -36.416  1.00  0.00     0.041 C 
ATOM      9  O   UNL     1     -14.757 -67.274 -36.541  1.00  0.00    -0.550 OA
ATOM     10  O   UNL     1     -16.389 -65.830 -37.249  1.00  0.00    -0.550 OA
ENDBRANCH   7   8
ENDBRANCH   6   7
ENDBRANCH   5   6
ENDBRANCH   4   5
ENDBRANCH   3   4
ENDBRANCH   2   3
ENDBRANCH   1   2
BRANCH   1  11
ATOM     11  C   UNL     1     -10.452 -67.173 -31.905  1.00  0.00    -0.031 C 
ATOM     12  C   UNL     1      -9.213 -66.995 -31.422  1.00  0.00    -0.027 C 
BRANCH  12  13
ATOM     13  C   UNL     1      -8.604 -67.958 -30.441  1.00  0.00     0.054 C 
BRANCH  13  14
ATOM     14  C   UNL     1      -8.445 -67.324 -29.082  1.00  0.00    -0.027 C 
ATOM     15  C   UNL     1      -9.020 -67.783 -27.954  1.00  0.00    -0.031 C 
BRANCH  15  16
ATOM     16  C   UNL     1      -9.968 -68.955 -27.891  1.00  0.00     0.027 C 
BRANCH  16  17
ATOM     17  C   UNL     1     -10.452 -69.224 -26.458  1.00  0.00     0.004 C 
BRANCH  17  18
ATOM     18  C   UNL     1     -10.149 -68.048 -25.515  1.00  0.00     0.000 C 
BRANCH  18  19
ATOM     19  C   UNL     1     -11.414 -67.271 -25.119  1.00  0.00    -0.003 C 
ATOM     20  C   UNL     1     -11.112 -65.845 -24.658  1.00  0.00     0.004 C 
ENDBRANCH  18  19
ENDBRANCH  17  18
ENDBRANCH  16  17
ENDBRANCH  15  16
ENDBRANCH  13  14
ENDBRANCH  12  13
ENDBRANCH   1  11
TORSDOF 14
ENDMDL
MODEL 8
REMARK VINA RESULT:    -5.705      6.547      8.311
REMARK INTER + INTRA:         -11.727
REMARK INTER:                 -10.777
REMARK INTRA:                  -0.951
REMARK UNBOUND:                -1.354
REMARK SMILES CCCCCC=CCC=CCCCCCCCC(=O)[O-]
REMARK SMILES IDX 11 1 12 2 13 3 14 4 15 5 16 6 17 7 18 8 19 9 20 10 10 11
REMARK SMILES IDX 9 12 8 13 7 14 6 15 5 16 4 17 3 18 2 19 1 20
REMARK H PARENT
REMARK Flexibility Score: inf
ROOT
ATOM      1  C   UNL     1     -10.171 -68.393 -29.586  1.00  0.00     0.027 C 
ENDROOT
BRANCH   1   2
ATOM      2  C   UNL     1      -8.932 -67.652 -30.112  1.00  0.00     0.004 C 
BRANCH   2   3
ATOM      3  C   UNL     1      -9.129 -67.107 -31.535  1.00  0.00     0.000 C 
BRANCH   3   4
ATOM      4  C   UNL     1     -10.586 -67.209 -32.012  1.00  0.00     0.000 C 
BRANCH   4   5
ATOM      5  C   UNL     1     -10.837 -66.281 -33.208  1.00  0.00     0.000 C 
BRANCH   5   6
ATOM      6  C   UNL     1      -9.950 -65.022 -33.184  1.00  0.00     0.006 C 
BRANCH   6   7
ATOM      7  C   UNL     1      -9.508 -64.533 -34.572  1.00  0.00     0.053 C 
BRANCH   7   8
ATOM      8  C   UNL     1      -8.098 -64.025 -34.567  1.00  0.00     0.041 C 
ATOM      9  O   UNL     1      -7.225 -64.587 -33.854  1.00  0.00    -0.550 OA
ATOM     10  O   UNL     1      -7.758 -62.913 -35.325  1.00  0.00    -0.550 OA
ENDBRANCH   7   8
ENDBRANCH   6   7
ENDBRANCH   5   6
ENDBRANCH   4   5
ENDBRANCH   3   4
ENDBRANCH   2   3
ENDBRANCH   1   2
BRANCH   1  11
ATOM     11  C   UNL     1     -10.025 -68.725 -28.127  1.00  0.00    -0.031 C 
ATOM     12  C   UNL     1      -8.976 -68.292 -27.411  1.00  0.00    -0.027 C 
BRANCH  12  13
ATOM     13  C   UNL     1      -8.834 -68.615 -25.949  1.00  0.00     0.054 C 
BRANCH  13  14
ATOM     14  C   UNL     1      -8.636 -67.364 -25.130  1.00  0.00    -0.027 C 
ATOM     15  C   UNL     1      -9.626 -66.535 -24.751  1.00  0.00    -0.031 C 
BRANCH  15  16
ATOM     16  C   UNL     1     -11.074 -66.691 -25.149  1.00  0.00     0.027 C 
BRANCH  16  17
ATOM     17  C   UNL     1     -12.010 -65.893 -24.228  1.00  0.00     0.004 C 
BRANCH  17  18
ATOM     18  C   UNL     1     -13.380 -66.572 -24.069  1.00  0.00     0.000 C 
BRANCH  18  19
ATOM     19  C   UNL     1     -13.670 -66.980 -22.616  1.00  0.00    -0.003 C 
ATOM     20  C   UNL     1     -13.051 -66.020 -21.599  1.00  0.00     0.004 C 
ENDBRANCH  18  19
ENDBRANCH  17  18
ENDBRANCH  16  17
ENDBRANCH  15  16
ENDBRANCH  13  14
ENDBRANCH  12  13
ENDBRANCH   1  11
TORSDOF 14
ENDMDL
MODEL 9
REMARK VINA RESULT:    -5.701      7.290      9.760
REMARK INTER + INTRA:         -11.722
REMARK INTER:                 -10.758
REMARK INTRA:                  -0.963
REMARK UNBOUND:                -1.354
REMARK SMILES CCCCCC=CCC=CCCCCCCCC(=O)[O-]
REMARK SMILES IDX 11 1 12 2 13 3 14 4 15 5 16 6 17 7 18 8 19 9 20 10 10 11
REMARK SMILES IDX 9 12 8 13 7 14 6 15 5 16 4 17 3 18 2 19 1 20
REMARK H PARENT
REMARK Flexibility Score: inf
ROOT
ATOM      1  C   UNL     1      -7.245 -66.027 -27.766  1.00  0.00     0.027 C 
ENDROOT
BRANCH   1   2
ATOM      2  C   UNL     1      -8.063 -66.080 -26.468  1.00  0.00     0.004 C 
BRANCH   2   3
ATOM      3  C   UNL     1      -8.528 -67.503 -26.120  1.00  0.00     0.000 C 
BRANCH   3   4
ATOM      4  C   UNL     1      -9.662 -67.518 -25.083  1.00  0.00     0.000 C 
BRANCH   4   5
ATOM      5  C   UNL     1     -10.187 -66.098 -24.826  1.00  0.00     0.000 C 
BRANCH   5   6
ATOM      6  C   UNL     1     -11.606 -66.085 -24.227  1.00  0.00     0.006 C 
BRANCH   6   7
ATOM      7  C   UNL     1     -12.284 -64.706 -24.235  1.00  0.00     0.053 C 
BRANCH   7   8
ATOM      8  C   UNL     1     -13.413 -64.640 -25.218  1.00  0.00     0.041 C 
ATOM      9  O   UNL     1     -14.080 -65.673 -25.487  1.00  0.00    -0.550 OA
ATOM     10  O   UNL     1     -13.706 -63.444 -25.860  1.00  0.00    -0.550 OA
ENDBRANCH   7   8
ENDBRANCH   6   7
ENDBRANCH   5   6
ENDBRANCH   4   5
ENDBRANCH   3   4
ENDBRANCH   2   3
ENDBRANCH   1   2
BRANCH   1  11
ATOM     11  C   UNL     1      -7.946 -66.756 -28.879  1.00  0.00    -0.031 C 
ATOM     12  C   UNL     1      -7.642 -66.532 -30.166  1.00  0.00    -0.027 C 
BRANCH  12  13
ATOM     13  C   UNL     1      -8.336 -67.268 -31.278  1.00  0.00     0.054 C 
BRANCH  13  14
ATOM     14  C   UNL     1      -9.748 -67.634 -30.894  1.00  0.00    -0.027 C 
ATOM     15  C   UNL     1     -10.846 -67.258 -31.575  1.00  0.00    -0.031 C 
BRANCH  15  16
ATOM     16  C   UNL     1     -10.838 -66.353 -32.782  1.00  0.00     0.027 C 
BRANCH  16  17
ATOM     17  C   UNL     1     -12.082 -66.558 -33.660  1.00  0.00     0.004 C 
BRANCH  17  18
ATOM     18  C   UNL     1     -11.745 -67.267 -34.983  1.00  0.00     0.000 C 
BRANCH  18  19
ATOM     19  C   UNL     1     -13.001 -67.705 -35.752  1.00  0.00    -0.003 C 
ATOM     20  C   UNL     1     -14.297 -67.286 -35.055  1.00  0.00     0.004 C 
ENDBRANCH  18  19
ENDBRANCH  17  18
ENDBRANCH  16  17
ENDBRANCH  15  16
ENDBRANCH  13  14
ENDBRANCH  12  13
ENDBRANCH   1  11
TORSDOF 14
ENDMDL
