MODEL 1
REMARK VINA RESULT:    -0.754      0.000      0.000
REMARK INTER + INTRA:          -2.059
REMARK INTER:                  -1.370
REMARK INTRA:                  -0.689
REMARK UNBOUND:                -0.689
REMARK SMILES CCCCCCCCCCCCCC[C@@H](C)C(=O)[O-]
REMARK SMILES IDX 9 1 10 2 11 3 12 4 13 5 14 6 15 7 16 8 17 9 18 10 19 11 8 12
REMARK SMILES IDX 7 13 6 14 5 15 4 16 3 17 2 18 1 19
REMARK H PARENT
REMARK Flexibility Score: inf
ROOT
ATOM      1  C   UNL     1      14.828  21.774  16.471  1.00  0.00     0.000 C 
ENDROOT
BRANCH   1   2
ATOM      2  C   UNL     1      14.530  20.281  16.670  1.00  0.00     0.000 C 
BRANCH   2   3
ATOM      3  C   UNL     1      14.328  19.908  18.147  1.00  0.00     0.000 C 
BRANCH   3   4
ATOM      4  C   UNL     1      13.007  20.445  18.718  1.00  0.00     0.000 C 
BRANCH   4   5
ATOM      5  C   UNL     1      12.740  19.876  20.118  1.00  0.00     0.001 C 
BRANCH   5   6
ATOM      6  C   UNL     1      11.297  20.104  20.612  1.00  0.00     0.009 C 
BRANCH   6   7
ATOM      7  C   UNL     1      11.133  20.632  22.060  1.00  0.00     0.032 C 
ATOM      8  C   UNL     1      12.076  19.936  23.055  1.00  0.00     0.014 C 
BRANCH   7   9
ATOM      9  C   UNL     1      11.216  22.137  22.132  1.00  0.00     0.044 C 
ATOM     10  O   UNL     1      12.244  22.715  22.576  1.00  0.00    -0.550 OA
ATOM     11  O   UNL     1      10.130  22.905  21.725  1.00  0.00    -0.550 OA
ENDBRANCH   7   9
ENDBRANCH   6   7
ENDBRANCH   5   6
ENDBRANCH   4   5
ENDBRANCH   3   4
ENDBRANCH   2   3
ENDBRANCH   1   2
BRANCH   1  12
ATOM     12  C   UNL     1      14.958  22.113  14.978  1.00  0.00     0.000 C 
BRANCH  12  13
ATOM     13  C   UNL     1      13.618  22.524  14.347  1.00  0.00    -0.000 C 
BRANCH  13  14
ATOM     14  C   UNL     1      12.407  22.080  15.187  1.00  0.00    -0.000 C 
BRANCH  14  15
ATOM     15  C   UNL     1      11.069  22.497  14.557  1.00  0.00    -0.000 C 
BRANCH  15  16
ATOM     16  C   UNL     1       9.889  22.350  15.532  1.00  0.00    -0.000 C 
BRANCH  16  17
ATOM     17  C   UNL     1      10.145  23.031  16.889  1.00  0.00    -0.000 C 
BRANCH  17  18
ATOM     18  C   UNL     1       9.876  22.142  18.117  1.00  0.00    -0.003 C 
ATOM     19  C   UNL     1       9.888  20.650  17.789  1.00  0.00     0.004 C 
ENDBRANCH  17  18
ENDBRANCH  16  17
ENDBRANCH  15  16
ENDBRANCH  14  15
ENDBRANCH  13  14
ENDBRANCH  12  13
ENDBRANCH   1  12
TORSDOF 14
ENDMDL
MODEL 2
REMARK VINA RESULT:    -0.016     12.176     15.511
REMARK INTER + INTRA:          -0.718
REMARK INTER:                   0.227
REMARK INTRA:                  -0.944
REMARK UNBOUND:                -0.689
REMARK SMILES CCCCCCCCCCCCCC[C@@H](C)C(=O)[O-]
REMARK SMILES IDX 9 1 10 2 11 3 12 4 13 5 14 6 15 7 16 8 17 9 18 10 19 11 8 12
REMARK SMILES IDX 7 13 6 14 5 15 4 16 3 17 2 18 1 19
REMARK H PARENT
REMARK Flexibility Score: inf
ROOT
ATOM      1  C   UNL     1      26.192  21.286  16.679  1.00  0.00     0.000 C 
ENDROOT
BRANCH   1   2
ATOM      2  C   UNL     1      25.125  20.268  17.109  1.00  0.00     0.000 C 
BRANCH   2   3
ATOM      3  C   UNL     1      24.165  19.898  15.967  1.00  0.00     0.000 C 
BRANCH   3   4
ATOM      4  C   UNL     1      24.762  20.170  14.579  1.00  0.00     0.000 C 
BRANCH   4   5
ATOM      5  C   UNL     1      23.737  19.884  13.472  1.00  0.00     0.001 C 
BRANCH   5   6
ATOM      6  C   UNL     1      22.273  20.031  13.934  1.00  0.00     0.009 C 
BRANCH   6   7
ATOM      7  C   UNL     1      21.344  20.890  13.038  1.00  0.00     0.032 C 
ATOM      8  C   UNL     1      21.894  22.306  12.801  1.00  0.00     0.014 C 
BRANCH   7   9
ATOM      9  C   UNL     1      20.974  20.184  11.757  1.00  0.00     0.044 C 
ATOM     10  O   UNL     1      21.849  19.875  10.904  1.00  0.00    -0.550 OA
ATOM     11  O   UNL     1      19.640  19.889  11.496  1.00  0.00    -0.550 OA
ENDBRANCH   7   9
ENDBRANCH   6   7
ENDBRANCH   5   6
ENDBRANCH   4   5
ENDBRANCH   3   4
ENDBRANCH   2   3
ENDBRANCH   1   2
BRANCH   1  12
ATOM     12  C   UNL     1      27.566  20.916  17.257  1.00  0.00     0.000 C 
BRANCH  12  13
ATOM     13  C   UNL     1      28.351  19.959  16.346  1.00  0.00    -0.000 C 
BRANCH  13  14
ATOM     14  C   UNL     1      28.463  20.477  14.901  1.00  0.00    -0.000 C 
BRANCH  14  15
ATOM     15  C   UNL     1      29.920  20.580  14.424  1.00  0.00    -0.000 C 
BRANCH  15  16
ATOM     16  C   UNL     1      30.098  20.111  12.970  1.00  0.00    -0.000 C 
BRANCH  16  17
ATOM     17  C   UNL     1      29.603  21.147  11.943  1.00  0.00    -0.000 C 
BRANCH  17  18
ATOM     18  C   UNL     1      28.767  20.561  10.790  1.00  0.00    -0.003 C 
ATOM     19  C   UNL     1      29.363  20.850   9.413  1.00  0.00     0.004 C 
ENDBRANCH  17  18
ENDBRANCH  16  17
ENDBRANCH  15  16
ENDBRANCH  14  15
ENDBRANCH  13  14
ENDBRANCH  12  13
ENDBRANCH   1  12
TORSDOF 14
ENDMDL
MODEL 3
REMARK VINA RESULT:     0.128      1.353      2.262
REMARK INTER + INTRA:          -0.457
REMARK INTER:                  -1.549
REMARK INTRA:                   1.092
REMARK UNBOUND:                -0.689
REMARK SMILES CCCCCCCCCCCCCC[C@@H](C)C(=O)[O-]
REMARK SMILES IDX 9 1 10 2 11 3 12 4 13 5 14 6 15 7 16 8 17 9 18 10 19 11 8 12
REMARK SMILES IDX 7 13 6 14 5 15 4 16 3 17 2 18 1 19
REMARK H PARENT
REMARK Flexibility Score: inf
ROOT
ATOM      1  C   UNL     1      14.096  20.552  18.171  1.00  0.00     0.000 C 
ENDROOT
BRANCH   1   2
ATOM      2  C   UNL     1      12.681  19.968  18.046  1.00  0.00     0.000 C 
BRANCH   2   3
ATOM      3  C   UNL     1      11.947  19.895  19.394  1.00  0.00     0.000 C 
BRANCH   3   4
ATOM      4  C   UNL     1      12.901  19.996  20.593  1.00  0.00     0.000 C 
BRANCH   4   5
ATOM      5  C   UNL     1      12.135  19.875  21.918  1.00  0.00     0.001 C 
BRANCH   5   6
ATOM      6  C   UNL     1      10.815  20.673  21.943  1.00  0.00     0.009 C 
BRANCH   6   7
ATOM      7  C   UNL     1      10.926  22.207  21.749  1.00  0.00     0.032 C 
ATOM      8  C   UNL     1      12.208  22.790  22.364  1.00  0.00     0.014 C 
BRANCH   7   9
ATOM      9  C   UNL     1      10.729  22.616  20.310  1.00  0.00     0.044 C 
ATOM     10  O   UNL     1       9.890  22.032  19.573  1.00  0.00    -0.550 OA
ATOM     11  O   UNL     1      11.504  23.639  19.775  1.00  0.00    -0.550 OA
ENDBRANCH   7   9
ENDBRANCH   6   7
ENDBRANCH   5   6
ENDBRANCH   4   5
ENDBRANCH   3   4
ENDBRANCH   2   3
ENDBRANCH   1   2
BRANCH   1  12
ATOM     12  C   UNL     1      14.908  20.300  16.892  1.00  0.00     0.000 C 
BRANCH  12  13
ATOM     13  C   UNL     1      14.072  20.484  15.616  1.00  0.00    -0.000 C 
BRANCH  13  14
ATOM     14  C   UNL     1      13.043  21.622  15.740  1.00  0.00    -0.000 C 
BRANCH  14  15
ATOM     15  C   UNL     1      12.358  21.946  14.404  1.00  0.00    -0.000 C 
BRANCH  15  16
ATOM     16  C   UNL     1      10.918  22.454  14.588  1.00  0.00    -0.000 C 
BRANCH  16  17
ATOM     17  C   UNL     1      10.113  21.613  15.596  1.00  0.00    -0.000 C 
BRANCH  17  18
ATOM     18  C   UNL     1       9.875  22.293  16.956  1.00  0.00    -0.003 C 
ATOM     19  C   UNL     1       9.936  23.818  16.882  1.00  0.00     0.004 C 
ENDBRANCH  17  18
ENDBRANCH  16  17
ENDBRANCH  15  16
ENDBRANCH  14  15
ENDBRANCH  13  14
ENDBRANCH  12  13
ENDBRANCH   1  12
TORSDOF 14
ENDMDL
MODEL 4
REMARK VINA RESULT:     1.332     12.163     15.428
REMARK INTER + INTRA:           1.733
REMARK INTER:                   2.977
REMARK INTRA:                  -1.243
REMARK UNBOUND:                -0.689
REMARK SMILES CCCCCCCCCCCCCC[C@@H](C)C(=O)[O-]
REMARK SMILES IDX 9 1 10 2 11 3 12 4 13 5 14 6 15 7 16 8 17 9 18 10 19 11 8 12
REMARK SMILES IDX 7 13 6 14 5 15 4 16 3 17 2 18 1 19
REMARK H PARENT
REMARK Flexibility Score: inf
ROOT
ATOM      1  C   UNL     1      26.356  21.069  15.435  1.00  0.00     0.000 C 
ENDROOT
BRANCH   1   2
ATOM      2  C   UNL     1      25.363  20.229  16.251  1.00  0.00     0.000 C 
BRANCH   2   3
ATOM      3  C   UNL     1      24.385  21.090  17.065  1.00  0.00     0.000 C 
BRANCH   3   4
ATOM      4  C   UNL     1      22.917  20.711  16.820  1.00  0.00     0.000 C 
BRANCH   4   5
ATOM      5  C   UNL     1      22.401  21.321  15.509  1.00  0.00     0.001 C 
BRANCH   5   6
ATOM      6  C   UNL     1      22.098  20.273  14.418  1.00  0.00     0.009 C 
BRANCH   6   7
ATOM      7  C   UNL     1      22.691  20.544  13.012  1.00  0.00     0.032 C 
ATOM      8  C   UNL     1      24.082  19.916  12.824  1.00  0.00     0.014 C 
BRANCH   7   9
ATOM      9  C   UNL     1      21.730  20.178  11.907  1.00  0.00     0.044 C 
ATOM     10  O   UNL     1      22.138  19.938  10.739  1.00  0.00    -0.550 OA
ATOM     11  O   UNL     1      20.366  20.127  12.172  1.00  0.00    -0.550 OA
ENDBRANCH   7   9
ENDBRANCH   6   7
ENDBRANCH   5   6
ENDBRANCH   4   5
ENDBRANCH   3   4
ENDBRANCH   2   3
ENDBRANCH   1   2
BRANCH   1  12
ATOM     12  C   UNL     1      27.784  20.914  15.982  1.00  0.00     0.000 C 
BRANCH  12  13
ATOM     13  C   UNL     1      28.857  21.185  14.915  1.00  0.00    -0.000 C 
BRANCH  13  14
ATOM     14  C   UNL     1      29.154  19.949  14.047  1.00  0.00    -0.000 C 
BRANCH  14  15
ATOM     15  C   UNL     1      28.358  19.948  12.733  1.00  0.00    -0.000 C 
BRANCH  15  16
ATOM     16  C   UNL     1      29.268  19.875  11.494  1.00  0.00    -0.000 C 
BRANCH  16  17
ATOM     17  C   UNL     1      29.619  21.263  10.928  1.00  0.00    -0.000 C 
BRANCH  17  18
ATOM     18  C   UNL     1      28.931  22.442  11.641  1.00  0.00    -0.003 C 
ATOM     19  C   UNL     1      29.856  23.640  11.845  1.00  0.00     0.004 C 
ENDBRANCH  17  18
ENDBRANCH  16  17
ENDBRANCH  15  16
ENDBRANCH  14  15
ENDBRANCH  13  14
ENDBRANCH  12  13
ENDBRANCH   1  12
TORSDOF 14
ENDMDL
MODEL 5
REMARK VINA RESULT:     1.781      9.618     12.020
REMARK INTER + INTRA:           2.550
REMARK INTER:                   2.888
REMARK INTRA:                  -0.337
REMARK UNBOUND:                -0.689
REMARK SMILES CCCCCCCCCCCCCC[C@@H](C)C(=O)[O-]
REMARK SMILES IDX 9 1 10 2 11 3 12 4 13 5 14 6 15 7 16 8 17 9 18 10 19 11 8 12
REMARK SMILES IDX 7 13 6 14 5 15 4 16 3 17 2 18 1 19
REMARK H PARENT
REMARK Flexibility Score: inf
ROOT
ATOM      1  C   UNL     1      20.044  20.095  15.167  1.00  0.00     0.000 C 
ENDROOT
BRANCH   1   2
ATOM      2  C   UNL     1      21.463  20.055  15.753  1.00  0.00     0.000 C 
BRANCH   2   3
ATOM      3  C   UNL     1      22.546  19.889  14.675  1.00  0.00     0.000 C 
BRANCH   3   4
ATOM      4  C   UNL     1      23.962  20.143  15.214  1.00  0.00     0.000 C 
BRANCH   4   5
ATOM      5  C   UNL     1      25.008  20.005  14.099  1.00  0.00     0.001 C 
BRANCH   5   6
ATOM      6  C   UNL     1      26.453  19.875  14.622  1.00  0.00     0.009 C 
BRANCH   6   7
ATOM      7  C   UNL     1      27.589  20.123  13.596  1.00  0.00     0.032 C 
ATOM      8  C   UNL     1      27.133  20.978  12.403  1.00  0.00     0.014 C 
BRANCH   7   9
ATOM      9  C   UNL     1      28.843  20.650  14.249  1.00  0.00     0.044 C 
ATOM     10  O   UNL     1      28.821  21.136  15.411  1.00  0.00    -0.550 OA
ATOM     11  O   UNL     1      30.044  20.625  13.549  1.00  0.00    -0.550 OA
ENDBRANCH   7   9
ENDBRANCH   6   7
ENDBRANCH   5   6
ENDBRANCH   4   5
ENDBRANCH   3   4
ENDBRANCH   2   3
ENDBRANCH   1   2
BRANCH   1  12
ATOM     12  C   UNL     1      18.990  19.954  16.276  1.00  0.00     0.000 C 
BRANCH  12  13
ATOM     13  C   UNL     1      17.557  19.896  15.724  1.00  0.00    -0.000 C 
BRANCH  13  14
ATOM     14  C   UNL     1      16.495  20.179  16.803  1.00  0.00    -0.000 C 
BRANCH  14  15
ATOM     15  C   UNL     1      15.284  20.945  16.250  1.00  0.00    -0.000 C 
BRANCH  15  16
ATOM     16  C   UNL     1      13.969  20.164  16.411  1.00  0.00    -0.000 C 
BRANCH  16  17
ATOM     17  C   UNL     1      13.389  20.257  17.834  1.00  0.00    -0.000 C 
BRANCH  17  18
ATOM     18  C   UNL     1      11.920  20.714  17.902  1.00  0.00    -0.003 C 
ATOM     19  C   UNL     1      11.125  20.011  19.001  1.00  0.00     0.004 C 
ENDBRANCH  17  18
ENDBRANCH  16  17
ENDBRANCH  15  16
ENDBRANCH  14  15
ENDBRANCH  13  14
ENDBRANCH  12  13
ENDBRANCH   1  12
TORSDOF 14
ENDMDL
MODEL 6
REMARK VINA RESULT:     1.943      6.213      8.806
REMARK INTER + INTRA:           2.845
REMARK INTER:                   3.274
REMARK INTRA:                  -0.429
REMARK UNBOUND:                -0.689
REMARK SMILES CCCCCCCCCCCCCC[C@@H](C)C(=O)[O-]
REMARK SMILES IDX 9 1 10 2 11 3 12 4 13 5 14 6 15 7 16 8 17 9 18 10 19 11 8 12
REMARK SMILES IDX 7 13 6 14 5 15 4 16 3 17 2 18 1 19
REMARK H PARENT
REMARK Flexibility Score: inf
ROOT
ATOM      1  C   UNL     1      15.362  21.448  16.234  1.00  0.00     0.000 C 
ENDROOT
BRANCH   1   2
ATOM      2  C   UNL     1      16.259  20.294  16.704  1.00  0.00     0.000 C 
BRANCH   2   3
ATOM      3  C   UNL     1      17.292  19.876  15.646  1.00  0.00     0.000 C 
BRANCH   3   4
ATOM      4  C   UNL     1      18.737  20.148  16.089  1.00  0.00     0.000 C 
BRANCH   4   5
ATOM      5  C   UNL     1      19.725  19.882  14.944  1.00  0.00     0.001 C 
BRANCH   5   6
ATOM      6  C   UNL     1      21.202  20.054  15.351  1.00  0.00     0.009 C 
BRANCH   6   7
ATOM      7  C   UNL     1      22.249  19.990  14.210  1.00  0.00     0.032 C 
ATOM      8  C   UNL     1      21.996  21.037  13.113  1.00  0.00     0.014 C 
BRANCH   7   9
ATOM      9  C   UNL     1      23.665  20.020  14.732  1.00  0.00     0.044 C 
ATOM     10  O   UNL     1      23.906  20.085  15.967  1.00  0.00    -0.550 OA
ATOM     11  O   UNL     1      24.728  20.002  13.835  1.00  0.00    -0.550 OA
ENDBRANCH   7   9
ENDBRANCH   6   7
ENDBRANCH   5   6
ENDBRANCH   4   5
ENDBRANCH   3   4
ENDBRANCH   2   3
ENDBRANCH   1   2
BRANCH   1  12
ATOM     12  C   UNL     1      13.884  21.027  16.229  1.00  0.00     0.000 C 
BRANCH  12  13
ATOM     13  C   UNL     1      13.241  21.113  17.622  1.00  0.00    -0.000 C 
BRANCH  13  14
ATOM     14  C   UNL     1      11.841  21.752  17.589  1.00  0.00    -0.000 C 
BRANCH  14  15
ATOM     15  C   UNL     1      11.325  22.112  18.991  1.00  0.00    -0.000 C 
BRANCH  15  16
ATOM     16  C   UNL     1      11.423  20.933  19.974  1.00  0.00    -0.000 C 
BRANCH  16  17
ATOM     17  C   UNL     1      10.526  21.113  21.212  1.00  0.00    -0.000 C 
BRANCH  17  18
ATOM     18  C   UNL     1      11.274  21.512  22.497  1.00  0.00    -0.003 C 
ATOM     19  C   UNL     1      11.806  20.312  23.278  1.00  0.00     0.004 C 
ENDBRANCH  17  18
ENDBRANCH  16  17
ENDBRANCH  15  16
ENDBRANCH  14  15
ENDBRANCH  13  14
ENDBRANCH  12  13
ENDBRANCH   1  12
TORSDOF 14
ENDMDL
MODEL 7
REMARK VINA RESULT:     2.113     10.452     13.116
REMARK INTER + INTRA:           3.154
REMARK INTER:                   3.515
REMARK INTRA:                  -0.361
REMARK UNBOUND:                -0.689
REMARK SMILES CCCCCCCCCCCCCC[C@@H](C)C(=O)[O-]
REMARK SMILES IDX 9 1 10 2 11 3 12 4 13 5 14 6 15 7 16 8 17 9 18 10 19 11 8 12
REMARK SMILES IDX 7 13 6 14 5 15 4 16 3 17 2 18 1 19
REMARK H PARENT
REMARK Flexibility Score: inf
ROOT
ATOM      1  C   UNL     1      21.492  20.064  14.433  1.00  0.00     0.000 C 
ENDROOT
BRANCH   1   2
ATOM      2  C   UNL     1      22.966  20.055  14.863  1.00  0.00     0.000 C 
BRANCH   2   3
ATOM      3  C   UNL     1      23.932  19.953  13.672  1.00  0.00     0.000 C 
BRANCH   3   4
ATOM      4  C   UNL     1      25.399  20.149  14.081  1.00  0.00     0.000 C 
BRANCH   4   5
ATOM      5  C   UNL     1      26.339  19.928  12.887  1.00  0.00     0.001 C 
BRANCH   5   6
ATOM      6  C   UNL     1      27.832  19.909  13.271  1.00  0.00     0.009 C 
BRANCH   6   7
ATOM      7  C   UNL     1      28.811  20.605  12.291  1.00  0.00     0.032 C 
ATOM      8  C   UNL     1      28.436  20.377  10.817  1.00  0.00     0.014 C 
BRANCH   7   9
ATOM      9  C   UNL     1      29.012  22.063  12.624  1.00  0.00     0.044 C 
ATOM     10  O   UNL     1      29.359  22.894  11.742  1.00  0.00    -0.550 OA
ATOM     11  O   UNL     1      28.837  22.499  13.932  1.00  0.00    -0.550 OA
ENDBRANCH   7   9
ENDBRANCH   6   7
ENDBRANCH   5   6
ENDBRANCH   4   5
ENDBRANCH   3   4
ENDBRANCH   2   3
ENDBRANCH   1   2
BRANCH   1  12
ATOM     12  C   UNL     1      20.566  19.878  15.645  1.00  0.00     0.000 C 
BRANCH  12  13
ATOM     13  C   UNL     1      19.078  19.946  15.267  1.00  0.00    -0.000 C 
BRANCH  13  14
ATOM     14  C   UNL     1      18.174  20.252  16.475  1.00  0.00    -0.000 C 
BRANCH  14  15
ATOM     15  C   UNL     1      16.799  20.795  16.059  1.00  0.00    -0.000 C 
BRANCH  15  16
ATOM     16  C   UNL     1      15.646  19.875  16.494  1.00  0.00    -0.000 C 
BRANCH  16  17
ATOM     17  C   UNL     1      14.331  20.639  16.736  1.00  0.00    -0.000 C 
BRANCH  17  18
ATOM     18  C   UNL     1      13.536  20.175  17.971  1.00  0.00    -0.003 C 
ATOM     19  C   UNL     1      12.204  20.905  18.133  1.00  0.00     0.004 C 
ENDBRANCH  17  18
ENDBRANCH  16  17
ENDBRANCH  15  16
ENDBRANCH  14  15
ENDBRANCH  13  14
ENDBRANCH  12  13
ENDBRANCH   1  12
TORSDOF 14
ENDMDL
