MODEL 1
REMARK VINA RESULT:     2.427      0.000      0.000
REMARK INTER + INTRA:           4.212
REMARK INTER:                   5.549
REMARK INTRA:                  -1.338
REMARK UNBOUND:                -1.338
REMARK SMILES CCCCCCCCCCCCCCCCCCCCCCCC(=O)[O-]
REMARK SMILES IDX 13 1 14 2 15 3 16 4 17 5 18 6 19 7 20 8 21 9 22 10 23 11
REMARK SMILES IDX 24 12 25 13 26 14 12 15 11 16 10 17 9 18 8 19 7 20 6 21 5 22
REMARK SMILES IDX 4 23 3 24 2 25 1 26
REMARK H PARENT
REMARK Flexibility Score: inf
ROOT
ATOM      1  C   UNL     1     -27.060   2.447 -32.579  1.00  0.00     0.000 C 
ENDROOT
BRANCH   1   2
ATOM      2  C   UNL     1     -27.661   2.855 -33.943  1.00  0.00     0.000 C 
BRANCH   2   3
ATOM      3  C   UNL     1     -28.629   4.054 -33.914  1.00  0.00     0.000 C 
BRANCH   3   4
ATOM      4  C   UNL     1     -29.045   4.532 -35.313  1.00  0.00     0.000 C 
BRANCH   4   5
ATOM      5  C   UNL     1     -28.723   3.469 -36.374  1.00  0.00     0.000 C 
BRANCH   5   6
ATOM      6  C   UNL     1     -29.107   3.916 -37.793  1.00  0.00     0.000 C 
BRANCH   6   7
ATOM      7  C   UNL     1     -27.937   3.801 -38.786  1.00  0.00     0.000 C 
BRANCH   7   8
ATOM      8  C   UNL     1     -27.174   5.125 -38.952  1.00  0.00     0.000 C 
BRANCH   8   9
ATOM      9  C   UNL     1     -25.647   4.930 -38.950  1.00  0.00     0.000 C 
BRANCH   9  10
ATOM     10  C   UNL     1     -25.061   4.845 -37.529  1.00  0.00     0.006 C 
BRANCH  10  11
ATOM     11  C   UNL     1     -23.531   4.711 -37.487  1.00  0.00     0.053 C 
BRANCH  11  12
ATOM     12  C   UNL     1     -23.052   3.497 -38.221  1.00  0.00     0.041 C 
ATOM     13  O   UNL     1     -23.824   2.516 -38.393  1.00  0.00    -0.550 OA
ATOM     14  O   UNL     1     -21.766   3.464 -38.749  1.00  0.00    -0.550 OA
ENDBRANCH  11  12
ENDBRANCH  10  11
ENDBRANCH   9  10
ENDBRANCH   8   9
ENDBRANCH   7   8
ENDBRANCH   6   7
ENDBRANCH   5   6
ENDBRANCH   4   5
ENDBRANCH   3   4
ENDBRANCH   2   3
ENDBRANCH   1   2
BRANCH   1  15
ATOM     15  C   UNL     1     -25.552   2.731 -32.436  1.00  0.00     0.000 C 
BRANCH  15  16
ATOM     16  C   UNL     1     -25.062   3.929 -33.279  1.00  0.00     0.000 C 
BRANCH  16  17
ATOM     17  C   UNL     1     -23.525   3.971 -33.372  1.00  0.00     0.000 C 
BRANCH  17  18
ATOM     18  C   UNL     1     -22.910   2.601 -33.726  1.00  0.00    -0.000 C 
BRANCH  18  19
ATOM     19  C   UNL     1     -23.154   2.166 -35.181  1.00  0.00    -0.000 C 
BRANCH  19  20
ATOM     20  C   UNL     1     -21.996   1.343 -35.762  1.00  0.00    -0.000 C 
BRANCH  20  21
ATOM     21  C   UNL     1     -22.520   0.197 -36.637  1.00  0.00    -0.000 C 
BRANCH  21  22
ATOM     22  C   UNL     1     -21.467  -0.911 -36.780  1.00  0.00    -0.000 C 
BRANCH  22  23
ATOM     23  C   UNL     1     -21.614  -1.688 -38.105  1.00  0.00    -0.000 C 
BRANCH  23  24
ATOM     24  C   UNL     1     -22.553  -1.016 -39.124  1.00  0.00    -0.000 C 
BRANCH  24  25
ATOM     25  C   UNL     1     -24.038  -1.394 -38.957  1.00  0.00    -0.003 C 
ATOM     26  C   UNL     1     -24.280  -2.901 -39.062  1.00  0.00     0.004 C 
ENDBRANCH  24  25
ENDBRANCH  23  24
ENDBRANCH  22  23
ENDBRANCH  21  22
ENDBRANCH  20  21
ENDBRANCH  19  20
ENDBRANCH  18  19
ENDBRANCH  17  18
ENDBRANCH  16  17
ENDBRANCH  15  16
ENDBRANCH   1  15
TORSDOF 22
ENDMDL
MODEL 2
REMARK VINA RESULT:     3.744      1.541      7.181
REMARK INTER + INTRA:           7.222
REMARK INTER:                   5.337
REMARK INTRA:                   1.885
REMARK UNBOUND:                -1.338
REMARK SMILES CCCCCCCCCCCCCCCCCCCCCCCC(=O)[O-]
REMARK SMILES IDX 13 1 14 2 15 3 16 4 17 5 18 6 19 7 20 8 21 9 22 10 23 11
REMARK SMILES IDX 24 12 25 13 26 14 12 15 11 16 10 17 9 18 8 19 7 20 6 21 5 22
REMARK SMILES IDX 4 23 3 24 2 25 1 26
REMARK H PARENT
REMARK Flexibility Score: inf
ROOT
ATOM      1  C   UNL     1     -22.560   2.356 -37.863  1.00  0.00     0.000 C 
ENDROOT
BRANCH   1   2
ATOM      2  C   UNL     1     -23.658   1.523 -38.561  1.00  0.00     0.000 C 
BRANCH   2   3
ATOM      3  C   UNL     1     -23.227   0.128 -39.054  1.00  0.00     0.000 C 
BRANCH   3   4
ATOM      4  C   UNL     1     -21.844  -0.298 -38.538  1.00  0.00     0.000 C 
BRANCH   4   5
ATOM      5  C   UNL     1     -21.969  -1.103 -37.236  1.00  0.00     0.000 C 
BRANCH   5   6
ATOM      6  C   UNL     1     -21.364  -0.372 -36.028  1.00  0.00     0.000 C 
BRANCH   6   7
ATOM      7  C   UNL     1     -22.241   0.797 -35.545  1.00  0.00     0.000 C 
BRANCH   7   8
ATOM      8  C   UNL     1     -22.228   0.949 -34.016  1.00  0.00     0.000 C 
BRANCH   8   9
ATOM      9  C   UNL     1     -23.587   1.406 -33.457  1.00  0.00     0.000 C 
BRANCH   9  10
ATOM     10  C   UNL     1     -23.520   2.795 -32.796  1.00  0.00     0.006 C 
BRANCH  10  11
ATOM     11  C   UNL     1     -24.365   3.869 -33.500  1.00  0.00     0.053 C 
BRANCH  11  12
ATOM     12  C   UNL     1     -23.849   4.179 -34.872  1.00  0.00     0.041 C 
ATOM     13  O   UNL     1     -22.958   5.056 -35.029  1.00  0.00    -0.550 OA
ATOM     14  O   UNL     1     -24.324   3.474 -35.971  1.00  0.00    -0.550 OA
ENDBRANCH  11  12
ENDBRANCH  10  11
ENDBRANCH   9  10
ENDBRANCH   8   9
ENDBRANCH   7   8
ENDBRANCH   6   7
ENDBRANCH   5   6
ENDBRANCH   4   5
ENDBRANCH   3   4
ENDBRANCH   2   3
ENDBRANCH   1   2
BRANCH   1  15
ATOM     15  C   UNL     1     -22.166   3.646 -38.608  1.00  0.00     0.000 C 
BRANCH  15  16
ATOM     16  C   UNL     1     -23.223   4.768 -38.510  1.00  0.00     0.000 C 
BRANCH  16  17
ATOM     17  C   UNL     1     -24.570   4.340 -39.123  1.00  0.00     0.000 C 
BRANCH  17  18
ATOM     18  C   UNL     1     -25.783   4.885 -38.340  1.00  0.00    -0.000 C 
BRANCH  18  19
ATOM     19  C   UNL     1     -27.110   4.805 -39.114  1.00  0.00    -0.000 C 
BRANCH  19  20
ATOM     20  C   UNL     1     -28.262   4.245 -38.269  1.00  0.00    -0.000 C 
BRANCH  20  21
ATOM     21  C   UNL     1     -28.518   5.122 -37.037  1.00  0.00    -0.000 C 
BRANCH  21  22
ATOM     22  C   UNL     1     -27.490   4.833 -35.934  1.00  0.00    -0.000 C 
BRANCH  22  23
ATOM     23  C   UNL     1     -28.085   5.007 -34.521  1.00  0.00    -0.000 C 
BRANCH  23  24
ATOM     24  C   UNL     1     -29.032   3.868 -34.096  1.00  0.00    -0.000 C 
BRANCH  24  25
ATOM     25  C   UNL     1     -28.312   2.627 -33.532  1.00  0.00    -0.003 C 
ATOM     26  C   UNL     1     -26.819   2.611 -33.862  1.00  0.00     0.004 C 
ENDBRANCH  24  25
ENDBRANCH  23  24
ENDBRANCH  22  23
ENDBRANCH  21  22
ENDBRANCH  20  21
ENDBRANCH  19  20
ENDBRANCH  18  19
ENDBRANCH  17  18
ENDBRANCH  16  17
ENDBRANCH  15  16
ENDBRANCH   1  15
TORSDOF 22
ENDMDL
MODEL 3
REMARK VINA RESULT:     3.820     17.260     19.970
REMARK INTER + INTRA:           7.396
REMARK INTER:                   7.722
REMARK INTRA:                  -0.325
REMARK UNBOUND:                -1.338
REMARK SMILES CCCCCCCCCCCCCCCCCCCCCCCC(=O)[O-]
REMARK SMILES IDX 13 1 14 2 15 3 16 4 17 5 18 6 19 7 20 8 21 9 22 10 23 11
REMARK SMILES IDX 24 12 25 13 26 14 12 15 11 16 10 17 9 18 8 19 7 20 6 21 5 22
REMARK SMILES IDX 4 23 3 24 2 25 1 26
REMARK H PARENT
REMARK Flexibility Score: inf
ROOT
ATOM      1  C   UNL     1     -22.213 -13.713 -25.847  1.00  0.00     0.000 C 
ENDROOT
BRANCH   1   2
ATOM      2  C   UNL     1     -22.915 -13.585 -24.477  1.00  0.00     0.000 C 
BRANCH   2   3
ATOM      3  C   UNL     1     -24.454 -13.541 -24.516  1.00  0.00     0.000 C 
BRANCH   3   4
ATOM      4  C   UNL     1     -25.114 -14.775 -23.884  1.00  0.00     0.000 C 
BRANCH   4   5
ATOM      5  C   UNL     1     -25.053 -14.705 -22.351  1.00  0.00     0.000 C 
BRANCH   5   6
ATOM      6  C   UNL     1     -23.617 -14.801 -21.812  1.00  0.00     0.000 C 
BRANCH   6   7
ATOM      7  C   UNL     1     -23.570 -15.078 -20.299  1.00  0.00     0.000 C 
BRANCH   7   8
ATOM      8  C   UNL     1     -22.205 -14.734 -19.681  1.00  0.00     0.000 C 
BRANCH   8   9
ATOM      9  C   UNL     1     -22.137 -13.282 -19.175  1.00  0.00     0.000 C 
BRANCH   9  10
ATOM     10  C   UNL     1     -20.695 -12.749 -19.091  1.00  0.00     0.006 C 
BRANCH  10  11
ATOM     11  C   UNL     1     -20.523 -11.313 -19.608  1.00  0.00     0.053 C 
BRANCH  11  12
ATOM     12  C   UNL     1     -19.096 -11.001 -19.939  1.00  0.00     0.041 C 
ATOM     13  O   UNL     1     -18.373 -11.868 -20.500  1.00  0.00    -0.550 OA
ATOM     14  O   UNL     1     -18.575  -9.742 -19.663  1.00  0.00    -0.550 OA
ENDBRANCH  11  12
ENDBRANCH  10  11
ENDBRANCH   9  10
ENDBRANCH   8   9
ENDBRANCH   7   8
ENDBRANCH   6   7
ENDBRANCH   5   6
ENDBRANCH   4   5
ENDBRANCH   3   4
ENDBRANCH   2   3
ENDBRANCH   1   2
BRANCH   1  15
ATOM     15  C   UNL     1     -21.381 -12.481 -26.256  1.00  0.00     0.000 C 
BRANCH  15  16
ATOM     16  C   UNL     1     -22.230 -11.307 -26.792  1.00  0.00     0.000 C 
BRANCH  16  17
ATOM     17  C   UNL     1     -21.366 -10.270 -27.533  1.00  0.00     0.000 C 
BRANCH  17  18
ATOM     18  C   UNL     1     -22.207  -9.257 -28.338  1.00  0.00    -0.000 C 
BRANCH  18  19
ATOM     19  C   UNL     1     -21.375  -8.154 -29.013  1.00  0.00    -0.000 C 
BRANCH  19  20
ATOM     20  C   UNL     1     -20.375  -7.489 -28.058  1.00  0.00    -0.000 C 
BRANCH  20  21
ATOM     21  C   UNL     1     -21.021  -6.313 -27.316  1.00  0.00    -0.000 C 
BRANCH  21  22
ATOM     22  C   UNL     1     -21.866  -6.807 -26.132  1.00  0.00    -0.000 C 
BRANCH  22  23
ATOM     23  C   UNL     1     -23.327  -7.093 -26.537  1.00  0.00    -0.000 C 
BRANCH  23  24
ATOM     24  C   UNL     1     -23.938  -8.328 -25.847  1.00  0.00    -0.000 C 
BRANCH  24  25
ATOM     25  C   UNL     1     -25.280  -8.787 -26.451  1.00  0.00    -0.003 C 
ATOM     26  C   UNL     1     -25.660 -10.208 -26.033  1.00  0.00     0.004 C 
ENDBRANCH  24  25
ENDBRANCH  23  24
ENDBRANCH  22  23
ENDBRANCH  21  22
ENDBRANCH  20  21
ENDBRANCH  19  20
ENDBRANCH  18  19
ENDBRANCH  17  18
ENDBRANCH  16  17
ENDBRANCH  15  16
ENDBRANCH   1  15
TORSDOF 22
ENDMDL
MODEL 4
REMARK VINA RESULT:     4.186     17.656     20.325
REMARK INTER + INTRA:           8.233
REMARK INTER:                   8.630
REMARK INTRA:                  -0.398
REMARK UNBOUND:                -1.338
REMARK SMILES CCCCCCCCCCCCCCCCCCCCCCCC(=O)[O-]
REMARK SMILES IDX 13 1 14 2 15 3 16 4 17 5 18 6 19 7 20 8 21 9 22 10 23 11
REMARK SMILES IDX 24 12 25 13 26 14 12 15 11 16 10 17 9 18 8 19 7 20 6 21 5 22
REMARK SMILES IDX 4 23 3 24 2 25 1 26
REMARK H PARENT
REMARK Flexibility Score: inf
ROOT
ATOM      1  C   UNL     1     -22.835 -14.522 -24.490  1.00  0.00     0.000 C 
ENDROOT
BRANCH   1   2
ATOM      2  C   UNL     1     -24.303 -14.112 -24.240  1.00  0.00     0.000 C 
BRANCH   2   3
ATOM      3  C   UNL     1     -24.768 -14.157 -22.771  1.00  0.00     0.000 C 
BRANCH   3   4
ATOM      4  C   UNL     1     -23.926 -15.096 -21.895  1.00  0.00     0.000 C 
BRANCH   4   5
ATOM      5  C   UNL     1     -24.182 -14.830 -20.404  1.00  0.00     0.000 C 
BRANCH   5   6
ATOM      6  C   UNL     1     -23.054 -14.020 -19.746  1.00  0.00     0.000 C 
BRANCH   6   7
ATOM      7  C   UNL     1     -21.661 -14.607 -20.030  1.00  0.00     0.000 C 
BRANCH   7   8
ATOM      8  C   UNL     1     -20.672 -14.357 -18.881  1.00  0.00     0.000 C 
BRANCH   8   9
ATOM      9  C   UNL     1     -20.127 -12.917 -18.875  1.00  0.00     0.000 C 
BRANCH   9  10
ATOM     10  C   UNL     1     -18.626 -12.849 -19.209  1.00  0.00     0.006 C 
BRANCH  10  11
ATOM     11  C   UNL     1     -18.263 -11.791 -20.263  1.00  0.00     0.053 C 
BRANCH  11  12
ATOM     12  C   UNL     1     -18.998 -10.505 -20.044  1.00  0.00     0.041 C 
ATOM     13  O   UNL     1     -18.422  -9.534 -19.484  1.00  0.00    -0.550 OA
ATOM     14  O   UNL     1     -20.307 -10.365 -20.492  1.00  0.00    -0.550 OA
ENDBRANCH  11  12
ENDBRANCH  10  11
ENDBRANCH   9  10
ENDBRANCH   8   9
ENDBRANCH   7   8
ENDBRANCH   6   7
ENDBRANCH   5   6
ENDBRANCH   4   5
ENDBRANCH   3   4
ENDBRANCH   2   3
ENDBRANCH   1   2
BRANCH   1  15
ATOM     15  C   UNL     1     -22.018 -13.500 -25.306  1.00  0.00     0.000 C 
BRANCH  15  16
ATOM     16  C   UNL     1     -22.886 -12.480 -26.074  1.00  0.00     0.000 C 
BRANCH  16  17
ATOM     17  C   UNL     1     -22.026 -11.467 -26.851  1.00  0.00     0.000 C 
BRANCH  17  18
ATOM     18  C   UNL     1     -22.169 -10.026 -26.318  1.00  0.00    -0.000 C 
BRANCH  18  19
ATOM     19  C   UNL     1     -23.541  -9.728 -25.690  1.00  0.00    -0.000 C 
BRANCH  19  20
ATOM     20  C   UNL     1     -24.386  -8.762 -26.530  1.00  0.00    -0.000 C 
BRANCH  20  21
ATOM     21  C   UNL     1     -23.498  -7.880 -27.416  1.00  0.00    -0.000 C 
BRANCH  21  22
ATOM     22  C   UNL     1     -22.458  -7.126 -26.574  1.00  0.00    -0.000 C 
BRANCH  22  23
ATOM     23  C   UNL     1     -21.348  -6.498 -27.442  1.00  0.00    -0.000 C 
BRANCH  23  24
ATOM     24  C   UNL     1     -20.464  -7.528 -28.171  1.00  0.00    -0.000 C 
BRANCH  24  25
ATOM     25  C   UNL     1     -21.177  -8.269 -29.319  1.00  0.00    -0.003 C 
ATOM     26  C   UNL     1     -21.882  -7.319 -30.288  1.00  0.00     0.004 C 
ENDBRANCH  24  25
ENDBRANCH  23  24
ENDBRANCH  22  23
ENDBRANCH  21  22
ENDBRANCH  20  21
ENDBRANCH  19  20
ENDBRANCH  18  19
ENDBRANCH  17  18
ENDBRANCH  16  17
ENDBRANCH  15  16
ENDBRANCH   1  15
TORSDOF 22
ENDMDL
MODEL 5
REMARK VINA RESULT:     4.252      1.390      2.404
REMARK INTER + INTRA:           8.384
REMARK INTER:                   1.305
REMARK INTRA:                   7.079
REMARK UNBOUND:                -1.338
REMARK SMILES CCCCCCCCCCCCCCCCCCCCCCCC(=O)[O-]
REMARK SMILES IDX 13 1 14 2 15 3 16 4 17 5 18 6 19 7 20 8 21 9 22 10 23 11
REMARK SMILES IDX 24 12 25 13 26 14 12 15 11 16 10 17 9 18 8 19 7 20 6 21 5 22
REMARK SMILES IDX 4 23 3 24 2 25 1 26
REMARK H PARENT
REMARK Flexibility Score: inf
ROOT
ATOM      1  C   UNL     1     -24.892   2.818 -32.676  1.00  0.00     0.000 C 
ENDROOT
BRANCH   1   2
ATOM      2  C   UNL     1     -25.615   4.133 -32.311  1.00  0.00     0.000 C 
BRANCH   2   3
ATOM      3  C   UNL     1     -26.971   4.365 -33.006  1.00  0.00     0.000 C 
BRANCH   3   4
ATOM      4  C   UNL     1     -27.463   3.145 -33.800  1.00  0.00     0.000 C 
BRANCH   4   5
ATOM      5  C   UNL     1     -28.924   3.331 -34.239  1.00  0.00     0.000 C 
BRANCH   5   6
ATOM      6  C   UNL     1     -29.096   3.257 -35.764  1.00  0.00     0.000 C 
BRANCH   6   7
ATOM      7  C   UNL     1     -28.453   4.451 -36.490  1.00  0.00     0.000 C 
BRANCH   7   8
ATOM      8  C   UNL     1     -29.125   4.748 -37.841  1.00  0.00     0.000 C 
BRANCH   8   9
ATOM      9  C   UNL     1     -28.109   5.125 -38.934  1.00  0.00     0.000 C 
BRANCH   9  10
ATOM     10  C   UNL     1     -26.656   5.111 -38.425  1.00  0.00     0.006 C 
BRANCH  10  11
ATOM     11  C   UNL     1     -25.753   4.083 -39.125  1.00  0.00     0.053 C 
BRANCH  11  12
ATOM     12  C   UNL     1     -24.391   4.018 -38.505  1.00  0.00     0.041 C 
ATOM     13  O   UNL     1     -23.600   3.087 -38.814  1.00  0.00    -0.550 OA
ATOM     14  O   UNL     1     -23.981   5.005 -37.617  1.00  0.00    -0.550 OA
ENDBRANCH  11  12
ENDBRANCH  10  11
ENDBRANCH   9  10
ENDBRANCH   8   9
ENDBRANCH   7   8
ENDBRANCH   6   7
ENDBRANCH   5   6
ENDBRANCH   4   5
ENDBRANCH   3   4
ENDBRANCH   2   3
ENDBRANCH   1   2
BRANCH   1  15
ATOM     15  C   UNL     1     -25.353   2.182 -34.002  1.00  0.00     0.000 C 
BRANCH  15  16
ATOM     16  C   UNL     1     -24.488   2.580 -35.218  1.00  0.00     0.000 C 
BRANCH  16  17
ATOM     17  C   UNL     1     -24.867   3.971 -35.759  1.00  0.00     0.000 C 
BRANCH  17  18
ATOM     18  C   UNL     1     -23.871   5.070 -35.334  1.00  0.00    -0.000 C 
BRANCH  18  19
ATOM     19  C   UNL     1     -22.487   4.534 -34.929  1.00  0.00    -0.000 C 
BRANCH  19  20
ATOM     20  C   UNL     1     -21.738   3.872 -36.093  1.00  0.00    -0.000 C 
BRANCH  20  21
ATOM     21  C   UNL     1     -21.919   2.349 -36.068  1.00  0.00    -0.000 C 
BRANCH  21  22
ATOM     22  C   UNL     1     -22.256   1.813 -37.468  1.00  0.00    -0.000 C 
BRANCH  22  23
ATOM     23  C   UNL     1     -22.741   0.349 -37.432  1.00  0.00    -0.000 C 
BRANCH  23  24
ATOM     24  C   UNL     1     -22.500  -0.423 -38.743  1.00  0.00    -0.000 C 
BRANCH  24  25
ATOM     25  C   UNL     1     -22.052  -1.884 -38.540  1.00  0.00    -0.003 C 
ATOM     26  C   UNL     1     -20.942  -2.022 -37.496  1.00  0.00     0.004 C 
ENDBRANCH  24  25
ENDBRANCH  23  24
ENDBRANCH  22  23
ENDBRANCH  21  22
ENDBRANCH  20  21
ENDBRANCH  19  20
ENDBRANCH  18  19
ENDBRANCH  17  18
ENDBRANCH  16  17
ENDBRANCH  15  16
ENDBRANCH   1  15
TORSDOF 22
ENDMDL
MODEL 6
REMARK VINA RESULT:     4.790     17.814     19.908
REMARK INTER + INTRA:           9.613
REMARK INTER:                   7.803
REMARK INTRA:                   1.811
REMARK UNBOUND:                -1.338
REMARK SMILES CCCCCCCCCCCCCCCCCCCCCCCC(=O)[O-]
REMARK SMILES IDX 13 1 14 2 15 3 16 4 17 5 18 6 19 7 20 8 21 9 22 10 23 11
REMARK SMILES IDX 24 12 25 13 26 14 12 15 11 16 10 17 9 18 8 19 7 20 6 21 5 22
REMARK SMILES IDX 4 23 3 24 2 25 1 26
REMARK H PARENT
REMARK Flexibility Score: inf
ROOT
ATOM      1  C   UNL     1     -25.736 -15.092 -23.389  1.00  0.00     0.000 C 
ENDROOT
BRANCH   1   2
ATOM      2  C   UNL     1     -26.912 -14.976 -24.384  1.00  0.00     0.000 C 
BRANCH   2   3
ATOM      3  C   UNL     1     -26.747 -13.919 -25.493  1.00  0.00     0.000 C 
BRANCH   3   4
ATOM      4  C   UNL     1     -25.330 -13.331 -25.566  1.00  0.00     0.000 C 
BRANCH   4   5
ATOM      5  C   UNL     1     -25.339 -11.834 -25.225  1.00  0.00     0.000 C 
BRANCH   5   6
ATOM      6  C   UNL     1     -26.328 -11.037 -26.089  1.00  0.00     0.000 C 
BRANCH   6   7
ATOM      7  C   UNL     1     -26.064  -9.522 -26.047  1.00  0.00     0.000 C 
BRANCH   7   8
ATOM      8  C   UNL     1     -24.580  -9.190 -25.820  1.00  0.00     0.000 C 
BRANCH   8   9
ATOM      9  C   UNL     1     -23.967  -8.402 -26.991  1.00  0.00     0.000 C 
BRANCH   9  10
ATOM     10  C   UNL     1     -22.515  -8.817 -27.291  1.00  0.00     0.006 C 
BRANCH  10  11
ATOM     11  C   UNL     1     -21.731  -7.800 -28.134  1.00  0.00     0.053 C 
BRANCH  11  12
ATOM     12  C   UNL     1     -21.181  -6.683 -27.301  1.00  0.00     0.041 C 
ATOM     13  O   UNL     1     -20.312  -5.906 -27.779  1.00  0.00    -0.550 OA
ATOM     14  O   UNL     1     -21.655  -6.478 -26.011  1.00  0.00    -0.550 OA
ENDBRANCH  11  12
ENDBRANCH  10  11
ENDBRANCH   9  10
ENDBRANCH   8   9
ENDBRANCH   7   8
ENDBRANCH   6   7
ENDBRANCH   5   6
ENDBRANCH   4   5
ENDBRANCH   3   4
ENDBRANCH   2   3
ENDBRANCH   1   2
BRANCH   1  15
ATOM     15  C   UNL     1     -24.588 -14.094 -23.639  1.00  0.00     0.000 C 
BRANCH  15  16
ATOM     16  C   UNL     1     -23.512 -14.093 -22.531  1.00  0.00     0.000 C 
BRANCH  16  17
ATOM     17  C   UNL     1     -23.822 -15.125 -21.431  1.00  0.00     0.000 C 
BRANCH  17  18
ATOM     18  C   UNL     1     -22.784 -15.114 -20.290  1.00  0.00    -0.000 C 
BRANCH  18  19
ATOM     19  C   UNL     1     -23.286 -14.446 -18.999  1.00  0.00    -0.000 C 
BRANCH  19  20
ATOM     20  C   UNL     1     -22.984 -12.942 -18.946  1.00  0.00    -0.000 C 
BRANCH  20  21
ATOM     21  C   UNL     1     -21.674 -12.618 -19.675  1.00  0.00    -0.000 C 
BRANCH  21  22
ATOM     22  C   UNL     1     -20.470 -13.225 -18.939  1.00  0.00    -0.000 C 
BRANCH  22  23
ATOM     23  C   UNL     1     -19.150 -13.016 -19.708  1.00  0.00    -0.000 C 
BRANCH  23  24
ATOM     24  C   UNL     1     -18.448 -11.680 -19.397  1.00  0.00    -0.000 C 
BRANCH  24  25
ATOM     25  C   UNL     1     -19.329 -10.437 -19.629  1.00  0.00    -0.003 C 
ATOM     26  C   UNL     1     -18.525  -9.223 -20.096  1.00  0.00     0.004 C 
ENDBRANCH  24  25
ENDBRANCH  23  24
ENDBRANCH  22  23
ENDBRANCH  21  22
ENDBRANCH  20  21
ENDBRANCH  19  20
ENDBRANCH  18  19
ENDBRANCH  17  18
ENDBRANCH  16  17
ENDBRANCH  15  16
ENDBRANCH   1  15
TORSDOF 22
ENDMDL
MODEL 7
REMARK VINA RESULT:     5.280      6.626      7.634
REMARK INTER + INTRA:          10.734
REMARK INTER:                  11.570
REMARK INTRA:                  -0.836
REMARK UNBOUND:                -1.338
REMARK SMILES CCCCCCCCCCCCCCCCCCCCCCCC(=O)[O-]
REMARK SMILES IDX 13 1 14 2 15 3 16 4 17 5 18 6 19 7 20 8 21 9 22 10 23 11
REMARK SMILES IDX 24 12 25 13 26 14 12 15 11 16 10 17 9 18 8 19 7 20 6 21 5 22
REMARK SMILES IDX 4 23 3 24 2 25 1 26
REMARK H PARENT
REMARK Flexibility Score: inf
ROOT
ATOM      1  C   UNL     1     -23.026   0.323 -32.335  1.00  0.00     0.000 C 
ENDROOT
BRANCH   1   2
ATOM      2  C   UNL     1     -24.421   0.981 -32.427  1.00  0.00     0.000 C 
BRANCH   2   3
ATOM      3  C   UNL     1     -24.493   2.284 -33.247  1.00  0.00     0.000 C 
BRANCH   3   4
ATOM      4  C   UNL     1     -25.915   2.853 -33.361  1.00  0.00     0.000 C 
BRANCH   4   5
ATOM      5  C   UNL     1     -25.946   4.335 -32.959  1.00  0.00     0.000 C 
BRANCH   5   6
ATOM      6  C   UNL     1     -27.163   5.077 -33.532  1.00  0.00     0.000 C 
BRANCH   6   7
ATOM      7  C   UNL     1     -27.886   4.271 -34.625  1.00  0.00     0.000 C 
BRANCH   7   8
ATOM      8  C   UNL     1     -28.222   5.125 -35.859  1.00  0.00     0.000 C 
BRANCH   8   9
ATOM      9  C   UNL     1     -27.171   4.988 -36.975  1.00  0.00     0.000 C 
BRANCH   9  10
ATOM     10  C   UNL     1     -25.728   5.056 -36.443  1.00  0.00     0.006 C 
BRANCH  10  11
ATOM     11  C   UNL     1     -24.652   4.801 -37.510  1.00  0.00     0.053 C 
BRANCH  11  12
ATOM     12  C   UNL     1     -23.296   4.604 -36.904  1.00  0.00     0.041 C 
ATOM     13  O   UNL     1     -22.317   4.293 -37.633  1.00  0.00    -0.550 OA
ATOM     14  O   UNL     1     -23.106   4.801 -35.541  1.00  0.00    -0.550 OA
ENDBRANCH  11  12
ENDBRANCH  10  11
ENDBRANCH   9  10
ENDBRANCH   8   9
ENDBRANCH   7   8
ENDBRANCH   6   7
ENDBRANCH   5   6
ENDBRANCH   4   5
ENDBRANCH   3   4
ENDBRANCH   2   3
ENDBRANCH   1   2
BRANCH   1  15
ATOM     15  C   UNL     1     -22.907  -0.773 -31.258  1.00  0.00     0.000 C 
BRANCH  15  16
ATOM     16  C   UNL     1     -22.921  -2.209 -31.827  1.00  0.00     0.000 C 
BRANCH  16  17
ATOM     17  C   UNL     1     -22.027  -3.157 -31.008  1.00  0.00     0.000 C 
BRANCH  17  18
ATOM     18  C   UNL     1     -22.400  -4.643 -31.195  1.00  0.00    -0.000 C 
BRANCH  18  19
ATOM     19  C   UNL     1     -21.931  -5.552 -30.047  1.00  0.00    -0.000 C 
BRANCH  19  20
ATOM     20  C   UNL     1     -22.343  -7.018 -30.239  1.00  0.00    -0.000 C 
BRANCH  20  21
ATOM     21  C   UNL     1     -21.199  -7.965 -29.856  1.00  0.00    -0.000 C 
BRANCH  21  22
ATOM     22  C   UNL     1     -20.523  -7.512 -28.553  1.00  0.00    -0.000 C 
BRANCH  22  23
ATOM     23  C   UNL     1     -21.508  -7.472 -27.367  1.00  0.00    -0.000 C 
BRANCH  23  24
ATOM     24  C   UNL     1     -22.383  -8.733 -27.237  1.00  0.00    -0.000 C 
BRANCH  24  25
ATOM     25  C   UNL     1     -23.898  -8.461 -27.320  1.00  0.00    -0.003 C 
ATOM     26  C   UNL     1     -24.624  -8.757 -26.007  1.00  0.00     0.004 C 
ENDBRANCH  24  25
ENDBRANCH  23  24
ENDBRANCH  22  23
ENDBRANCH  21  22
ENDBRANCH  20  21
ENDBRANCH  19  20
ENDBRANCH  18  19
ENDBRANCH  17  18
ENDBRANCH  16  17
ENDBRANCH  15  16
ENDBRANCH   1  15
TORSDOF 22
ENDMDL
MODEL 8
REMARK VINA RESULT:     5.392      6.134      7.272
REMARK INTER + INTRA:          10.990
REMARK INTER:                  12.144
REMARK INTRA:                  -1.154
REMARK UNBOUND:                -1.338
REMARK SMILES CCCCCCCCCCCCCCCCCCCCCCCC(=O)[O-]
REMARK SMILES IDX 13 1 14 2 15 3 16 4 17 5 18 6 19 7 20 8 21 9 22 10 23 11
REMARK SMILES IDX 24 12 25 13 26 14 12 15 11 16 10 17 9 18 8 19 7 20 6 21 5 22
REMARK SMILES IDX 4 23 3 24 2 25 1 26
REMARK H PARENT
REMARK Flexibility Score: inf
ROOT
ATOM      1  C   UNL     1     -22.759   0.953 -33.379  1.00  0.00     0.000 C 
ENDROOT
BRANCH   1   2
ATOM      2  C   UNL     1     -23.068   2.449 -33.149  1.00  0.00     0.000 C 
BRANCH   2   3
ATOM      3  C   UNL     1     -24.555   2.802 -32.953  1.00  0.00     0.000 C 
BRANCH   3   4
ATOM      4  C   UNL     1     -24.773   4.182 -32.314  1.00  0.00     0.000 C 
BRANCH   4   5
ATOM      5  C   UNL     1     -25.638   5.074 -33.218  1.00  0.00     0.000 C 
BRANCH   5   6
ATOM      6  C   UNL     1     -25.600   4.636 -34.690  1.00  0.00     0.000 C 
BRANCH   6   7
ATOM      7  C   UNL     1     -24.294   5.044 -35.395  1.00  0.00     0.000 C 
BRANCH   7   8
ATOM      8  C   UNL     1     -24.251   4.586 -36.862  1.00  0.00     0.000 C 
BRANCH   8   9
ATOM      9  C   UNL     1     -23.007   5.105 -37.605  1.00  0.00     0.000 C 
BRANCH   9  10
ATOM     10  C   UNL     1     -22.308   4.010 -38.432  1.00  0.00     0.006 C 
BRANCH  10  11
ATOM     11  C   UNL     1     -23.245   2.893 -38.915  1.00  0.00     0.053 C 
BRANCH  11  12
ATOM     12  C   UNL     1     -22.915   1.573 -38.289  1.00  0.00     0.041 C 
ATOM     13  O   UNL     1     -22.726   1.493 -37.045  1.00  0.00    -0.550 OA
ATOM     14  O   UNL     1     -22.854   0.426 -39.071  1.00  0.00    -0.550 OA
ENDBRANCH  11  12
ENDBRANCH  10  11
ENDBRANCH   9  10
ENDBRANCH   8   9
ENDBRANCH   7   8
ENDBRANCH   6   7
ENDBRANCH   5   6
ENDBRANCH   4   5
ENDBRANCH   3   4
ENDBRANCH   2   3
ENDBRANCH   1   2
BRANCH   1  15
ATOM     15  C   UNL     1     -23.367   0.007 -32.325  1.00  0.00     0.000 C 
BRANCH  15  16
ATOM     16  C   UNL     1     -22.383  -1.066 -31.809  1.00  0.00     0.000 C 
BRANCH  16  17
ATOM     17  C   UNL     1     -23.114  -2.345 -31.362  1.00  0.00     0.000 C 
BRANCH  17  18
ATOM     18  C   UNL     1     -22.350  -3.632 -31.737  1.00  0.00    -0.000 C 
BRANCH  18  19
ATOM     19  C   UNL     1     -21.679  -4.329 -30.541  1.00  0.00    -0.000 C 
BRANCH  19  20
ATOM     20  C   UNL     1     -22.447  -5.568 -30.063  1.00  0.00    -0.000 C 
BRANCH  20  21
ATOM     21  C   UNL     1     -21.824  -6.852 -30.625  1.00  0.00    -0.000 C 
BRANCH  21  22
ATOM     22  C   UNL     1     -21.337  -7.769 -29.493  1.00  0.00    -0.000 C 
BRANCH  22  23
ATOM     23  C   UNL     1     -21.090  -6.995 -28.181  1.00  0.00    -0.000 C 
BRANCH  23  24
ATOM     24  C   UNL     1     -21.949  -7.479 -26.998  1.00  0.00    -0.000 C 
BRANCH  24  25
ATOM     25  C   UNL     1     -22.920  -8.624 -27.350  1.00  0.00    -0.003 C 
ATOM     26  C   UNL     1     -24.222  -8.561 -26.551  1.00  0.00     0.004 C 
ENDBRANCH  24  25
ENDBRANCH  23  24
ENDBRANCH  22  23
ENDBRANCH  21  22
ENDBRANCH  20  21
ENDBRANCH  19  20
ENDBRANCH  18  19
ENDBRANCH  17  18
ENDBRANCH  16  17
ENDBRANCH  15  16
ENDBRANCH   1  15
TORSDOF 22
ENDMDL
