MODEL 1
REMARK VINA RESULT:    -5.054      0.000      0.000
REMARK INTER + INTRA:          -5.201
REMARK INTER:                  -5.201
REMARK INTRA:                   0.000
REMARK UNBOUND:                 0.000
REMARK SMILES Oc1ccc2[nH]ccc2c1
REMARK SMILES IDX 3 1 4 2 5 3 9 4 8 5 7 6 6 7 10 8 2 9 1 11
REMARK H PARENT 6 10 1 12
REMARK Flexibility Score: inf
ROOT
ATOM      1  C   UNL     1       8.895  -7.810  42.632  1.00  0.00     0.048 A 
ATOM      2  C   UNL     1       8.143  -8.225  41.518  1.00  0.00     0.030 A 
ATOM      3  C   UNL     1       7.247  -9.278  41.693  1.00  0.00     0.046 A 
ATOM      4  C   UNL     1       7.094  -9.898  42.905  1.00  0.00     0.003 A 
ATOM      5  C   UNL     1       6.145 -10.885  42.745  1.00  0.00     0.028 A 
ATOM      6  C   UNL     1       5.762 -10.808  41.409  1.00  0.00     0.083 A 
ATOM      7  N   UNL     1       6.438  -9.826  40.771  1.00  0.00    -0.361 N 
ATOM      8  C   UNL     1       7.823  -9.512  44.027  1.00  0.00     0.056 A 
ATOM      9  C   UNL     1       8.738  -8.452  43.886  1.00  0.00     0.116 A 
ATOM     10  H   UNL     1       6.347  -9.551  39.768  1.00  0.00     0.166 HD
ENDROOT
BRANCH   9  11
ATOM     11  O   UNL     1       9.484  -8.041  44.988  1.00  0.00    -0.508 OA
ATOM     12  H   UNL     1       9.084  -8.020  45.919  1.00  0.00     0.293 HD
ENDBRANCH   9  11
TORSDOF 1
ENDMDL
MODEL 2
REMARK VINA RESULT:    -4.743      2.600      4.066
REMARK INTER + INTRA:          -4.881
REMARK INTER:                  -4.881
REMARK INTRA:                   0.000
REMARK UNBOUND:                 0.000
REMARK SMILES Oc1ccc2[nH]ccc2c1
REMARK SMILES IDX 3 1 4 2 5 3 9 4 8 5 7 6 6 7 10 8 2 9 1 11
REMARK H PARENT 6 10 1 12
REMARK Flexibility Score: inf
ROOT
ATOM      1  C   UNL     1       6.232 -10.825  42.957  1.00  0.00     0.048 A 
ATOM      2  C   UNL     1       7.048 -10.285  43.969  1.00  0.00     0.030 A 
ATOM      3  C   UNL     1       7.892  -9.229  43.630  1.00  0.00     0.046 A 
ATOM      4  C   UNL     1       7.936  -8.723  42.358  1.00  0.00     0.003 A 
ATOM      5  C   UNL     1       8.860  -7.700  42.355  1.00  0.00     0.028 A 
ATOM      6  C   UNL     1       9.339  -7.638  43.660  1.00  0.00     0.083 A 
ATOM      7  N   UNL     1       8.745  -8.574  44.435  1.00  0.00    -0.361 N 
ATOM      8  C   UNL     1       7.142  -9.234  41.334  1.00  0.00     0.056 A 
ATOM      9  C   UNL     1       6.278 -10.302  41.640  1.00  0.00     0.116 A 
ATOM     10  H   UNL     1       8.916  -8.748  45.450  1.00  0.00     0.166 HD
ENDROOT
BRANCH   9  11
ATOM     11  O   UNL     1       5.471 -10.836  40.640  1.00  0.00    -0.508 OA
ATOM     12  H   UNL     1       5.768 -10.849  39.671  1.00  0.00     0.293 HD
ENDBRANCH   9  11
TORSDOF 1
ENDMDL
MODEL 3
REMARK VINA RESULT:    -4.690      1.184      2.041
REMARK INTER + INTRA:          -4.827
REMARK INTER:                  -4.827
REMARK INTRA:                   0.000
REMARK UNBOUND:                 0.000
REMARK SMILES Oc1ccc2[nH]ccc2c1
REMARK SMILES IDX 3 1 4 2 5 3 9 4 8 5 7 6 6 7 10 8 2 9 1 11
REMARK H PARENT 6 10 1 12
REMARK Flexibility Score: inf
ROOT
ATOM      1  C   UNL     1       8.728  -8.276  44.195  1.00  0.00     0.048 A 
ATOM      2  C   UNL     1       7.848  -9.374  44.202  1.00  0.00     0.030 A 
ATOM      3  C   UNL     1       7.263  -9.746  42.993  1.00  0.00     0.046 A 
ATOM      4  C   UNL     1       7.528  -9.074  41.829  1.00  0.00     0.003 A 
ATOM      5  C   UNL     1       6.801  -9.683  40.828  1.00  0.00     0.028 A 
ATOM      6  C   UNL     1       6.118 -10.720  41.455  1.00  0.00     0.083 A 
ATOM      7  N   UNL     1       6.403 -10.754  42.777  1.00  0.00    -0.361 N 
ATOM      8  C   UNL     1       8.394  -7.984  41.788  1.00  0.00     0.056 A 
ATOM      9  C   UNL     1       9.003  -7.580  42.991  1.00  0.00     0.116 A 
ATOM     10  H   UNL     1       6.029 -11.428  43.482  1.00  0.00     0.166 HD
ENDROOT
BRANCH   9  11
ATOM     11  O   UNL     1       9.874  -6.494  42.986  1.00  0.00    -0.508 OA
ATOM     12  H   UNL     1      10.720  -6.497  42.430  1.00  0.00     0.293 HD
ENDBRANCH   9  11
TORSDOF 1
ENDMDL
MODEL 4
REMARK VINA RESULT:    -4.687      2.328      3.636
REMARK INTER + INTRA:          -4.824
REMARK INTER:                  -4.824
REMARK INTRA:                   0.000
REMARK UNBOUND:                 0.000
REMARK SMILES Oc1ccc2[nH]ccc2c1
REMARK SMILES IDX 3 1 4 2 5 3 9 4 8 5 7 6 6 7 10 8 2 9 1 11
REMARK H PARENT 6 10 1 12
REMARK Flexibility Score: inf
ROOT
ATOM      1  C   UNL     1       7.863  -9.030  42.494  1.00  0.00     0.048 A 
ATOM      2  C   UNL     1       7.719  -8.093  41.454  1.00  0.00     0.030 A 
ATOM      3  C   UNL     1       7.742  -6.741  41.788  1.00  0.00     0.046 A 
ATOM      4  C   UNL     1       7.901  -6.322  43.083  1.00  0.00     0.003 A 
ATOM      5  C   UNL     1       7.880  -4.944  43.075  1.00  0.00     0.028 A 
ATOM      6  C   UNL     1       7.707  -4.590  41.740  1.00  0.00     0.083 A 
ATOM      7  N   UNL     1       7.623  -5.691  40.959  1.00  0.00    -0.361 N 
ATOM      8  C   UNL     1       8.046  -7.222  44.136  1.00  0.00     0.056 A 
ATOM      9  C   UNL     1       8.027  -8.597  43.835  1.00  0.00     0.116 A 
ATOM     10  H   UNL     1       7.493  -5.716  39.923  1.00  0.00     0.166 HD
ENDROOT
BRANCH   9  11
ATOM     11  O   UNL     1       8.169  -9.525  44.863  1.00  0.00    -0.508 OA
ATOM     12  H   UNL     1       8.978 -10.133  44.918  1.00  0.00     0.293 HD
ENDBRANCH   9  11
TORSDOF 1
ENDMDL
MODEL 5
REMARK VINA RESULT:    -4.569      9.230     10.438
REMARK INTER + INTRA:          -4.702
REMARK INTER:                  -4.702
REMARK INTRA:                   0.000
REMARK UNBOUND:                 0.000
REMARK SMILES Oc1ccc2[nH]ccc2c1
REMARK SMILES IDX 3 1 4 2 5 3 9 4 8 5 7 6 6 7 10 8 2 9 1 11
REMARK H PARENT 6 10 1 12
REMARK Flexibility Score: inf
ROOT
ATOM      1  C   UNL     1       6.904  -3.379  36.659  1.00  0.00     0.048 A 
ATOM      2  C   UNL     1       6.668  -3.077  35.306  1.00  0.00     0.030 A 
ATOM      3  C   UNL     1       6.063  -1.857  35.008  1.00  0.00     0.046 A 
ATOM      4  C   UNL     1       5.705  -0.972  35.990  1.00  0.00     0.003 A 
ATOM      5  C   UNL     1       5.138   0.121  35.372  1.00  0.00     0.028 A 
ATOM      6  C   UNL     1       5.185  -0.165  34.011  1.00  0.00     0.083 A 
ATOM      7  N   UNL     1       5.750  -1.375  33.794  1.00  0.00    -0.361 N 
ATOM      8  C   UNL     1       5.924  -1.241  37.339  1.00  0.00     0.056 A 
ATOM      9  C   UNL     1       6.533  -2.464  37.677  1.00  0.00     0.116 A 
ATOM     10  H   UNL     1       5.910  -1.835  32.870  1.00  0.00     0.166 HD
ENDROOT
BRANCH   9  11
ATOM     11  O   UNL     1       6.767  -2.765  39.016  1.00  0.00    -0.508 OA
ATOM     12  H   UNL     1       7.483  -2.285  39.549  1.00  0.00     0.293 HD
ENDBRANCH   9  11
TORSDOF 1
ENDMDL
MODEL 6
REMARK VINA RESULT:    -4.449      2.531      4.067
REMARK INTER + INTRA:          -4.579
REMARK INTER:                  -4.579
REMARK INTRA:                   0.000
REMARK UNBOUND:                 0.000
REMARK SMILES Oc1ccc2[nH]ccc2c1
REMARK SMILES IDX 3 1 4 2 5 3 9 4 8 5 7 6 6 7 10 8 2 9 1 11
REMARK H PARENT 6 10 1 12
REMARK Flexibility Score: inf
ROOT
ATOM      1  C   UNL     1       7.901  -9.324  43.849  1.00  0.00     0.048 A 
ATOM      2  C   UNL     1       8.762  -8.243  44.111  1.00  0.00     0.030 A 
ATOM      3  C   UNL     1       8.979  -7.322  43.088  1.00  0.00     0.046 A 
ATOM      4  C   UNL     1       8.381  -7.452  41.863  1.00  0.00     0.003 A 
ATOM      5  C   UNL     1       8.799  -6.392  41.086  1.00  0.00     0.028 A 
ATOM      6  C   UNL     1       9.649  -5.655  41.905  1.00  0.00     0.083 A 
ATOM      7  N   UNL     1       9.757  -6.227  43.126  1.00  0.00    -0.361 N 
ATOM      8  C   UNL     1       7.524  -8.511  41.571  1.00  0.00     0.056 A 
ATOM      9  C   UNL     1       7.281  -9.461  42.580  1.00  0.00     0.116 A 
ATOM     10  H   UNL     1      10.327  -5.884  43.930  1.00  0.00     0.166 HD
ENDROOT
BRANCH   9  11
ATOM     11  O   UNL     1       6.430 -10.531  42.322  1.00  0.00    -0.508 OA
ATOM     12  H   UNL     1       5.572 -10.410  41.797  1.00  0.00     0.293 HD
ENDBRANCH   9  11
TORSDOF 1
ENDMDL
MODEL 7
REMARK VINA RESULT:    -4.340      8.838     10.172
REMARK INTER + INTRA:          -4.467
REMARK INTER:                  -4.467
REMARK INTRA:                   0.000
REMARK UNBOUND:                 0.000
REMARK SMILES Oc1ccc2[nH]ccc2c1
REMARK SMILES IDX 3 1 4 2 5 3 9 4 8 5 7 6 6 7 10 8 2 9 1 11
REMARK H PARENT 6 10 1 12
REMARK Flexibility Score: inf
ROOT
ATOM      1  C   UNL     1       7.187  -3.457  37.568  1.00  0.00     0.048 A 
ATOM      2  C   UNL     1       6.308  -2.385  37.805  1.00  0.00     0.030 A 
ATOM      3  C   UNL     1       6.080  -1.488  36.762  1.00  0.00     0.046 A 
ATOM      4  C   UNL     1       6.684  -1.635  35.541  1.00  0.00     0.003 A 
ATOM      5  C   UNL     1       6.254  -0.598  34.742  1.00  0.00     0.028 A 
ATOM      6  C   UNL     1       5.387   0.142  35.541  1.00  0.00     0.083 A 
ATOM      7  N   UNL     1       5.285  -0.406  36.774  1.00  0.00    -0.361 N 
ATOM      8  C   UNL     1       7.559  -2.686  35.275  1.00  0.00     0.056 A 
ATOM      9  C   UNL     1       7.813  -3.610  36.305  1.00  0.00     0.116 A 
ATOM     10  H   UNL     1       4.705  -0.056  37.569  1.00  0.00     0.166 HD
ENDROOT
BRANCH   9  11
ATOM     11  O   UNL     1       8.683  -4.672  36.073  1.00  0.00    -0.508 OA
ATOM     12  H   UNL     1       8.346  -5.568  35.741  1.00  0.00     0.293 HD
ENDBRANCH   9  11
TORSDOF 1
ENDMDL
MODEL 8
REMARK VINA RESULT:    -4.333     14.053     14.994
REMARK INTER + INTRA:          -4.460
REMARK INTER:                  -4.460
REMARK INTRA:                   0.000
REMARK UNBOUND:                 0.000
REMARK SMILES Oc1ccc2[nH]ccc2c1
REMARK SMILES IDX 3 1 4 2 5 3 9 4 8 5 7 6 6 7 10 8 2 9 1 11
REMARK H PARENT 6 10 1 12
REMARK Flexibility Score: inf
ROOT
ATOM      1  C   UNL     1      23.342 -11.628  46.590  1.00  0.00     0.048 A 
ATOM      2  C   UNL     1      22.942 -12.921  46.973  1.00  0.00     0.030 A 
ATOM      3  C   UNL     1      21.725 -13.396  46.487  1.00  0.00     0.046 A 
ATOM      4  C   UNL     1      20.935 -12.640  45.662  1.00  0.00     0.003 A 
ATOM      5  C   UNL     1      19.816 -13.388  45.364  1.00  0.00     0.028 A 
ATOM      6  C   UNL     1      19.993 -14.591  46.041  1.00  0.00     0.083 A 
ATOM      7  N   UNL     1      21.160 -14.590  46.725  1.00  0.00    -0.361 N 
ATOM      8  C   UNL     1      21.302 -11.356  45.264  1.00  0.00     0.056 A 
ATOM      9  C   UNL     1      22.525 -10.844  45.737  1.00  0.00     0.116 A 
ATOM     10  H   UNL     1      21.540 -15.363  47.316  1.00  0.00     0.166 HD
ENDROOT
BRANCH   9  11
ATOM     11  O   UNL     1      22.922  -9.564  45.359  1.00  0.00    -0.508 OA
ATOM     12  H   UNL     1      22.419  -8.741  45.668  1.00  0.00     0.293 HD
ENDBRANCH   9  11
TORSDOF 1
ENDMDL
MODEL 9
REMARK VINA RESULT:    -4.333     14.223     15.341
REMARK INTER + INTRA:          -4.459
REMARK INTER:                  -4.459
REMARK INTRA:                   0.000
REMARK UNBOUND:                 0.000
REMARK SMILES Oc1ccc2[nH]ccc2c1
REMARK SMILES IDX 3 1 4 2 5 3 9 4 8 5 7 6 6 7 10 8 2 9 1 11
REMARK H PARENT 6 10 1 12
REMARK Flexibility Score: inf
ROOT
ATOM      1  C   UNL     1      19.885 -13.018  45.258  1.00  0.00     0.048 A 
ATOM      2  C   UNL     1      20.634 -11.837  45.408  1.00  0.00     0.030 A 
ATOM      3  C   UNL     1      21.823 -11.909  46.133  1.00  0.00     0.046 A 
ATOM      4  C   UNL     1      22.259 -13.084  46.685  1.00  0.00     0.003 A 
ATOM      5  C   UNL     1      23.450 -12.820  47.328  1.00  0.00     0.028 A 
ATOM      6  C   UNL     1      23.679 -11.463  47.124  1.00  0.00     0.083 A 
ATOM      7  N   UNL     1      22.683 -10.911  46.394  1.00  0.00    -0.361 N 
ATOM      8  C   UNL     1      21.541 -14.271  46.555  1.00  0.00     0.056 A 
ATOM      9  C   UNL     1      20.335 -14.235  45.830  1.00  0.00     0.116 A 
ATOM     10  H   UNL     1      22.603  -9.913  46.097  1.00  0.00     0.166 HD
ENDROOT
BRANCH   9  11
ATOM     11  O   UNL     1      19.592 -15.403  45.680  1.00  0.00    -0.508 OA
ATOM     12  H   UNL     1      19.318 -15.742  44.766  1.00  0.00     0.293 HD
ENDBRANCH   9  11
TORSDOF 1
ENDMDL
