MODEL 1
REMARK VINA RESULT:    -4.176      0.000      0.000
REMARK INTER + INTRA:          -5.480
REMARK INTER:                  -5.397
REMARK INTRA:                  -0.083
REMARK UNBOUND:                -0.083
REMARK SMILES CCCCCCC(C)=O
REMARK SMILES IDX 4 1 3 2 2 3 1 4 5 5 6 6 7 7 9 8 8 9
REMARK H PARENT
REMARK Flexibility Score: inf
ROOT
ATOM      1  C   UNL     1      25.699  56.784  -9.198  1.00  0.00     0.000 C 
ENDROOT
BRANCH   1   2
ATOM      2  C   UNL     1      24.239  56.347  -8.977  1.00  0.00    -0.000 C 
BRANCH   2   3
ATOM      3  C   UNL     1      24.025  55.682  -7.609  1.00  0.00    -0.003 C 
ATOM      4  C   UNL     1      22.694  54.936  -7.518  1.00  0.00     0.004 C 
ENDBRANCH   2   3
ENDBRANCH   1   2
BRANCH   1   5
ATOM      5  C   UNL     1      25.832  58.294  -9.448  1.00  0.00     0.008 C 
BRANCH   5   6
ATOM      6  C   UNL     1      26.995  58.637 -10.390  1.00  0.00     0.075 C 
BRANCH   6   7
ATOM      7  C   UNL     1      27.404  60.078 -10.228  1.00  0.00     0.129 C 
ATOM      8  O   UNL     1      26.835  60.775  -9.400  1.00  0.00    -0.300 OA
ATOM      9  C   UNL     1      28.504  60.677 -11.053  1.00  0.00     0.087 C 
ENDBRANCH   6   7
ENDBRANCH   5   6
ENDBRANCH   1   5
TORSDOF 5
ENDMDL
MODEL 2
REMARK VINA RESULT:    -3.847      1.753      5.601
REMARK INTER + INTRA:          -5.055
REMARK INTER:                  -4.914
REMARK INTRA:                  -0.141
REMARK UNBOUND:                -0.083
REMARK SMILES CCCCCCC(C)=O
REMARK SMILES IDX 4 1 3 2 2 3 1 4 5 5 6 6 7 7 9 8 8 9
REMARK H PARENT
REMARK Flexibility Score: inf
ROOT
ATOM      1  C   UNL     1      27.010  58.722 -10.444  1.00  0.00     0.000 C 
ENDROOT
BRANCH   1   2
ATOM      2  C   UNL     1      27.428  60.203 -10.463  1.00  0.00    -0.000 C 
BRANCH   2   3
ATOM      3  C   UNL     1      28.933  60.387 -10.709  1.00  0.00    -0.003 C 
ATOM      4  C   UNL     1      29.542  59.244 -11.521  1.00  0.00     0.004 C 
ENDBRANCH   2   3
ENDBRANCH   1   2
BRANCH   1   5
ATOM      5  C   UNL     1      25.883  58.439  -9.438  1.00  0.00     0.008 C 
BRANCH   5   6
ATOM      6  C   UNL     1      25.780  56.952  -9.069  1.00  0.00     0.075 C 
BRANCH   6   7
ATOM      7  C   UNL     1      24.352  56.575  -8.773  1.00  0.00     0.129 C 
ATOM      8  O   UNL     1      23.463  57.393  -8.961  1.00  0.00    -0.300 OA
ATOM      9  C   UNL     1      23.992  55.211  -8.262  1.00  0.00     0.087 C 
ENDBRANCH   6   7
ENDBRANCH   5   6
ENDBRANCH   1   5
TORSDOF 5
ENDMDL
MODEL 3
REMARK VINA RESULT:    -3.795     17.248     19.045
REMARK INTER + INTRA:          -4.987
REMARK INTER:                  -4.504
REMARK INTRA:                  -0.483
REMARK UNBOUND:                -0.083
REMARK SMILES CCCCCCC(C)=O
REMARK SMILES IDX 4 1 3 2 2 3 1 4 5 5 6 6 7 7 9 8 8 9
REMARK H PARENT
REMARK Flexibility Score: inf
ROOT
ATOM      1  C   UNL     1      16.303  43.238   1.005  1.00  0.00     0.000 C 
ENDROOT
BRANCH   1   2
ATOM      2  C   UNL     1      15.982  44.627   1.586  1.00  0.00    -0.000 C 
BRANCH   2   3
ATOM      3  C   UNL     1      15.301  45.550   0.565  1.00  0.00    -0.003 C 
ATOM      4  C   UNL     1      16.097  45.684  -0.733  1.00  0.00     0.004 C 
ENDBRANCH   2   3
ENDBRANCH   1   2
BRANCH   1   5
ATOM      5  C   UNL     1      17.779  42.851   1.179  1.00  0.00     0.008 C 
BRANCH   5   6
ATOM      6  C   UNL     1      18.617  43.978   1.801  1.00  0.00     0.075 C 
BRANCH   6   7
ATOM      7  C   UNL     1      19.807  44.296   0.934  1.00  0.00     0.129 C 
ATOM      8  O   UNL     1      20.853  43.687   1.101  1.00  0.00    -0.300 OA
ATOM      9  C   UNL     1      19.735  45.340  -0.141  1.00  0.00     0.087 C 
ENDBRANCH   6   7
ENDBRANCH   5   6
ENDBRANCH   1   5
TORSDOF 5
ENDMDL
MODEL 4
REMARK VINA RESULT:    -3.725     18.103     19.567
REMARK INTER + INTRA:          -4.898
REMARK INTER:                  -4.408
REMARK INTRA:                  -0.489
REMARK UNBOUND:                -0.083
REMARK SMILES CCCCCCC(C)=O
REMARK SMILES IDX 4 1 3 2 2 3 1 4 5 5 6 6 7 7 9 8 8 9
REMARK H PARENT
REMARK Flexibility Score: inf
ROOT
ATOM      1  C   UNL     1      19.561  44.931   0.045  1.00  0.00     0.000 C 
ENDROOT
BRANCH   1   2
ATOM      2  C   UNL     1      20.094  44.550   1.437  1.00  0.00    -0.000 C 
BRANCH   2   3
ATOM      3  C   UNL     1      21.123  43.411   1.382  1.00  0.00    -0.003 C 
ATOM      4  C   UNL     1      21.068  42.628   0.070  1.00  0.00     0.004 C 
ENDBRANCH   2   3
ENDBRANCH   1   2
BRANCH   1   5
ATOM      5  C   UNL     1      18.039  44.753  -0.075  1.00  0.00     0.008 C 
BRANCH   5   6
ATOM      6  C   UNL     1      17.437  44.001   1.121  1.00  0.00     0.075 C 
BRANCH   6   7
ATOM      7  C   UNL     1      17.068  42.593   0.733  1.00  0.00     0.129 C 
ATOM      8  O   UNL     1      16.457  41.891   1.526  1.00  0.00    -0.300 OA
ATOM      9  C   UNL     1      17.424  42.033  -0.612  1.00  0.00     0.087 C 
ENDBRANCH   6   7
ENDBRANCH   5   6
ENDBRANCH   1   5
TORSDOF 5
ENDMDL
MODEL 5
REMARK VINA RESULT:    -3.691      3.958      6.977
REMARK INTER + INTRA:          -4.854
REMARK INTER:                  -4.584
REMARK INTRA:                  -0.269
REMARK UNBOUND:                -0.083
REMARK SMILES CCCCCCC(C)=O
REMARK SMILES IDX 4 1 3 2 2 3 1 4 5 5 6 6 7 7 9 8 8 9
REMARK H PARENT
REMARK Flexibility Score: inf
ROOT
ATOM      1  C   UNL     1      30.022  57.913 -13.203  1.00  0.00     0.000 C 
ENDROOT
BRANCH   1   2
ATOM      2  C   UNL     1      31.173  56.960 -13.572  1.00  0.00    -0.000 C 
BRANCH   2   3
ATOM      3  C   UNL     1      32.435  57.708 -14.027  1.00  0.00    -0.003 C 
ATOM      4  C   UNL     1      33.722  57.053 -13.527  1.00  0.00     0.004 C 
ENDBRANCH   2   3
ENDBRANCH   1   2
BRANCH   1   5
ATOM      5  C   UNL     1      30.512  59.187 -12.498  1.00  0.00     0.008 C 
BRANCH   5   6
ATOM      6  C   UNL     1      30.027  59.282 -11.045  1.00  0.00     0.075 C 
BRANCH   6   7
ATOM      7  C   UNL     1      28.620  59.817 -10.988  1.00  0.00     0.129 C 
ATOM      8  O   UNL     1      28.417  61.002 -11.213  1.00  0.00    -0.300 OA
ATOM      9  C   UNL     1      27.456  58.926 -10.671  1.00  0.00     0.087 C 
ENDBRANCH   6   7
ENDBRANCH   5   6
ENDBRANCH   1   5
TORSDOF 5
ENDMDL
MODEL 6
REMARK VINA RESULT:    -3.655     18.252     19.001
REMARK INTER + INTRA:          -4.807
REMARK INTER:                  -4.505
REMARK INTRA:                  -0.301
REMARK UNBOUND:                -0.083
REMARK SMILES CCCCCCC(C)=O
REMARK SMILES IDX 4 1 3 2 2 3 1 4 5 5 6 6 7 7 9 8 8 9
REMARK H PARENT
REMARK Flexibility Score: inf
ROOT
ATOM      1  C   UNL     1      17.439  44.938  -0.222  1.00  0.00     0.000 C 
ENDROOT
BRANCH   1   2
ATOM      2  C   UNL     1      15.939  44.976  -0.563  1.00  0.00    -0.000 C 
BRANCH   2   3
ATOM      3  C   UNL     1      15.110  45.707   0.504  1.00  0.00    -0.003 C 
ATOM      4  C   UNL     1      15.145  45.006   1.861  1.00  0.00     0.004 C 
ENDBRANCH   2   3
ENDBRANCH   1   2
BRANCH   1   5
ATOM      5  C   UNL     1      17.962  43.509  -0.012  1.00  0.00     0.008 C 
BRANCH   5   6
ATOM      6  C   UNL     1      18.589  43.307   1.375  1.00  0.00     0.075 C 
BRANCH   6   7
ATOM      7  C   UNL     1      20.030  43.747   1.376  1.00  0.00     0.129 C 
ATOM      8  O   UNL     1      20.356  44.737   2.015  1.00  0.00    -0.300 OA
ATOM      9  C   UNL     1      21.080  42.990   0.618  1.00  0.00     0.087 C 
ENDBRANCH   6   7
ENDBRANCH   5   6
ENDBRANCH   1   5
TORSDOF 5
ENDMDL
MODEL 7
REMARK VINA RESULT:    -3.618      4.070      5.920
REMARK INTER + INTRA:          -4.759
REMARK INTER:                  -4.493
REMARK INTRA:                  -0.266
REMARK UNBOUND:                -0.083
REMARK SMILES CCCCCCC(C)=O
REMARK SMILES IDX 4 1 3 2 2 3 1 4 5 5 6 6 7 7 9 8 8 9
REMARK H PARENT
REMARK Flexibility Score: inf
ROOT
ATOM      1  C   UNL     1      29.873  59.654 -10.606  1.00  0.00     0.000 C 
ENDROOT
BRANCH   1   2
ATOM      2  C   UNL     1      28.729  60.604 -11.005  1.00  0.00    -0.000 C 
BRANCH   2   3
ATOM      3  C   UNL     1      27.391  60.217 -10.358  1.00  0.00    -0.003 C 
ATOM      4  C   UNL     1      27.094  58.722 -10.464  1.00  0.00     0.004 C 
ENDBRANCH   2   3
ENDBRANCH   1   2
BRANCH   1   5
ATOM      5  C   UNL     1      30.808  59.329 -11.781  1.00  0.00     0.008 C 
BRANCH   5   6
ATOM      6  C   UNL     1      30.151  58.412 -12.822  1.00  0.00     0.075 C 
BRANCH   6   7
ATOM      7  C   UNL     1      31.171  57.488 -13.436  1.00  0.00     0.129 C 
ATOM      8  O   UNL     1      30.937  56.289 -13.495  1.00  0.00    -0.300 OA
ATOM      9  C   UNL     1      32.466  58.006 -13.987  1.00  0.00     0.087 C 
ENDBRANCH   6   7
ENDBRANCH   5   6
ENDBRANCH   1   5
TORSDOF 5
ENDMDL
MODEL 8
REMARK VINA RESULT:    -3.611     16.042     17.580
REMARK INTER + INTRA:          -4.750
REMARK INTER:                  -4.524
REMARK INTRA:                  -0.226
REMARK UNBOUND:                -0.083
REMARK SMILES CCCCCCC(C)=O
REMARK SMILES IDX 4 1 3 2 2 3 1 4 5 5 6 6 7 7 9 8 8 9
REMARK H PARENT
REMARK Flexibility Score: inf
ROOT
ATOM      1  C   UNL     1      31.637  44.444   1.242  1.00  0.00     0.000 C 
ENDROOT
BRANCH   1   2
ATOM      2  C   UNL     1      30.425  45.376   1.068  1.00  0.00    -0.000 C 
BRANCH   2   3
ATOM      3  C   UNL     1      29.467  44.897  -0.033  1.00  0.00    -0.003 C 
ATOM      4  C   UNL     1      28.523  45.998  -0.515  1.00  0.00     0.004 C 
ENDBRANCH   2   3
ENDBRANCH   1   2
BRANCH   1   5
ATOM      5  C   UNL     1      32.894  45.192   1.713  1.00  0.00     0.008 C 
BRANCH   5   6
ATOM      6  C   UNL     1      32.670  46.705   1.836  1.00  0.00     0.075 C 
BRANCH   6   7
ATOM      7  C   UNL     1      32.717  47.134   3.280  1.00  0.00     0.129 C 
ATOM      8  O   UNL     1      33.135  46.356   4.125  1.00  0.00    -0.300 OA
ATOM      9  C   UNL     1      32.272  48.502   3.705  1.00  0.00     0.087 C 
ENDBRANCH   6   7
ENDBRANCH   5   6
ENDBRANCH   1   5
TORSDOF 5
ENDMDL
MODEL 9
REMARK VINA RESULT:    -3.575      5.891      7.833
REMARK INTER + INTRA:          -4.703
REMARK INTER:                  -4.197
REMARK INTRA:                  -0.506
REMARK UNBOUND:                -0.083
REMARK SMILES CCCCCCC(C)=O
REMARK SMILES IDX 4 1 3 2 2 3 1 4 5 5 6 6 7 7 9 8 8 9
REMARK H PARENT
REMARK Flexibility Score: inf
ROOT
ATOM      1  C   UNL     1      31.706  56.871 -14.098  1.00  0.00     0.000 C 
ENDROOT
BRANCH   1   2
ATOM      2  C   UNL     1      32.739  58.001 -14.258  1.00  0.00    -0.000 C 
BRANCH   2   3
ATOM      3  C   UNL     1      34.125  57.611 -13.723  1.00  0.00    -0.003 C 
ATOM      4  C   UNL     1      34.055  56.867 -12.390  1.00  0.00     0.004 C 
ENDBRANCH   2   3
ENDBRANCH   1   2
BRANCH   1   5
ATOM      5  C   UNL     1      30.440  57.328 -13.357  1.00  0.00     0.008 C 
BRANCH   5   6
ATOM      6  C   UNL     1      30.387  58.850 -13.162  1.00  0.00     0.075 C 
BRANCH   6   7
ATOM      7  C   UNL     1      30.278  59.195 -11.699  1.00  0.00     0.129 C 
ATOM      8  O   UNL     1      29.193  59.512 -11.235  1.00  0.00    -0.300 OA
ATOM      9  C   UNL     1      31.473  59.149 -10.794  1.00  0.00     0.087 C 
ENDBRANCH   6   7
ENDBRANCH   5   6
ENDBRANCH   1   5
TORSDOF 5
ENDMDL
