MODEL 1
REMARK VINA RESULT:    -4.197      0.000      0.000
REMARK INTER + INTRA:          -4.901
REMARK INTER:                  -4.810
REMARK INTRA:                  -0.091
REMARK UNBOUND:                -0.091
REMARK SMILES COc1cc(C(C)=O)ccc1O
REMARK SMILES IDX 5 1 4 2 3 3 11 4 10 5 9 6 6 7 7 8 8 9 2 10 1 11 12 12
REMARK H PARENT 12 13
REMARK Flexibility Score: inf
ROOT
ATOM      1  C   UNL     1      -1.009 -26.093 -46.894  1.00  0.00     0.021 A 
ATOM      2  C   UNL     1      -0.705 -24.873 -46.256  1.00  0.00     0.062 A 
ATOM      3  C   UNL     1       0.631 -24.496 -46.015  1.00  0.00     0.161 A 
ATOM      4  C   UNL     1       1.670 -25.352 -46.419  1.00  0.00     0.157 A 
ATOM      5  C   UNL     1       1.374 -26.561 -47.051  1.00  0.00     0.051 A 
ATOM      6  C   UNL     1       0.050 -26.931 -47.288  1.00  0.00     0.016 A 
ENDROOT
BRANCH   1   7
ATOM      7  C   UNL     1      -2.417 -26.502 -47.155  1.00  0.00     0.159 C 
ATOM      8  C   UNL     1      -3.524 -26.200 -46.190  1.00  0.00     0.093 C 
ATOM      9  O   UNL     1      -2.701 -27.125 -48.215  1.00  0.00    -0.295 OA
ENDBRANCH   1   7
BRANCH   3  10
ATOM     10  O   UNL     1       0.960 -23.287 -45.381  1.00  0.00    -0.493 OA
ATOM     11  C   UNL     1       0.045 -22.484 -44.643  1.00  0.00     0.278 C 
ENDBRANCH   3  10
BRANCH   4  12
ATOM     12  O   UNL     1       3.007 -25.018 -46.199  1.00  0.00    -0.504 OA
ATOM     13  H   UNL     1       3.596 -24.637 -46.930  1.00  0.00     0.293 HD
ENDBRANCH   4  12
TORSDOF 3
ENDMDL
MODEL 2
REMARK VINA RESULT:    -4.094      1.574      4.015
REMARK INTER + INTRA:          -4.782
REMARK INTER:                  -4.682
REMARK INTRA:                  -0.101
REMARK UNBOUND:                -0.091
REMARK SMILES COc1cc(C(C)=O)ccc1O
REMARK SMILES IDX 5 1 4 2 3 3 11 4 10 5 9 6 6 7 7 8 8 9 2 10 1 11 12 12
REMARK H PARENT 12 13
REMARK Flexibility Score: inf
ROOT
ATOM      1  C   UNL     1       0.323 -23.874 -45.135  1.00  0.00     0.021 A 
ATOM      2  C   UNL     1      -0.460 -24.722 -45.943  1.00  0.00     0.062 A 
ATOM      3  C   UNL     1       0.141 -25.702 -46.759  1.00  0.00     0.161 A 
ATOM      4  C   UNL     1       1.541 -25.829 -46.762  1.00  0.00     0.157 A 
ATOM      5  C   UNL     1       2.321 -24.989 -45.965  1.00  0.00     0.051 A 
ATOM      6  C   UNL     1       1.722 -24.021 -45.158  1.00  0.00     0.016 A 
ENDROOT
BRANCH   1   7
ATOM      7  C   UNL     1      -0.300 -22.835 -44.269  1.00  0.00     0.159 C 
ATOM      8  C   UNL     1      -0.055 -21.371 -44.482  1.00  0.00     0.093 C 
ATOM      9  O   UNL     1      -1.057 -23.182 -43.322  1.00  0.00    -0.295 OA
ENDBRANCH   1   7
BRANCH   3  10
ATOM     10  O   UNL     1      -0.617 -26.560 -47.572  1.00  0.00    -0.493 OA
ATOM     11  C   UNL     1      -2.038 -26.650 -47.551  1.00  0.00     0.278 C 
ENDBRANCH   3  10
BRANCH   4  12
ATOM     12  O   UNL     1       2.176 -26.785 -47.555  1.00  0.00    -0.504 OA
ATOM     13  H   UNL     1       1.862 -27.005 -48.493  1.00  0.00     0.293 HD
ENDBRANCH   4  12
TORSDOF 3
ENDMDL
MODEL 3
REMARK VINA RESULT:    -3.980     14.512     16.370
REMARK INTER + INTRA:          -4.652
REMARK INTER:                  -4.532
REMARK INTRA:                  -0.120
REMARK UNBOUND:                -0.091
REMARK SMILES COc1cc(C(C)=O)ccc1O
REMARK SMILES IDX 5 1 4 2 3 3 11 4 10 5 9 6 6 7 7 8 8 9 2 10 1 11 12 12
REMARK H PARENT 12 13
REMARK Flexibility Score: inf
ROOT
ATOM      1  C   UNL     1      -0.313  -9.827 -40.644  1.00  0.00     0.021 A 
ATOM      2  C   UNL     1       1.057  -9.779 -40.973  1.00  0.00     0.062 A 
ATOM      3  C   UNL     1       1.568 -10.528 -42.052  1.00  0.00     0.161 A 
ATOM      4  C   UNL     1       0.694 -11.332 -42.806  1.00  0.00     0.157 A 
ATOM      5  C   UNL     1      -0.663 -11.383 -42.482  1.00  0.00     0.051 A 
ATOM      6  C   UNL     1      -1.164 -10.639 -41.413  1.00  0.00     0.016 A 
ENDROOT
BRANCH   1   7
ATOM      7  C   UNL     1      -0.865  -9.040 -39.506  1.00  0.00     0.159 C 
ATOM      8  C   UNL     1      -1.961  -8.035 -39.694  1.00  0.00     0.093 C 
ATOM      9  O   UNL     1      -0.405  -9.213 -38.344  1.00  0.00    -0.295 OA
ENDBRANCH   1   7
BRANCH   3  10
ATOM     10  O   UNL     1       2.928 -10.498 -42.402  1.00  0.00    -0.493 OA
ATOM     11  C   UNL     1       3.986 -10.979 -41.579  1.00  0.00     0.278 C 
ENDBRANCH   3  10
BRANCH   4  12
ATOM     12  O   UNL     1       1.158 -12.089 -43.881  1.00  0.00    -0.504 OA
ATOM     13  H   UNL     1       1.759 -11.700 -44.598  1.00  0.00     0.293 HD
ENDBRANCH   4  12
TORSDOF 3
ENDMDL
MODEL 4
REMARK VINA RESULT:    -3.905     14.898     17.031
REMARK INTER + INTRA:          -4.566
REMARK INTER:                  -4.475
REMARK INTRA:                  -0.091
REMARK UNBOUND:                -0.091
REMARK SMILES COc1cc(C(C)=O)ccc1O
REMARK SMILES IDX 5 1 4 2 3 3 11 4 10 5 9 6 6 7 7 8 8 9 2 10 1 11 12 12
REMARK H PARENT 12 13
REMARK Flexibility Score: inf
ROOT
ATOM      1  C   UNL     1      -0.961  -9.665 -39.387  1.00  0.00     0.021 A 
ATOM      2  C   UNL     1      -0.110  -9.603 -40.509  1.00  0.00     0.062 A 
ATOM      3  C   UNL     1      -0.332 -10.428 -41.631  1.00  0.00     0.161 A 
ATOM      4  C   UNL     1      -1.417 -11.321 -41.623  1.00  0.00     0.157 A 
ATOM      5  C   UNL     1      -2.261 -11.385 -40.513  1.00  0.00     0.051 A 
ATOM      6  C   UNL     1      -2.039 -10.567 -39.405  1.00  0.00     0.016 A 
ENDROOT
BRANCH   1   7
ATOM      7  C   UNL     1      -0.738  -8.799 -38.196  1.00  0.00     0.159 C 
ATOM      8  C   UNL     1      -0.916  -7.311 -38.250  1.00  0.00     0.093 C 
ATOM      9  O   UNL     1      -0.386  -9.319 -37.102  1.00  0.00    -0.295 OA
ENDBRANCH   1   7
BRANCH   3  10
ATOM     10  O   UNL     1       0.500 -10.385 -42.761  1.00  0.00    -0.493 OA
ATOM     11  C   UNL     1       1.375  -9.309 -43.083  1.00  0.00     0.278 C 
ENDBRANCH   3  10
BRANCH   4  12
ATOM     12  O   UNL     1      -1.672 -12.154 -42.712  1.00  0.00    -0.504 OA
ATOM     13  H   UNL     1      -2.469 -12.780 -42.739  1.00  0.00     0.293 HD
ENDBRANCH   4  12
TORSDOF 3
ENDMDL
MODEL 5
REMARK VINA RESULT:    -3.866     13.652     16.180
REMARK INTER + INTRA:          -4.521
REMARK INTER:                  -4.409
REMARK INTRA:                  -0.112
REMARK UNBOUND:                -0.091
REMARK SMILES COc1cc(C(C)=O)ccc1O
REMARK SMILES IDX 5 1 4 2 3 3 11 4 10 5 9 6 6 7 7 8 8 9 2 10 1 11 12 12
REMARK H PARENT 12 13
REMARK Flexibility Score: inf
ROOT
ATOM      1  C   UNL     1      -0.475  -9.910 -42.478  1.00  0.00     0.021 A 
ATOM      2  C   UNL     1      -0.907 -11.238 -42.289  1.00  0.00     0.062 A 
ATOM      3  C   UNL     1      -2.279 -11.546 -42.193  1.00  0.00     0.161 A 
ATOM      4  C   UNL     1      -3.224 -10.509 -42.288  1.00  0.00     0.157 A 
ATOM      5  C   UNL     1      -2.800  -9.192 -42.473  1.00  0.00     0.051 A 
ATOM      6  C   UNL     1      -1.441  -8.892 -42.568  1.00  0.00     0.016 A 
ENDROOT
BRANCH   1   7
ATOM      7  C   UNL     1       0.972  -9.572 -42.581  1.00  0.00     0.159 C 
ATOM      8  C   UNL     1       2.005 -10.231 -41.717  1.00  0.00     0.093 C 
ATOM      9  O   UNL     1       1.354  -8.706 -43.414  1.00  0.00    -0.295 OA
ENDBRANCH   1   7
BRANCH   3  10
ATOM     10  O   UNL     1      -2.735 -12.861 -42.007  1.00  0.00    -0.493 OA
ATOM     11  C   UNL     1      -2.704 -13.561 -40.767  1.00  0.00     0.278 C 
ENDBRANCH   3  10
BRANCH   4  12
ATOM     12  O   UNL     1      -4.591 -10.770 -42.198  1.00  0.00    -0.504 OA
ATOM     13  H   UNL     1      -5.129 -11.113 -42.984  1.00  0.00     0.293 HD
ENDBRANCH   4  12
TORSDOF 3
ENDMDL
MODEL 6
REMARK VINA RESULT:    -3.826     15.404     17.564
REMARK INTER + INTRA:          -4.476
REMARK INTER:                  -4.364
REMARK INTRA:                  -0.113
REMARK UNBOUND:                -0.091
REMARK SMILES COc1cc(C(C)=O)ccc1O
REMARK SMILES IDX 5 1 4 2 3 3 11 4 10 5 9 6 6 7 7 8 8 9 2 10 1 11 12 12
REMARK H PARENT 12 13
REMARK Flexibility Score: inf
ROOT
ATOM      1  C   UNL     1      -0.160  -9.788 -41.739  1.00  0.00     0.021 A 
ATOM      2  C   UNL     1      -0.208  -9.430 -40.376  1.00  0.00     0.062 A 
ATOM      3  C   UNL     1      -1.292  -8.691 -39.861  1.00  0.00     0.161 A 
ATOM      4  C   UNL     1      -2.334  -8.308 -40.722  1.00  0.00     0.157 A 
ATOM      5  C   UNL     1      -2.289  -8.659 -42.073  1.00  0.00     0.051 A 
ATOM      6  C   UNL     1      -1.215  -9.391 -42.579  1.00  0.00     0.016 A 
ENDROOT
BRANCH   1   7
ATOM      7  C   UNL     1       0.980 -10.569 -42.295  1.00  0.00     0.159 C 
ATOM      8  C   UNL     1       2.397 -10.317 -41.876  1.00  0.00     0.093 C 
ATOM      9  O   UNL     1       0.761 -11.473 -43.148  1.00  0.00    -0.295 OA
ENDBRANCH   1   7
BRANCH   3  10
ATOM     10  O   UNL     1      -1.364  -8.322 -38.507  1.00  0.00    -0.493 OA
ATOM     11  C   UNL     1      -0.725  -7.183 -37.942  1.00  0.00     0.278 C 
ENDBRANCH   3  10
BRANCH   4  12
ATOM     12  O   UNL     1      -3.425  -7.575 -40.254  1.00  0.00    -0.504 OA
ATOM     13  H   UNL     1      -3.659  -7.524 -39.269  1.00  0.00     0.293 HD
ENDBRANCH   4  12
TORSDOF 3
ENDMDL
MODEL 7
REMARK VINA RESULT:    -3.803     16.811     18.900
REMARK INTER + INTRA:          -4.450
REMARK INTER:                  -4.327
REMARK INTRA:                  -0.123
REMARK UNBOUND:                -0.091
REMARK SMILES COc1cc(C(C)=O)ccc1O
REMARK SMILES IDX 5 1 4 2 3 3 11 4 10 5 9 6 6 7 7 8 8 9 2 10 1 11 12 12
REMARK H PARENT 12 13
REMARK Flexibility Score: inf
ROOT
ATOM      1  C   UNL     1      -0.819  -9.033 -38.992  1.00  0.00     0.021 A 
ATOM      2  C   UNL     1      -0.899  -9.767 -37.791  1.00  0.00     0.062 A 
ATOM      3  C   UNL     1      -1.057  -9.112 -36.553  1.00  0.00     0.161 A 
ATOM      4  C   UNL     1      -1.134  -7.709 -36.522  1.00  0.00     0.157 A 
ATOM      5  C   UNL     1      -1.053  -6.979 -37.709  1.00  0.00     0.051 A 
ATOM      6  C   UNL     1      -0.898  -7.630 -38.933  1.00  0.00     0.016 A 
ENDROOT
BRANCH   1   7
ATOM      7  C   UNL     1      -0.652  -9.713 -40.307  1.00  0.00     0.159 C 
ATOM      8  C   UNL     1      -1.397  -9.270 -41.530  1.00  0.00     0.093 C 
ATOM      9  O   UNL     1       0.135 -10.693 -40.409  1.00  0.00    -0.295 OA
ENDBRANCH   1   7
BRANCH   3  10
ATOM     10  O   UNL     1      -1.141  -9.820 -35.342  1.00  0.00    -0.493 OA
ATOM     11  C   UNL     1      -0.120 -10.668 -34.828  1.00  0.00     0.278 C 
ENDBRANCH   3  10
BRANCH   4  12
ATOM     12  O   UNL     1      -1.289  -7.022 -35.318  1.00  0.00    -0.504 OA
ATOM     13  H   UNL     1      -2.079  -7.179 -34.704  1.00  0.00     0.293 HD
ENDBRANCH   4  12
TORSDOF 3
ENDMDL
MODEL 8
REMARK VINA RESULT:    -3.780     13.840     16.803
REMARK INTER + INTRA:          -4.423
REMARK INTER:                  -4.288
REMARK INTRA:                  -0.136
REMARK UNBOUND:                -0.091
REMARK SMILES COc1cc(C(C)=O)ccc1O
REMARK SMILES IDX 5 1 4 2 3 3 11 4 10 5 9 6 6 7 7 8 8 9 2 10 1 11 12 12
REMARK H PARENT 12 13
REMARK Flexibility Score: inf
ROOT
ATOM      1  C   UNL     1      -0.750  -9.624 -39.335  1.00  0.00     0.021 A 
ATOM      2  C   UNL     1      -1.084 -10.988 -39.226  1.00  0.00     0.062 A 
ATOM      3  C   UNL     1      -1.204 -11.798 -40.374  1.00  0.00     0.161 A 
ATOM      4  C   UNL     1      -0.985 -11.230 -41.641  1.00  0.00     0.157 A 
ATOM      5  C   UNL     1      -0.654  -9.878 -41.753  1.00  0.00     0.051 A 
ATOM      6  C   UNL     1      -0.536  -9.081 -40.614  1.00  0.00     0.016 A 
ENDROOT
BRANCH   1   7
ATOM      7  C   UNL     1      -0.620  -8.758 -38.130  1.00  0.00     0.159 C 
ATOM      8  C   UNL     1      -0.790  -7.270 -38.198  1.00  0.00     0.093 C 
ATOM      9  O   UNL     1      -0.359  -9.279 -37.011  1.00  0.00    -0.295 OA
ENDBRANCH   1   7
BRANCH   3  10
ATOM     10  O   UNL     1      -1.536 -13.160 -40.293  1.00  0.00    -0.493 OA
ATOM     11  C   UNL     1      -2.863 -13.666 -40.189  1.00  0.00     0.278 C 
ENDBRANCH   3  10
BRANCH   4  12
ATOM     12  O   UNL     1      -1.093 -11.995 -42.803  1.00  0.00    -0.504 OA
ATOM     13  H   UNL     1      -0.422 -11.927 -43.559  1.00  0.00     0.293 HD
ENDBRANCH   4  12
TORSDOF 3
ENDMDL
MODEL 9
REMARK VINA RESULT:    -2.984      1.594      4.195
REMARK INTER + INTRA:          -3.511
REMARK INTER:                  -3.410
REMARK INTRA:                  -0.101
REMARK UNBOUND:                -0.091
REMARK SMILES COc1cc(C(C)=O)ccc1O
REMARK SMILES IDX 5 1 4 2 3 3 11 4 10 5 9 6 6 7 7 8 8 9 2 10 1 11 12 12
REMARK H PARENT 12 13
REMARK Flexibility Score: inf
ROOT
ATOM      1  C   UNL     1      -0.361 -23.809 -45.098  1.00  0.00     0.021 A 
ATOM      2  C   UNL     1       0.769 -24.633 -45.270  1.00  0.00     0.062 A 
ATOM      3  C   UNL     1       0.778 -25.655 -46.241  1.00  0.00     0.161 A 
ATOM      4  C   UNL     1      -0.358 -25.849 -47.045  1.00  0.00     0.157 A 
ATOM      5  C   UNL     1      -1.480 -25.036 -46.877  1.00  0.00     0.051 A 
ATOM      6  C   UNL     1      -1.485 -24.026 -45.915  1.00  0.00     0.016 A 
ENDROOT
BRANCH   1   7
ATOM      7  C   UNL     1      -0.384 -22.726 -44.076  1.00  0.00     0.159 C 
ATOM      8  C   UNL     1      -0.855 -22.967 -42.673  1.00  0.00     0.093 C 
ATOM      9  O   UNL     1       0.001 -21.565 -44.387  1.00  0.00    -0.295 OA
ENDBRANCH   1   7
BRANCH   3  10
ATOM     10  O   UNL     1       1.892 -26.489 -46.433  1.00  0.00    -0.493 OA
ATOM     11  C   UNL     1       2.617 -27.125 -45.385  1.00  0.00     0.278 C 
ENDBRANCH   3  10
BRANCH   4  12
ATOM     12  O   UNL     1      -0.391 -26.849 -48.017  1.00  0.00    -0.504 OA
ATOM     13  H   UNL     1       0.249 -26.862 -48.802  1.00  0.00     0.293 HD
ENDBRANCH   4  12
TORSDOF 3
ENDMDL
