MODEL 1
REMARK VINA RESULT:    -5.583      0.000      0.000
REMARK INTER + INTRA:          -6.690
REMARK INTER:                  -6.562
REMARK INTRA:                  -0.128
REMARK UNBOUND:                -0.128
REMARK SMILES O=C([O-])C=Cc1ccc(O)c(O)c1
REMARK SMILES IDX 6 1 13 2 7 3 11 4 8 5 9 6 5 7 4 8 2 9 1 10 3 11 12 12 10 14
REMARK H PARENT 12 13 10 15
REMARK Flexibility Score: inf
ROOT
ATOM      1  C   UNL     1      32.048  20.924  13.032  1.00  0.00    -0.022 A 
ATOM      2  C   UNL     1      33.307  20.310  12.933  1.00  0.00     0.058 A 
ATOM      3  C   UNL     1      31.876  21.980  13.949  1.00  0.00     0.012 A 
ATOM      4  C   UNL     1      34.385  20.753  13.709  1.00  0.00     0.157 A 
ATOM      5  C   UNL     1      32.950  22.423  14.725  1.00  0.00     0.051 A 
ATOM      6  C   UNL     1      34.207  21.816  14.608  1.00  0.00     0.157 A 
ENDROOT
BRANCH   1   7
ATOM      7  C   UNL     1      30.938  20.406  12.193  1.00  0.00     0.010 C 
ATOM      8  C   UNL     1      30.636  19.105  12.077  1.00  0.00     0.025 C 
BRANCH   8   9
ATOM      9  C   UNL     1      29.519  18.629  11.244  1.00  0.00     0.064 C 
ATOM     10  O   UNL     1      29.717  17.870  10.258  1.00  0.00    -0.545 OA
ATOM     11  O   UNL     1      28.223  19.022  11.551  1.00  0.00    -0.545 OA
ENDBRANCH   8   9
ENDBRANCH   1   7
BRANCH   4  12
ATOM     12  O   UNL     1      35.622  20.123  13.573  1.00  0.00    -0.504 OA
ATOM     13  H   UNL     1      36.488  20.574  13.841  1.00  0.00     0.293 HD
ENDBRANCH   4  12
BRANCH   6  14
ATOM     14  O   UNL     1      35.277  22.263  15.383  1.00  0.00    -0.504 OA
ATOM     15  H   UNL     1      35.948  22.933  15.026  1.00  0.00     0.293 HD
ENDBRANCH   6  14
TORSDOF 4
ENDMDL
MODEL 2
REMARK VINA RESULT:    -5.158      1.100      5.779
REMARK INTER + INTRA:          -6.191
REMARK INTER:                  -6.051
REMARK INTRA:                  -0.140
REMARK UNBOUND:                -0.128
REMARK SMILES O=C([O-])C=Cc1ccc(O)c(O)c1
REMARK SMILES IDX 6 1 13 2 7 3 11 4 8 5 9 6 5 7 4 8 2 9 1 10 3 11 12 12 10 14
REMARK H PARENT 12 13 10 15
REMARK Flexibility Score: inf
ROOT
ATOM      1  C   UNL     1      31.488  20.440  12.753  1.00  0.00    -0.022 A 
ATOM      2  C   UNL     1      31.151  19.173  12.250  1.00  0.00     0.058 A 
ATOM      3  C   UNL     1      30.648  21.533  12.463  1.00  0.00     0.012 A 
ATOM      4  C   UNL     1      29.987  18.987  11.495  1.00  0.00     0.157 A 
ATOM      5  C   UNL     1      29.486  21.350  11.709  1.00  0.00     0.051 A 
ATOM      6  C   UNL     1      29.148  20.080  11.225  1.00  0.00     0.157 A 
ENDROOT
BRANCH   1   7
ATOM      7  C   UNL     1      32.740  20.582  13.539  1.00  0.00     0.010 C 
ATOM      8  C   UNL     1      33.134  21.728  14.111  1.00  0.00     0.025 C 
BRANCH   8   9
ATOM      9  C   UNL     1      34.378  21.829  14.894  1.00  0.00     0.064 C 
ATOM     10  O   UNL     1      35.359  21.073  14.661  1.00  0.00    -0.545 OA
ATOM     11  O   UNL     1      34.472  22.774  15.907  1.00  0.00    -0.545 OA
ENDBRANCH   8   9
ENDBRANCH   1   7
BRANCH   4  12
ATOM     12  O   UNL     1      29.683  17.711  11.022  1.00  0.00    -0.504 OA
ATOM     13  H   UNL     1      29.764  17.466  10.042  1.00  0.00     0.293 HD
ENDBRANCH   4  12
BRANCH   6  14
ATOM     14  O   UNL     1      27.986  19.901  10.474  1.00  0.00    -0.504 OA
ATOM     15  H   UNL     1      27.081  20.194  10.821  1.00  0.00     0.293 HD
ENDBRANCH   6  14
TORSDOF 4
ENDMDL
MODEL 3
REMARK VINA RESULT:    -5.153      1.406      2.367
REMARK INTER + INTRA:          -6.184
REMARK INTER:                  -6.050
REMARK INTRA:                  -0.134
REMARK UNBOUND:                -0.128
REMARK SMILES O=C([O-])C=Cc1ccc(O)c(O)c1
REMARK SMILES IDX 6 1 13 2 7 3 11 4 8 5 9 6 5 7 4 8 2 9 1 10 3 11 12 12 10 14
REMARK H PARENT 12 13 10 15
REMARK Flexibility Score: inf
ROOT
ATOM      1  C   UNL     1      32.993  20.202  12.850  1.00  0.00    -0.022 A 
ATOM      2  C   UNL     1      32.194  21.237  13.362  1.00  0.00     0.058 A 
ATOM      3  C   UNL     1      34.317  20.071  13.313  1.00  0.00     0.012 A 
ATOM      4  C   UNL     1      32.690  22.111  14.337  1.00  0.00     0.157 A 
ATOM      5  C   UNL     1      34.814  20.943  14.286  1.00  0.00     0.051 A 
ATOM      6  C   UNL     1      34.006  21.962  14.804  1.00  0.00     0.157 A 
ENDROOT
BRANCH   1   7
ATOM      7  C   UNL     1      32.419  19.311  11.810  1.00  0.00     0.010 C 
ATOM      8  C   UNL     1      31.128  19.321  11.451  1.00  0.00     0.025 C 
BRANCH   8   9
ATOM      9  C   UNL     1      30.596  18.429  10.406  1.00  0.00     0.064 C 
ATOM     10  O   UNL     1      29.416  18.552   9.982  1.00  0.00    -0.545 OA
ATOM     11  O   UNL     1      31.411  17.438   9.875  1.00  0.00    -0.545 OA
ENDBRANCH   8   9
ENDBRANCH   1   7
BRANCH   4  12
ATOM     12  O   UNL     1      31.861  23.120  14.828  1.00  0.00    -0.504 OA
ATOM     13  H   UNL     1      31.473  23.091  15.763  1.00  0.00     0.293 HD
ENDBRANCH   4  12
BRANCH   6  14
ATOM     14  O   UNL     1      34.506  22.829  15.775  1.00  0.00    -0.504 OA
ATOM     15  H   UNL     1      34.068  22.914  16.685  1.00  0.00     0.293 HD
ENDBRANCH   6  14
TORSDOF 4
ENDMDL
MODEL 4
REMARK VINA RESULT:    -5.082      1.275      6.021
REMARK INTER + INTRA:          -6.101
REMARK INTER:                  -5.966
REMARK INTRA:                  -0.135
REMARK UNBOUND:                -0.128
REMARK SMILES O=C([O-])C=Cc1ccc(O)c(O)c1
REMARK SMILES IDX 6 1 13 2 7 3 11 4 8 5 9 6 5 7 4 8 2 9 1 10 3 11 12 12 10 14
REMARK H PARENT 12 13 10 15
REMARK Flexibility Score: inf
ROOT
ATOM      1  C   UNL     1      31.800  20.054  12.222  1.00  0.00    -0.022 A 
ATOM      2  C   UNL     1      30.693  20.893  12.428  1.00  0.00     0.058 A 
ATOM      3  C   UNL     1      31.686  18.990  11.306  1.00  0.00     0.012 A 
ATOM      4  C   UNL     1      29.502  20.698  11.719  1.00  0.00     0.157 A 
ATOM      5  C   UNL     1      30.498  18.792  10.598  1.00  0.00     0.051 A 
ATOM      6  C   UNL     1      29.404  19.644  10.797  1.00  0.00     0.157 A 
ENDROOT
BRANCH   1   7
ATOM      7  C   UNL     1      33.035  20.301  13.009  1.00  0.00     0.010 C 
ATOM      8  C   UNL     1      33.119  21.203  13.997  1.00  0.00     0.025 C 
BRANCH   8   9
ATOM      9  C   UNL     1      34.359  21.413  14.765  1.00  0.00     0.064 C 
ATOM     10  O   UNL     1      34.374  22.138  15.795  1.00  0.00    -0.545 OA
ATOM     11  O   UNL     1      35.532  20.797  14.348  1.00  0.00    -0.545 OA
ENDBRANCH   8   9
ENDBRANCH   1   7
BRANCH   4  12
ATOM     12  O   UNL     1      28.429  21.559  11.946  1.00  0.00    -0.504 OA
ATOM     13  H   UNL     1      27.671  21.662  11.281  1.00  0.00     0.293 HD
ENDBRANCH   4  12
BRANCH   6  14
ATOM     14  O   UNL     1      28.220  19.444  10.086  1.00  0.00    -0.504 OA
ATOM     15  H   UNL     1      28.019  18.563   9.629  1.00  0.00     0.293 HD
ENDBRANCH   6  14
TORSDOF 4
ENDMDL
MODEL 5
REMARK VINA RESULT:    -4.742      1.962      2.615
REMARK INTER + INTRA:          -5.701
REMARK INTER:                  -5.572
REMARK INTRA:                  -0.129
REMARK UNBOUND:                -0.128
REMARK SMILES O=C([O-])C=Cc1ccc(O)c(O)c1
REMARK SMILES IDX 6 1 13 2 7 3 11 4 8 5 9 6 5 7 4 8 2 9 1 10 3 11 12 12 10 14
REMARK H PARENT 12 13 10 15
REMARK Flexibility Score: inf
ROOT
ATOM      1  C   UNL     1      30.893  20.202  12.164  1.00  0.00    -0.022 A 
ATOM      2  C   UNL     1      31.459  21.487  12.145  1.00  0.00     0.058 A 
ATOM      3  C   UNL     1      31.504  19.202  12.946  1.00  0.00     0.012 A 
ATOM      4  C   UNL     1      32.595  21.783  12.907  1.00  0.00     0.157 A 
ATOM      5  C   UNL     1      32.638  19.494  13.707  1.00  0.00     0.051 A 
ATOM      6  C   UNL     1      33.187  20.783  13.695  1.00  0.00     0.157 A 
ENDROOT
BRANCH   1   7
ATOM      7  C   UNL     1      29.695  19.942  11.328  1.00  0.00     0.010 C 
ATOM      8  C   UNL     1      28.575  20.678  11.381  1.00  0.00     0.025 C 
BRANCH   8   9
ATOM      9  C   UNL     1      27.409  20.397  10.526  1.00  0.00     0.064 C 
ATOM     10  O   UNL     1      27.319  19.320   9.878  1.00  0.00    -0.545 OA
ATOM     11  O   UNL     1      26.388  21.334  10.435  1.00  0.00    -0.545 OA
ENDBRANCH   8   9
ENDBRANCH   1   7
BRANCH   4  12
ATOM     12  O   UNL     1      33.121  23.075  12.868  1.00  0.00    -0.504 OA
ATOM     13  H   UNL     1      33.398  23.569  13.708  1.00  0.00     0.293 HD
ENDBRANCH   4  12
BRANCH   6  14
ATOM     14  O   UNL     1      34.318  21.071  14.458  1.00  0.00    -0.504 OA
ATOM     15  H   UNL     1      34.415  21.950  14.952  1.00  0.00     0.293 HD
ENDBRANCH   6  14
TORSDOF 4
ENDMDL
MODEL 6
REMARK VINA RESULT:    -4.624     16.442     18.727
REMARK INTER + INTRA:          -5.563
REMARK INTER:                  -5.428
REMARK INTRA:                  -0.135
REMARK UNBOUND:                -0.128
REMARK SMILES O=C([O-])C=Cc1ccc(O)c(O)c1
REMARK SMILES IDX 6 1 13 2 7 3 11 4 8 5 9 6 5 7 4 8 2 9 1 10 3 11 12 12 10 14
REMARK H PARENT 12 13 10 15
REMARK Flexibility Score: inf
ROOT
ATOM      1  C   UNL     1      45.493  11.957  22.737  1.00  0.00    -0.022 A 
ATOM      2  C   UNL     1      45.311  11.432  21.447  1.00  0.00     0.058 A 
ATOM      3  C   UNL     1      45.673  11.067  23.814  1.00  0.00     0.012 A 
ATOM      4  C   UNL     1      45.333  10.050  21.224  1.00  0.00     0.157 A 
ATOM      5  C   UNL     1      45.695   9.687  23.595  1.00  0.00     0.051 A 
ATOM      6  C   UNL     1      45.529   9.172  22.303  1.00  0.00     0.157 A 
ENDROOT
BRANCH   1   7
ATOM      7  C   UNL     1      45.449  13.430  22.916  1.00  0.00     0.010 C 
ATOM      8  C   UNL     1      45.072  14.286  21.956  1.00  0.00     0.025 C 
BRANCH   8   9
ATOM      9  C   UNL     1      45.029  15.742  22.175  1.00  0.00     0.064 C 
ATOM     10  O   UNL     1      45.114  16.231  23.333  1.00  0.00    -0.545 OA
ATOM     11  O   UNL     1      44.895  16.592  21.085  1.00  0.00    -0.545 OA
ENDBRANCH   8   9
ENDBRANCH   1   7
BRANCH   4  12
ATOM     12  O   UNL     1      45.159   9.569  19.927  1.00  0.00    -0.504 OA
ATOM     13  H   UNL     1      44.252   9.549  19.477  1.00  0.00     0.293 HD
ENDBRANCH   4  12
BRANCH   6  14
ATOM     14  O   UNL     1      45.554   7.795  22.088  1.00  0.00    -0.504 OA
ATOM     15  H   UNL     1      44.980   7.162  22.634  1.00  0.00     0.293 HD
ENDBRANCH   6  14
TORSDOF 4
ENDMDL
MODEL 7
REMARK VINA RESULT:    -4.602     16.952     18.463
REMARK INTER + INTRA:          -5.537
REMARK INTER:                  -5.407
REMARK INTRA:                  -0.130
REMARK UNBOUND:                -0.128
REMARK SMILES O=C([O-])C=Cc1ccc(O)c(O)c1
REMARK SMILES IDX 6 1 13 2 7 3 11 4 8 5 9 6 5 7 4 8 2 9 1 10 3 11 12 12 10 14
REMARK H PARENT 12 13 10 15
REMARK Flexibility Score: inf
ROOT
ATOM      1  C   UNL     1      35.357  12.748  28.961  1.00  0.00    -0.022 A 
ATOM      2  C   UNL     1      34.290  12.053  29.552  1.00  0.00     0.058 A 
ATOM      3  C   UNL     1      36.404  12.013  28.371  1.00  0.00     0.012 A 
ATOM      4  C   UNL     1      34.247  10.653  29.536  1.00  0.00     0.157 A 
ATOM      5  C   UNL     1      36.364  10.617  28.353  1.00  0.00     0.051 A 
ATOM      6  C   UNL     1      35.288   9.931  28.930  1.00  0.00     0.157 A 
ENDROOT
BRANCH   1   7
ATOM      7  C   UNL     1      35.356  14.232  29.018  1.00  0.00     0.010 C 
ATOM      8  C   UNL     1      35.402  15.018  27.933  1.00  0.00     0.025 C 
BRANCH   8   9
ATOM      9  C   UNL     1      35.387  16.489  28.028  1.00  0.00     0.064 C 
ATOM     10  O   UNL     1      34.875  17.196  27.120  1.00  0.00    -0.545 OA
ATOM     11  O   UNL     1      35.946  17.106  29.139  1.00  0.00    -0.545 OA
ENDBRANCH   8   9
ENDBRANCH   1   7
BRANCH   4  12
ATOM     12  O   UNL     1      33.165  10.001  30.125  1.00  0.00    -0.504 OA
ATOM     13  H   UNL     1      33.283   9.329  30.874  1.00  0.00     0.293 HD
ENDBRANCH   4  12
BRANCH   6  14
ATOM     14  O   UNL     1      35.251   8.537  28.909  1.00  0.00    -0.504 OA
ATOM     15  H   UNL     1      36.054   7.981  29.181  1.00  0.00     0.293 HD
ENDBRANCH   6  14
TORSDOF 4
ENDMDL
MODEL 8
REMARK VINA RESULT:    -4.598     16.117     18.181
REMARK INTER + INTRA:          -5.532
REMARK INTER:                  -5.397
REMARK INTRA:                  -0.135
REMARK UNBOUND:                -0.128
REMARK SMILES O=C([O-])C=Cc1ccc(O)c(O)c1
REMARK SMILES IDX 6 1 13 2 7 3 11 4 8 5 9 6 5 7 4 8 2 9 1 10 3 11 12 12 10 14
REMARK H PARENT 12 13 10 15
REMARK Flexibility Score: inf
ROOT
ATOM      1  C   UNL     1      43.731  10.942  23.247  1.00  0.00    -0.022 A 
ATOM      2  C   UNL     1      44.015  10.743  21.887  1.00  0.00     0.058 A 
ATOM      3  C   UNL     1      44.241  10.027  24.189  1.00  0.00     0.012 A 
ATOM      4  C   UNL     1      44.812   9.670  21.468  1.00  0.00     0.157 A 
ATOM      5  C   UNL     1      45.036   8.955  23.775  1.00  0.00     0.051 A 
ATOM      6  C   UNL     1      45.327   8.773  22.417  1.00  0.00     0.157 A 
ENDROOT
BRANCH   1   7
ATOM      7  C   UNL     1      42.872  12.090  23.633  1.00  0.00     0.010 C 
ATOM      8  C   UNL     1      42.546  13.089  22.799  1.00  0.00     0.025 C 
BRANCH   8   9
ATOM      9  C   UNL     1      41.680  14.206  23.214  1.00  0.00     0.064 C 
ATOM     10  O   UNL     1      40.881  14.089  24.180  1.00  0.00    -0.545 OA
ATOM     11  O   UNL     1      41.749  15.412  22.528  1.00  0.00    -0.545 OA
ENDBRANCH   8   9
ENDBRANCH   1   7
BRANCH   4  12
ATOM     12  O   UNL     1      45.078   9.513  20.109  1.00  0.00    -0.504 OA
ATOM     13  H   UNL     1      45.997   9.260  19.766  1.00  0.00     0.293 HD
ENDBRANCH   4  12
BRANCH   6  14
ATOM     14  O   UNL     1      46.123   7.703  22.008  1.00  0.00    -0.504 OA
ATOM     15  H   UNL     1      45.883   6.746  22.239  1.00  0.00     0.293 HD
ENDBRANCH   6  14
TORSDOF 4
ENDMDL
