MODEL 1
REMARK VINA RESULT:    -3.545      0.000      0.000
REMARK INTER + INTRA:          -3.966
REMARK INTER:                  -3.960
REMARK INTRA:                  -0.006
REMARK UNBOUND:                -0.006
REMARK SMILES CCCC(=O)[O-]
REMARK SMILES IDX 3 1 4 2 5 3 6 4 2 5 1 6
REMARK H PARENT
REMARK Flexibility Score: inf
ROOT
ATOM      1  C   UNL     1       5.900   9.764   2.295  1.00  0.00     0.052 C 
ENDROOT
BRANCH   1   2
ATOM      2  C   UNL     1       6.759   9.229   3.401  1.00  0.00     0.041 C 
ATOM      3  O   UNL     1       6.365   9.291   4.596  1.00  0.00    -0.550 OA
ATOM      4  O   UNL     1       7.978   8.633   3.107  1.00  0.00    -0.550 OA
ENDBRANCH   1   2
BRANCH   1   5
ATOM      5  C   UNL     1       4.565   9.015   2.201  1.00  0.00     0.003 C 
ATOM      6  C   UNL     1       4.131   8.779   0.754  1.00  0.00     0.004 C 
ENDBRANCH   1   5
TORSDOF 2
ENDMDL
MODEL 2
REMARK VINA RESULT:    -3.292      1.882      3.055
REMARK INTER + INTRA:          -3.683
REMARK INTER:                  -3.647
REMARK INTRA:                  -0.036
REMARK UNBOUND:                -0.006
REMARK SMILES CCCC(=O)[O-]
REMARK SMILES IDX 3 1 4 2 5 3 6 4 2 5 1 6
REMARK H PARENT
REMARK Flexibility Score: inf
ROOT
ATOM      1  C   UNL     1       6.936   9.681   2.243  1.00  0.00     0.052 C 
ENDROOT
BRANCH   1   2
ATOM      2  C   UNL     1       5.978   9.533   3.387  1.00  0.00     0.041 C 
ATOM      3  O   UNL     1       6.403   9.243   4.536  1.00  0.00    -0.550 OA
ATOM      4  O   UNL     1       4.621   9.749   3.188  1.00  0.00    -0.550 OA
ENDBRANCH   1   2
BRANCH   1   5
ATOM      5  C   UNL     1       8.393   9.544   2.702  1.00  0.00     0.003 C 
ATOM      6  C   UNL     1       8.992   8.185   2.337  1.00  0.00     0.004 C 
ENDBRANCH   1   5
TORSDOF 2
ENDMDL
MODEL 3
REMARK VINA RESULT:    -3.267      1.690      2.020
REMARK INTER + INTRA:          -3.655
REMARK INTER:                  -3.646
REMARK INTRA:                  -0.010
REMARK UNBOUND:                -0.006
REMARK SMILES CCCC(=O)[O-]
REMARK SMILES IDX 3 1 4 2 5 3 6 4 2 5 1 6
REMARK H PARENT
REMARK Flexibility Score: inf
ROOT
ATOM      1  C   UNL     1       6.864   8.904   3.049  1.00  0.00     0.052 C 
ENDROOT
BRANCH   1   2
ATOM      2  C   UNL     1       8.270   8.849   2.534  1.00  0.00     0.041 C 
ATOM      3  O   UNL     1       8.767   9.842   1.940  1.00  0.00    -0.550 OA
ATOM      4  O   UNL     1       9.042   7.713   2.741  1.00  0.00    -0.550 OA
ENDBRANCH   1   2
BRANCH   1   5
ATOM      5  C   UNL     1       5.935   9.653   2.085  1.00  0.00     0.003 C 
ATOM      6  C   UNL     1       4.603   8.932   1.884  1.00  0.00     0.004 C 
ENDBRANCH   1   5
TORSDOF 2
ENDMDL
MODEL 4
REMARK VINA RESULT:    -2.928     22.591     22.990
REMARK INTER + INTRA:          -3.277
REMARK INTER:                  -3.258
REMARK INTRA:                  -0.019
REMARK UNBOUND:                -0.006
REMARK SMILES CCCC(=O)[O-]
REMARK SMILES IDX 3 1 4 2 5 3 6 4 2 5 1 6
REMARK H PARENT
REMARK Flexibility Score: inf
ROOT
ATOM      1  C   UNL     1      -7.605  -6.827  -4.908  1.00  0.00     0.052 C 
ENDROOT
BRANCH   1   2
ATOM      2  C   UNL     1      -8.990  -6.549  -4.406  1.00  0.00     0.041 C 
ATOM      3  O   UNL     1      -9.346  -6.958  -3.269  1.00  0.00    -0.550 OA
ATOM      4  O   UNL     1      -9.875  -5.810  -5.180  1.00  0.00    -0.550 OA
ENDBRANCH   1   2
BRANCH   1   5
ATOM      5  C   UNL     1      -7.363  -8.329  -5.102  1.00  0.00     0.003 C 
ATOM      6  C   UNL     1      -5.971  -8.758  -4.637  1.00  0.00     0.004 C 
ENDBRANCH   1   5
TORSDOF 2
ENDMDL
MODEL 5
REMARK VINA RESULT:    -2.924     22.079     22.621
REMARK INTER + INTRA:          -3.272
REMARK INTER:                  -3.238
REMARK INTRA:                  -0.034
REMARK UNBOUND:                -0.006
REMARK SMILES CCCC(=O)[O-]
REMARK SMILES IDX 3 1 4 2 5 3 6 4 2 5 1 6
REMARK H PARENT
REMARK Flexibility Score: inf
ROOT
ATOM      1  C   UNL     1      -7.854  -7.461  -5.482  1.00  0.00     0.052 C 
ENDROOT
BRANCH   1   2
ATOM      2  C   UNL     1      -8.415  -6.538  -4.443  1.00  0.00     0.041 C 
ATOM      3  O   UNL     1      -8.129  -5.312  -4.463  1.00  0.00    -0.550 OA
ATOM      4  O   UNL     1      -9.279  -7.029  -3.473  1.00  0.00    -0.550 OA
ENDBRANCH   1   2
BRANCH   1   5
ATOM      5  C   UNL     1      -6.333  -7.605  -5.352  1.00  0.00     0.003 C 
ATOM      6  C   UNL     1      -5.932  -8.842  -4.548  1.00  0.00     0.004 C 
ENDBRANCH   1   5
TORSDOF 2
ENDMDL
MODEL 6
REMARK VINA RESULT:    -2.830     22.433     22.762
REMARK INTER + INTRA:          -3.167
REMARK INTER:                  -3.159
REMARK INTRA:                  -0.008
REMARK UNBOUND:                -0.006
REMARK SMILES CCCC(=O)[O-]
REMARK SMILES IDX 3 1 4 2 5 3 6 4 2 5 1 6
REMARK H PARENT
REMARK Flexibility Score: inf
ROOT
ATOM      1  C   UNL     1      -7.844  -8.020  -5.172  1.00  0.00     0.052 C 
ENDROOT
BRANCH   1   2
ATOM      2  C   UNL     1      -6.365  -8.189  -5.000  1.00  0.00     0.041 C 
ATOM      3  O   UNL     1      -5.910  -8.818  -4.008  1.00  0.00    -0.550 OA
ATOM      4  O   UNL     1      -5.492  -7.681  -5.953  1.00  0.00    -0.550 OA
ENDBRANCH   1   2
BRANCH   1   5
ATOM      5  C   UNL     1      -8.345  -6.720  -4.532  1.00  0.00     0.003 C 
ATOM      6  C   UNL     1      -9.762  -6.854  -3.974  1.00  0.00     0.004 C 
ENDBRANCH   1   5
TORSDOF 2
ENDMDL
MODEL 7
REMARK VINA RESULT:    -2.774     22.555     22.872
REMARK INTER + INTRA:          -3.105
REMARK INTER:                  -3.092
REMARK INTRA:                  -0.013
REMARK UNBOUND:                -0.006
REMARK SMILES CCCC(=O)[O-]
REMARK SMILES IDX 3 1 4 2 5 3 6 4 2 5 1 6
REMARK H PARENT
REMARK Flexibility Score: inf
ROOT
ATOM      1  C   UNL     1      -6.680  -7.449  -6.188  1.00  0.00     0.052 C 
ENDROOT
BRANCH   1   2
ATOM      2  C   UNL     1      -7.064  -8.050  -4.870  1.00  0.00     0.041 C 
ATOM      3  O   UNL     1      -8.242  -7.935  -4.439  1.00  0.00    -0.550 OA
ATOM      4  O   UNL     1      -6.128  -8.764  -4.133  1.00  0.00    -0.550 OA
ENDBRANCH   1   2
BRANCH   1   5
ATOM      5  C   UNL     1      -5.664  -8.322  -6.935  1.00  0.00     0.003 C 
ATOM      6  C   UNL     1      -4.793  -7.510  -7.894  1.00  0.00     0.004 C 
ENDBRANCH   1   5
TORSDOF 2
ENDMDL
MODEL 8
REMARK VINA RESULT:    -2.769     22.228     22.613
REMARK INTER + INTRA:          -3.099
REMARK INTER:                  -3.072
REMARK INTRA:                  -0.027
REMARK UNBOUND:                -0.006
REMARK SMILES CCCC(=O)[O-]
REMARK SMILES IDX 3 1 4 2 5 3 6 4 2 5 1 6
REMARK H PARENT
REMARK Flexibility Score: inf
ROOT
ATOM      1  C   UNL     1      -7.654  -7.443  -5.639  1.00  0.00     0.052 C 
ENDROOT
BRANCH   1   2
ATOM      2  C   UNL     1      -6.282  -7.938  -5.297  1.00  0.00     0.041 C 
ATOM      3  O   UNL     1      -5.317  -7.719  -6.077  1.00  0.00    -0.550 OA
ATOM      4  O   UNL     1      -6.064  -8.611  -4.102  1.00  0.00    -0.550 OA
ENDBRANCH   1   2
BRANCH   1   5
ATOM      5  C   UNL     1      -8.160  -6.418  -4.616  1.00  0.00     0.003 C 
ATOM      6  C   UNL     1      -9.526  -6.794  -4.044  1.00  0.00     0.004 C 
ENDBRANCH   1   5
TORSDOF 2
ENDMDL
MODEL 9
REMARK VINA RESULT:    -2.679     22.450     23.190
REMARK INTER + INTRA:          -2.998
REMARK INTER:                  -2.944
REMARK INTRA:                  -0.055
REMARK UNBOUND:                -0.006
REMARK SMILES CCCC(=O)[O-]
REMARK SMILES IDX 3 1 4 2 5 3 6 4 2 5 1 6
REMARK H PARENT
REMARK Flexibility Score: inf
ROOT
ATOM      1  C   UNL     1      -5.858  -7.716  -6.025  1.00  0.00     0.052 C 
ENDROOT
BRANCH   1   2
ATOM      2  C   UNL     1      -6.509  -8.294  -4.804  1.00  0.00     0.041 C 
ATOM      3  O   UNL     1      -5.821  -8.923  -3.957  1.00  0.00    -0.550 OA
ATOM      4  O   UNL     1      -7.868  -8.108  -4.588  1.00  0.00    -0.550 OA
ENDBRANCH   1   2
BRANCH   1   5
ATOM      5  C   UNL     1      -6.757  -7.843  -7.261  1.00  0.00     0.003 C 
ATOM      6  C   UNL     1      -6.733  -9.252  -7.855  1.00  0.00     0.004 C 
ENDBRANCH   1   5
TORSDOF 2
ENDMDL
