MODEL 1
REMARK VINA RESULT:    -3.564      0.000      0.000
REMARK INTER + INTRA:          -6.474
REMARK INTER:                  -5.647
REMARK INTRA:                  -0.827
REMARK UNBOUND:                -0.827
REMARK SMILES CCCCCCCCCCCC(=O)[O-]
REMARK SMILES IDX 7 1 8 2 9 3 10 4 11 5 12 6 13 7 14 8 6 9 5 10 4 11 3 12 2 13
REMARK SMILES IDX 1 14
REMARK H PARENT
REMARK Flexibility Score: inf
ROOT
ATOM      1  C   UNL     1      58.428  29.310  51.053  1.00  0.00     0.000 C 
ENDROOT
BRANCH   1   2
ATOM      2  C   UNL     1      58.999  28.988  49.662  1.00  0.00     0.000 C 
BRANCH   2   3
ATOM      3  C   UNL     1      59.884  27.732  49.661  1.00  0.00     0.000 C 
BRANCH   3   4
ATOM      4  C   UNL     1      59.840  27.028  51.022  1.00  0.00     0.006 C 
BRANCH   4   5
ATOM      5  C   UNL     1      59.087  25.697  50.930  1.00  0.00     0.053 C 
BRANCH   5   6
ATOM      6  C   UNL     1      58.171  25.531  52.101  1.00  0.00     0.041 C 
ATOM      7  O   UNL     1      57.043  24.993  51.951  1.00  0.00    -0.550 OA
ATOM      8  O   UNL     1      58.585  25.922  53.368  1.00  0.00    -0.550 OA
ENDBRANCH   5   6
ENDBRANCH   4   5
ENDBRANCH   3   4
ENDBRANCH   2   3
ENDBRANCH   1   2
BRANCH   1   9
ATOM      9  C   UNL     1      56.924  29.635  51.014  1.00  0.00     0.000 C 
BRANCH   9  10
ATOM     10  C   UNL     1      56.055  28.378  50.846  1.00  0.00    -0.000 C 
BRANCH  10  11
ATOM     11  C   UNL     1      54.568  28.713  50.635  1.00  0.00    -0.000 C 
BRANCH  11  12
ATOM     12  C   UNL     1      53.760  27.528  50.077  1.00  0.00    -0.000 C 
BRANCH  12  13
ATOM     13  C   UNL     1      54.546  26.211  49.946  1.00  0.00    -0.003 C 
ATOM     14  C   UNL     1      53.647  25.000  49.697  1.00  0.00     0.004 C 
ENDBRANCH  12  13
ENDBRANCH  11  12
ENDBRANCH  10  11
ENDBRANCH   9  10
ENDBRANCH   1   9
TORSDOF 10
ENDMDL
MODEL 2
REMARK VINA RESULT:    -3.552      1.427      1.908
REMARK INTER + INTRA:          -6.455
REMARK INTER:                  -5.874
REMARK INTRA:                  -0.581
REMARK UNBOUND:                -0.827
REMARK SMILES CCCCCCCCCCCC(=O)[O-]
REMARK SMILES IDX 7 1 8 2 9 3 10 4 11 5 12 6 13 7 14 8 6 9 5 10 4 11 3 12 2 13
REMARK SMILES IDX 1 14
REMARK H PARENT
REMARK Flexibility Score: inf
ROOT
ATOM      1  C   UNL     1      56.831  29.745  50.833  1.00  0.00     0.000 C 
ENDROOT
BRANCH   1   2
ATOM      2  C   UNL     1      57.866  28.614  50.719  1.00  0.00     0.000 C 
BRANCH   2   3
ATOM      3  C   UNL     1      59.102  29.021  49.903  1.00  0.00     0.000 C 
BRANCH   3   4
ATOM      4  C   UNL     1      60.005  27.811  49.636  1.00  0.00     0.006 C 
BRANCH   4   5
ATOM      5  C   UNL     1      59.388  26.528  50.201  1.00  0.00     0.053 C 
BRANCH   5   6
ATOM      6  C   UNL     1      60.336  25.864  51.149  1.00  0.00     0.041 C 
ATOM      7  O   UNL     1      59.982  24.832  51.778  1.00  0.00    -0.550 OA
ATOM      8  O   UNL     1      61.627  26.353  51.299  1.00  0.00    -0.550 OA
ENDBRANCH   5   6
ENDBRANCH   4   5
ENDBRANCH   3   4
ENDBRANCH   2   3
ENDBRANCH   1   2
BRANCH   1   9
ATOM      9  C   UNL     1      55.530  29.290  51.518  1.00  0.00     0.000 C 
BRANCH   9  10
ATOM     10  C   UNL     1      54.300  29.452  50.611  1.00  0.00    -0.000 C 
BRANCH  10  11
ATOM     11  C   UNL     1      53.686  28.101  50.203  1.00  0.00    -0.000 C 
BRANCH  11  12
ATOM     12  C   UNL     1      54.706  26.949  50.229  1.00  0.00    -0.000 C 
BRANCH  12  13
ATOM     13  C   UNL     1      54.141  25.571  49.840  1.00  0.00    -0.003 C 
ATOM     14  C   UNL     1      52.876  25.662  48.988  1.00  0.00     0.004 C 
ENDBRANCH  12  13
ENDBRANCH  11  12
ENDBRANCH  10  11
ENDBRANCH   9  10
ENDBRANCH   1   9
TORSDOF 10
ENDMDL
MODEL 3
REMARK VINA RESULT:    -3.519      1.966      4.737
REMARK INTER + INTRA:          -6.403
REMARK INTER:                  -5.479
REMARK INTRA:                  -0.924
REMARK UNBOUND:                -0.827
REMARK SMILES CCCCCCCCCCCC(=O)[O-]
REMARK SMILES IDX 7 1 8 2 9 3 10 4 11 5 12 6 13 7 14 8 6 9 5 10 4 11 3 12 2 13
REMARK SMILES IDX 1 14
REMARK H PARENT
REMARK Flexibility Score: inf
ROOT
ATOM      1  C   UNL     1      58.435  29.291  51.104  1.00  0.00     0.000 C 
ENDROOT
BRANCH   1   2
ATOM      2  C   UNL     1      56.899  29.344  51.134  1.00  0.00     0.000 C 
BRANCH   2   3
ATOM      3  C   UNL     1      56.268  28.012  51.569  1.00  0.00     0.000 C 
BRANCH   3   4
ATOM      4  C   UNL     1      55.317  27.479  50.491  1.00  0.00     0.006 C 
BRANCH   4   5
ATOM      5  C   UNL     1      55.536  25.981  50.257  1.00  0.00     0.053 C 
BRANCH   5   6
ATOM      6  C   UNL     1      54.225  25.268  50.155  1.00  0.00     0.041 C 
ATOM      7  O   UNL     1      53.790  24.600  51.129  1.00  0.00    -0.550 OA
ATOM      8  O   UNL     1      53.458  25.384  49.002  1.00  0.00    -0.550 OA
ENDBRANCH   5   6
ENDBRANCH   4   5
ENDBRANCH   3   4
ENDBRANCH   2   3
ENDBRANCH   1   2
BRANCH   1   9
ATOM      9  C   UNL     1      58.989  28.960  49.707  1.00  0.00     0.000 C 
BRANCH   9  10
ATOM     10  C   UNL     1      59.959  27.768  49.726  1.00  0.00    -0.000 C 
BRANCH  10  11
ATOM     11  C   UNL     1      59.249  26.436  50.030  1.00  0.00    -0.000 C 
BRANCH  11  12
ATOM     12  C   UNL     1      59.814  25.725  51.272  1.00  0.00    -0.000 C 
BRANCH  12  13
ATOM     13  C   UNL     1      59.589  24.204  51.309  1.00  0.00    -0.003 C 
ATOM     14  C   UNL     1      60.575  23.475  52.222  1.00  0.00     0.004 C 
ENDBRANCH  12  13
ENDBRANCH  11  12
ENDBRANCH  10  11
ENDBRANCH   9  10
ENDBRANCH   1   9
TORSDOF 10
ENDMDL
MODEL 4
REMARK VINA RESULT:    -3.485      1.792      3.331
REMARK INTER + INTRA:          -6.349
REMARK INTER:                  -5.336
REMARK INTRA:                  -1.013
REMARK UNBOUND:                -0.827
REMARK SMILES CCCCCCCCCCCC(=O)[O-]
REMARK SMILES IDX 7 1 8 2 9 3 10 4 11 5 12 6 13 7 14 8 6 9 5 10 4 11 3 12 2 13
REMARK SMILES IDX 1 14
REMARK H PARENT
REMARK Flexibility Score: inf
ROOT
ATOM      1  C   UNL     1      58.381  25.426  51.638  1.00  0.00     0.000 C 
ENDROOT
BRANCH   1   2
ATOM      2  C   UNL     1      58.762  25.945  50.243  1.00  0.00     0.000 C 
BRANCH   2   3
ATOM      3  C   UNL     1      59.999  26.856  50.265  1.00  0.00     0.000 C 
BRANCH   3   4
ATOM      4  C   UNL     1      59.711  28.189  49.565  1.00  0.00     0.006 C 
BRANCH   4   5
ATOM      5  C   UNL     1      58.539  28.918  50.231  1.00  0.00     0.053 C 
BRANCH   5   6
ATOM      6  C   UNL     1      58.882  29.286  51.639  1.00  0.00     0.041 C 
ATOM      7  O   UNL     1      58.131  28.934  52.586  1.00  0.00    -0.550 OA
ATOM      8  O   UNL     1      60.059  29.972  51.912  1.00  0.00    -0.550 OA
ENDBRANCH   5   6
ENDBRANCH   4   5
ENDBRANCH   3   4
ENDBRANCH   2   3
ENDBRANCH   1   2
BRANCH   1   9
ATOM      9  C   UNL     1      56.860  25.426  51.875  1.00  0.00     0.000 C 
BRANCH   9  10
ATOM     10  C   UNL     1      56.074  25.916  50.648  1.00  0.00    -0.000 C 
BRANCH  10  11
ATOM     11  C   UNL     1      55.453  27.307  50.864  1.00  0.00    -0.000 C 
BRANCH  11  12
ATOM     12  C   UNL     1      54.074  27.457  50.195  1.00  0.00    -0.000 C 
BRANCH  12  13
ATOM     13  C   UNL     1      53.454  28.862  50.293  1.00  0.00    -0.003 C 
ATOM     14  C   UNL     1      54.408  29.898  50.886  1.00  0.00     0.004 C 
ENDBRANCH  12  13
ENDBRANCH  11  12
ENDBRANCH  10  11
ENDBRANCH   9  10
ENDBRANCH   1   9
TORSDOF 10
ENDMDL
MODEL 5
REMARK VINA RESULT:    -3.477      2.765      3.304
REMARK INTER + INTRA:          -6.337
REMARK INTER:                  -5.873
REMARK INTRA:                  -0.464
REMARK UNBOUND:                -0.827
REMARK SMILES CCCCCCCCCCCC(=O)[O-]
REMARK SMILES IDX 7 1 8 2 9 3 10 4 11 5 12 6 13 7 14 8 6 9 5 10 4 11 3 12 2 13
REMARK SMILES IDX 1 14
REMARK H PARENT
REMARK Flexibility Score: inf
ROOT
ATOM      1  C   UNL     1      58.623  29.269  51.011  1.00  0.00     0.000 C 
ENDROOT
BRANCH   1   2
ATOM      2  C   UNL     1      59.211  28.660  49.727  1.00  0.00     0.000 C 
BRANCH   2   3
ATOM      3  C   UNL     1      59.606  27.185  49.897  1.00  0.00     0.000 C 
BRANCH   3   4
ATOM      4  C   UNL     1      60.942  27.056  50.636  1.00  0.00     0.006 C 
BRANCH   4   5
ATOM      5  C   UNL     1      61.948  28.101  50.141  1.00  0.00     0.053 C 
BRANCH   5   6
ATOM      6  C   UNL     1      63.211  27.440  49.688  1.00  0.00     0.041 C 
ATOM      7  O   UNL     1      63.867  27.919  48.726  1.00  0.00    -0.550 OA
ATOM      8  O   UNL     1      63.692  26.323  50.361  1.00  0.00    -0.550 OA
ENDBRANCH   5   6
ENDBRANCH   4   5
ENDBRANCH   3   4
ENDBRANCH   2   3
ENDBRANCH   1   2
BRANCH   1   9
ATOM      9  C   UNL     1      57.150  29.684  50.848  1.00  0.00     0.000 C 
BRANCH   9  10
ATOM     10  C   UNL     1      56.199  28.477  50.813  1.00  0.00    -0.000 C 
BRANCH  10  11
ATOM     11  C   UNL     1      54.724  28.893  50.672  1.00  0.00    -0.000 C 
BRANCH  11  12
ATOM     12  C   UNL     1      53.811  27.727  50.250  1.00  0.00    -0.000 C 
BRANCH  12  13
ATOM     13  C   UNL     1      54.506  26.357  50.163  1.00  0.00    -0.003 C 
ATOM     14  C   UNL     1      53.730  25.345  49.320  1.00  0.00     0.004 C 
ENDBRANCH  12  13
ENDBRANCH  11  12
ENDBRANCH  10  11
ENDBRANCH   9  10
ENDBRANCH   1   9
TORSDOF 10
ENDMDL
MODEL 6
REMARK VINA RESULT:    -3.452      2.536      4.980
REMARK INTER + INTRA:          -6.296
REMARK INTER:                  -4.713
REMARK INTRA:                  -1.583
REMARK UNBOUND:                -0.827
REMARK SMILES CCCCCCCCCCCC(=O)[O-]
REMARK SMILES IDX 7 1 8 2 9 3 10 4 11 5 12 6 13 7 14 8 6 9 5 10 4 11 3 12 2 13
REMARK SMILES IDX 1 14
REMARK H PARENT
REMARK Flexibility Score: inf
ROOT
ATOM      1  C   UNL     1      58.877  25.619  51.380  1.00  0.00     0.000 C 
ENDROOT
BRANCH   1   2
ATOM      2  C   UNL     1      57.402  25.412  51.760  1.00  0.00     0.000 C 
BRANCH   2   3
ATOM      3  C   UNL     1      56.433  25.946  50.694  1.00  0.00     0.000 C 
BRANCH   3   4
ATOM      4  C   UNL     1      55.356  26.834  51.329  1.00  0.00     0.006 C 
BRANCH   4   5
ATOM      5  C   UNL     1      54.626  27.660  50.264  1.00  0.00     0.053 C 
BRANCH   5   6
ATOM      6  C   UNL     1      54.033  28.891  50.872  1.00  0.00     0.041 C 
ATOM      7  O   UNL     1      52.952  28.822  51.515  1.00  0.00    -0.550 OA
ATOM      8  O   UNL     1      54.699  30.106  50.772  1.00  0.00    -0.550 OA
ENDBRANCH   5   6
ENDBRANCH   4   5
ENDBRANCH   3   4
ENDBRANCH   2   3
ENDBRANCH   1   2
BRANCH   1   9
ATOM      9  C   UNL     1      59.045  26.267  49.994  1.00  0.00     0.000 C 
BRANCH   9  10
ATOM     10  C   UNL     1      59.915  27.534  50.039  1.00  0.00    -0.000 C 
BRANCH  10  11
ATOM     11  C   UNL     1      59.153  28.789  49.577  1.00  0.00    -0.000 C 
BRANCH  11  12
ATOM     12  C   UNL     1      58.098  29.256  50.596  1.00  0.00    -0.000 C 
BRANCH  12  13
ATOM     13  C   UNL     1      58.615  29.428  52.035  1.00  0.00    -0.003 C 
ATOM     14  C   UNL     1      57.573  29.065  53.092  1.00  0.00     0.004 C 
ENDBRANCH  12  13
ENDBRANCH  11  12
ENDBRANCH  10  11
ENDBRANCH   9  10
ENDBRANCH   1   9
TORSDOF 10
ENDMDL
MODEL 7
REMARK VINA RESULT:    -3.419      1.941      3.211
REMARK INTER + INTRA:          -6.245
REMARK INTER:                  -4.920
REMARK INTRA:                  -1.325
REMARK UNBOUND:                -0.827
REMARK SMILES CCCCCCCCCCCC(=O)[O-]
REMARK SMILES IDX 7 1 8 2 9 3 10 4 11 5 12 6 13 7 14 8 6 9 5 10 4 11 3 12 2 13
REMARK SMILES IDX 1 14
REMARK H PARENT
REMARK Flexibility Score: inf
ROOT
ATOM      1  C   UNL     1      55.574  30.239  51.392  1.00  0.00     0.000 C 
ENDROOT
BRANCH   1   2
ATOM      2  C   UNL     1      57.046  29.857  51.612  1.00  0.00     0.000 C 
BRANCH   2   3
ATOM      3  C   UNL     1      57.762  29.476  50.307  1.00  0.00     0.000 C 
BRANCH   3   4
ATOM      4  C   UNL     1      59.213  29.061  50.578  1.00  0.00     0.006 C 
BRANCH   4   5
ATOM      5  C   UNL     1      59.637  27.912  49.658  1.00  0.00     0.053 C 
BRANCH   5   6
ATOM      6  C   UNL     1      60.876  27.254  50.178  1.00  0.00     0.041 C 
ATOM      7  O   UNL     1      62.008  27.621  49.766  1.00  0.00    -0.550 OA
ATOM      8  O   UNL     1      60.784  26.271  51.155  1.00  0.00    -0.550 OA
ENDBRANCH   5   6
ENDBRANCH   4   5
ENDBRANCH   3   4
ENDBRANCH   2   3
ENDBRANCH   1   2
BRANCH   1   9
ATOM      9  C   UNL     1      54.615  29.059  51.629  1.00  0.00     0.000 C 
BRANCH   9  10
ATOM     10  C   UNL     1      54.181  28.382  50.319  1.00  0.00    -0.000 C 
BRANCH  10  11
ATOM     11  C   UNL     1      54.314  26.849  50.376  1.00  0.00    -0.000 C 
BRANCH  11  12
ATOM     12  C   UNL     1      55.778  26.374  50.336  1.00  0.00    -0.000 C 
BRANCH  12  13
ATOM     13  C   UNL     1      56.235  25.573  51.567  1.00  0.00    -0.003 C 
ATOM     14  C   UNL     1      57.369  26.251  52.335  1.00  0.00     0.004 C 
ENDBRANCH  12  13
ENDBRANCH  11  12
ENDBRANCH  10  11
ENDBRANCH   9  10
ENDBRANCH   1   9
TORSDOF 10
ENDMDL
MODEL 8
REMARK VINA RESULT:    -3.388      2.239      4.611
REMARK INTER + INTRA:          -6.196
REMARK INTER:                  -4.756
REMARK INTRA:                  -1.439
REMARK UNBOUND:                -0.827
REMARK SMILES CCCCCCCCCCCC(=O)[O-]
REMARK SMILES IDX 7 1 8 2 9 3 10 4 11 5 12 6 13 7 14 8 6 9 5 10 4 11 3 12 2 13
REMARK SMILES IDX 1 14
REMARK H PARENT
REMARK Flexibility Score: inf
ROOT
ATOM      1  C   UNL     1      59.927  26.183  51.526  1.00  0.00     0.000 C 
ENDROOT
BRANCH   1   2
ATOM      2  C   UNL     1      58.839  25.297  50.899  1.00  0.00     0.000 C 
BRANCH   2   3
ATOM      3  C   UNL     1      57.434  25.612  51.437  1.00  0.00     0.000 C 
BRANCH   3   4
ATOM      4  C   UNL     1      56.470  25.942  50.292  1.00  0.00     0.006 C 
BRANCH   4   5
ATOM      5  C   UNL     1      55.203  26.624  50.819  1.00  0.00     0.053 C 
BRANCH   5   6
ATOM      6  C   UNL     1      54.032  26.299  49.947  1.00  0.00     0.041 C 
ATOM      7  O   UNL     1      53.927  25.158  49.426  1.00  0.00    -0.550 OA
ATOM      8  O   UNL     1      53.029  27.241  49.750  1.00  0.00    -0.550 OA
ENDBRANCH   5   6
ENDBRANCH   4   5
ENDBRANCH   3   4
ENDBRANCH   2   3
ENDBRANCH   1   2
BRANCH   1   9
ATOM      9  C   UNL     1      60.598  27.113  50.499  1.00  0.00     0.000 C 
BRANCH   9  10
ATOM     10  C   UNL     1      59.581  27.783  49.561  1.00  0.00    -0.000 C 
BRANCH  10  11
ATOM     11  C   UNL     1      59.248  29.224  49.985  1.00  0.00    -0.000 C 
BRANCH  11  12
ATOM     12  C   UNL     1      57.923  29.330  50.759  1.00  0.00    -0.000 C 
BRANCH  12  13
ATOM     13  C   UNL     1      58.066  29.378  52.291  1.00  0.00    -0.003 C 
ATOM     14  C   UNL     1      56.767  29.050  53.025  1.00  0.00     0.004 C 
ENDBRANCH  12  13
ENDBRANCH  11  12
ENDBRANCH  10  11
ENDBRANCH   9  10
ENDBRANCH   1   9
TORSDOF 10
ENDMDL
MODEL 9
REMARK VINA RESULT:    -3.386      2.394      4.049
REMARK INTER + INTRA:          -6.192
REMARK INTER:                  -4.832
REMARK INTRA:                  -1.360
REMARK UNBOUND:                -0.827
REMARK SMILES CCCCCCCCCCCC(=O)[O-]
REMARK SMILES IDX 7 1 8 2 9 3 10 4 11 5 12 6 13 7 14 8 6 9 5 10 4 11 3 12 2 13
REMARK SMILES IDX 1 14
REMARK H PARENT
REMARK Flexibility Score: inf
ROOT
ATOM      1  C   UNL     1      59.662  27.470  49.647  1.00  0.00     0.000 C 
ENDROOT
BRANCH   1   2
ATOM      2  C   UNL     1      59.147  28.912  49.782  1.00  0.00     0.000 C 
BRANCH   2   3
ATOM      3  C   UNL     1      58.377  29.148  51.091  1.00  0.00     0.000 C 
BRANCH   3   4
ATOM      4  C   UNL     1      56.988  29.732  50.811  1.00  0.00     0.006 C 
BRANCH   4   5
ATOM      5  C   UNL     1      56.072  29.583  52.031  1.00  0.00     0.053 C 
BRANCH   5   6
ATOM      6  C   UNL     1      54.644  29.798  51.643  1.00  0.00     0.041 C 
ATOM      7  O   UNL     1      54.246  30.943  51.301  1.00  0.00    -0.550 OA
ATOM      8  O   UNL     1      53.762  28.725  51.611  1.00  0.00    -0.550 OA
ENDBRANCH   5   6
ENDBRANCH   4   5
ENDBRANCH   3   4
ENDBRANCH   2   3
ENDBRANCH   1   2
BRANCH   1   9
ATOM      9  C   UNL     1      59.465  26.648  50.933  1.00  0.00     0.000 C 
BRANCH   9  10
ATOM     10  C   UNL     1      58.498  25.469  50.735  1.00  0.00    -0.000 C 
BRANCH  10  11
ATOM     11  C   UNL     1      57.571  25.258  51.945  1.00  0.00    -0.000 C 
BRANCH  11  12
ATOM     12  C   UNL     1      56.182  25.893  51.752  1.00  0.00    -0.000 C 
BRANCH  12  13
ATOM     13  C   UNL     1      55.813  26.220  50.295  1.00  0.00    -0.003 C 
ATOM     14  C   UNL     1      54.514  25.555  49.842  1.00  0.00     0.004 C 
ENDBRANCH  12  13
ENDBRANCH  11  12
ENDBRANCH  10  11
ENDBRANCH   9  10
ENDBRANCH   1   9
TORSDOF 10
ENDMDL
