MODEL 1
REMARK VINA RESULT:    -7.593      0.000      0.000
REMARK INTER + INTRA:          -8.844
REMARK INTER:                  -9.146
REMARK INTRA:                   0.302
REMARK UNBOUND:                 0.302
REMARK SMILES O=c1c(O)c(-c2ccc(O)c(O)c2)oc2cc(O)cc(O)c12
REMARK SMILES IDX 5 1 3 2 2 3 1 4 22 5 20 6 19 7 17 8 16 9 15 10 14 11 6 12
REMARK SMILES IDX 7 13 8 14 9 15 13 16 11 17 10 18 12 20 4 22 21 24 18 26
REMARK H PARENT 10 19 12 21 4 23 21 25 18 27
REMARK Flexibility Score: inf
ROOT
ATOM      1  C   UNL     1       9.641  13.186  23.172  1.00  0.00     0.180 A 
ATOM      2  C   UNL     1       9.083  13.873  24.264  1.00  0.00     0.208 A 
ATOM      3  C   UNL     1       8.726  13.149  25.414  1.00  0.00     0.238 A 
ATOM      4  O   UNL     1       8.177  13.761  26.366  1.00  0.00    -0.285 OA
ATOM      5  C   UNL     1       8.945  11.752  25.462  1.00  0.00     0.111 A 
ATOM      6  C   UNL     1       8.658  10.925  26.590  1.00  0.00     0.134 A 
ATOM      7  C   UNL     1       8.794   9.535  26.480  1.00  0.00     0.093 A 
ATOM      8  C   UNL     1       9.267   8.949  25.307  1.00  0.00     0.123 A 
ATOM      9  C   UNL     1       9.606   9.753  24.218  1.00  0.00     0.094 A 
ATOM     10  C   UNL     1       9.447  11.139  24.285  1.00  0.00     0.146 A 
ATOM     11  O   UNL     1       9.773  11.867  23.223  1.00  0.00    -0.452 OA
ENDROOT
BRANCH   1  12
ATOM     12  C   UNL     1      10.065  13.884  21.937  1.00  0.00     0.025 A 
ATOM     13  C   UNL     1      10.165  13.164  20.736  1.00  0.00     0.016 A 
ATOM     14  C   UNL     1      10.583  13.798  19.563  1.00  0.00     0.051 A 
ATOM     15  C   UNL     1      10.924  15.156  19.577  1.00  0.00     0.157 A 
ATOM     16  C   UNL     1      10.427  15.243  21.950  1.00  0.00     0.062 A 
ATOM     17  C   UNL     1      10.850  15.881  20.778  1.00  0.00     0.158 A 
BRANCH  15  18
ATOM     18  O   UNL     1      11.340  15.786  18.405  1.00  0.00    -0.504 OA
ATOM     19  H   UNL     1      12.284  16.139  18.299  1.00  0.00     0.293 HD
ENDBRANCH  15  18
BRANCH  17  20
ATOM     20  O   UNL     1      11.195  17.231  20.828  1.00  0.00    -0.504 OA
ATOM     21  H   UNL     1      11.251  17.802  19.994  1.00  0.00     0.293 HD
ENDBRANCH  17  20
ENDBRANCH   1  12
BRANCH   2  22
ATOM     22  O   UNL     1       8.854  15.250  24.187  1.00  0.00    -0.502 OA
ATOM     23  H   UNL     1       9.019  15.783  23.341  1.00  0.00     0.293 HD
ENDBRANCH   2  22
BRANCH   6  24
ATOM     24  O   UNL     1       8.267  11.417  27.839  1.00  0.00    -0.507 OA
ATOM     25  H   UNL     1       8.902  11.740  28.553  1.00  0.00     0.293 HD
ENDBRANCH   6  24
BRANCH   8  26
ATOM     26  O   UNL     1       9.403   7.564  25.238  1.00  0.00    -0.508 OA
ATOM     27  H   UNL     1       8.753   6.993  24.710  1.00  0.00     0.293 HD
ENDBRANCH   8  26
TORSDOF 6
ENDMDL
MODEL 2
REMARK VINA RESULT:    -6.715      1.519      3.215
REMARK INTER + INTRA:          -7.788
REMARK INTER:                  -7.764
REMARK INTRA:                  -0.024
REMARK UNBOUND:                 0.302
REMARK SMILES O=c1c(O)c(-c2ccc(O)c(O)c2)oc2cc(O)cc(O)c12
REMARK SMILES IDX 5 1 3 2 2 3 1 4 22 5 20 6 19 7 17 8 16 9 15 10 14 11 6 12
REMARK SMILES IDX 7 13 8 14 9 15 13 16 11 17 10 18 12 20 4 22 21 24 18 26
REMARK H PARENT 10 19 12 21 4 23 21 25 18 27
REMARK Flexibility Score: inf
ROOT
ATOM      1  C   UNL     1       9.807  13.031  24.012  1.00  0.00     0.180 A 
ATOM      2  C   UNL     1      10.087  11.786  23.423  1.00  0.00     0.208 A 
ATOM      3  C   UNL     1       9.817  10.614  24.146  1.00  0.00     0.238 A 
ATOM      4  O   UNL     1      10.120   9.505  23.635  1.00  0.00    -0.285 OA
ATOM      5  C   UNL     1       9.256  10.701  25.443  1.00  0.00     0.111 A 
ATOM      6  C   UNL     1       8.905   9.577  26.250  1.00  0.00     0.134 A 
ATOM      7  C   UNL     1       8.477   9.781  27.569  1.00  0.00     0.093 A 
ATOM      8  C   UNL     1       8.327  11.067  28.086  1.00  0.00     0.123 A 
ATOM      9  C   UNL     1       8.612  12.174  27.286  1.00  0.00     0.094 A 
ATOM     10  C   UNL     1       9.074  12.002  25.979  1.00  0.00     0.146 A 
ATOM     11  O   UNL     1       9.343  13.081  25.254  1.00  0.00    -0.452 OA
ENDROOT
BRANCH   1  12
ATOM     12  C   UNL     1      10.041  14.309  23.301  1.00  0.00     0.025 A 
ATOM     13  C   UNL     1      10.707  15.354  23.961  1.00  0.00     0.016 A 
ATOM     14  C   UNL     1      10.921  16.576  23.316  1.00  0.00     0.051 A 
ATOM     15  C   UNL     1      10.457  16.776  22.010  1.00  0.00     0.157 A 
ATOM     16  C   UNL     1       9.560  14.522  21.996  1.00  0.00     0.062 A 
ATOM     17  C   UNL     1       9.769  15.745  21.349  1.00  0.00     0.158 A 
BRANCH  15  18
ATOM     18  O   UNL     1      10.672  17.995  21.369  1.00  0.00    -0.504 OA
ATOM     19  H   UNL     1      10.551  18.877  21.853  1.00  0.00     0.293 HD
ENDBRANCH  15  18
BRANCH  17  20
ATOM     20  O   UNL     1       9.283  15.918  20.054  1.00  0.00    -0.504 OA
ATOM     21  H   UNL     1       8.304  15.793  19.825  1.00  0.00     0.293 HD
ENDBRANCH  17  20
ENDBRANCH   1  12
BRANCH   2  22
ATOM     22  O   UNL     1      10.662  11.724  22.150  1.00  0.00    -0.502 OA
ATOM     23  H   UNL     1      11.632  11.468  22.002  1.00  0.00     0.293 HD
ENDBRANCH   2  22
BRANCH   6  24
ATOM     24  O   UNL     1       8.930   8.253  25.801  1.00  0.00    -0.507 OA
ATOM     25  H   UNL     1       9.088   7.450  26.390  1.00  0.00     0.293 HD
ENDBRANCH   6  24
BRANCH   8  26
ATOM     26  O   UNL     1       7.886  11.233  29.397  1.00  0.00    -0.508 OA
ATOM     27  H   UNL     1       7.443  12.091  29.703  1.00  0.00     0.293 HD
ENDBRANCH   8  26
TORSDOF 6
ENDMDL
MODEL 3
REMARK VINA RESULT:    -6.665      1.101      6.698
REMARK INTER + INTRA:          -7.727
REMARK INTER:                  -8.164
REMARK INTRA:                   0.437
REMARK UNBOUND:                 0.302
REMARK SMILES O=c1c(O)c(-c2ccc(O)c(O)c2)oc2cc(O)cc(O)c12
REMARK SMILES IDX 5 1 3 2 2 3 1 4 22 5 20 6 19 7 17 8 16 9 15 10 14 11 6 12
REMARK SMILES IDX 7 13 8 14 9 15 13 16 11 17 10 18 12 20 4 22 21 24 18 26
REMARK H PARENT 10 19 12 21 4 23 21 25 18 27
REMARK Flexibility Score: inf
ROOT
ATOM      1  C   UNL     1       9.290  12.085  24.117  1.00  0.00     0.180 A 
ATOM      2  C   UNL     1       8.990  13.286  24.784  1.00  0.00     0.208 A 
ATOM      3  C   UNL     1       9.088  14.498  24.083  1.00  0.00     0.238 A 
ATOM      4  O   UNL     1       8.871  15.573  24.700  1.00  0.00    -0.285 OA
ATOM      5  C   UNL     1       9.469  14.493  22.719  1.00  0.00     0.111 A 
ATOM      6  C   UNL     1       9.562  15.659  21.900  1.00  0.00     0.134 A 
ATOM      7  C   UNL     1      10.074  15.550  20.601  1.00  0.00     0.093 A 
ATOM      8  C   UNL     1      10.435  14.313  20.070  1.00  0.00     0.123 A 
ATOM      9  C   UNL     1      10.292  13.159  20.842  1.00  0.00     0.094 A 
ATOM     10  C   UNL     1       9.819  13.240  22.154  1.00  0.00     0.146 A 
ATOM     11  O   UNL     1       9.707  12.120  22.858  1.00  0.00    -0.452 OA
ENDROOT
BRANCH   1  12
ATOM     12  C   UNL     1       9.185  10.767  24.783  1.00  0.00     0.025 A 
ATOM     13  C   UNL     1       9.641   9.618  24.118  1.00  0.00     0.016 A 
ATOM     14  C   UNL     1       9.533   8.362  24.719  1.00  0.00     0.051 A 
ATOM     15  C   UNL     1       8.953   8.233  25.987  1.00  0.00     0.157 A 
ATOM     16  C   UNL     1       8.584  10.630  26.048  1.00  0.00     0.062 A 
ATOM     17  C   UNL     1       8.471   9.373  26.652  1.00  0.00     0.158 A 
BRANCH  15  18
ATOM     18  O   UNL     1       8.847   6.978  26.585  1.00  0.00    -0.504 OA
ATOM     19  H   UNL     1       8.020   6.705  27.103  1.00  0.00     0.293 HD
ENDBRANCH  15  18
BRANCH  17  20
ATOM     20  O   UNL     1       7.875   9.276  27.909  1.00  0.00    -0.504 OA
ATOM     21  H   UNL     1       7.385  10.053  28.333  1.00  0.00     0.293 HD
ENDBRANCH  17  20
ENDBRANCH   1  12
BRANCH   2  22
ATOM     22  O   UNL     1       8.637  13.269  26.137  1.00  0.00    -0.502 OA
ATOM     23  H   UNL     1       8.992  12.574  26.784  1.00  0.00     0.293 HD
ENDBRANCH   2  22
BRANCH   6  24
ATOM     24  O   UNL     1       9.142  16.931  22.301  1.00  0.00    -0.507 OA
ATOM     25  H   UNL     1       8.621  17.573  21.722  1.00  0.00     0.293 HD
ENDBRANCH   6  24
BRANCH   8  26
ATOM     26  O   UNL     1      10.927  14.241  18.769  1.00  0.00    -0.508 OA
ATOM     27  H   UNL     1      11.900  14.029  18.581  1.00  0.00     0.293 HD
ENDBRANCH   8  26
TORSDOF 6
ENDMDL
MODEL 4
REMARK VINA RESULT:    -6.645      1.725      7.405
REMARK INTER + INTRA:          -7.702
REMARK INTER:                  -7.833
REMARK INTRA:                   0.131
REMARK UNBOUND:                 0.302
REMARK SMILES O=c1c(O)c(-c2ccc(O)c(O)c2)oc2cc(O)cc(O)c12
REMARK SMILES IDX 5 1 3 2 2 3 1 4 22 5 20 6 19 7 17 8 16 9 15 10 14 11 6 12
REMARK SMILES IDX 7 13 8 14 9 15 13 16 11 17 10 18 12 20 4 22 21 24 18 26
REMARK H PARENT 10 19 12 21 4 23 21 25 18 27
REMARK Flexibility Score: inf
ROOT
ATOM      1  C   UNL     1       9.485  13.729  24.149  1.00  0.00     0.180 A 
ATOM      2  C   UNL     1       9.515  13.311  22.807  1.00  0.00     0.208 A 
ATOM      3  C   UNL     1       9.956  14.211  21.823  1.00  0.00     0.238 A 
ATOM      4  O   UNL     1       9.928  13.849  20.618  1.00  0.00    -0.285 OA
ATOM      5  C   UNL     1      10.376  15.510  22.195  1.00  0.00     0.111 A 
ATOM      6  C   UNL     1      10.879  16.490  21.286  1.00  0.00     0.134 A 
ATOM      7  C   UNL     1      11.143  17.787  21.746  1.00  0.00     0.093 A 
ATOM      8  C   UNL     1      10.985  18.120  23.090  1.00  0.00     0.123 A 
ATOM      9  C   UNL     1      10.549  17.154  23.998  1.00  0.00     0.094 A 
ATOM     10  C   UNL     1      10.244  15.862  23.563  1.00  0.00     0.146 A 
ATOM     11  O   UNL     1       9.823  14.975  24.457  1.00  0.00    -0.452 OA
ENDROOT
BRANCH   1  12
ATOM     12  C   UNL     1       9.057  12.829  25.245  1.00  0.00     0.025 A 
ATOM     13  C   UNL     1       8.339  13.356  26.330  1.00  0.00     0.016 A 
ATOM     14  C   UNL     1       7.942  12.529  27.384  1.00  0.00     0.051 A 
ATOM     15  C   UNL     1       8.272  11.168  27.378  1.00  0.00     0.157 A 
ATOM     16  C   UNL     1       9.403  11.466  25.252  1.00  0.00     0.062 A 
ATOM     17  C   UNL     1       9.012  10.636  26.308  1.00  0.00     0.158 A 
BRANCH  15  18
ATOM     18  O   UNL     1       7.875  10.345  28.430  1.00  0.00    -0.504 OA
ATOM     19  H   UNL     1       7.578  10.729  29.320  1.00  0.00     0.293 HD
ENDBRANCH  15  18
BRANCH  17  20
ATOM     20  O   UNL     1       9.368   9.288  26.278  1.00  0.00    -0.504 OA
ATOM     21  H   UNL     1       9.884   8.851  27.031  1.00  0.00     0.293 HD
ENDBRANCH  17  20
ENDBRANCH   1  12
BRANCH   2  22
ATOM     22  O   UNL     1       9.074  12.031  22.459  1.00  0.00    -0.502 OA
ATOM     23  H   UNL     1       9.630  11.398  21.895  1.00  0.00     0.293 HD
ENDBRANCH   2  22
BRANCH   6  24
ATOM     24  O   UNL     1      11.161  16.235  19.941  1.00  0.00    -0.507 OA
ATOM     25  H   UNL     1      11.793  15.521  19.612  1.00  0.00     0.293 HD
ENDBRANCH   6  24
BRANCH   8  26
ATOM     26  O   UNL     1      11.271  19.416  23.515  1.00  0.00    -0.508 OA
ATOM     27  H   UNL     1      10.928  19.772  24.399  1.00  0.00     0.293 HD
ENDBRANCH   8  26
TORSDOF 6
ENDMDL
MODEL 5
REMARK VINA RESULT:    -6.324      2.894      6.577
REMARK INTER + INTRA:          -7.316
REMARK INTER:                  -6.986
REMARK INTRA:                  -0.331
REMARK UNBOUND:                 0.302
REMARK SMILES O=c1c(O)c(-c2ccc(O)c(O)c2)oc2cc(O)cc(O)c12
REMARK SMILES IDX 5 1 3 2 2 3 1 4 22 5 20 6 19 7 17 8 16 9 15 10 14 11 6 12
REMARK SMILES IDX 7 13 8 14 9 15 13 16 11 17 10 18 12 20 4 22 21 24 18 26
REMARK H PARENT 10 19 12 21 4 23 21 25 18 27
REMARK Flexibility Score: inf
ROOT
ATOM      1  C   UNL     1       9.639  15.488  24.119  1.00  0.00     0.180 A 
ATOM      2  C   UNL     1       9.427  14.101  24.213  1.00  0.00     0.208 A 
ATOM      3  C   UNL     1       9.697  13.294  23.096  1.00  0.00     0.238 A 
ATOM      4  O   UNL     1       9.454  12.061  23.169  1.00  0.00    -0.285 OA
ATOM      5  C   UNL     1      10.189  13.880  21.906  1.00  0.00     0.111 A 
ATOM      6  C   UNL     1      10.533  13.153  20.727  1.00  0.00     0.134 A 
ATOM      7  C   UNL     1      10.888  13.850  19.564  1.00  0.00     0.093 A 
ATOM      8  C   UNL     1      10.972  15.241  19.557  1.00  0.00     0.123 A 
ATOM      9  C   UNL     1      10.694  15.959  20.720  1.00  0.00     0.094 A 
ATOM     10  C   UNL     1      10.303  15.294  21.885  1.00  0.00     0.146 A 
ATOM     11  O   UNL     1      10.038  16.015  22.968  1.00  0.00    -0.452 OA
ENDROOT
BRANCH   1  12
ATOM     12  C   UNL     1       9.401  16.400  25.261  1.00  0.00     0.025 A 
ATOM     13  C   UNL     1       8.151  17.024  25.398  1.00  0.00     0.016 A 
ATOM     14  C   UNL     1       7.912  17.905  26.457  1.00  0.00     0.051 A 
ATOM     15  C   UNL     1       8.923  18.186  27.384  1.00  0.00     0.157 A 
ATOM     16  C   UNL     1      10.420  16.701  26.183  1.00  0.00     0.062 A 
ATOM     17  C   UNL     1      10.185  17.585  27.242  1.00  0.00     0.158 A 
BRANCH  15  18
ATOM     18  O   UNL     1       8.681  19.064  28.439  1.00  0.00    -0.504 OA
ATOM     19  H   UNL     1       7.818  19.591  28.504  1.00  0.00     0.293 HD
ENDBRANCH  15  18
BRANCH  17  20
ATOM     20  O   UNL     1      11.217  17.856  28.140  1.00  0.00    -0.504 OA
ATOM     21  H   UNL     1      11.941  17.179  28.347  1.00  0.00     0.293 HD
ENDBRANCH  17  20
ENDBRANCH   1  12
BRANCH   2  22
ATOM     22  O   UNL     1       8.919  13.546  25.391  1.00  0.00    -0.502 OA
ATOM     23  H   UNL     1       8.009  13.793  25.762  1.00  0.00     0.293 HD
ENDBRANCH   2  22
BRANCH   6  24
ATOM     24  O   UNL     1      10.572  11.757  20.654  1.00  0.00    -0.507 OA
ATOM     25  H   UNL     1      11.064  11.232  19.946  1.00  0.00     0.293 HD
ENDBRANCH   6  24
BRANCH   8  26
ATOM     26  O   UNL     1      11.341  15.900  18.386  1.00  0.00    -0.508 OA
ATOM     27  H   UNL     1      12.299  15.896  18.055  1.00  0.00     0.293 HD
ENDBRANCH   8  26
TORSDOF 6
ENDMDL
MODEL 6
REMARK VINA RESULT:    -6.214      2.321      3.810
REMARK INTER + INTRA:          -7.183
REMARK INTER:                  -7.263
REMARK INTRA:                   0.081
REMARK UNBOUND:                 0.302
REMARK SMILES O=c1c(O)c(-c2ccc(O)c(O)c2)oc2cc(O)cc(O)c12
REMARK SMILES IDX 5 1 3 2 2 3 1 4 22 5 20 6 19 7 17 8 16 9 15 10 14 11 6 12
REMARK SMILES IDX 7 13 8 14 9 15 13 16 11 17 10 18 12 20 4 22 21 24 18 26
REMARK H PARENT 10 19 12 21 4 23 21 25 18 27
REMARK Flexibility Score: inf
ROOT
ATOM      1  C   UNL     1       9.941  14.881  23.589  1.00  0.00     0.180 A 
ATOM      2  C   UNL     1      10.555  13.976  22.707  1.00  0.00     0.208 A 
ATOM      3  C   UNL     1      10.486  12.601  22.984  1.00  0.00     0.238 A 
ATOM      4  O   UNL     1      11.084  11.800  22.221  1.00  0.00    -0.285 OA
ATOM      5  C   UNL     1       9.789  12.148  24.130  1.00  0.00     0.111 A 
ATOM      6  C   UNL     1       9.621  10.776  24.487  1.00  0.00     0.134 A 
ATOM      7  C   UNL     1       9.025  10.449  25.712  1.00  0.00     0.093 A 
ATOM      8  C   UNL     1       8.535  11.440  26.561  1.00  0.00     0.123 A 
ATOM      9  C   UNL     1       8.641  12.782  26.195  1.00  0.00     0.094 A 
ATOM     10  C   UNL     1       9.263  13.142  24.997  1.00  0.00     0.146 A 
ATOM     11  O   UNL     1       9.352  14.430  24.690  1.00  0.00    -0.452 OA
ENDROOT
BRANCH   1  12
ATOM     12  C   UNL     1       9.951  16.343  23.351  1.00  0.00     0.025 A 
ATOM     13  C   UNL     1       9.664  16.835  22.067  1.00  0.00     0.016 A 
ATOM     14  C   UNL     1       9.688  18.209  21.815  1.00  0.00     0.051 A 
ATOM     15  C   UNL     1      10.015  19.110  22.837  1.00  0.00     0.157 A 
ATOM     16  C   UNL     1      10.298  17.250  24.368  1.00  0.00     0.062 A 
ATOM     17  C   UNL     1      10.326  18.626  24.118  1.00  0.00     0.158 A 
BRANCH  15  18
ATOM     18  O   UNL     1      10.037  20.480  22.582  1.00  0.00    -0.504 OA
ATOM     19  H   UNL     1       9.258  20.949  22.134  1.00  0.00     0.293 HD
ENDBRANCH  15  18
BRANCH  17  20
ATOM     20  O   UNL     1      10.669  19.496  25.153  1.00  0.00    -0.504 OA
ATOM     21  H   UNL     1      11.044  20.420  24.977  1.00  0.00     0.293 HD
ENDBRANCH  17  20
ENDBRANCH   1  12
BRANCH   2  22
ATOM     22  O   UNL     1      11.257  14.446  21.593  1.00  0.00    -0.502 OA
ATOM     23  H   UNL     1      11.571  13.833  20.849  1.00  0.00     0.293 HD
ENDBRANCH   2  22
BRANCH   6  24
ATOM     24  O   UNL     1       9.993   9.706  23.668  1.00  0.00    -0.507 OA
ATOM     25  H   UNL     1      10.257   8.791  24.003  1.00  0.00     0.293 HD
ENDBRANCH   6  24
BRANCH   8  26
ATOM     26  O   UNL     1       7.935  11.077  27.765  1.00  0.00    -0.508 OA
ATOM     27  H   UNL     1       7.452  11.756  28.342  1.00  0.00     0.293 HD
ENDBRANCH   8  26
TORSDOF 6
ENDMDL
MODEL 7
REMARK VINA RESULT:    -6.199      1.952      6.948
REMARK INTER + INTRA:          -7.165
REMARK INTER:                  -7.678
REMARK INTRA:                   0.512
REMARK UNBOUND:                 0.302
REMARK SMILES O=c1c(O)c(-c2ccc(O)c(O)c2)oc2cc(O)cc(O)c12
REMARK SMILES IDX 5 1 3 2 2 3 1 4 22 5 20 6 19 7 17 8 16 9 15 10 14 11 6 12
REMARK SMILES IDX 7 13 8 14 9 15 13 16 11 17 10 18 12 20 4 22 21 24 18 26
REMARK H PARENT 10 19 12 21 4 23 21 25 18 27
REMARK Flexibility Score: inf
ROOT
ATOM      1  C   UNL     1       9.857  12.640  24.481  1.00  0.00     0.180 A 
ATOM      2  C   UNL     1      10.565  12.907  23.296  1.00  0.00     0.208 A 
ATOM      3  C   UNL     1      10.839  14.241  22.952  1.00  0.00     0.238 A 
ATOM      4  O   UNL     1      11.425  14.476  21.864  1.00  0.00    -0.285 OA
ATOM      5  C   UNL     1      10.416  15.289  23.805  1.00  0.00     0.111 A 
ATOM      6  C   UNL     1      10.674  16.674  23.575  1.00  0.00     0.134 A 
ATOM      7  C   UNL     1      10.096  17.633  24.417  1.00  0.00     0.093 A 
ATOM      8  C   UNL     1       9.325  17.255  25.515  1.00  0.00     0.123 A 
ATOM      9  C   UNL     1       9.115  15.902  25.783  1.00  0.00     0.094 A 
ATOM     10  C   UNL     1       9.648  14.923  24.941  1.00  0.00     0.146 A 
ATOM     11  O   UNL     1       9.417  13.647  25.225  1.00  0.00    -0.452 OA
ENDROOT
BRANCH   1  12
ATOM     12  C   UNL     1       9.553  11.260  24.922  1.00  0.00     0.025 A 
ATOM     13  C   UNL     1       9.715  10.195  24.021  1.00  0.00     0.016 A 
ATOM     14  C   UNL     1       9.414   8.887  24.410  1.00  0.00     0.051 A 
ATOM     15  C   UNL     1       8.931   8.626  25.699  1.00  0.00     0.157 A 
ATOM     16  C   UNL     1       9.048  10.995  26.208  1.00  0.00     0.062 A 
ATOM     17  C   UNL     1       8.742   9.687  26.600  1.00  0.00     0.158 A 
BRANCH  15  18
ATOM     18  O   UNL     1       8.632   7.320  26.084  1.00  0.00    -0.504 OA
ATOM     19  H   UNL     1       7.750   6.884  25.842  1.00  0.00     0.293 HD
ENDBRANCH  15  18
BRANCH  17  20
ATOM     20  O   UNL     1       8.250   9.462  27.885  1.00  0.00    -0.504 OA
ATOM     21  H   UNL     1       7.572  10.078  28.317  1.00  0.00     0.293 HD
ENDBRANCH  17  20
ENDBRANCH   1  12
BRANCH   2  22
ATOM     22  O   UNL     1      10.953  11.858  22.458  1.00  0.00    -0.502 OA
ATOM     23  H   UNL     1      10.426  11.596  21.633  1.00  0.00     0.293 HD
ENDBRANCH   2  22
BRANCH   6  24
ATOM     24  O   UNL     1      11.507  17.155  22.560  1.00  0.00    -0.507 OA
ATOM     25  H   UNL     1      11.300  17.953  21.978  1.00  0.00     0.293 HD
ENDBRANCH   6  24
BRANCH   8  26
ATOM     26  O   UNL     1       8.778  18.236  26.340  1.00  0.00    -0.508 OA
ATOM     27  H   UNL     1       8.372  18.006  27.239  1.00  0.00     0.293 HD
ENDBRANCH   8  26
TORSDOF 6
ENDMDL
MODEL 8
REMARK VINA RESULT:    -5.905      3.742      6.906
REMARK INTER + INTRA:          -6.812
REMARK INTER:                  -6.614
REMARK INTRA:                  -0.198
REMARK UNBOUND:                 0.302
REMARK SMILES O=c1c(O)c(-c2ccc(O)c(O)c2)oc2cc(O)cc(O)c12
REMARK SMILES IDX 5 1 3 2 2 3 1 4 22 5 20 6 19 7 17 8 16 9 15 10 14 11 6 12
REMARK SMILES IDX 7 13 8 14 9 15 13 16 11 17 10 18 12 20 4 22 21 24 18 26
REMARK H PARENT 10 19 12 21 4 23 21 25 18 27
REMARK Flexibility Score: inf
ROOT
ATOM      1  C   UNL     1       9.555  16.567  25.345  1.00  0.00     0.180 A 
ATOM      2  C   UNL     1       9.217  17.478  24.330  1.00  0.00     0.208 A 
ATOM      3  C   UNL     1       9.280  17.061  22.991  1.00  0.00     0.238 A 
ATOM      4  O   UNL     1       9.029  17.897  22.084  1.00  0.00    -0.285 OA
ATOM      5  C   UNL     1       9.666  15.733  22.685  1.00  0.00     0.111 A 
ATOM      6  C   UNL     1       9.727  15.192  21.365  1.00  0.00     0.134 A 
ATOM      7  C   UNL     1      10.247  13.905  21.171  1.00  0.00     0.093 A 
ATOM      8  C   UNL     1      10.647  13.120  22.251  1.00  0.00     0.123 A 
ATOM      9  C   UNL     1      10.537  13.618  23.549  1.00  0.00     0.094 A 
ATOM     10  C   UNL     1      10.056  14.910  23.773  1.00  0.00     0.146 A 
ATOM     11  O   UNL     1       9.976  15.350  25.023  1.00  0.00    -0.452 OA
ENDROOT
BRANCH   1  12
ATOM     12  C   UNL     1       9.488  16.926  26.780  1.00  0.00     0.025 A 
ATOM     13  C   UNL     1       8.484  16.366  27.586  1.00  0.00     0.016 A 
ATOM     14  C   UNL     1       8.389  16.707  28.938  1.00  0.00     0.051 A 
ATOM     15  C   UNL     1       9.286  17.625  29.500  1.00  0.00     0.157 A 
ATOM     16  C   UNL     1      10.373  17.863  27.344  1.00  0.00     0.062 A 
ATOM     17  C   UNL     1      10.279  18.209  28.696  1.00  0.00     0.158 A 
BRANCH  15  18
ATOM     18  O   UNL     1       9.189  17.962  30.849  1.00  0.00    -0.504 OA
ATOM     19  H   UNL     1       9.891  17.673  31.520  1.00  0.00     0.293 HD
ENDBRANCH  15  18
BRANCH  17  20
ATOM     20  O   UNL     1      11.178  19.137  29.222  1.00  0.00    -0.504 OA
ATOM     21  H   UNL     1      11.091  19.495  30.165  1.00  0.00     0.293 HD
ENDBRANCH  17  20
ENDBRANCH   1  12
BRANCH   2  22
ATOM     22  O   UNL     1       8.860  18.791  24.653  1.00  0.00    -0.502 OA
ATOM     23  H   UNL     1       9.540  19.486  24.938  1.00  0.00     0.293 HD
ENDBRANCH   2  22
BRANCH   6  24
ATOM     24  O   UNL     1       9.267  15.858  20.225  1.00  0.00    -0.507 OA
ATOM     25  H   UNL     1       9.386  16.844  20.050  1.00  0.00     0.293 HD
ENDBRANCH   6  24
BRANCH   8  26
ATOM     26  O   UNL     1      11.146  11.839  22.021  1.00  0.00    -0.508 OA
ATOM     27  H   UNL     1      10.944  11.071  22.650  1.00  0.00     0.293 HD
ENDBRANCH   8  26
TORSDOF 6
ENDMDL
MODEL 9
REMARK VINA RESULT:    -5.806     12.703     14.083
REMARK INTER + INTRA:          -6.693
REMARK INTER:                  -6.381
REMARK INTRA:                  -0.311
REMARK UNBOUND:                 0.302
REMARK SMILES O=c1c(O)c(-c2ccc(O)c(O)c2)oc2cc(O)cc(O)c12
REMARK SMILES IDX 5 1 3 2 2 3 1 4 22 5 20 6 19 7 17 8 16 9 15 10 14 11 6 12
REMARK SMILES IDX 7 13 8 14 9 15 13 16 11 17 10 18 12 20 4 22 21 24 18 26
REMARK H PARENT 10 19 12 21 4 23 21 25 18 27
REMARK Flexibility Score: inf
ROOT
ATOM      1  C   UNL     1      21.948  19.101  26.297  1.00  0.00     0.180 A 
ATOM      2  C   UNL     1      22.459  18.420  27.415  1.00  0.00     0.208 A 
ATOM      3  C   UNL     1      21.587  18.076  28.461  1.00  0.00     0.238 A 
ATOM      4  O   UNL     1      22.060  17.515  29.483  1.00  0.00    -0.285 OA
ATOM      5  C   UNL     1      20.213  18.404  28.368  1.00  0.00     0.111 A 
ATOM      6  C   UNL     1      19.232  18.069  29.350  1.00  0.00     0.134 A 
ATOM      7  C   UNL     1      17.926  18.557  29.216  1.00  0.00     0.093 A 
ATOM      8  C   UNL     1      17.550  19.312  28.105  1.00  0.00     0.123 A 
ATOM      9  C   UNL     1      18.487  19.595  27.111  1.00  0.00     0.094 A 
ATOM     10  C   UNL     1      19.806  19.153  27.234  1.00  0.00     0.146 A 
ATOM     11  O   UNL     1      20.668  19.452  26.270  1.00  0.00    -0.452 OA
ENDROOT
BRANCH   1  12
ATOM     12  C   UNL     1      22.800  19.475  25.145  1.00  0.00     0.025 A 
ATOM     13  C   UNL     1      23.530  20.673  25.186  1.00  0.00     0.016 A 
ATOM     14  C   UNL     1      24.325  21.055  24.102  1.00  0.00     0.051 A 
ATOM     15  C   UNL     1      24.388  20.254  22.955  1.00  0.00     0.157 A 
ATOM     16  C   UNL     1      22.851  18.683  23.983  1.00  0.00     0.062 A 
ATOM     17  C   UNL     1      23.642  19.065  22.894  1.00  0.00     0.158 A 
BRANCH  15  18
ATOM     18  O   UNL     1      25.182  20.637  21.875  1.00  0.00    -0.504 OA
ATOM     19  H   UNL     1      24.791  20.769  20.950  1.00  0.00     0.293 HD
ENDBRANCH  15  18
BRANCH  17  20
ATOM     20  O   UNL     1      23.673  18.252  21.762  1.00  0.00    -0.504 OA
ATOM     21  H   UNL     1      23.468  17.262  21.805  1.00  0.00     0.293 HD
ENDBRANCH  17  20
ENDBRANCH   1  12
BRANCH   2  22
ATOM     22  O   UNL     1      23.823  18.126  27.496  1.00  0.00    -0.502 OA
ATOM     23  H   UNL     1      24.529  18.844  27.614  1.00  0.00     0.293 HD
ENDBRANCH   2  22
BRANCH   6  24
ATOM     24  O   UNL     1      19.480  17.244  30.451  1.00  0.00    -0.507 OA
ATOM     25  H   UNL     1      20.059  17.495  31.238  1.00  0.00     0.293 HD
ENDBRANCH   6  24
BRANCH   8  26
ATOM     26  O   UNL     1      16.238  19.769  27.998  1.00  0.00    -0.508 OA
ATOM     27  H   UNL     1      15.527  19.229  27.520  1.00  0.00     0.293 HD
ENDBRANCH   8  26
TORSDOF 6
ENDMDL
