MODEL 1
REMARK VINA RESULT:    -4.566      0.000      0.000
REMARK INTER + INTRA:          -5.580
REMARK INTER:                  -5.501
REMARK INTRA:                  -0.079
REMARK UNBOUND:                -0.079
REMARK SMILES NC(=O)C[C@H]([NH3+])C(=O)[O-]
REMARK SMILES IDX 4 1 5 2 6 3 7 7 8 8 9 9 2 10 3 11 1 12
REMARK H PARENT 6 4 6 5 6 6 1 13 1 14
REMARK Flexibility Score: inf
ROOT
ATOM      1  C   UNL     1     -14.254 -35.061 -15.749  1.00  0.00     0.171 C 
ENDROOT
BRANCH   1   2
ATOM      2  C   UNL     1     -14.974 -33.986 -14.910  1.00  0.00     0.237 C 
BRANCH   2   3
ATOM      3  N   UNL     1     -15.580 -32.955 -15.764  1.00  0.00    -0.350 N 
ATOM      4  H   UNL     1     -14.901 -32.173 -15.913  1.00  0.00     0.345 HD
ATOM      5  H   UNL     1     -15.853 -33.353 -16.691  1.00  0.00     0.345 HD
ATOM      6  H   UNL     1     -16.428 -32.557 -15.298  1.00  0.00     0.345 HD
ENDBRANCH   2   3
BRANCH   2   7
ATOM      7  C   UNL     1     -13.999 -33.356 -13.952  1.00  0.00     0.100 C 
ATOM      8  O   UNL     1     -12.825 -33.098 -14.322  1.00  0.00    -0.544 OA
ATOM      9  O   UNL     1     -14.395 -33.040 -12.658  1.00  0.00    -0.544 OA
ENDBRANCH   2   7
ENDBRANCH   1   2
BRANCH   1  10
ATOM     10  C   UNL     1     -15.223 -36.035 -16.353  1.00  0.00     0.223 C 
ATOM     11  O   UNL     1     -15.713 -36.952 -15.642  1.00  0.00    -0.275 OA
ATOM     12  N   UNL     1     -15.621 -35.912 -17.718  1.00  0.00    -0.369 N 
ATOM     13  H   UNL     1     -16.303 -36.585 -18.132  1.00  0.00     0.159 HD
ATOM     14  H   UNL     1     -15.244 -35.143 -18.317  1.00  0.00     0.159 HD
ENDBRANCH   1  10
TORSDOF 4
ENDMDL
MODEL 2
REMARK VINA RESULT:    -4.563      1.967      3.844
REMARK INTER + INTRA:          -5.575
REMARK INTER:                  -5.199
REMARK INTRA:                  -0.376
REMARK UNBOUND:                -0.079
REMARK SMILES NC(=O)C[C@H]([NH3+])C(=O)[O-]
REMARK SMILES IDX 4 1 5 2 6 3 7 7 8 8 9 9 2 10 3 11 1 12
REMARK H PARENT 6 4 6 5 6 6 1 13 1 14
REMARK Flexibility Score: inf
ROOT
ATOM      1  C   UNL     1     -14.853 -33.547 -15.458  1.00  0.00     0.171 C 
ENDROOT
BRANCH   1   2
ATOM      2  C   UNL     1     -15.362 -35.002 -15.510  1.00  0.00     0.237 C 
BRANCH   2   3
ATOM      3  N   UNL     1     -15.646 -35.521 -14.165  1.00  0.00    -0.350 N 
ATOM      4  H   UNL     1     -15.477 -36.552 -14.139  1.00  0.00     0.345 HD
ATOM      5  H   UNL     1     -15.039 -35.056 -13.452  1.00  0.00     0.345 HD
ATOM      6  H   UNL     1     -16.650 -35.356 -13.922  1.00  0.00     0.345 HD
ENDBRANCH   2   3
BRANCH   2   7
ATOM      7  C   UNL     1     -14.341 -35.871 -16.194  1.00  0.00     0.100 C 
ATOM      8  O   UNL     1     -13.301 -36.227 -15.581  1.00  0.00    -0.544 OA
ATOM      9  O   UNL     1     -14.548 -36.299 -17.500  1.00  0.00    -0.544 OA
ENDBRANCH   2   7
ENDBRANCH   1   2
BRANCH   1  10
ATOM     10  C   UNL     1     -13.937 -33.321 -14.290  1.00  0.00     0.223 C 
ATOM     11  O   UNL     1     -14.419 -33.208 -13.131  1.00  0.00    -0.275 OA
ATOM     12  N   UNL     1     -12.523 -33.267 -14.476  1.00  0.00    -0.369 N 
ATOM     13  H   UNL     1     -11.890 -33.120 -13.660  1.00  0.00     0.159 HD
ATOM     14  H   UNL     1     -12.105 -33.383 -15.426  1.00  0.00     0.159 HD
ENDBRANCH   1  10
TORSDOF 4
ENDMDL
MODEL 3
REMARK VINA RESULT:    -4.554      1.502      3.900
REMARK INTER + INTRA:          -5.565
REMARK INTER:                  -5.205
REMARK INTRA:                  -0.361
REMARK UNBOUND:                -0.079
REMARK SMILES NC(=O)C[C@H]([NH3+])C(=O)[O-]
REMARK SMILES IDX 4 1 5 2 6 3 7 7 8 8 9 9 2 10 3 11 1 12
REMARK H PARENT 6 4 6 5 6 6 1 13 1 14
REMARK Flexibility Score: inf
ROOT
ATOM      1  C   UNL     1     -14.922 -35.081 -14.378  1.00  0.00     0.171 C 
ENDROOT
BRANCH   1   2
ATOM      2  C   UNL     1     -14.112 -35.993 -15.322  1.00  0.00     0.237 C 
BRANCH   2   3
ATOM      3  N   UNL     1     -12.986 -35.271 -15.931  1.00  0.00    -0.350 N 
ATOM      4  H   UNL     1     -13.320 -34.365 -16.331  1.00  0.00     0.345 HD
ATOM      5  H   UNL     1     -12.241 -35.079 -15.222  1.00  0.00     0.345 HD
ATOM      6  H   UNL     1     -12.580 -35.835 -16.712  1.00  0.00     0.345 HD
ENDBRANCH   2   3
BRANCH   2   7
ATOM      7  C   UNL     1     -15.015 -36.540 -16.394  1.00  0.00     0.100 C 
ATOM      8  O   UNL     1     -14.525 -37.098 -17.410  1.00  0.00    -0.544 OA
ATOM      9  O   UNL     1     -16.396 -36.448 -16.262  1.00  0.00    -0.544 OA
ENDBRANCH   2   7
ENDBRANCH   1   2
BRANCH   1  10
ATOM     10  C   UNL     1     -14.718 -33.629 -14.699  1.00  0.00     0.223 C 
ATOM     11  O   UNL     1     -13.789 -32.989 -14.138  1.00  0.00    -0.275 OA
ATOM     12  N   UNL     1     -15.546 -32.974 -15.660  1.00  0.00    -0.369 N 
ATOM     13  H   UNL     1     -15.395 -31.968 -15.888  1.00  0.00     0.159 HD
ATOM     14  H   UNL     1     -16.306 -33.495 -16.153  1.00  0.00     0.159 HD
ENDBRANCH   1  10
TORSDOF 4
ENDMDL
MODEL 4
REMARK VINA RESULT:    -4.454      5.535      7.317
REMARK INTER + INTRA:          -5.445
REMARK INTER:                  -5.157
REMARK INTRA:                  -0.287
REMARK UNBOUND:                -0.079
REMARK SMILES NC(=O)C[C@H]([NH3+])C(=O)[O-]
REMARK SMILES IDX 4 1 5 2 6 3 7 7 8 8 9 9 2 10 3 11 1 12
REMARK H PARENT 6 4 6 5 6 6 1 13 1 14
REMARK Flexibility Score: inf
ROOT
ATOM      1  C   UNL     1     -15.096 -30.048 -10.670  1.00  0.00     0.171 C 
ENDROOT
BRANCH   1   2
ATOM      2  C   UNL     1     -14.411 -31.341 -10.186  1.00  0.00     0.237 C 
BRANCH   2   3
ATOM      3  N   UNL     1     -13.146 -31.053  -9.495  1.00  0.00    -0.350 N 
ATOM      4  H   UNL     1     -12.346 -31.155 -10.162  1.00  0.00     0.345 HD
ATOM      5  H   UNL     1     -13.146 -30.082  -9.108  1.00  0.00     0.345 HD
ATOM      6  H   UNL     1     -13.000 -31.734  -8.715  1.00  0.00     0.345 HD
ENDBRANCH   2   3
BRANCH   2   7
ATOM      7  C   UNL     1     -14.163 -32.253 -11.358  1.00  0.00     0.100 C 
ATOM      8  O   UNL     1     -13.225 -32.011 -12.161  1.00  0.00    -0.544 OA
ATOM      9  O   UNL     1     -14.959 -33.376 -11.552  1.00  0.00    -0.544 OA
ENDBRANCH   2   7
ENDBRANCH   1   2
BRANCH   1  10
ATOM     10  C   UNL     1     -15.026 -28.962  -9.637  1.00  0.00     0.223 C 
ATOM     11  O   UNL     1     -15.358 -29.208  -8.447  1.00  0.00    -0.275 OA
ATOM     12  N   UNL     1     -14.553 -27.660  -9.983  1.00  0.00    -0.369 N 
ATOM     13  H   UNL     1     -14.497 -26.910  -9.260  1.00  0.00     0.159 HD
ATOM     14  H   UNL     1     -14.251 -27.444 -10.960  1.00  0.00     0.159 HD
ENDBRANCH   1  10
TORSDOF 4
ENDMDL
MODEL 5
REMARK VINA RESULT:    -4.445      1.577      1.579
REMARK INTER + INTRA:          -5.433
REMARK INTER:                  -5.182
REMARK INTRA:                  -0.252
REMARK UNBOUND:                -0.079
REMARK SMILES NC(=O)C[C@H]([NH3+])C(=O)[O-]
REMARK SMILES IDX 4 1 5 2 6 3 7 7 8 8 9 9 2 10 3 11 1 12
REMARK H PARENT 6 4 6 5 6 6 1 13 1 14
REMARK Flexibility Score: inf
ROOT
ATOM      1  C   UNL     1     -15.116 -35.555 -14.745  1.00  0.00     0.171 C 
ENDROOT
BRANCH   1   2
ATOM      2  C   UNL     1     -14.225 -34.388 -15.216  1.00  0.00     0.237 C 
BRANCH   2   3
ATOM      3  N   UNL     1     -13.000 -34.875 -15.865  1.00  0.00    -0.350 N 
ATOM      4  H   UNL     1     -13.237 -35.319 -16.783  1.00  0.00     0.345 HD
ATOM      5  H   UNL     1     -12.328 -34.091 -16.028  1.00  0.00     0.345 HD
ATOM      6  H   UNL     1     -12.543 -35.602 -15.268  1.00  0.00     0.345 HD
ENDBRANCH   2   3
BRANCH   2   7
ATOM      7  C   UNL     1     -13.874 -33.514 -14.042  1.00  0.00     0.100 C 
ATOM      8  O   UNL     1     -12.786 -32.881 -14.026  1.00  0.00    -0.544 OA
ATOM      9  O   UNL     1     -14.756 -33.387 -12.975  1.00  0.00    -0.544 OA
ENDBRANCH   2   7
ENDBRANCH   1   2
BRANCH   1  10
ATOM     10  C   UNL     1     -15.931 -36.121 -15.871  1.00  0.00     0.223 C 
ATOM     11  O   UNL     1     -15.356 -36.727 -16.815  1.00  0.00    -0.275 OA
ATOM     12  N   UNL     1     -17.354 -36.012 -15.865  1.00  0.00    -0.369 N 
ATOM     13  H   UNL     1     -17.917 -36.416 -16.644  1.00  0.00     0.159 HD
ATOM     14  H   UNL     1     -17.848 -35.534 -15.078  1.00  0.00     0.159 HD
ENDBRANCH   1  10
TORSDOF 4
ENDMDL
MODEL 6
REMARK VINA RESULT:    -4.442      2.250      3.088
REMARK INTER + INTRA:          -5.429
REMARK INTER:                  -5.077
REMARK INTRA:                  -0.352
REMARK UNBOUND:                -0.079
REMARK SMILES NC(=O)C[C@H]([NH3+])C(=O)[O-]
REMARK SMILES IDX 4 1 5 2 6 3 7 7 8 8 9 9 2 10 3 11 1 12
REMARK H PARENT 6 4 6 5 6 6 1 13 1 14
REMARK Flexibility Score: inf
ROOT
ATOM      1  C   UNL     1     -15.929 -34.980 -14.780  1.00  0.00     0.171 C 
ENDROOT
BRANCH   1   2
ATOM      2  C   UNL     1     -15.054 -35.177 -16.034  1.00  0.00     0.237 C 
BRANCH   2   3
ATOM      3  N   UNL     1     -15.760 -35.948 -17.066  1.00  0.00    -0.350 N 
ATOM      4  H   UNL     1     -16.096 -36.854 -16.666  1.00  0.00     0.345 HD
ATOM      5  H   UNL     1     -16.579 -35.412 -17.435  1.00  0.00     0.345 HD
ATOM      6  H   UNL     1     -15.111 -36.169 -17.856  1.00  0.00     0.345 HD
ENDBRANCH   2   3
BRANCH   2   7
ATOM      7  C   UNL     1     -13.775 -35.875 -15.653  1.00  0.00     0.100 C 
ATOM      8  O   UNL     1     -13.755 -37.124 -15.508  1.00  0.00    -0.544 OA
ATOM      9  O   UNL     1     -12.606 -35.145 -15.476  1.00  0.00    -0.544 OA
ENDBRANCH   2   7
ENDBRANCH   1   2
BRANCH   1  10
ATOM     10  C   UNL     1     -17.194 -35.784 -14.853  1.00  0.00     0.223 C 
ATOM     11  O   UNL     1     -17.139 -37.042 -14.813  1.00  0.00    -0.275 OA
ATOM     12  N   UNL     1     -18.463 -35.135 -14.933  1.00  0.00    -0.369 N 
ATOM     13  H   UNL     1     -19.341 -35.697 -14.973  1.00  0.00     0.159 HD
ATOM     14  H   UNL     1     -18.530 -34.093 -14.943  1.00  0.00     0.159 HD
ENDBRANCH   1  10
TORSDOF 4
ENDMDL
MODEL 7
REMARK VINA RESULT:    -4.388      1.633      3.952
REMARK INTER + INTRA:          -5.364
REMARK INTER:                  -5.292
REMARK INTRA:                  -0.072
REMARK UNBOUND:                -0.079
REMARK SMILES NC(=O)C[C@H]([NH3+])C(=O)[O-]
REMARK SMILES IDX 4 1 5 2 6 3 7 7 8 8 9 9 2 10 3 11 1 12
REMARK H PARENT 6 4 6 5 6 6 1 13 1 14
REMARK Flexibility Score: inf
ROOT
ATOM      1  C   UNL     1     -14.688 -33.813 -13.606  1.00  0.00     0.171 C 
ENDROOT
BRANCH   1   2
ATOM      2  C   UNL     1     -14.977 -34.127 -15.088  1.00  0.00     0.237 C 
BRANCH   2   3
ATOM      3  N   UNL     1     -15.615 -32.988 -15.763  1.00  0.00    -0.350 N 
ATOM      4  H   UNL     1     -16.272 -32.509 -15.106  1.00  0.00     0.345 HD
ATOM      5  H   UNL     1     -14.898 -32.302 -16.092  1.00  0.00     0.345 HD
ATOM      6  H   UNL     1     -16.170 -33.324 -16.583  1.00  0.00     0.345 HD
ENDBRANCH   2   3
BRANCH   2   7
ATOM      7  C   UNL     1     -15.856 -35.344 -15.185  1.00  0.00     0.100 C 
ATOM      8  O   UNL     1     -15.416 -36.403 -15.703  1.00  0.00    -0.544 OA
ATOM      9  O   UNL     1     -17.154 -35.311 -14.689  1.00  0.00    -0.544 OA
ENDBRANCH   2   7
ENDBRANCH   1   2
BRANCH   1  10
ATOM     10  C   UNL     1     -13.452 -32.977 -13.445  1.00  0.00     0.223 C 
ATOM     11  O   UNL     1     -13.335 -32.219 -12.446  1.00  0.00    -0.275 OA
ATOM     12  N   UNL     1     -12.391 -33.058 -14.397  1.00  0.00    -0.369 N 
ATOM     13  H   UNL     1     -11.529 -32.483 -14.276  1.00  0.00     0.159 HD
ATOM     14  H   UNL     1     -12.460 -33.699 -15.219  1.00  0.00     0.159 HD
ENDBRANCH   1  10
TORSDOF 4
ENDMDL
MODEL 8
REMARK VINA RESULT:    -4.286      3.116      3.914
REMARK INTER + INTRA:          -5.241
REMARK INTER:                  -4.917
REMARK INTRA:                  -0.325
REMARK UNBOUND:                -0.079
REMARK SMILES NC(=O)C[C@H]([NH3+])C(=O)[O-]
REMARK SMILES IDX 4 1 5 2 6 3 7 7 8 8 9 9 2 10 3 11 1 12
REMARK H PARENT 6 4 6 5 6 6 1 13 1 14
REMARK Flexibility Score: inf
ROOT
ATOM      1  C   UNL     1     -16.812 -36.952 -15.753  1.00  0.00     0.171 C 
ENDROOT
BRANCH   1   2
ATOM      2  C   UNL     1     -15.282 -37.125 -15.667  1.00  0.00     0.237 C 
BRANCH   2   3
ATOM      3  N   UNL     1     -14.781 -36.818 -14.320  1.00  0.00    -0.350 N 
ATOM      4  H   UNL     1     -13.929 -36.215 -14.387  1.00  0.00     0.345 HD
ATOM      5  H   UNL     1     -15.509 -36.321 -13.757  1.00  0.00     0.345 HD
ATOM      6  H   UNL     1     -14.510 -37.701 -13.829  1.00  0.00     0.345 HD
ENDBRANCH   2   3
BRANCH   2   7
ATOM      7  C   UNL     1     -14.615 -36.235 -16.681  1.00  0.00     0.100 C 
ATOM      8  O   UNL     1     -14.871 -36.368 -17.906  1.00  0.00    -0.544 OA
ATOM      9  O   UNL     1     -13.724 -35.251 -16.270  1.00  0.00    -0.544 OA
ENDBRANCH   2   7
ENDBRANCH   1   2
BRANCH   1  10
ATOM     10  C   UNL     1     -17.324 -36.005 -14.707  1.00  0.00     0.223 C 
ATOM     11  O   UNL     1     -16.959 -34.799 -14.723  1.00  0.00    -0.275 OA
ATOM     12  N   UNL     1     -18.247 -36.451 -13.714  1.00  0.00    -0.369 N 
ATOM     13  H   UNL     1     -18.609 -35.787 -12.995  1.00  0.00     0.159 HD
ATOM     14  H   UNL     1     -18.578 -37.441 -13.699  1.00  0.00     0.159 HD
ENDBRANCH   1  10
TORSDOF 4
ENDMDL
MODEL 9
REMARK VINA RESULT:    -4.206      1.775      3.705
REMARK INTER + INTRA:          -5.146
REMARK INTER:                  -4.747
REMARK INTRA:                  -0.399
REMARK UNBOUND:                -0.079
REMARK SMILES NC(=O)C[C@H]([NH3+])C(=O)[O-]
REMARK SMILES IDX 4 1 5 2 6 3 7 7 8 8 9 9 2 10 3 11 1 12
REMARK H PARENT 6 4 6 5 6 6 1 13 1 14
REMARK Flexibility Score: inf
ROOT
ATOM      1  C   UNL     1     -13.734 -34.917 -15.867  1.00  0.00     0.171 C 
ENDROOT
BRANCH   1   2
ATOM      2  C   UNL     1     -14.585 -36.095 -16.383  1.00  0.00     0.237 C 
BRANCH   2   3
ATOM      3  N   UNL     1     -15.616 -35.640 -17.326  1.00  0.00    -0.350 N 
ATOM      4  H   UNL     1     -15.213 -35.575 -18.289  1.00  0.00     0.345 HD
ATOM      5  H   UNL     1     -16.426 -36.302 -17.338  1.00  0.00     0.345 HD
ATOM      6  H   UNL     1     -15.953 -34.688 -17.056  1.00  0.00     0.345 HD
ENDBRANCH   2   3
BRANCH   2   7
ATOM      7  C   UNL     1     -15.225 -36.804 -15.221  1.00  0.00     0.100 C 
ATOM      8  O   UNL     1     -16.441 -37.125 -15.266  1.00  0.00    -0.544 OA
ATOM      9  O   UNL     1     -14.474 -37.125 -14.096  1.00  0.00    -0.544 OA
ENDBRANCH   2   7
ENDBRANCH   1   2
BRANCH   1  10
ATOM     10  C   UNL     1     -14.561 -33.931 -15.094  1.00  0.00     0.223 C 
ATOM     11  O   UNL     1     -15.291 -33.108 -15.710  1.00  0.00    -0.275 OA
ATOM     12  N   UNL     1     -14.556 -33.940 -13.667  1.00  0.00    -0.369 N 
ATOM     13  H   UNL     1     -15.140 -33.260 -13.133  1.00  0.00     0.159 HD
ATOM     14  H   UNL     1     -13.976 -34.630 -13.140  1.00  0.00     0.159 HD
ENDBRANCH   1  10
TORSDOF 4
ENDMDL
