MODEL 1
REMARK VINA RESULT:    -3.819      0.000      0.000
REMARK INTER + INTRA:          -5.414
REMARK INTER:                  -5.159
REMARK INTRA:                  -0.255
REMARK UNBOUND:                -0.255
REMARK SMILES CCCCCCCC(=O)[O-]
REMARK SMILES IDX 5 1 6 2 7 3 8 4 9 5 10 6 4 7 3 8 2 9 1 10
REMARK H PARENT
REMARK Flexibility Score: inf
ROOT
ATOM      1  C   UNL     1     112.673 115.369 125.450  1.00  0.00     0.000 C 
ENDROOT
BRANCH   1   2
ATOM      2  C   UNL     1     111.167 115.659 125.553  1.00  0.00     0.006 C 
BRANCH   2   3
ATOM      3  C   UNL     1     110.624 115.467 126.975  1.00  0.00     0.053 C 
BRANCH   3   4
ATOM      4  C   UNL     1     109.168 115.809 127.027  1.00  0.00     0.041 C 
ATOM      5  O   UNL     1     108.691 116.667 126.239  1.00  0.00    -0.550 OA
ATOM      6  O   UNL     1     108.349 115.216 127.979  1.00  0.00    -0.550 OA
ENDBRANCH   3   4
ENDBRANCH   2   3
ENDBRANCH   1   2
BRANCH   1   7
ATOM      7  C   UNL     1     113.435 115.729 126.734  1.00  0.00     0.000 C 
BRANCH   7   8
ATOM      8  C   UNL     1     114.917 115.340 126.619  1.00  0.00    -0.000 C 
BRANCH   8   9
ATOM      9  C   UNL     1     115.184 114.361 125.466  1.00  0.00    -0.003 C 
ATOM     10  C   UNL     1     116.557 114.560 124.826  1.00  0.00     0.004 C 
ENDBRANCH   8   9
ENDBRANCH   7   8
ENDBRANCH   1   7
TORSDOF 6
ENDMDL
MODEL 2
REMARK VINA RESULT:    -3.760      1.583      2.755
REMARK INTER + INTRA:          -5.334
REMARK INTER:                  -5.194
REMARK INTRA:                  -0.140
REMARK UNBOUND:                -0.255
REMARK SMILES CCCCCCCC(=O)[O-]
REMARK SMILES IDX 5 1 6 2 7 3 8 4 9 5 10 6 4 7 3 8 2 9 1 10
REMARK H PARENT
REMARK Flexibility Score: inf
ROOT
ATOM      1  C   UNL     1     114.889 115.321 126.377  1.00  0.00     0.000 C 
ENDROOT
BRANCH   1   2
ATOM      2  C   UNL     1     113.514 115.113 125.722  1.00  0.00     0.006 C 
BRANCH   2   3
ATOM      3  C   UNL     1     112.379 115.790 126.502  1.00  0.00     0.053 C 
BRANCH   3   4
ATOM      4  C   UNL     1     111.106 115.742 125.717  1.00  0.00     0.041 C 
ATOM      5  O   UNL     1     109.996 115.744 126.309  1.00  0.00    -0.550 OA
ATOM      6  O   UNL     1     111.147 115.647 124.331  1.00  0.00    -0.550 OA
ENDBRANCH   3   4
ENDBRANCH   2   3
ENDBRANCH   1   2
BRANCH   1   7
ATOM      7  C   UNL     1     115.909 114.249 125.967  1.00  0.00     0.000 C 
BRANCH   7   8
ATOM      8  C   UNL     1     116.397 114.478 124.529  1.00  0.00    -0.000 C 
BRANCH   8   9
ATOM      9  C   UNL     1     117.888 114.841 124.461  1.00  0.00    -0.003 C 
ATOM     10  C   UNL     1     118.367 115.113 123.035  1.00  0.00     0.004 C 
ENDBRANCH   8   9
ENDBRANCH   7   8
ENDBRANCH   1   7
TORSDOF 6
ENDMDL
MODEL 3
REMARK VINA RESULT:    -3.744      3.034      4.131
REMARK INTER + INTRA:          -5.312
REMARK INTER:                  -4.986
REMARK INTRA:                  -0.326
REMARK UNBOUND:                -0.255
REMARK SMILES CCCCCCCC(=O)[O-]
REMARK SMILES IDX 5 1 6 2 7 3 8 4 9 5 10 6 4 7 3 8 2 9 1 10
REMARK H PARENT
REMARK Flexibility Score: inf
ROOT
ATOM      1  C   UNL     1     110.011 116.714 125.960  1.00  0.00     0.000 C 
ENDROOT
BRANCH   1   2
ATOM      2  C   UNL     1     108.968 117.715 125.439  1.00  0.00     0.006 C 
BRANCH   2   3
ATOM      3  C   UNL     1     109.589 119.059 125.034  1.00  0.00     0.053 C 
BRANCH   3   4
ATOM      4  C   UNL     1     109.440 119.280 123.562  1.00  0.00     0.041 C 
ATOM      5  O   UNL     1     108.413 119.848 123.108  1.00  0.00    -0.550 OA
ATOM      6  O   UNL     1     110.414 118.815 122.687  1.00  0.00    -0.550 OA
ENDBRANCH   3   4
ENDBRANCH   2   3
ENDBRANCH   1   2
BRANCH   1   7
ATOM      7  C   UNL     1     110.681 115.915 124.833  1.00  0.00     0.000 C 
BRANCH   7   8
ATOM      8  C   UNL     1     112.014 115.313 125.306  1.00  0.00    -0.000 C 
BRANCH   8   9
ATOM      9  C   UNL     1     112.427 115.812 126.699  1.00  0.00    -0.003 C 
ATOM     10  C   UNL     1     113.941 115.801 126.906  1.00  0.00     0.004 C 
ENDBRANCH   8   9
ENDBRANCH   7   8
ENDBRANCH   1   7
TORSDOF 6
ENDMDL
MODEL 4
REMARK VINA RESULT:    -3.582      3.582      5.974
REMARK INTER + INTRA:          -5.093
REMARK INTER:                  -4.907
REMARK INTRA:                  -0.186
REMARK UNBOUND:                -0.255
REMARK SMILES CCCCCCCC(=O)[O-]
REMARK SMILES IDX 5 1 6 2 7 3 8 4 9 5 10 6 4 7 3 8 2 9 1 10
REMARK H PARENT
REMARK Flexibility Score: inf
ROOT
ATOM      1  C   UNL     1     111.587 115.806 126.605  1.00  0.00     0.000 C 
ENDROOT
BRANCH   1   2
ATOM      2  C   UNL     1     112.700 115.296 125.676  1.00  0.00     0.006 C 
BRANCH   2   3
ATOM      3  C   UNL     1     114.103 115.517 126.258  1.00  0.00     0.053 C 
BRANCH   3   4
ATOM      4  C   UNL     1     115.115 114.721 125.498  1.00  0.00     0.041 C 
ATOM      5  O   UNL     1     114.771 113.670 124.896  1.00  0.00    -0.550 OA
ATOM      6  O   UNL     1     116.448 115.112 125.493  1.00  0.00    -0.550 OA
ENDBRANCH   3   4
ENDBRANCH   2   3
ENDBRANCH   1   2
BRANCH   1   7
ATOM      7  C   UNL     1     110.220 115.876 125.908  1.00  0.00     0.000 C 
BRANCH   7   8
ATOM      8  C   UNL     1     110.023 117.237 125.223  1.00  0.00    -0.000 C 
BRANCH   8   9
ATOM      9  C   UNL     1     108.707 117.919 125.630  1.00  0.00    -0.003 C 
ATOM     10  C   UNL     1     107.781 116.993 126.419  1.00  0.00     0.004 C 
ENDBRANCH   8   9
ENDBRANCH   7   8
ENDBRANCH   1   7
TORSDOF 6
ENDMDL
MODEL 5
REMARK VINA RESULT:    -3.528      1.496      2.232
REMARK INTER + INTRA:          -5.021
REMARK INTER:                  -4.816
REMARK INTRA:                  -0.205
REMARK UNBOUND:                -0.255
REMARK SMILES CCCCCCCC(=O)[O-]
REMARK SMILES IDX 5 1 6 2 7 3 8 4 9 5 10 6 4 7 3 8 2 9 1 10
REMARK H PARENT
REMARK Flexibility Score: inf
ROOT
ATOM      1  C   UNL     1     110.923 115.935 125.833  1.00  0.00     0.000 C 
ENDROOT
BRANCH   1   2
ATOM      2  C   UNL     1     109.697 115.573 126.685  1.00  0.00     0.006 C 
BRANCH   2   3
ATOM      3  C   UNL     1     110.073 115.132 128.106  1.00  0.00     0.053 C 
BRANCH   3   4
ATOM      4  C   UNL     1     109.335 113.886 128.479  1.00  0.00     0.041 C 
ATOM      5  O   UNL     1     109.582 113.305 129.567  1.00  0.00    -0.550 OA
ATOM      6  O   UNL     1     108.407 113.339 127.601  1.00  0.00    -0.550 OA
ENDBRANCH   3   4
ENDBRANCH   2   3
ENDBRANCH   1   2
BRANCH   1   7
ATOM      7  C   UNL     1     112.241 115.829 126.615  1.00  0.00     0.000 C 
BRANCH   7   8
ATOM      8  C   UNL     1     113.357 115.252 125.731  1.00  0.00    -0.000 C 
BRANCH   8   9
ATOM      9  C   UNL     1     114.745 115.366 126.382  1.00  0.00    -0.003 C 
ATOM     10  C   UNL     1     115.738 114.338 125.840  1.00  0.00     0.004 C 
ENDBRANCH   8   9
ENDBRANCH   7   8
ENDBRANCH   1   7
TORSDOF 6
ENDMDL
MODEL 6
REMARK VINA RESULT:    -3.353      3.660      5.666
REMARK INTER + INTRA:          -4.784
REMARK INTER:                  -4.544
REMARK INTRA:                  -0.240
REMARK UNBOUND:                -0.255
REMARK SMILES CCCCCCCC(=O)[O-]
REMARK SMILES IDX 5 1 6 2 7 3 8 4 9 5 10 6 4 7 3 8 2 9 1 10
REMARK H PARENT
REMARK Flexibility Score: inf
ROOT
ATOM      1  C   UNL     1     109.484 113.726 129.069  1.00  0.00     0.000 C 
ENDROOT
BRANCH   1   2
ATOM      2  C   UNL     1     110.078 115.045 128.549  1.00  0.00     0.006 C 
BRANCH   2   3
ATOM      3  C   UNL     1     109.533 115.435 127.168  1.00  0.00     0.053 C 
BRANCH   3   4
ATOM      4  C   UNL     1     110.624 116.006 126.319  1.00  0.00     0.041 C 
ATOM      5  O   UNL     1     110.351 116.551 125.218  1.00  0.00    -0.550 OA
ATOM      6  O   UNL     1     111.949 115.893 126.721  1.00  0.00    -0.550 OA
ENDBRANCH   3   4
ENDBRANCH   2   3
ENDBRANCH   1   2
BRANCH   1   7
ATOM      7  C   UNL     1     109.573 113.598 130.596  1.00  0.00     0.000 C 
BRANCH   7   8
ATOM      8  C   UNL     1     110.667 114.518 131.160  1.00  0.00    -0.000 C 
BRANCH   8   9
ATOM      9  C   UNL     1     110.548 114.716 132.679  1.00  0.00    -0.003 C 
ATOM     10  C   UNL     1     109.884 116.041 133.052  1.00  0.00     0.004 C 
ENDBRANCH   8   9
ENDBRANCH   7   8
ENDBRANCH   1   7
TORSDOF 6
ENDMDL
MODEL 7
REMARK VINA RESULT:    -3.339      2.921      5.241
REMARK INTER + INTRA:          -4.765
REMARK INTER:                  -4.387
REMARK INTRA:                  -0.379
REMARK UNBOUND:                -0.255
REMARK SMILES CCCCCCCC(=O)[O-]
REMARK SMILES IDX 5 1 6 2 7 3 8 4 9 5 10 6 4 7 3 8 2 9 1 10
REMARK H PARENT
REMARK Flexibility Score: inf
ROOT
ATOM      1  C   UNL     1     108.671 115.345 127.329  1.00  0.00     0.000 C 
ENDROOT
BRANCH   1   2
ATOM      2  C   UNL     1     109.664 115.995 126.353  1.00  0.00     0.006 C 
BRANCH   2   3
ATOM      3  C   UNL     1     111.127 115.707 126.717  1.00  0.00     0.053 C 
BRANCH   3   4
ATOM      4  C   UNL     1     111.920 115.398 125.487  1.00  0.00     0.041 C 
ATOM      5  O   UNL     1     111.376 115.449 124.354  1.00  0.00    -0.550 OA
ATOM      6  O   UNL     1     113.248 115.007 125.597  1.00  0.00    -0.550 OA
ENDBRANCH   3   4
ENDBRANCH   2   3
ENDBRANCH   1   2
BRANCH   1   7
ATOM      7  C   UNL     1     109.268 114.137 128.065  1.00  0.00     0.000 C 
BRANCH   7   8
ATOM      8  C   UNL     1     108.447 113.799 129.319  1.00  0.00    -0.000 C 
BRANCH   8   9
ATOM      9  C   UNL     1     109.285 113.846 130.605  1.00  0.00    -0.003 C 
ATOM     10  C   UNL     1     110.703 114.365 130.368  1.00  0.00     0.004 C 
ENDBRANCH   8   9
ENDBRANCH   7   8
ENDBRANCH   1   7
TORSDOF 6
ENDMDL
MODEL 8
REMARK VINA RESULT:    -3.322      4.594      6.727
REMARK INTER + INTRA:          -4.743
REMARK INTER:                  -4.428
REMARK INTRA:                  -0.315
REMARK UNBOUND:                -0.255
REMARK SMILES CCCCCCCC(=O)[O-]
REMARK SMILES IDX 5 1 6 2 7 3 8 4 9 5 10 6 4 7 3 8 2 9 1 10
REMARK H PARENT
REMARK Flexibility Score: inf
ROOT
ATOM      1  C   UNL     1     110.674 114.549 131.379  1.00  0.00     0.000 C 
ENDROOT
BRANCH   1   2
ATOM      2  C   UNL     1     109.447 113.817 130.813  1.00  0.00     0.006 C 
BRANCH   2   3
ATOM      3  C   UNL     1     109.495 113.677 129.285  1.00  0.00     0.053 C 
BRANCH   3   4
ATOM      4  C   UNL     1     109.570 115.024 128.640  1.00  0.00     0.041 C 
ATOM      5  O   UNL     1     108.668 115.877 128.848  1.00  0.00    -0.550 OA
ATOM      6  O   UNL     1     110.612 115.322 127.771  1.00  0.00    -0.550 OA
ENDBRANCH   3   4
ENDBRANCH   2   3
ENDBRANCH   1   2
BRANCH   1   7
ATOM      7  C   UNL     1     110.366 115.298 132.684  1.00  0.00     0.000 C 
BRANCH   7   8
ATOM      8  C   UNL     1     109.238 116.320 132.476  1.00  0.00    -0.000 C 
BRANCH   8   9
ATOM      9  C   UNL     1     109.237 117.425 133.544  1.00  0.00    -0.003 C 
ATOM     10  C   UNL     1     109.807 118.746 133.029  1.00  0.00     0.004 C 
ENDBRANCH   8   9
ENDBRANCH   7   8
ENDBRANCH   1   7
TORSDOF 6
ENDMDL
MODEL 9
REMARK VINA RESULT:    -3.257      5.687      6.893
REMARK INTER + INTRA:          -4.654
REMARK INTER:                  -4.169
REMARK INTRA:                  -0.485
REMARK UNBOUND:                -0.255
REMARK SMILES CCCCCCCC(=O)[O-]
REMARK SMILES IDX 5 1 6 2 7 3 8 4 9 5 10 6 4 7 3 8 2 9 1 10
REMARK H PARENT
REMARK Flexibility Score: inf
ROOT
ATOM      1  C   UNL     1     109.995 116.044 132.669  1.00  0.00     0.000 C 
ENDROOT
BRANCH   1   2
ATOM      2  C   UNL     1     108.483 116.216 132.455  1.00  0.00     0.006 C 
BRANCH   2   3
ATOM      3  C   UNL     1     108.143 117.439 131.593  1.00  0.00     0.053 C 
BRANCH   3   4
ATOM      4  C   UNL     1     108.445 118.701 132.337  1.00  0.00     0.041 C 
ATOM      5  O   UNL     1     109.277 119.524 131.875  1.00  0.00    -0.550 OA
ATOM      6  O   UNL     1     107.844 118.946 133.565  1.00  0.00    -0.550 OA
ENDBRANCH   3   4
ENDBRANCH   2   3
ENDBRANCH   1   2
BRANCH   1   7
ATOM      7  C   UNL     1     110.496 114.650 132.265  1.00  0.00     0.000 C 
BRANCH   7   8
ATOM      8  C   UNL     1     110.779 114.585 130.756  1.00  0.00    -0.000 C 
BRANCH   8   9
ATOM      9  C   UNL     1     109.914 113.540 130.036  1.00  0.00    -0.003 C 
ATOM     10  C   UNL     1     108.721 114.160 129.308  1.00  0.00     0.004 C 
ENDBRANCH   8   9
ENDBRANCH   7   8
ENDBRANCH   1   7
TORSDOF 6
ENDMDL
