MODEL 1
REMARK VINA RESULT:    -5.360      0.000      0.000
REMARK INTER + INTRA:         -11.748
REMARK INTER:                 -10.060
REMARK INTRA:                  -1.688
REMARK UNBOUND:                -1.688
REMARK SMILES O=C([O-])CCCCCCCCCCCCCCC(=O)[O-]
REMARK SMILES IDX 10 1 9 2 8 3 7 4 6 5 5 6 4 7 2 8 1 9 3 10 11 11 12 12 13 13
REMARK SMILES IDX 14 14 15 15 16 16 17 17 18 18 19 19 20 20
REMARK H PARENT
REMARK Flexibility Score: inf
ROOT
ATOM      1  C   UNL     1       1.052  44.375  10.512  1.00  0.00     0.000 C 
ENDROOT
BRANCH   1   2
ATOM      2  C   UNL     1       1.703  43.782   9.257  1.00  0.00     0.000 C 
BRANCH   2   3
ATOM      3  C   UNL     1       3.158  43.374   9.533  1.00  0.00     0.000 C 
BRANCH   3   4
ATOM      4  C   UNL     1       3.631  43.785  10.936  1.00  0.00     0.000 C 
BRANCH   4   5
ATOM      5  C   UNL     1       4.010  42.575  11.810  1.00  0.00     0.000 C 
BRANCH   5   6
ATOM      6  C   UNL     1       3.331  41.277  11.346  1.00  0.00     0.006 C 
BRANCH   6   7
ATOM      7  C   UNL     1       2.767  40.458  12.515  1.00  0.00     0.053 C 
BRANCH   7   8
ATOM      8  C   UNL     1       3.575  39.216  12.719  1.00  0.00     0.041 C 
ATOM      9  O   UNL     1       3.135  38.102  12.330  1.00  0.00    -0.550 OA
ATOM     10  O   UNL     1       4.836  39.295  13.295  1.00  0.00    -0.550 OA
ENDBRANCH   7   8
ENDBRANCH   6   7
ENDBRANCH   5   6
ENDBRANCH   4   5
ENDBRANCH   3   4
ENDBRANCH   2   3
ENDBRANCH   1   2
BRANCH   1  11
ATOM     11  C   UNL     1       0.085  45.509  10.149  1.00  0.00     0.000 C 
BRANCH  11  12
ATOM     12  C   UNL     1       0.154  45.829   8.647  1.00  0.00     0.000 C 
BRANCH  12  13
ATOM     13  C   UNL     1       0.449  47.312   8.370  1.00  0.00     0.000 C 
BRANCH  13  14
ATOM     14  C   UNL     1       1.913  47.557   7.968  1.00  0.00     0.000 C 
BRANCH  14  15
ATOM     15  C   UNL     1       2.908  47.212   9.091  1.00  0.00     0.000 C 
BRANCH  15  16
ATOM     16  C   UNL     1       4.344  46.898   8.622  1.00  0.00     0.006 C 
BRANCH  16  17
ATOM     17  C   UNL     1       5.407  46.967   9.729  1.00  0.00     0.053 C 
BRANCH  17  18
ATOM     18  C   UNL     1       6.585  47.801   9.326  1.00  0.00     0.041 C 
ATOM     19  O   UNL     1       7.748  47.323   9.382  1.00  0.00    -0.550 OA
ATOM     20  O   UNL     1       6.399  49.117   8.921  1.00  0.00    -0.550 OA
ENDBRANCH  17  18
ENDBRANCH  16  17
ENDBRANCH  15  16
ENDBRANCH  14  15
ENDBRANCH  13  14
ENDBRANCH  12  13
ENDBRANCH  11  12
ENDBRANCH   1  11
TORSDOF 15
ENDMDL
MODEL 2
REMARK VINA RESULT:    -5.355      0.356      7.109
REMARK INTER + INTRA:         -11.739
REMARK INTER:                  -9.978
REMARK INTRA:                  -1.761
REMARK UNBOUND:                -1.688
REMARK SMILES O=C([O-])CCCCCCCCCCCCCCC(=O)[O-]
REMARK SMILES IDX 10 1 9 2 8 3 7 4 6 5 5 6 4 7 2 8 1 9 3 10 11 11 12 12 13 13
REMARK SMILES IDX 14 14 15 15 16 16 17 17 18 18 19 19 20 20
REMARK H PARENT
REMARK Flexibility Score: inf
ROOT
ATOM      1  C   UNL     1       0.093  45.497   9.993  1.00  0.00     0.000 C 
ENDROOT
BRANCH   1   2
ATOM      2  C   UNL     1       0.382  45.782   8.514  1.00  0.00     0.000 C 
BRANCH   2   3
ATOM      3  C   UNL     1       0.411  47.293   8.240  1.00  0.00     0.000 C 
BRANCH   3   4
ATOM      4  C   UNL     1       1.831  47.820   7.981  1.00  0.00     0.000 C 
BRANCH   4   5
ATOM      5  C   UNL     1       2.842  47.337   9.037  1.00  0.00     0.000 C 
BRANCH   5   6
ATOM      6  C   UNL     1       4.245  47.114   8.452  1.00  0.00     0.006 C 
BRANCH   6   7
ATOM      7  C   UNL     1       5.310  46.910   9.538  1.00  0.00     0.053 C 
BRANCH   7   8
ATOM      8  C   UNL     1       6.490  47.795   9.283  1.00  0.00     0.041 C 
ATOM      9  O   UNL     1       7.656  47.374   9.496  1.00  0.00    -0.550 OA
ATOM     10  O   UNL     1       6.302  49.070   8.764  1.00  0.00    -0.550 OA
ENDBRANCH   7   8
ENDBRANCH   6   7
ENDBRANCH   5   6
ENDBRANCH   4   5
ENDBRANCH   3   4
ENDBRANCH   2   3
ENDBRANCH   1   2
BRANCH   1  11
ATOM     11  C   UNL     1       0.979  44.361  10.518  1.00  0.00     0.000 C 
BRANCH  11  12
ATOM     12  C   UNL     1       1.843  43.772   9.392  1.00  0.00     0.000 C 
BRANCH  12  13
ATOM     13  C   UNL     1       3.326  43.655   9.780  1.00  0.00     0.000 C 
BRANCH  13  14
ATOM     14  C   UNL     1       3.605  44.165  11.204  1.00  0.00     0.000 C 
BRANCH  14  15
ATOM     15  C   UNL     1       4.187  43.079  12.126  1.00  0.00     0.000 C 
BRANCH  15  16
ATOM     16  C   UNL     1       4.152  41.645  11.556  1.00  0.00     0.006 C 
BRANCH  16  17
ATOM     17  C   UNL     1       3.080  40.736  12.176  1.00  0.00     0.053 C 
BRANCH  17  18
ATOM     18  C   UNL     1       3.651  39.431  12.642  1.00  0.00     0.041 C 
ATOM     19  O   UNL     1       3.063  38.351  12.371  1.00  0.00    -0.550 OA
ATOM     20  O   UNL     1       4.812  39.412  13.404  1.00  0.00    -0.550 OA
ENDBRANCH  17  18
ENDBRANCH  16  17
ENDBRANCH  15  16
ENDBRANCH  14  15
ENDBRANCH  13  14
ENDBRANCH  12  13
ENDBRANCH  11  12
ENDBRANCH   1  11
TORSDOF 15
ENDMDL
MODEL 3
REMARK VINA RESULT:    -5.056      2.898      7.342
REMARK INTER + INTRA:         -11.179
REMARK INTER:                  -9.749
REMARK INTRA:                  -1.429
REMARK UNBOUND:                -1.688
REMARK SMILES O=C([O-])CCCCCCCCCCCCCCC(=O)[O-]
REMARK SMILES IDX 10 1 9 2 8 3 7 4 6 5 5 6 4 7 2 8 1 9 3 10 11 11 12 12 13 13
REMARK SMILES IDX 14 14 15 15 16 16 17 17 18 18 19 19 20 20
REMARK H PARENT
REMARK Flexibility Score: inf
ROOT
ATOM      1  C   UNL     1       4.602  46.362  10.512  1.00  0.00     0.000 C 
ENDROOT
BRANCH   1   2
ATOM      2  C   UNL     1       4.893  46.522   9.015  1.00  0.00     0.000 C 
BRANCH   2   3
ATOM      3  C   UNL     1       4.152  47.737   8.437  1.00  0.00     0.000 C 
BRANCH   3   4
ATOM      4  C   UNL     1       2.689  47.426   8.084  1.00  0.00     0.000 C 
BRANCH   4   5
ATOM      5  C   UNL     1       1.775  47.403   9.323  1.00  0.00     0.000 C 
BRANCH   5   6
ATOM      6  C   UNL     1       0.309  47.111   8.968  1.00  0.00     0.006 C 
BRANCH   6   7
ATOM      7  C   UNL     1       0.089  45.659   8.521  1.00  0.00     0.053 C 
BRANCH   7   8
ATOM      8  C   UNL     1      -0.427  45.619   7.117  1.00  0.00     0.041 C 
ATOM      9  O   UNL     1      -0.910  46.654   6.589  1.00  0.00    -0.550 OA
ATOM     10  O   UNL     1      -0.327  44.449   6.375  1.00  0.00    -0.550 OA
ENDBRANCH   7   8
ENDBRANCH   6   7
ENDBRANCH   5   6
ENDBRANCH   4   5
ENDBRANCH   3   4
ENDBRANCH   2   3
ENDBRANCH   1   2
BRANCH   1  11
ATOM     11  C   UNL     1       4.255  44.908  10.854  1.00  0.00     0.000 C 
BRANCH  11  12
ATOM     12  C   UNL     1       3.954  44.101   9.582  1.00  0.00     0.000 C 
BRANCH  12  13
ATOM     13  C   UNL     1       2.758  43.150   9.751  1.00  0.00     0.000 C 
BRANCH  13  14
ATOM     14  C   UNL     1       1.855  43.541  10.933  1.00  0.00     0.000 C 
BRANCH  14  15
ATOM     15  C   UNL     1       1.855  42.492  12.059  1.00  0.00     0.000 C 
BRANCH  15  16
ATOM     16  C   UNL     1       2.772  41.274  11.823  1.00  0.00     0.006 C 
BRANCH  16  17
ATOM     17  C   UNL     1       2.587  40.130  12.832  1.00  0.00     0.053 C 
BRANCH  17  18
ATOM     18  C   UNL     1       3.638  39.072  12.680  1.00  0.00     0.041 C 
ATOM     19  O   UNL     1       3.408  38.047  11.986  1.00  0.00    -0.550 OA
ATOM     20  O   UNL     1       4.858  39.203  13.333  1.00  0.00    -0.550 OA
ENDBRANCH  17  18
ENDBRANCH  16  17
ENDBRANCH  15  16
ENDBRANCH  14  15
ENDBRANCH  13  14
ENDBRANCH  12  13
ENDBRANCH  11  12
ENDBRANCH   1  11
TORSDOF 15
ENDMDL
MODEL 4
REMARK VINA RESULT:    -4.984      2.570      4.028
REMARK INTER + INTRA:         -11.043
REMARK INTER:                  -9.493
REMARK INTRA:                  -1.550
REMARK UNBOUND:                -1.688
REMARK SMILES O=C([O-])CCCCCCCCCCCCCCC(=O)[O-]
REMARK SMILES IDX 10 1 9 2 8 3 7 4 6 5 5 6 4 7 2 8 1 9 3 10 11 11 12 12 13 13
REMARK SMILES IDX 14 14 15 15 16 16 17 17 18 18 19 19 20 20
REMARK H PARENT
REMARK Flexibility Score: inf
ROOT
ATOM      1  C   UNL     1       5.306  46.707   9.729  1.00  0.00     0.000 C 
ENDROOT
BRANCH   1   2
ATOM      2  C   UNL     1       4.448  45.450   9.918  1.00  0.00     0.000 C 
BRANCH   2   3
ATOM      3  C   UNL     1       4.305  45.102  11.407  1.00  0.00     0.000 C 
BRANCH   3   4
ATOM      4  C   UNL     1       4.328  43.587  11.664  1.00  0.00     0.000 C 
BRANCH   4   5
ATOM      5  C   UNL     1       2.916  42.982  11.763  1.00  0.00     0.000 C 
BRANCH   5   6
ATOM      6  C   UNL     1       2.934  41.447  11.816  1.00  0.00     0.006 C 
BRANCH   6   7
ATOM      7  C   UNL     1       4.318  40.886  12.168  1.00  0.00     0.053 C 
BRANCH   7   8
ATOM      8  C   UNL     1       4.189  39.534  12.796  1.00  0.00     0.041 C 
ATOM      9  O   UNL     1       5.029  39.149  13.651  1.00  0.00    -0.550 OA
ATOM     10  O   UNL     1       3.113  38.718  12.472  1.00  0.00    -0.550 OA
ENDBRANCH   7   8
ENDBRANCH   6   7
ENDBRANCH   5   6
ENDBRANCH   4   5
ENDBRANCH   3   4
ENDBRANCH   2   3
ENDBRANCH   1   2
BRANCH   1  11
ATOM     11  C   UNL     1       4.649  47.679   8.740  1.00  0.00     0.000 C 
BRANCH  11  12
ATOM     12  C   UNL     1       3.248  47.192   8.341  1.00  0.00     0.000 C 
BRANCH  12  13
ATOM     13  C   UNL     1       2.410  48.288   7.662  1.00  0.00     0.000 C 
BRANCH  13  14
ATOM     14  C   UNL     1       0.945  48.285   8.129  1.00  0.00     0.000 C 
BRANCH  14  15
ATOM     15  C   UNL     1       0.765  47.687   9.535  1.00  0.00     0.000 C 
BRANCH  15  16
ATOM     16  C   UNL     1      -0.112  46.419   9.603  1.00  0.00     0.006 C 
BRANCH  16  17
ATOM     17  C   UNL     1       0.664  45.118   9.860  1.00  0.00     0.053 C 
BRANCH  17  18
ATOM     18  C   UNL     1       0.890  44.340   8.599  1.00  0.00     0.041 C 
ATOM     19  O   UNL     1       0.311  44.681   7.534  1.00  0.00    -0.550 OA
ATOM     20  O   UNL     1       1.712  43.220   8.609  1.00  0.00    -0.550 OA
ENDBRANCH  17  18
ENDBRANCH  16  17
ENDBRANCH  15  16
ENDBRANCH  14  15
ENDBRANCH  13  14
ENDBRANCH  12  13
ENDBRANCH  11  12
ENDBRANCH   1  11
TORSDOF 15
ENDMDL
MODEL 5
REMARK VINA RESULT:    -4.795      2.521      6.869
REMARK INTER + INTRA:         -10.687
REMARK INTER:                  -9.458
REMARK INTRA:                  -1.229
REMARK UNBOUND:                -1.688
REMARK SMILES O=C([O-])CCCCCCCCCCCCCCC(=O)[O-]
REMARK SMILES IDX 10 1 9 2 8 3 7 4 6 5 5 6 4 7 2 8 1 9 3 10 11 11 12 12 13 13
REMARK SMILES IDX 14 14 15 15 16 16 17 17 18 18 19 19 20 20
REMARK H PARENT
REMARK Flexibility Score: inf
ROOT
ATOM      1  C   UNL     1       4.929  47.058   9.066  1.00  0.00     0.000 C 
ENDROOT
BRANCH   1   2
ATOM      2  C   UNL     1       4.088  47.798   8.018  1.00  0.00     0.000 C 
BRANCH   2   3
ATOM      3  C   UNL     1       2.629  47.317   8.045  1.00  0.00     0.000 C 
BRANCH   3   4
ATOM      4  C   UNL     1       1.647  48.432   8.438  1.00  0.00     0.000 C 
BRANCH   4   5
ATOM      5  C   UNL     1       0.195  48.106   8.043  1.00  0.00     0.000 C 
BRANCH   5   6
ATOM      6  C   UNL     1      -0.124  46.607   8.151  1.00  0.00     0.006 C 
BRANCH   6   7
ATOM      7  C   UNL     1      -0.447  46.175   9.588  1.00  0.00     0.053 C 
BRANCH   7   8
ATOM      8  C   UNL     1       0.384  44.994   9.977  1.00  0.00     0.041 C 
ATOM      9  O   UNL     1       1.021  44.350   9.102  1.00  0.00    -0.550 OA
ATOM     10  O   UNL     1       0.496  44.633  11.314  1.00  0.00    -0.550 OA
ENDBRANCH   7   8
ENDBRANCH   6   7
ENDBRANCH   5   6
ENDBRANCH   4   5
ENDBRANCH   3   4
ENDBRANCH   2   3
ENDBRANCH   1   2
BRANCH   1  11
ATOM     11  C   UNL     1       4.247  45.755   9.499  1.00  0.00     0.000 C 
BRANCH  11  12
ATOM     12  C   UNL     1       4.025  45.731  11.020  1.00  0.00     0.000 C 
BRANCH  12  13
ATOM     13  C   UNL     1       4.165  44.322  11.619  1.00  0.00     0.000 C 
BRANCH  13  14
ATOM     14  C   UNL     1       4.204  43.224  10.543  1.00  0.00     0.000 C 
BRANCH  14  15
ATOM     15  C   UNL     1       2.964  42.312  10.572  1.00  0.00     0.000 C 
BRANCH  15  16
ATOM     16  C   UNL     1       2.957  41.249  11.690  1.00  0.00     0.006 C 
BRANCH  16  17
ATOM     17  C   UNL     1       4.351  40.829  12.182  1.00  0.00     0.053 C 
BRANCH  17  18
ATOM     18  C   UNL     1       4.323  39.505  12.883  1.00  0.00     0.041 C 
ATOM     19  O   UNL     1       5.150  39.256  13.799  1.00  0.00    -0.550 OA
ATOM     20  O   UNL     1       3.405  38.534  12.501  1.00  0.00    -0.550 OA
ENDBRANCH  17  18
ENDBRANCH  16  17
ENDBRANCH  15  16
ENDBRANCH  14  15
ENDBRANCH  13  14
ENDBRANCH  12  13
ENDBRANCH  11  12
ENDBRANCH   1  11
TORSDOF 15
ENDMDL
MODEL 6
REMARK VINA RESULT:    -4.706      1.291      2.029
REMARK INTER + INTRA:         -10.521
REMARK INTER:                  -9.167
REMARK INTRA:                  -1.353
REMARK UNBOUND:                -1.688
REMARK SMILES O=C([O-])CCCCCCCCCCCCCCC(=O)[O-]
REMARK SMILES IDX 10 1 9 2 8 3 7 4 6 5 5 6 4 7 2 8 1 9 3 10 11 11 12 12 13 13
REMARK SMILES IDX 14 14 15 15 16 16 17 17 18 18 19 19 20 20
REMARK H PARENT
REMARK Flexibility Score: inf
ROOT
ATOM      1  C   UNL     1       0.231  44.471   7.417  1.00  0.00     0.000 C 
ENDROOT
BRANCH   1   2
ATOM      2  C   UNL     1       0.857  44.400   8.814  1.00  0.00     0.000 C 
BRANCH   2   3
ATOM      3  C   UNL     1       1.940  43.312   8.878  1.00  0.00     0.000 C 
BRANCH   3   4
ATOM      4  C   UNL     1       3.269  43.833   9.445  1.00  0.00     0.000 C 
BRANCH   4   5
ATOM      5  C   UNL     1       3.140  44.322  10.900  1.00  0.00     0.000 C 
BRANCH   5   6
ATOM      6  C   UNL     1       4.048  43.545  11.866  1.00  0.00     0.006 C 
BRANCH   6   7
ATOM      7  C   UNL     1       4.133  42.052  11.522  1.00  0.00     0.053 C 
BRANCH   7   8
ATOM      8  C   UNL     1       2.934  41.327  12.046  1.00  0.00     0.041 C 
ATOM      9  O   UNL     1       1.857  41.947  12.248  1.00  0.00    -0.550 OA
ATOM     10  O   UNL     1       2.992  39.957  12.266  1.00  0.00    -0.550 OA
ENDBRANCH   7   8
ENDBRANCH   6   7
ENDBRANCH   5   6
ENDBRANCH   4   5
ENDBRANCH   3   4
ENDBRANCH   2   3
ENDBRANCH   1   2
BRANCH   1  11
ATOM     11  C   UNL     1       0.086  45.925   6.951  1.00  0.00     0.000 C 
BRANCH  11  12
ATOM     12  C   UNL     1      -0.636  46.772   8.011  1.00  0.00     0.000 C 
BRANCH  12  13
ATOM     13  C   UNL     1       0.263  47.863   8.613  1.00  0.00     0.000 C 
BRANCH  13  14
ATOM     14  C   UNL     1       1.668  47.883   7.986  1.00  0.00     0.000 C 
BRANCH  14  15
ATOM     15  C   UNL     1       2.759  47.379   8.948  1.00  0.00     0.000 C 
BRANCH  15  16
ATOM     16  C   UNL     1       4.194  47.399   8.381  1.00  0.00     0.006 C 
BRANCH  16  17
ATOM     17  C   UNL     1       5.288  47.037   9.398  1.00  0.00     0.053 C 
BRANCH  17  18
ATOM     18  C   UNL     1       6.499  47.908   9.253  1.00  0.00     0.041 C 
ATOM     19  O   UNL     1       6.379  49.100   8.866  1.00  0.00    -0.550 OA
ATOM     20  O   UNL     1       7.763  47.391   9.512  1.00  0.00    -0.550 OA
ENDBRANCH  17  18
ENDBRANCH  16  17
ENDBRANCH  15  16
ENDBRANCH  14  15
ENDBRANCH  13  14
ENDBRANCH  12  13
ENDBRANCH  11  12
ENDBRANCH   1  11
TORSDOF 15
ENDMDL
MODEL 7
REMARK VINA RESULT:    -4.621      3.522      6.672
REMARK INTER + INTRA:         -10.361
REMARK INTER:                  -8.540
REMARK INTRA:                  -1.821
REMARK UNBOUND:                -1.688
REMARK SMILES O=C([O-])CCCCCCCCCCCCCCC(=O)[O-]
REMARK SMILES IDX 10 1 9 2 8 3 7 4 6 5 5 6 4 7 2 8 1 9 3 10 11 11 12 12 13 13
REMARK SMILES IDX 14 14 15 15 16 16 17 17 18 18 19 19 20 20
REMARK H PARENT
REMARK Flexibility Score: inf
ROOT
ATOM      1  C   UNL     1       4.483  42.750  11.912  1.00  0.00     0.000 C 
ENDROOT
BRANCH   1   2
ATOM      2  C   UNL     1       3.933  44.168  12.108  1.00  0.00     0.000 C 
BRANCH   2   3
ATOM      3  C   UNL     1       4.845  45.209  11.441  1.00  0.00     0.000 C 
BRANCH   3   4
ATOM      4  C   UNL     1       4.067  46.201  10.563  1.00  0.00     0.000 C 
BRANCH   4   5
ATOM      5  C   UNL     1       4.685  46.362   9.162  1.00  0.00     0.000 C 
BRANCH   5   6
ATOM      6  C   UNL     1       5.898  47.305   9.158  1.00  0.00     0.006 C 
BRANCH   6   7
ATOM      7  C   UNL     1       5.616  48.623   8.422  1.00  0.00     0.053 C 
BRANCH   7   8
ATOM      8  C   UNL     1       6.302  49.760   9.110  1.00  0.00     0.041 C 
ATOM      9  O   UNL     1       6.829  49.593  10.241  1.00  0.00    -0.550 OA
ATOM     10  O   UNL     1       6.404  50.994   8.479  1.00  0.00    -0.550 OA
ENDBRANCH   7   8
ENDBRANCH   6   7
ENDBRANCH   5   6
ENDBRANCH   4   5
ENDBRANCH   3   4
ENDBRANCH   2   3
ENDBRANCH   1   2
BRANCH   1  11
ATOM     11  C   UNL     1       3.354  41.758  11.606  1.00  0.00     0.000 C 
BRANCH  11  12
ATOM     12  C   UNL     1       2.215  42.443  10.834  1.00  0.00     0.000 C 
BRANCH  12  13
ATOM     13  C   UNL     1       2.537  42.630   9.343  1.00  0.00     0.000 C 
BRANCH  13  14
ATOM     14  C   UNL     1       1.705  43.749   8.695  1.00  0.00     0.000 C 
BRANCH  14  15
ATOM     15  C   UNL     1       0.951  44.608   9.725  1.00  0.00     0.000 C 
BRANCH  15  16
ATOM     16  C   UNL     1       0.000  45.667   9.129  1.00  0.00     0.006 C 
BRANCH  16  17
ATOM     17  C   UNL     1       0.586  46.460   7.950  1.00  0.00     0.053 C 
BRANCH  17  18
ATOM     18  C   UNL     1       1.367  47.653   8.408  1.00  0.00     0.041 C 
ATOM     19  O   UNL     1       1.199  48.112   9.568  1.00  0.00    -0.550 OA
ATOM     20  O   UNL     1       2.256  48.278   7.542  1.00  0.00    -0.550 OA
ENDBRANCH  17  18
ENDBRANCH  16  17
ENDBRANCH  15  16
ENDBRANCH  14  15
ENDBRANCH  13  14
ENDBRANCH  12  13
ENDBRANCH  11  12
ENDBRANCH   1  11
TORSDOF 15
ENDMDL
MODEL 8
REMARK VINA RESULT:    -4.580      3.802      5.669
REMARK INTER + INTRA:         -10.285
REMARK INTER:                  -8.544
REMARK INTRA:                  -1.741
REMARK UNBOUND:                -1.688
REMARK SMILES O=C([O-])CCCCCCCCCCCCCCC(=O)[O-]
REMARK SMILES IDX 10 1 9 2 8 3 7 4 6 5 5 6 4 7 2 8 1 9 3 10 11 11 12 12 13 13
REMARK SMILES IDX 14 14 15 15 16 16 17 17 18 18 19 19 20 20
REMARK H PARENT
REMARK Flexibility Score: inf
ROOT
ATOM      1  C   UNL     1       2.664  41.845  11.684  1.00  0.00     0.000 C 
ENDROOT
BRANCH   1   2
ATOM      2  C   UNL     1       1.846  42.850  12.504  1.00  0.00     0.000 C 
BRANCH   2   3
ATOM      3  C   UNL     1       0.634  43.354  11.706  1.00  0.00     0.000 C 
BRANCH   3   4
ATOM      4  C   UNL     1       0.948  44.619  10.891  1.00  0.00     0.000 C 
BRANCH   4   5
ATOM      5  C   UNL     1       0.995  44.350   9.376  1.00  0.00     0.000 C 
BRANCH   5   6
ATOM      6  C   UNL     1       0.708  45.609   8.544  1.00  0.00     0.006 C 
BRANCH   6   7
ATOM      7  C   UNL     1       1.123  46.899   9.266  1.00  0.00     0.053 C 
BRANCH   7   8
ATOM      8  C   UNL     1       1.117  48.053   8.314  1.00  0.00     0.041 C 
ATOM      9  O   UNL     1       0.088  48.769   8.193  1.00  0.00    -0.550 OA
ATOM     10  O   UNL     1       2.264  48.369   7.597  1.00  0.00    -0.550 OA
ENDBRANCH   7   8
ENDBRANCH   6   7
ENDBRANCH   5   6
ENDBRANCH   4   5
ENDBRANCH   3   4
ENDBRANCH   2   3
ENDBRANCH   1   2
BRANCH   1  11
ATOM     11  C   UNL     1       3.936  42.495  11.124  1.00  0.00     0.000 C 
BRANCH  11  12
ATOM     12  C   UNL     1       4.447  43.599  12.064  1.00  0.00     0.000 C 
BRANCH  12  13
ATOM     13  C   UNL     1       4.463  44.985  11.398  1.00  0.00     0.000 C 
BRANCH  13  14
ATOM     14  C   UNL     1       4.362  44.905   9.866  1.00  0.00     0.000 C 
BRANCH  14  15
ATOM     15  C   UNL     1       4.604  46.261   9.179  1.00  0.00     0.000 C 
BRANCH  15  16
ATOM     16  C   UNL     1       5.510  47.239   9.955  1.00  0.00     0.006 C 
BRANCH  16  17
ATOM     17  C   UNL     1       6.558  47.960   9.093  1.00  0.00     0.053 C 
BRANCH  17  18
ATOM     18  C   UNL     1       6.472  49.450   9.235  1.00  0.00     0.041 C 
ATOM     19  O   UNL     1       6.886  50.011  10.283  1.00  0.00    -0.550 OA
ATOM     20  O   UNL     1       5.903  50.213   8.223  1.00  0.00    -0.550 OA
ENDBRANCH  17  18
ENDBRANCH  16  17
ENDBRANCH  15  16
ENDBRANCH  14  15
ENDBRANCH  13  14
ENDBRANCH  12  13
ENDBRANCH  11  12
ENDBRANCH   1  11
TORSDOF 15
ENDMDL
MODEL 9
REMARK VINA RESULT:    -4.401      1.288      8.038
REMARK INTER + INTRA:          -9.948
REMARK INTER:                  -9.052
REMARK INTRA:                  -0.896
REMARK UNBOUND:                -1.688
REMARK SMILES O=C([O-])CCCCCCCCCCCCCCC(=O)[O-]
REMARK SMILES IDX 10 1 9 2 8 3 7 4 6 5 5 6 4 7 2 8 1 9 3 10 11 11 12 12 13 13
REMARK SMILES IDX 14 14 15 15 16 16 17 17 18 18 19 19 20 20
REMARK H PARENT
REMARK Flexibility Score: inf
ROOT
ATOM      1  C   UNL     1       1.444  44.191   9.140  1.00  0.00     0.000 C 
ENDROOT
BRANCH   1   2
ATOM      2  C   UNL     1       0.544  45.070  10.018  1.00  0.00     0.000 C 
BRANCH   2   3
ATOM      3  C   UNL     1       0.945  46.549   9.909  1.00  0.00     0.000 C 
BRANCH   3   4
ATOM      4  C   UNL     1       0.529  47.178   8.570  1.00  0.00     0.000 C 
BRANCH   4   5
ATOM      5  C   UNL     1       1.688  47.919   7.880  1.00  0.00     0.000 C 
BRANCH   5   6
ATOM      6  C   UNL     1       3.066  47.416   8.338  1.00  0.00     0.006 C 
BRANCH   6   7
ATOM      7  C   UNL     1       4.219  48.253   7.765  1.00  0.00     0.053 C 
BRANCH   7   8
ATOM      8  C   UNL     1       5.398  48.214   8.686  1.00  0.00     0.041 C 
ATOM      9  O   UNL     1       6.169  49.205   8.768  1.00  0.00    -0.550 OA
ATOM     10  O   UNL     1       5.616  47.102   9.489  1.00  0.00    -0.550 OA
ENDBRANCH   7   8
ENDBRANCH   6   7
ENDBRANCH   5   6
ENDBRANCH   4   5
ENDBRANCH   3   4
ENDBRANCH   2   3
ENDBRANCH   1   2
BRANCH   1  11
ATOM     11  C   UNL     1       2.926  44.458   9.430  1.00  0.00     0.000 C 
BRANCH  11  12
ATOM     12  C   UNL     1       3.649  43.163   9.832  1.00  0.00     0.000 C 
BRANCH  12  13
ATOM     13  C   UNL     1       2.678  42.048  10.256  1.00  0.00     0.000 C 
BRANCH  13  14
ATOM     14  C   UNL     1       2.835  41.661  11.736  1.00  0.00     0.000 C 
BRANCH  14  15
ATOM     15  C   UNL     1       4.205  41.036  12.050  1.00  0.00     0.000 C 
BRANCH  15  16
ATOM     16  C   UNL     1       4.155  39.666  12.759  1.00  0.00     0.006 C 
BRANCH  16  17
ATOM     17  C   UNL     1       2.766  39.010  12.787  1.00  0.00     0.053 C 
BRANCH  17  18
ATOM     18  C   UNL     1       2.758  37.683  12.092  1.00  0.00     0.041 C 
ATOM     19  O   UNL     1       3.820  37.218  11.603  1.00  0.00    -0.550 OA
ATOM     20  O   UNL     1       1.569  36.975  11.956  1.00  0.00    -0.550 OA
ENDBRANCH  17  18
ENDBRANCH  16  17
ENDBRANCH  15  16
ENDBRANCH  14  15
ENDBRANCH  13  14
ENDBRANCH  12  13
ENDBRANCH  11  12
ENDBRANCH   1  11
TORSDOF 15
ENDMDL
