MODEL 1
REMARK VINA RESULT:    -5.488      0.000      0.000
REMARK INTER + INTRA:          -6.219
REMARK INTER:                  -5.970
REMARK INTRA:                  -0.249
REMARK UNBOUND:                -0.249
REMARK SMILES O=C([O-])c1ccccc1O
REMARK SMILES IDX 4 1 9 2 5 3 8 4 6 5 7 6 2 7 1 8 3 9 10 10
REMARK H PARENT 10 11
REMARK Flexibility Score: inf
ROOT
ATOM      1  C   UNL     1     128.697 127.112 124.022  1.00  0.00     0.039 A 
ATOM      2  C   UNL     1     128.857 128.491 123.726  1.00  0.00     0.124 A 
ATOM      3  C   UNL     1     127.939 126.313 123.146  1.00  0.00     0.014 A 
ATOM      4  C   UNL     1     128.315 129.013 122.544  1.00  0.00     0.047 A 
ATOM      5  C   UNL     1     127.388 126.855 121.982  1.00  0.00     0.001 A 
ATOM      6  C   UNL     1     127.584 128.200 121.676  1.00  0.00     0.004 A 
ENDROOT
BRANCH   1   7
ATOM      7  C   UNL     1     129.320 126.467 125.198  1.00  0.00     0.075 C 
ATOM      8  O   UNL     1     128.654 125.703 125.945  1.00  0.00    -0.545 OA
ATOM      9  O   UNL     1     130.639 126.753 125.531  1.00  0.00    -0.545 OA
ENDBRANCH   1   7
BRANCH   2  10
ATOM     10  O   UNL     1     129.511 129.377 124.586  1.00  0.00    -0.507 OA
ATOM     11  H   UNL     1     130.347 129.140 125.101  1.00  0.00     0.293 HD
ENDBRANCH   2  10
TORSDOF 2
ENDMDL
MODEL 2
REMARK VINA RESULT:    -5.202      3.836      4.919
REMARK INTER + INTRA:          -5.908
REMARK INTER:                  -5.658
REMARK INTRA:                  -0.250
REMARK UNBOUND:                -0.249
REMARK SMILES O=C([O-])c1ccccc1O
REMARK SMILES IDX 4 1 9 2 5 3 8 4 6 5 7 6 2 7 1 8 3 9 10 10
REMARK H PARENT 10 11
REMARK Flexibility Score: inf
ROOT
ATOM      1  C   UNL     1     129.991 126.088 127.020  1.00  0.00     0.039 A 
ATOM      2  C   UNL     1     128.631 125.850 127.350  1.00  0.00     0.124 A 
ATOM      3  C   UNL     1     130.878 124.997 126.966  1.00  0.00     0.014 A 
ATOM      4  C   UNL     1     128.187 124.537 127.552  1.00  0.00     0.047 A 
ATOM      5  C   UNL     1     130.422 123.695 127.191  1.00  0.00     0.001 A 
ATOM      6  C   UNL     1     129.077 123.465 127.474  1.00  0.00     0.004 A 
ENDROOT
BRANCH   1   7
ATOM      7  C   UNL     1     130.514 127.433 126.697  1.00  0.00     0.075 C 
ATOM      8  O   UNL     1     129.838 128.242 126.009  1.00  0.00    -0.545 OA
ATOM      9  O   UNL     1     131.796 127.795 127.095  1.00  0.00    -0.545 OA
ENDBRANCH   1   7
BRANCH   2  10
ATOM     10  O   UNL     1     127.704 126.881 127.519  1.00  0.00    -0.507 OA
ATOM     11  H   UNL     1     127.436 127.518 126.782  1.00  0.00     0.293 HD
ENDBRANCH   2  10
TORSDOF 2
ENDMDL
MODEL 3
REMARK VINA RESULT:    -5.199      4.027      4.772
REMARK INTER + INTRA:          -5.905
REMARK INTER:                  -5.665
REMARK INTRA:                  -0.240
REMARK UNBOUND:                -0.249
REMARK SMILES O=C([O-])c1ccccc1O
REMARK SMILES IDX 4 1 9 2 5 3 8 4 6 5 7 6 2 7 1 8 3 9 10 10
REMARK H PARENT 10 11
REMARK Flexibility Score: inf
ROOT
ATOM      1  C   UNL     1     129.888 125.405 127.138  1.00  0.00     0.039 A 
ATOM      2  C   UNL     1     129.460 126.757 127.081  1.00  0.00     0.124 A 
ATOM      3  C   UNL     1     131.267 125.126 127.089  1.00  0.00     0.014 A 
ATOM      4  C   UNL     1     130.412 127.783 127.042  1.00  0.00     0.047 A 
ATOM      5  C   UNL     1     132.202 126.161 127.029  1.00  0.00     0.001 A 
ATOM      6  C   UNL     1     131.777 127.488 127.016  1.00  0.00     0.004 A 
ENDROOT
BRANCH   1   7
ATOM      7  C   UNL     1     128.948 124.271 127.278  1.00  0.00     0.075 C 
ATOM      8  O   UNL     1     128.995 123.290 126.490  1.00  0.00    -0.545 OA
ATOM      9  O   UNL     1     127.952 124.310 128.247  1.00  0.00    -0.545 OA
ENDBRANCH   1   7
BRANCH   2  10
ATOM     10  O   UNL     1     128.113 127.120 127.028  1.00  0.00    -0.507 OA
ATOM     11  H   UNL     1     127.356 126.453 126.973  1.00  0.00     0.293 HD
ENDBRANCH   2  10
TORSDOF 2
ENDMDL
MODEL 4
REMARK VINA RESULT:    -5.153      4.203      4.732
REMARK INTER + INTRA:          -5.854
REMARK INTER:                  -5.636
REMARK INTRA:                  -0.219
REMARK UNBOUND:                -0.249
REMARK SMILES O=C([O-])c1ccccc1O
REMARK SMILES IDX 4 1 9 2 5 3 8 4 6 5 7 6 2 7 1 8 3 9 10 10
REMARK H PARENT 10 11
REMARK Flexibility Score: inf
ROOT
ATOM      1  C   UNL     1     130.544 125.554 126.586  1.00  0.00     0.039 A 
ATOM      2  C   UNL     1     129.671 126.421 127.293  1.00  0.00     0.124 A 
ATOM      3  C   UNL     1     130.303 124.167 126.625  1.00  0.00     0.014 A 
ATOM      4  C   UNL     1     128.559 125.891 127.961  1.00  0.00     0.047 A 
ATOM      5  C   UNL     1     129.201 123.654 127.314  1.00  0.00     0.001 A 
ATOM      6  C   UNL     1     128.325 124.515 127.972  1.00  0.00     0.004 A 
ENDROOT
BRANCH   1   7
ATOM      7  C   UNL     1     131.681 126.045 125.777  1.00  0.00     0.075 C 
ATOM      8  O   UNL     1     132.616 126.699 126.308  1.00  0.00    -0.545 OA
ATOM      9  O   UNL     1     131.694 125.845 124.402  1.00  0.00    -0.545 OA
ENDBRANCH   1   7
BRANCH   2  10
ATOM     10  O   UNL     1     129.888 127.798 127.388  1.00  0.00    -0.507 OA
ATOM     11  H   UNL     1     129.440 128.476 126.787  1.00  0.00     0.293 HD
ENDBRANCH   2  10
TORSDOF 2
ENDMDL
MODEL 5
REMARK VINA RESULT:    -5.148      1.093      2.448
REMARK INTER + INTRA:          -5.849
REMARK INTER:                  -5.643
REMARK INTRA:                  -0.207
REMARK UNBOUND:                -0.249
REMARK SMILES O=C([O-])c1ccccc1O
REMARK SMILES IDX 4 1 9 2 5 3 8 4 6 5 7 6 2 7 1 8 3 9 10 10
REMARK H PARENT 10 11
REMARK Flexibility Score: inf
ROOT
ATOM      1  C   UNL     1     129.088 127.830 124.450  1.00  0.00     0.039 A 
ATOM      2  C   UNL     1     128.518 126.586 124.073  1.00  0.00     0.124 A 
ATOM      3  C   UNL     1     129.021 128.910 123.550  1.00  0.00     0.014 A 
ATOM      4  C   UNL     1     127.850 126.474 122.847  1.00  0.00     0.047 A 
ATOM      5  C   UNL     1     128.368 128.774 122.322  1.00  0.00     0.001 A 
ATOM      6  C   UNL     1     127.775 127.562 121.975  1.00  0.00     0.004 A 
ENDROOT
BRANCH   1   7
ATOM      7  C   UNL     1     129.724 128.055 125.767  1.00  0.00     0.075 C 
ATOM      8  O   UNL     1     130.760 127.423 126.101  1.00  0.00    -0.545 OA
ATOM      9  O   UNL     1     129.140 128.924 126.682  1.00  0.00    -0.545 OA
ENDBRANCH   1   7
BRANCH   2  10
ATOM     10  O   UNL     1     128.622 125.438 124.862  1.00  0.00    -0.507 OA
ATOM     11  H   UNL     1     128.159 124.567 124.644  1.00  0.00     0.293 HD
ENDBRANCH   2  10
TORSDOF 2
ENDMDL
MODEL 6
REMARK VINA RESULT:    -5.088      2.142      4.366
REMARK INTER + INTRA:          -5.783
REMARK INTER:                  -5.559
REMARK INTRA:                  -0.224
REMARK UNBOUND:                -0.249
REMARK SMILES O=C([O-])c1ccccc1O
REMARK SMILES IDX 4 1 9 2 5 3 8 4 6 5 7 6 2 7 1 8 3 9 10 10
REMARK H PARENT 10 11
REMARK Flexibility Score: inf
ROOT
ATOM      1  C   UNL     1     129.860 127.158 125.117  1.00  0.00     0.039 A 
ATOM      2  C   UNL     1     130.939 126.253 124.943  1.00  0.00     0.124 A 
ATOM      3  C   UNL     1     129.749 127.857 126.334  1.00  0.00     0.014 A 
ATOM      4  C   UNL     1     131.901 126.120 125.952  1.00  0.00     0.047 A 
ATOM      5  C   UNL     1     130.706 127.697 127.338  1.00  0.00     0.001 A 
ATOM      6  C   UNL     1     131.786 126.837 127.144  1.00  0.00     0.004 A 
ENDROOT
BRANCH   1   7
ATOM      7  C   UNL     1     128.859 127.426 124.061  1.00  0.00     0.075 C 
ATOM      8  O   UNL     1     128.150 126.498 123.591  1.00  0.00    -0.545 OA
ATOM      9  O   UNL     1     128.739 128.703 123.525  1.00  0.00    -0.545 OA
ENDBRANCH   1   7
BRANCH   2  10
ATOM     10  O   UNL     1     131.074 125.449 123.809  1.00  0.00    -0.507 OA
ATOM     11  H   UNL     1     131.300 125.809 122.893  1.00  0.00     0.293 HD
ENDBRANCH   2  10
TORSDOF 2
ENDMDL
MODEL 7
REMARK VINA RESULT:    -5.059      3.734      5.045
REMARK INTER + INTRA:          -5.752
REMARK INTER:                  -5.539
REMARK INTRA:                  -0.213
REMARK UNBOUND:                -0.249
REMARK SMILES O=C([O-])c1ccccc1O
REMARK SMILES IDX 4 1 9 2 5 3 8 4 6 5 7 6 2 7 1 8 3 9 10 10
REMARK H PARENT 10 11
REMARK Flexibility Score: inf
ROOT
ATOM      1  C   UNL     1     128.291 124.937 127.850  1.00  0.00     0.039 A 
ATOM      2  C   UNL     1     128.642 126.060 127.056  1.00  0.00     0.124 A 
ATOM      3  C   UNL     1     129.007 123.737 127.683  1.00  0.00     0.014 A 
ATOM      4  C   UNL     1     129.726 125.972 126.172  1.00  0.00     0.047 A 
ATOM      5  C   UNL     1     130.072 123.660 126.783  1.00  0.00     0.001 A 
ATOM      6  C   UNL     1     130.437 124.779 126.036  1.00  0.00     0.004 A 
ENDROOT
BRANCH   1   7
ATOM      7  C   UNL     1     127.224 124.980 128.873  1.00  0.00     0.075 C 
ATOM      8  O   UNL     1     126.434 125.958 128.943  1.00  0.00    -0.545 OA
ATOM      9  O   UNL     1     127.125 123.966 129.819  1.00  0.00    -0.545 OA
ENDBRANCH   1   7
BRANCH   2  10
ATOM     10  O   UNL     1     127.926 127.259 127.086  1.00  0.00    -0.507 OA
ATOM     11  H   UNL     1     128.361 128.170 127.039  1.00  0.00     0.293 HD
ENDBRANCH   2  10
TORSDOF 2
ENDMDL
MODEL 8
REMARK VINA RESULT:    -4.934      4.476      5.138
REMARK INTER + INTRA:          -5.616
REMARK INTER:                  -5.364
REMARK INTRA:                  -0.252
REMARK UNBOUND:                -0.249
REMARK SMILES O=C([O-])c1ccccc1O
REMARK SMILES IDX 4 1 9 2 5 3 8 4 6 5 7 6 2 7 1 8 3 9 10 10
REMARK H PARENT 10 11
REMARK Flexibility Score: inf
ROOT
ATOM      1  C   UNL     1     129.975 125.781 127.425  1.00  0.00     0.039 A 
ATOM      2  C   UNL     1     130.771 125.397 126.314  1.00  0.00     0.124 A 
ATOM      3  C   UNL     1     130.406 126.850 128.232  1.00  0.00     0.014 A 
ATOM      4  C   UNL     1     131.929 126.123 126.008  1.00  0.00     0.047 A 
ATOM      5  C   UNL     1     131.574 127.551 127.924  1.00  0.00     0.001 A 
ATOM      6  C   UNL     1     132.330 127.195 126.808  1.00  0.00     0.004 A 
ENDROOT
BRANCH   1   7
ATOM      7  C   UNL     1     128.691 125.126 127.756  1.00  0.00     0.075 C 
ATOM      8  O   UNL     1     127.718 125.795 128.194  1.00  0.00    -0.545 OA
ATOM      9  O   UNL     1     128.566 123.746 127.649  1.00  0.00    -0.545 OA
ENDBRANCH   1   7
BRANCH   2  10
ATOM     10  O   UNL     1     130.471 124.289 125.517  1.00  0.00    -0.507 OA
ATOM     11  H   UNL     1     131.047 123.460 125.474  1.00  0.00     0.293 HD
ENDBRANCH   2  10
TORSDOF 2
ENDMDL
MODEL 9
REMARK VINA RESULT:    -4.884      4.192      5.158
REMARK INTER + INTRA:          -5.562
REMARK INTER:                  -5.320
REMARK INTRA:                  -0.243
REMARK UNBOUND:                -0.249
REMARK SMILES O=C([O-])c1ccccc1O
REMARK SMILES IDX 4 1 9 2 5 3 8 4 6 5 7 6 2 7 1 8 3 9 10 10
REMARK H PARENT 10 11
REMARK Flexibility Score: inf
ROOT
ATOM      1  C   UNL     1     130.354 125.492 126.466  1.00  0.00     0.039 A 
ATOM      2  C   UNL     1     129.920 124.141 126.470  1.00  0.00     0.124 A 
ATOM      3  C   UNL     1     129.695 126.420 127.293  1.00  0.00     0.014 A 
ATOM      4  C   UNL     1     128.894 123.746 127.338  1.00  0.00     0.047 A 
ATOM      5  C   UNL     1     128.659 126.013 128.138  1.00  0.00     0.001 A 
ATOM      6  C   UNL     1     128.265 124.677 128.167  1.00  0.00     0.004 A 
ENDROOT
BRANCH   1   7
ATOM      7  C   UNL     1     131.494 125.966 125.651  1.00  0.00     0.075 C 
ATOM      8  O   UNL     1     131.548 125.732 124.415  1.00  0.00    -0.545 OA
ATOM      9  O   UNL     1     132.559 126.620 126.259  1.00  0.00    -0.545 OA
ENDBRANCH   1   7
BRANCH   2  10
ATOM     10  O   UNL     1     130.452 123.174 125.613  1.00  0.00    -0.507 OA
ATOM     11  H   UNL     1     131.393 122.816 125.692  1.00  0.00     0.293 HD
ENDBRANCH   2  10
TORSDOF 2
ENDMDL
