MODEL 1
REMARK VINA RESULT:    -6.148      0.000      0.000
REMARK INTER + INTRA:          -9.050
REMARK INTER:                  -8.305
REMARK INTRA:                  -0.745
REMARK UNBOUND:                -0.745
REMARK SMILES O=c1c(-c2ccc(O)cc2)coc2c([C@@H]3O[C@@H](CO)[C@@H](O)[C@@H](O)[C@@H]3O)c(O)ccc12
REMARK SMILES IDX 3 1 11 2 12 3 13 4 30 5 2 6 1 7 29 8 28 9 26 10 14 11 4 12
REMARK SMILES IDX 5 13 6 14 7 15 10 16 9 17 8 18 15 20 24 21 16 22 22 23 17 24
REMARK SMILES IDX 20 25 25 26 23 28 18 30 19 31 21 33 27 35
REMARK H PARENT 8 19 25 27 23 29 19 32 21 34 27 36
REMARK Flexibility Score: inf
ROOT
ATOM      1  C   UNL     1       4.632   6.680  14.121  1.00  0.00     0.065 A 
ATOM      2  C   UNL     1       3.476   7.253  13.571  1.00  0.00     0.208 A 
ATOM      3  O   UNL     1       3.119   6.996  12.317  1.00  0.00    -0.463 OA
ATOM      4  C   UNL     1       3.814   6.197  11.511  1.00  0.00     0.147 A 
ATOM      5  C   UNL     1       5.001   5.588  11.982  1.00  0.00     0.066 A 
ATOM      6  C   UNL     1       5.409   5.840  13.304  1.00  0.00     0.200 A 
ATOM      7  O   UNL     1       6.477   5.333  13.748  1.00  0.00    -0.288 OA
ATOM      8  C   UNL     1       5.743   4.763  11.124  1.00  0.00     0.020 A 
ATOM      9  C   UNL     1       5.323   4.556   9.812  1.00  0.00     0.047 A 
ATOM     10  C   UNL     1       4.152   5.157   9.334  1.00  0.00     0.125 A 
ATOM     11  C   UNL     1       3.367   5.967  10.188  1.00  0.00     0.069 A 
ENDROOT
BRANCH   1  12
ATOM     12  C   UNL     1       5.005   6.975  15.527  1.00  0.00    -0.011 A 
ATOM     13  C   UNL     1       4.710   6.056  16.548  1.00  0.00     0.013 A 
ATOM     14  C   UNL     1       5.068   6.328  17.873  1.00  0.00     0.047 A 
ATOM     15  C   UNL     1       5.730   7.518  18.192  1.00  0.00     0.115 A 
ATOM     16  C   UNL     1       5.676   8.167  15.855  1.00  0.00     0.013 A 
ATOM     17  C   UNL     1       6.034   8.436  17.179  1.00  0.00     0.047 A 
BRANCH  15  18
ATOM     18  O   UNL     1       6.081   7.776  19.515  1.00  0.00    -0.508 OA
ATOM     19  H   UNL     1       7.015   8.080  19.765  1.00  0.00     0.293 HD
ENDBRANCH  15  18
ENDBRANCH   1  12
BRANCH  11  20
ATOM     20  C   UNL     1       2.100   6.653   9.688  1.00  0.00     0.188 C 
ATOM     21  C   UNL     1       2.460   7.926   8.896  1.00  0.00     0.179 C 
ATOM     22  O   UNL     1       1.332   5.754   8.901  1.00  0.00    -0.362 OA
ATOM     23  C   UNL     1       1.173   8.634   8.437  1.00  0.00     0.177 C 
ATOM     24  C   UNL     1       0.082   6.303   8.501  1.00  0.00     0.176 C 
ATOM     25  C   UNL     1       0.251   7.636   7.716  1.00  0.00     0.177 C 
BRANCH  21  26
ATOM     26  O   UNL     1       3.247   7.593   7.781  1.00  0.00    -0.387 OA
ATOM     27  H   UNL     1       2.704   7.798   6.974  1.00  0.00     0.211 HD
ENDBRANCH  21  26
BRANCH  23  28
ATOM     28  O   UNL     1       0.509   9.206   9.535  1.00  0.00    -0.387 OA
ATOM     29  H   UNL     1      -0.460   9.201   9.321  1.00  0.00     0.211 HD
ENDBRANCH  23  28
BRANCH  24  30
ATOM     30  C   UNL     1      -0.924   6.351   9.672  1.00  0.00     0.191 C 
BRANCH  30  31
ATOM     31  O   UNL     1      -2.058   7.089   9.305  1.00  0.00    -0.394 OA
ATOM     32  H   UNL     1      -2.769   6.845   9.953  1.00  0.00     0.210 HD
ENDBRANCH  30  31
ENDBRANCH  24  30
BRANCH  25  33
ATOM     33  O   UNL     1      -0.991   8.239   7.457  1.00  0.00    -0.388 OA
ATOM     34  H   UNL     1      -1.342   8.555   8.332  1.00  0.00     0.211 HD
ENDBRANCH  25  33
ENDBRANCH  11  20
BRANCH  10  35
ATOM     35  O   UNL     1       3.776   4.949   8.006  1.00  0.00    -0.507 OA
ATOM     36  H   UNL     1       3.932   5.650   7.291  1.00  0.00     0.293 HD
ENDBRANCH  10  35
TORSDOF 9
ENDMDL
MODEL 2
REMARK VINA RESULT:    -5.710      2.103      2.889
REMARK INTER + INTRA:          -8.458
REMARK INTER:                  -7.394
REMARK INTRA:                  -1.064
REMARK UNBOUND:                -0.745
REMARK SMILES O=c1c(-c2ccc(O)cc2)coc2c([C@@H]3O[C@@H](CO)[C@@H](O)[C@@H](O)[C@@H]3O)c(O)ccc12
REMARK SMILES IDX 3 1 11 2 12 3 13 4 30 5 2 6 1 7 29 8 28 9 26 10 14 11 4 12
REMARK SMILES IDX 5 13 6 14 7 15 10 16 9 17 8 18 15 20 24 21 16 22 22 23 17 24
REMARK SMILES IDX 20 25 25 26 23 28 18 30 19 31 21 33 27 35
REMARK H PARENT 8 19 25 27 23 29 19 32 21 34 27 36
REMARK Flexibility Score: inf
ROOT
ATOM      1  C   UNL     1       5.036   6.640  14.276  1.00  0.00     0.065 A 
ATOM      2  C   UNL     1       3.899   6.226  13.567  1.00  0.00     0.208 A 
ATOM      3  O   UNL     1       3.568   6.798  12.415  1.00  0.00    -0.463 OA
ATOM      4  C   UNL     1       4.272   7.783  11.863  1.00  0.00     0.147 A 
ATOM      5  C   UNL     1       5.427   8.271  12.517  1.00  0.00     0.066 A 
ATOM      6  C   UNL     1       5.805   7.688  13.741  1.00  0.00     0.200 A 
ATOM      7  O   UNL     1       6.815   8.118  14.364  1.00  0.00    -0.288 OA
ATOM      8  C   UNL     1       6.155   9.323  11.943  1.00  0.00     0.020 A 
ATOM      9  C   UNL     1       5.738   9.894  10.744  1.00  0.00     0.047 A 
ATOM     10  C   UNL     1       4.594   9.421  10.087  1.00  0.00     0.125 A 
ATOM     11  C   UNL     1       3.859   8.339  10.628  1.00  0.00     0.069 A 
ENDROOT
BRANCH   1  12
ATOM     12  C   UNL     1       5.390   5.979  15.557  1.00  0.00    -0.011 A 
ATOM     13  C   UNL     1       4.751   6.358  16.751  1.00  0.00     0.013 A 
ATOM     14  C   UNL     1       5.077   5.730  17.958  1.00  0.00     0.047 A 
ATOM     15  C   UNL     1       6.039   4.716  17.987  1.00  0.00     0.115 A 
ATOM     16  C   UNL     1       6.352   4.954  15.593  1.00  0.00     0.013 A 
ATOM     17  C   UNL     1       6.675   4.328  16.801  1.00  0.00     0.047 A 
BRANCH  15  18
ATOM     18  O   UNL     1       6.353   4.101  19.196  1.00  0.00    -0.508 OA
ATOM     19  H   UNL     1       6.525   3.103  19.253  1.00  0.00     0.293 HD
ENDBRANCH  15  18
ENDBRANCH   1  12
BRANCH  11  20
ATOM     20  C   UNL     1       2.597   7.820   9.949  1.00  0.00     0.188 C 
ATOM     21  C   UNL     1       1.354   8.541  10.510  1.00  0.00     0.179 C 
ATOM     22  O   UNL     1       2.695   7.978   8.541  1.00  0.00    -0.362 OA
ATOM     23  C   UNL     1       0.083   7.975   9.850  1.00  0.00     0.177 C 
ATOM     24  C   UNL     1       1.594   7.405   7.845  1.00  0.00     0.176 C 
ATOM     25  C   UNL     1       0.232   7.990   8.319  1.00  0.00     0.177 C 
BRANCH  21  26
ATOM     26  O   UNL     1       1.446   9.921  10.263  1.00  0.00    -0.387 OA
ATOM     27  H   UNL     1       2.270  10.063   9.727  1.00  0.00     0.211 HD
ENDBRANCH  21  26
BRANCH  23  28
ATOM     28  O   UNL     1      -0.165   6.669  10.303  1.00  0.00    -0.387 OA
ATOM     29  H   UNL     1       0.694   6.320  10.660  1.00  0.00     0.211 HD
ENDBRANCH  23  28
BRANCH  24  30
ATOM     30  C   UNL     1       1.674   5.863   7.813  1.00  0.00     0.191 C 
BRANCH  30  31
ATOM     31  O   UNL     1       0.771   5.352   6.872  1.00  0.00    -0.394 OA
ATOM     32  H   UNL     1       0.386   6.138   6.402  1.00  0.00     0.210 HD
ENDBRANCH  30  31
ENDBRANCH  24  30
BRANCH  25  33
ATOM     33  O   UNL     1      -0.849   7.313   7.730  1.00  0.00    -0.388 OA
ATOM     34  H   UNL     1      -1.270   7.948   7.092  1.00  0.00     0.211 HD
ENDBRANCH  25  33
ENDBRANCH  11  20
BRANCH  10  35
ATOM     35  O   UNL     1       4.188  10.035   8.902  1.00  0.00    -0.507 OA
ATOM     36  H   UNL     1       3.210  10.136   8.659  1.00  0.00     0.293 HD
ENDBRANCH  10  35
TORSDOF 9
ENDMDL
MODEL 3
REMARK VINA RESULT:    -5.398      2.952      5.486
REMARK INTER + INTRA:          -8.037
REMARK INTER:                  -7.589
REMARK INTRA:                  -0.448
REMARK UNBOUND:                -0.745
REMARK SMILES O=c1c(-c2ccc(O)cc2)coc2c([C@@H]3O[C@@H](CO)[C@@H](O)[C@@H](O)[C@@H]3O)c(O)ccc12
REMARK SMILES IDX 3 1 11 2 12 3 13 4 30 5 2 6 1 7 29 8 28 9 26 10 14 11 4 12
REMARK SMILES IDX 5 13 6 14 7 15 10 16 9 17 8 18 15 20 24 21 16 22 22 23 17 24
REMARK SMILES IDX 20 25 25 26 23 28 18 30 19 31 21 33 27 35
REMARK H PARENT 8 19 25 27 23 29 19 32 21 34 27 36
REMARK Flexibility Score: inf
ROOT
ATOM      1  C   UNL     1       5.689   3.577  10.325  1.00  0.00     0.065 A 
ATOM      2  C   UNL     1       4.468   3.855   9.695  1.00  0.00     0.208 A 
ATOM      3  O   UNL     1       3.877   5.036   9.844  1.00  0.00    -0.463 OA
ATOM      4  C   UNL     1       4.387   6.016  10.587  1.00  0.00     0.147 A 
ATOM      5  C   UNL     1       5.609   5.815  11.268  1.00  0.00     0.066 A 
ATOM      6  C   UNL     1       6.261   4.576  11.133  1.00  0.00     0.200 A 
ATOM      7  O   UNL     1       7.340   4.354  11.749  1.00  0.00    -0.288 OA
ATOM      8  C   UNL     1       6.134   6.843  12.066  1.00  0.00     0.020 A 
ATOM      9  C   UNL     1       5.450   8.048  12.198  1.00  0.00     0.047 A 
ATOM     10  C   UNL     1       4.236   8.258  11.530  1.00  0.00     0.125 A 
ATOM     11  C   UNL     1       3.702   7.250  10.693  1.00  0.00     0.069 A 
ENDROOT
BRANCH   1  12
ATOM     12  C   UNL     1       6.334   2.253  10.136  1.00  0.00    -0.011 A 
ATOM     13  C   UNL     1       6.128   1.224  11.071  1.00  0.00     0.013 A 
ATOM     14  C   UNL     1       6.727  -0.027  10.889  1.00  0.00     0.047 A 
ATOM     15  C   UNL     1       7.534  -0.266   9.773  1.00  0.00     0.115 A 
ATOM     16  C   UNL     1       7.142   2.004   9.012  1.00  0.00     0.013 A 
ATOM     17  C   UNL     1       7.739   0.753   8.834  1.00  0.00     0.047 A 
BRANCH  15  18
ATOM     18  O   UNL     1       8.125  -1.516   9.606  1.00  0.00    -0.508 OA
ATOM     19  H   UNL     1       8.937  -1.793  10.146  1.00  0.00     0.293 HD
ENDBRANCH  15  18
ENDBRANCH   1  12
BRANCH  11  20
ATOM     20  C   UNL     1       2.370   7.441   9.973  1.00  0.00     0.188 C 
ATOM     21  C   UNL     1       2.608   7.978   8.547  1.00  0.00     0.179 C 
ATOM     22  O   UNL     1       1.643   6.222   9.952  1.00  0.00    -0.362 OA
ATOM     23  C   UNL     1       1.256   8.211   7.848  1.00  0.00     0.177 C 
ATOM     24  C   UNL     1       0.342   6.367   9.395  1.00  0.00     0.176 C 
ATOM     25  C   UNL     1       0.385   6.948   7.951  1.00  0.00     0.177 C 
BRANCH  21  26
ATOM     26  O   UNL     1       3.376   7.062   7.810  1.00  0.00    -0.387 OA
ATOM     27  H   UNL     1       4.258   7.490   7.647  1.00  0.00     0.211 HD
ENDBRANCH  21  26
BRANCH  23  28
ATOM     28  O   UNL     1       0.593   9.311   8.417  1.00  0.00    -0.387 OA
ATOM     29  H   UNL     1      -0.373   9.083   8.443  1.00  0.00     0.211 HD
ENDBRANCH  23  28
BRANCH  24  30
ATOM     30  C   UNL     1      -0.622   7.084  10.365  1.00  0.00     0.191 C 
BRANCH  30  31
ATOM     31  O   UNL     1      -1.939   6.992   9.893  1.00  0.00    -0.394 OA
ATOM     32  H   UNL     1      -2.203   6.040   9.991  1.00  0.00     0.210 HD
ENDBRANCH  30  31
ENDBRANCH  24  30
BRANCH  25  33
ATOM     33  O   UNL     1      -0.906   7.223   7.471  1.00  0.00    -0.388 OA
ATOM     34  H   UNL     1      -0.798   7.825   6.688  1.00  0.00     0.211 HD
ENDBRANCH  25  33
ENDBRANCH  11  20
BRANCH  10  35
ATOM     35  O   UNL     1       3.563   9.468  11.708  1.00  0.00    -0.507 OA
ATOM     36  H   UNL     1       2.687   9.665  11.240  1.00  0.00     0.293 HD
ENDBRANCH  10  35
TORSDOF 9
ENDMDL
MODEL 4
REMARK VINA RESULT:    -5.281     17.331     19.816
REMARK INTER + INTRA:          -7.878
REMARK INTER:                  -6.736
REMARK INTRA:                  -1.142
REMARK UNBOUND:                -0.745
REMARK SMILES O=c1c(-c2ccc(O)cc2)coc2c([C@@H]3O[C@@H](CO)[C@@H](O)[C@@H](O)[C@@H]3O)c(O)ccc12
REMARK SMILES IDX 3 1 11 2 12 3 13 4 30 5 2 6 1 7 29 8 28 9 26 10 14 11 4 12
REMARK SMILES IDX 5 13 6 14 7 15 10 16 9 17 8 18 15 20 24 21 16 22 22 23 17 24
REMARK SMILES IDX 20 25 25 26 23 28 18 30 19 31 21 33 27 35
REMARK H PARENT 8 19 25 27 23 29 19 32 21 34 27 36
REMARK Flexibility Score: inf
ROOT
ATOM      1  C   UNL     1     -10.261  -7.867  16.038  1.00  0.00     0.065 A 
ATOM      2  C   UNL     1      -9.296  -8.273  15.104  1.00  0.00     0.208 A 
ATOM      3  O   UNL     1      -9.276  -7.762  13.879  1.00  0.00    -0.463 OA
ATOM      4  C   UNL     1     -10.150  -6.851  13.455  1.00  0.00     0.147 A 
ATOM      5  C   UNL     1     -11.165  -6.395  14.328  1.00  0.00     0.066 A 
ATOM      6  C   UNL     1     -11.216  -6.917  15.633  1.00  0.00     0.200 A 
ATOM      7  O   UNL     1     -12.125  -6.552  16.429  1.00  0.00    -0.288 OA
ATOM      8  C   UNL     1     -12.098  -5.452  13.873  1.00  0.00     0.020 A 
ATOM      9  C   UNL     1     -12.033  -4.975  12.566  1.00  0.00     0.047 A 
ATOM     10  C   UNL     1     -11.034  -5.421  11.691  1.00  0.00     0.125 A 
ATOM     11  C   UNL     1     -10.062  -6.349  12.135  1.00  0.00     0.069 A 
ENDROOT
BRANCH   1  12
ATOM     12  C   UNL     1     -10.257  -8.446  17.404  1.00  0.00    -0.011 A 
ATOM     13  C   UNL     1      -9.501  -7.846  18.427  1.00  0.00     0.013 A 
ATOM     14  C   UNL     1      -9.503  -8.385  19.718  1.00  0.00     0.047 A 
ATOM     15  C   UNL     1     -10.260  -9.524  20.004  1.00  0.00     0.115 A 
ATOM     16  C   UNL     1     -11.021  -9.588  17.701  1.00  0.00     0.013 A 
ATOM     17  C   UNL     1     -11.021 -10.124  18.992  1.00  0.00     0.047 A 
BRANCH  15  18
ATOM     18  O   UNL     1     -10.252 -10.050  21.294  1.00  0.00    -0.508 OA
ATOM     19  H   UNL     1      -9.945  -9.499  22.087  1.00  0.00     0.293 HD
ENDBRANCH  15  18
ENDBRANCH   1  12
BRANCH  11  20
ATOM     20  C   UNL     1      -8.977  -6.870  11.198  1.00  0.00     0.188 C 
ATOM     21  C   UNL     1      -9.514  -8.053  10.367  1.00  0.00     0.179 C 
ATOM     22  O   UNL     1      -8.504  -5.824  10.363  1.00  0.00    -0.362 OA
ATOM     23  C   UNL     1      -8.397  -8.600   9.460  1.00  0.00     0.177 C 
ATOM     24  C   UNL     1      -7.410  -6.224   9.546  1.00  0.00     0.176 C 
ATOM     25  C   UNL     1      -7.760  -7.453   8.657  1.00  0.00     0.177 C 
BRANCH  21  26
ATOM     26  O   UNL     1     -10.604  -7.637   9.585  1.00  0.00    -0.387 OA
ATOM     27  H   UNL     1     -11.426  -7.830  10.109  1.00  0.00     0.211 HD
ENDBRANCH  21  26
BRANCH  23  28
ATOM     28  O   UNL     1      -7.422  -9.260  10.226  1.00  0.00    -0.387 OA
ATOM     29  H   UNL     1      -6.542  -8.886   9.957  1.00  0.00     0.211 HD
ENDBRANCH  23  28
BRANCH  24  30
ATOM     30  C   UNL     1      -6.103  -6.350  10.358  1.00  0.00     0.191 C 
BRANCH  30  31
ATOM     31  O   UNL     1      -5.015  -5.906   9.595  1.00  0.00    -0.394 OA
ATOM     32  H   UNL     1      -4.859  -4.961   9.857  1.00  0.00     0.210 HD
ENDBRANCH  30  31
ENDBRANCH  24  30
BRANCH  25  33
ATOM     33  O   UNL     1      -6.631  -7.926   7.968  1.00  0.00    -0.388 OA
ATOM     34  H   UNL     1      -6.676  -8.918   7.993  1.00  0.00     0.211 HD
ENDBRANCH  25  33
ENDBRANCH  11  20
BRANCH  10  35
ATOM     35  O   UNL     1     -11.017  -4.944  10.380  1.00  0.00    -0.507 OA
ATOM     36  H   UNL     1     -11.031  -3.953  10.172  1.00  0.00     0.293 HD
ENDBRANCH  10  35
TORSDOF 9
ENDMDL
MODEL 5
REMARK VINA RESULT:    -5.167      2.159      3.868
REMARK INTER + INTRA:          -7.725
REMARK INTER:                  -6.914
REMARK INTRA:                  -0.811
REMARK UNBOUND:                -0.745
REMARK SMILES O=c1c(-c2ccc(O)cc2)coc2c([C@@H]3O[C@@H](CO)[C@@H](O)[C@@H](O)[C@@H]3O)c(O)ccc12
REMARK SMILES IDX 3 1 11 2 12 3 13 4 30 5 2 6 1 7 29 8 28 9 26 10 14 11 4 12
REMARK SMILES IDX 5 13 6 14 7 15 10 16 9 17 8 18 15 20 24 21 16 22 22 23 17 24
REMARK SMILES IDX 20 25 25 26 23 28 18 30 19 31 21 33 27 35
REMARK H PARENT 8 19 25 27 23 29 19 32 21 34 27 36
REMARK Flexibility Score: inf
ROOT
ATOM      1  C   UNL     1       4.847   6.358  14.378  1.00  0.00     0.065 A 
ATOM      2  C   UNL     1       4.685   5.796  13.104  1.00  0.00     0.208 A 
ATOM      3  O   UNL     1       4.011   6.439  12.156  1.00  0.00    -0.463 OA
ATOM      4  C   UNL     1       3.452   7.632  12.342  1.00  0.00     0.147 A 
ATOM      5  C   UNL     1       3.555   8.265  13.603  1.00  0.00     0.066 A 
ATOM      6  C   UNL     1       4.261   7.611  14.630  1.00  0.00     0.200 A 
ATOM      7  O   UNL     1       4.349   8.136  15.774  1.00  0.00    -0.288 OA
ATOM      8  C   UNL     1       2.947   9.513  13.803  1.00  0.00     0.020 A 
ATOM      9  C   UNL     1       2.235  10.120  12.772  1.00  0.00     0.047 A 
ATOM     10  C   UNL     1       2.123   9.501  11.520  1.00  0.00     0.125 A 
ATOM     11  C   UNL     1       2.754   8.257  11.282  1.00  0.00     0.069 A 
ENDROOT
BRANCH   1  12
ATOM     12  C   UNL     1       5.611   5.624  15.418  1.00  0.00    -0.011 A 
ATOM     13  C   UNL     1       6.905   5.147  15.143  1.00  0.00     0.013 A 
ATOM     14  C   UNL     1       7.631   4.463  16.124  1.00  0.00     0.047 A 
ATOM     15  C   UNL     1       7.077   4.251  17.390  1.00  0.00     0.115 A 
ATOM     16  C   UNL     1       5.063   5.413  16.696  1.00  0.00     0.013 A 
ATOM     17  C   UNL     1       5.791   4.730  17.674  1.00  0.00     0.047 A 
BRANCH  15  18
ATOM     18  O   UNL     1       7.811   3.568  18.356  1.00  0.00    -0.508 OA
ATOM     19  H   UNL     1       7.953   3.954  19.283  1.00  0.00     0.293 HD
ENDBRANCH  15  18
ENDBRANCH   1  12
BRANCH  11  20
ATOM     20  C   UNL     1       2.629   7.549   9.937  1.00  0.00     0.188 C 
ATOM     21  C   UNL     1       1.352   6.685   9.906  1.00  0.00     0.179 C 
ATOM     22  O   UNL     1       2.638   8.497   8.879  1.00  0.00    -0.362 OA
ATOM     23  C   UNL     1       1.262   5.940   8.561  1.00  0.00     0.177 C 
ATOM     24  C   UNL     1       2.640   7.887   7.594  1.00  0.00     0.176 C 
ATOM     25  C   UNL     1       1.428   6.930   7.397  1.00  0.00     0.177 C 
BRANCH  21  26
ATOM     26  O   UNL     1       0.218   7.496  10.080  1.00  0.00    -0.387 OA
ATOM     27  H   UNL     1      -0.007   7.473  11.047  1.00  0.00     0.211 HD
ENDBRANCH  21  26
BRANCH  23  28
ATOM     28  O   UNL     1       2.241   4.935   8.492  1.00  0.00    -0.387 OA
ATOM     29  H   UNL     1       2.236   4.592   7.559  1.00  0.00     0.211 HD
ENDBRANCH  23  28
BRANCH  24  30
ATOM     30  C   UNL     1       4.019   7.284   7.247  1.00  0.00     0.191 C 
BRANCH  30  31
ATOM     31  O   UNL     1       4.273   7.417   5.875  1.00  0.00    -0.394 OA
ATOM     32  H   UNL     1       3.654   8.120   5.546  1.00  0.00     0.210 HD
ENDBRANCH  30  31
ENDBRANCH  24  30
BRANCH  25  33
ATOM     33  O   UNL     1       1.523   6.226   6.185  1.00  0.00    -0.388 OA
ATOM     34  H   UNL     1       2.458   6.332   5.866  1.00  0.00     0.211 HD
ENDBRANCH  25  33
ENDBRANCH  11  20
BRANCH  10  35
ATOM     35  O   UNL     1       1.377  10.125  10.518  1.00  0.00    -0.507 OA
ATOM     36  H   UNL     1       1.545   9.944   9.536  1.00  0.00     0.293 HD
ENDBRANCH  10  35
TORSDOF 9
ENDMDL
MODEL 6
REMARK VINA RESULT:    -5.040      1.411      8.340
REMARK INTER + INTRA:          -7.554
REMARK INTER:                  -6.567
REMARK INTRA:                  -0.987
REMARK UNBOUND:                -0.745
REMARK SMILES O=c1c(-c2ccc(O)cc2)coc2c([C@@H]3O[C@@H](CO)[C@@H](O)[C@@H](O)[C@@H]3O)c(O)ccc12
REMARK SMILES IDX 3 1 11 2 12 3 13 4 30 5 2 6 1 7 29 8 28 9 26 10 14 11 4 12
REMARK SMILES IDX 5 13 6 14 7 15 10 16 9 17 8 18 15 20 24 21 16 22 22 23 17 24
REMARK SMILES IDX 20 25 25 26 23 28 18 30 19 31 21 33 27 35
REMARK H PARENT 8 19 25 27 23 29 19 32 21 34 27 36
REMARK Flexibility Score: inf
ROOT
ATOM      1  C   UNL     1       2.985   6.673  10.984  1.00  0.00     0.065 A 
ATOM      2  C   UNL     1       2.950   7.170  12.295  1.00  0.00     0.208 A 
ATOM      3  O   UNL     1       3.935   6.914  13.148  1.00  0.00    -0.463 OA
ATOM      4  C   UNL     1       5.001   6.183  12.831  1.00  0.00     0.147 A 
ATOM      5  C   UNL     1       5.111   5.632  11.533  1.00  0.00     0.066 A 
ATOM      6  C   UNL     1       4.084   5.883  10.605  1.00  0.00     0.200 A 
ATOM      7  O   UNL     1       4.138   5.384   9.447  1.00  0.00    -0.288 OA
ATOM      8  C   UNL     1       6.225   4.845  11.207  1.00  0.00     0.020 A 
ATOM      9  C   UNL     1       7.211   4.596  12.159  1.00  0.00     0.047 A 
ATOM     10  C   UNL     1       7.112   5.134  13.449  1.00  0.00     0.125 A 
ATOM     11  C   UNL     1       6.014   5.958  13.793  1.00  0.00     0.069 A 
ENDROOT
BRANCH   1  12
ATOM     12  C   UNL     1       1.876   6.981  10.047  1.00  0.00    -0.011 A 
ATOM     13  C   UNL     1       2.087   7.842   8.956  1.00  0.00     0.013 A 
ATOM     14  C   UNL     1       1.046   8.126   8.066  1.00  0.00     0.047 A 
ATOM     15  C   UNL     1      -0.215   7.552   8.252  1.00  0.00     0.115 A 
ATOM     16  C   UNL     1       0.606   6.402  10.224  1.00  0.00     0.013 A 
ATOM     17  C   UNL     1      -0.432   6.688   9.333  1.00  0.00     0.047 A 
BRANCH  15  18
ATOM     18  O   UNL     1      -1.243   7.844   7.358  1.00  0.00    -0.508 OA
ATOM     19  H   UNL     1      -1.637   8.776   7.293  1.00  0.00     0.293 HD
ENDBRANCH  15  18
ENDBRANCH   1  12
BRANCH  11  20
ATOM     20  C   UNL     1       5.868   6.538  15.196  1.00  0.00     0.188 C 
ATOM     21  C   UNL     1       5.307   5.471  16.158  1.00  0.00     0.179 C 
ATOM     22  O   UNL     1       7.114   7.042  15.653  1.00  0.00    -0.362 OA
ATOM     23  C   UNL     1       5.119   6.081  17.559  1.00  0.00     0.177 C 
ATOM     24  C   UNL     1       7.014   7.700  16.910  1.00  0.00     0.176 C 
ATOM     25  C   UNL     1       6.417   6.774  18.010  1.00  0.00     0.177 C 
BRANCH  21  26
ATOM     26  O   UNL     1       6.185   4.376  16.227  1.00  0.00    -0.387 OA
ATOM     27  H   UNL     1       6.521   4.335  17.161  1.00  0.00     0.211 HD
ENDBRANCH  21  26
BRANCH  23  28
ATOM     28  O   UNL     1       4.053   6.995  17.557  1.00  0.00    -0.387 OA
ATOM     29  H   UNL     1       4.240   7.655  16.839  1.00  0.00     0.211 HD
ENDBRANCH  23  28
BRANCH  24  30
ATOM     30  C   UNL     1       6.346   9.086  16.782  1.00  0.00     0.191 C 
BRANCH  30  31
ATOM     31  O   UNL     1       6.737   9.911  17.845  1.00  0.00    -0.394 OA
ATOM     32  H   UNL     1       6.018  10.588  17.950  1.00  0.00     0.210 HD
ENDBRANCH  30  31
ENDBRANCH  24  30
BRANCH  25  33
ATOM     33  O   UNL     1       6.188   7.478  19.204  1.00  0.00    -0.388 OA
ATOM     34  H   UNL     1       5.938   6.804  19.890  1.00  0.00     0.211 HD
ENDBRANCH  25  33
ENDBRANCH  11  20
BRANCH  10  35
ATOM     35  O   UNL     1       8.104   4.841  14.385  1.00  0.00    -0.507 OA
ATOM     36  H   UNL     1       8.284   5.443  15.179  1.00  0.00     0.293 HD
ENDBRANCH  10  35
TORSDOF 9
ENDMDL
MODEL 7
REMARK VINA RESULT:    -4.768      2.217      8.581
REMARK INTER + INTRA:          -7.186
REMARK INTER:                  -6.599
REMARK INTRA:                  -0.587
REMARK UNBOUND:                -0.745
REMARK SMILES O=c1c(-c2ccc(O)cc2)coc2c([C@@H]3O[C@@H](CO)[C@@H](O)[C@@H](O)[C@@H]3O)c(O)ccc12
REMARK SMILES IDX 3 1 11 2 12 3 13 4 30 5 2 6 1 7 29 8 28 9 26 10 14 11 4 12
REMARK SMILES IDX 5 13 6 14 7 15 10 16 9 17 8 18 15 20 24 21 16 22 22 23 17 24
REMARK SMILES IDX 20 25 25 26 23 28 18 30 19 31 21 33 27 35
REMARK H PARENT 8 19 25 27 23 29 19 32 21 34 27 36
REMARK Flexibility Score: inf
ROOT
ATOM      1  C   UNL     1       3.041   7.369  11.413  1.00  0.00     0.065 A 
ATOM      2  C   UNL     1       3.149   6.621  12.594  1.00  0.00     0.208 A 
ATOM      3  O   UNL     1       4.129   6.852  13.460  1.00  0.00    -0.463 OA
ATOM      4  C   UNL     1       5.059   7.786  13.275  1.00  0.00     0.147 A 
ATOM      5  C   UNL     1       5.032   8.578  12.103  1.00  0.00     0.066 A 
ATOM      6  C   UNL     1       4.009   8.358  11.164  1.00  0.00     0.200 A 
ATOM      7  O   UNL     1       3.971   9.029  10.096  1.00  0.00    -0.288 OA
ATOM      8  C   UNL     1       6.026   9.548  11.900  1.00  0.00     0.020 A 
ATOM      9  C   UNL     1       7.039   9.721  12.839  1.00  0.00     0.047 A 
ATOM     10  C   UNL     1       7.078   8.941  14.002  1.00  0.00     0.125 A 
ATOM     11  C   UNL     1       6.070   7.978  14.246  1.00  0.00     0.069 A 
ENDROOT
BRANCH   1  12
ATOM     12  C   UNL     1       1.931   7.098  10.465  1.00  0.00    -0.011 A 
ATOM     13  C   UNL     1       0.619   7.493  10.777  1.00  0.00     0.013 A 
ATOM     14  C   UNL     1      -0.427   7.246   9.881  1.00  0.00     0.047 A 
ATOM     15  C   UNL     1      -0.175   6.607   8.664  1.00  0.00     0.115 A 
ATOM     16  C   UNL     1       2.178   6.461   9.236  1.00  0.00     0.013 A 
ATOM     17  C   UNL     1       1.131   6.216   8.342  1.00  0.00     0.047 A 
BRANCH  15  18
ATOM     18  O   UNL     1      -1.226   6.367   7.782  1.00  0.00    -0.508 OA
ATOM     19  H   UNL     1      -2.187   6.566   8.038  1.00  0.00     0.293 HD
ENDBRANCH  15  18
ENDBRANCH   1  12
BRANCH  11  20
ATOM     20  C   UNL     1       6.100   7.097  15.491  1.00  0.00     0.188 C 
ATOM     21  C   UNL     1       6.652   5.700  15.143  1.00  0.00     0.179 C 
ATOM     22  O   UNL     1       6.867   7.717  16.513  1.00  0.00    -0.362 OA
ATOM     23  C   UNL     1       6.633   4.807  16.397  1.00  0.00     0.177 C 
ATOM     24  C   UNL     1       6.836   6.995  17.738  1.00  0.00     0.176 C 
ATOM     25  C   UNL     1       7.324   5.526  17.567  1.00  0.00     0.177 C 
BRANCH  21  26
ATOM     26  O   UNL     1       7.964   5.809  14.653  1.00  0.00    -0.387 OA
ATOM     27  H   UNL     1       8.196   4.930  14.252  1.00  0.00     0.211 HD
ENDBRANCH  21  26
BRANCH  23  28
ATOM     28  O   UNL     1       5.313   4.471  16.740  1.00  0.00    -0.387 OA
ATOM     29  H   UNL     1       5.261   4.485  17.732  1.00  0.00     0.211 HD
ENDBRANCH  23  28
BRANCH  24  30
ATOM     30  C   UNL     1       5.483   7.158  18.467  1.00  0.00     0.191 C 
BRANCH  30  31
ATOM     31  O   UNL     1       5.478   8.342  19.216  1.00  0.00    -0.394 OA
ATOM     32  H   UNL     1       6.295   8.317  19.780  1.00  0.00     0.210 HD
ENDBRANCH  30  31
ENDBRANCH  24  30
BRANCH  25  33
ATOM     33  O   UNL     1       7.149   4.787  18.749  1.00  0.00    -0.388 OA
ATOM     34  H   UNL     1       8.025   4.367  18.955  1.00  0.00     0.211 HD
ENDBRANCH  25  33
ENDBRANCH  11  20
BRANCH  10  35
ATOM     35  O   UNL     1       8.125   9.122  14.907  1.00  0.00    -0.507 OA
ATOM     36  H   UNL     1       9.089   9.191  14.603  1.00  0.00     0.293 HD
ENDBRANCH  10  35
TORSDOF 9
ENDMDL
MODEL 8
REMARK VINA RESULT:    -4.739      2.237      4.169
REMARK INTER + INTRA:          -7.147
REMARK INTER:                  -6.003
REMARK INTRA:                  -1.144
REMARK UNBOUND:                -0.745
REMARK SMILES O=c1c(-c2ccc(O)cc2)coc2c([C@@H]3O[C@@H](CO)[C@@H](O)[C@@H](O)[C@@H]3O)c(O)ccc12
REMARK SMILES IDX 3 1 11 2 12 3 13 4 30 5 2 6 1 7 29 8 28 9 26 10 14 11 4 12
REMARK SMILES IDX 5 13 6 14 7 15 10 16 9 17 8 18 15 20 24 21 16 22 22 23 17 24
REMARK SMILES IDX 20 25 25 26 23 28 18 30 19 31 21 33 27 35
REMARK H PARENT 8 19 25 27 23 29 19 32 21 34 27 36
REMARK Flexibility Score: inf
ROOT
ATOM      1  C   UNL     1       5.201   6.464  14.860  1.00  0.00     0.065 A 
ATOM      2  C   UNL     1       5.454   5.645  13.750  1.00  0.00     0.208 A 
ATOM      3  O   UNL     1       4.936   5.931  12.560  1.00  0.00    -0.463 OA
ATOM      4  C   UNL     1       4.158   6.987  12.339  1.00  0.00     0.147 A 
ATOM      5  C   UNL     1       3.841   7.859  13.407  1.00  0.00     0.066 A 
ATOM      6  C   UNL     1       4.371   7.585  14.681  1.00  0.00     0.200 A 
ATOM      7  O   UNL     1       4.087   8.328  15.661  1.00  0.00    -0.288 OA
ATOM      8  C   UNL     1       3.003   8.960  13.177  1.00  0.00     0.020 A 
ATOM      9  C   UNL     1       2.475   9.187  11.908  1.00  0.00     0.047 A 
ATOM     10  C   UNL     1       2.779   8.329  10.844  1.00  0.00     0.125 A 
ATOM     11  C   UNL     1       3.647   7.230  11.042  1.00  0.00     0.069 A 
ENDROOT
BRANCH   1  12
ATOM     12  C   UNL     1       5.798   6.129  16.177  1.00  0.00    -0.011 A 
ATOM     13  C   UNL     1       7.031   6.685  16.559  1.00  0.00     0.013 A 
ATOM     14  C   UNL     1       7.592   6.377  17.803  1.00  0.00     0.047 A 
ATOM     15  C   UNL     1       6.926   5.516  18.681  1.00  0.00     0.115 A 
ATOM     16  C   UNL     1       5.132   5.268  17.068  1.00  0.00     0.013 A 
ATOM     17  C   UNL     1       5.694   4.963  18.311  1.00  0.00     0.047 A 
BRANCH  15  18
ATOM     18  O   UNL     1       7.497   5.218  19.916  1.00  0.00    -0.508 OA
ATOM     19  H   UNL     1       7.718   4.265  20.181  1.00  0.00     0.293 HD
ENDBRANCH  15  18
ENDBRANCH   1  12
BRANCH  11  20
ATOM     20  C   UNL     1       3.977   6.265   9.907  1.00  0.00     0.188 C 
ATOM     21  C   UNL     1       2.847   5.227   9.745  1.00  0.00     0.179 C 
ATOM     22  O   UNL     1       4.198   6.981   8.701  1.00  0.00    -0.362 OA
ATOM     23  C   UNL     1       3.213   4.232   8.629  1.00  0.00     0.177 C 
ATOM     24  C   UNL     1       4.623   6.142   7.634  1.00  0.00     0.176 C 
ATOM     25  C   UNL     1       3.611   4.993   7.353  1.00  0.00     0.177 C 
BRANCH  21  26
ATOM     26  O   UNL     1       1.640   5.875   9.432  1.00  0.00    -0.387 OA
ATOM     27  H   UNL     1       1.759   6.833   9.664  1.00  0.00     0.211 HD
ENDBRANCH  21  26
BRANCH  23  28
ATOM     28  O   UNL     1       4.260   3.393   9.044  1.00  0.00    -0.387 OA
ATOM     29  H   UNL     1       4.860   3.941   9.613  1.00  0.00     0.211 HD
ENDBRANCH  23  28
BRANCH  24  30
ATOM     30  C   UNL     1       6.093   5.700   7.800  1.00  0.00     0.191 C 
BRANCH  30  31
ATOM     31  O   UNL     1       6.645   5.377   6.553  1.00  0.00    -0.394 OA
ATOM     32  H   UNL     1       6.583   6.200   6.001  1.00  0.00     0.210 HD
ENDBRANCH  30  31
ENDBRANCH  24  30
BRANCH  25  33
ATOM     33  O   UNL     1       4.111   4.091   6.399  1.00  0.00    -0.388 OA
ATOM     34  H   UNL     1       4.060   4.549   5.519  1.00  0.00     0.211 HD
ENDBRANCH  25  33
ENDBRANCH  11  20
BRANCH  10  35
ATOM     35  O   UNL     1       2.209   8.571   9.593  1.00  0.00    -0.507 OA
ATOM     36  H   UNL     1       1.211   8.700   9.476  1.00  0.00     0.293 HD
ENDBRANCH  10  35
TORSDOF 9
ENDMDL
