MODEL 1
REMARK VINA RESULT:    -4.587      0.000      0.000
REMARK INTER + INTRA:          -5.839
REMARK INTER:                  -5.660
REMARK INTRA:                  -0.179
REMARK UNBOUND:                -0.179
REMARK SMILES C=CC[C@H](C)C(=O)CC
REMARK SMILES IDX 4 1 5 2 6 3 7 4 8 5 9 6 3 7 2 8 1 9
REMARK H PARENT
REMARK Flexibility Score: inf
ROOT
ATOM      1  C   UNL     1     -13.240 -33.140  29.310  1.00  0.00     0.057 C 
ATOM      2  C   UNL     1     -14.075 -32.059  28.610  1.00  0.00     0.016 C 
ENDROOT
BRANCH   1   3
ATOM      3  C   UNL     1     -13.098 -34.372  28.438  1.00  0.00     0.135 C 
ATOM      4  O   UNL     1     -12.997 -35.477  28.954  1.00  0.00    -0.299 OA
BRANCH   3   5
ATOM      5  C   UNL     1     -13.087 -34.265  26.936  1.00  0.00     0.072 C 
ATOM      6  C   UNL     1     -11.717 -34.636  26.378  1.00  0.00     0.012 C 
ENDBRANCH   3   5
ENDBRANCH   1   3
BRANCH   1   7
ATOM      7  C   UNL     1     -13.791 -33.494  30.707  1.00  0.00     0.038 C 
BRANCH   7   8
ATOM      8  C   UNL     1     -14.746 -32.464  31.255  1.00  0.00    -0.034 C 
ATOM      9  C   UNL     1     -15.216 -32.533  32.504  1.00  0.00     0.004 C 
ENDBRANCH   7   8
ENDBRANCH   1   7
TORSDOF 4
ENDMDL
MODEL 2
REMARK VINA RESULT:    -4.420      2.090      2.937
REMARK INTER + INTRA:          -5.632
REMARK INTER:                  -5.396
REMARK INTRA:                  -0.236
REMARK UNBOUND:                -0.179
REMARK SMILES C=CC[C@H](C)C(=O)CC
REMARK SMILES IDX 4 1 5 2 6 3 7 4 8 5 9 6 3 7 2 8 1 9
REMARK H PARENT
REMARK Flexibility Score: inf
ROOT
ATOM      1  C   UNL     1     -12.843 -34.089  30.680  1.00  0.00     0.057 C 
ATOM      2  C   UNL     1     -13.268 -33.258  29.461  1.00  0.00     0.016 C 
ENDROOT
BRANCH   1   3
ATOM      3  C   UNL     1     -13.134 -35.562  30.468  1.00  0.00     0.135 C 
ATOM      4  O   UNL     1     -13.159 -36.021  29.335  1.00  0.00    -0.299 OA
BRANCH   3   5
ATOM      5  C   UNL     1     -13.386 -36.481  31.634  1.00  0.00     0.072 C 
ATOM      6  C   UNL     1     -12.901 -37.893  31.322  1.00  0.00     0.012 C 
ENDBRANCH   3   5
ENDBRANCH   1   3
BRANCH   1   7
ATOM      7  C   UNL     1     -13.469 -33.569  31.991  1.00  0.00     0.038 C 
BRANCH   7   8
ATOM      8  C   UNL     1     -14.688 -32.709  31.775  1.00  0.00    -0.034 C 
ATOM      9  C   UNL     1     -15.682 -32.658  32.667  1.00  0.00     0.004 C 
ENDBRANCH   7   8
ENDBRANCH   1   7
TORSDOF 4
ENDMDL
MODEL 3
REMARK VINA RESULT:    -4.402      2.733      3.815
REMARK INTER + INTRA:          -5.610
REMARK INTER:                  -5.338
REMARK INTRA:                  -0.273
REMARK UNBOUND:                -0.179
REMARK SMILES C=CC[C@H](C)C(=O)CC
REMARK SMILES IDX 4 1 5 2 6 3 7 4 8 5 9 6 3 7 2 8 1 9
REMARK H PARENT
REMARK Flexibility Score: inf
ROOT
ATOM      1  C   UNL     1     -12.688 -34.463  31.475  1.00  0.00     0.057 C 
ATOM      2  C   UNL     1     -11.920 -33.766  32.608  1.00  0.00     0.016 C 
ENDROOT
BRANCH   1   3
ATOM      3  C   UNL     1     -13.549 -33.476  30.710  1.00  0.00     0.135 C 
ATOM      4  O   UNL     1     -14.500 -32.941  31.262  1.00  0.00    -0.299 OA
BRANCH   3   5
ATOM      5  C   UNL     1     -13.248 -33.132  29.275  1.00  0.00     0.072 C 
ATOM      6  C   UNL     1     -11.777 -33.377  28.959  1.00  0.00     0.012 C 
ENDBRANCH   3   5
ENDBRANCH   1   3
BRANCH   1   7
ATOM      7  C   UNL     1     -13.513 -35.665  31.978  1.00  0.00     0.038 C 
BRANCH   7   8
ATOM      8  C   UNL     1     -13.280 -36.927  31.187  1.00  0.00    -0.034 C 
ATOM      9  C   UNL     1     -12.557 -37.941  31.674  1.00  0.00     0.004 C 
ENDBRANCH   7   8
ENDBRANCH   1   7
TORSDOF 4
ENDMDL
MODEL 4
REMARK VINA RESULT:    -4.393      1.127      4.420
REMARK INTER + INTRA:          -5.599
REMARK INTER:                  -5.384
REMARK INTRA:                  -0.215
REMARK UNBOUND:                -0.179
REMARK SMILES C=CC[C@H](C)C(=O)CC
REMARK SMILES IDX 4 1 5 2 6 3 7 4 8 5 9 6 3 7 2 8 1 9
REMARK H PARENT
REMARK Flexibility Score: inf
ROOT
ATOM      1  C   UNL     1     -12.589 -33.358  29.278  1.00  0.00     0.057 C 
ATOM      2  C   UNL     1     -11.062 -33.312  29.439  1.00  0.00     0.016 C 
ENDROOT
BRANCH   1   3
ATOM      3  C   UNL     1     -13.234 -34.152  30.397  1.00  0.00     0.135 C 
ATOM      4  O   UNL     1     -13.270 -35.373  30.336  1.00  0.00    -0.299 OA
BRANCH   3   5
ATOM      5  C   UNL     1     -13.827 -33.463  31.598  1.00  0.00     0.072 C 
ATOM      6  C   UNL     1     -14.783 -32.356  31.166  1.00  0.00     0.012 C 
ENDBRANCH   3   5
ENDBRANCH   1   3
BRANCH   1   7
ATOM      7  C   UNL     1     -13.016 -33.881  27.891  1.00  0.00     0.038 C 
BRANCH   7   8
ATOM      8  C   UNL     1     -11.993 -34.780  27.246  1.00  0.00    -0.034 C 
ATOM      9  C   UNL     1     -11.603 -34.609  25.979  1.00  0.00     0.004 C 
ENDBRANCH   7   8
ENDBRANCH   1   7
TORSDOF 4
ENDMDL
MODEL 5
REMARK VINA RESULT:    -4.367      1.849      2.666
REMARK INTER + INTRA:          -5.567
REMARK INTER:                  -5.245
REMARK INTRA:                  -0.322
REMARK UNBOUND:                -0.179
REMARK SMILES C=CC[C@H](C)C(=O)CC
REMARK SMILES IDX 4 1 5 2 6 3 7 4 8 5 9 6 3 7 2 8 1 9
REMARK H PARENT
REMARK Flexibility Score: inf
ROOT
ATOM      1  C   UNL     1     -13.231 -34.363  30.987  1.00  0.00     0.057 C 
ATOM      2  C   UNL     1     -13.006 -35.853  31.278  1.00  0.00     0.016 C 
ENDROOT
BRANCH   1   3
ATOM      3  C   UNL     1     -12.020 -33.747  30.314  1.00  0.00     0.135 C 
ATOM      4  O   UNL     1     -10.987 -33.586  30.949  1.00  0.00    -0.299 OA
BRANCH   3   5
ATOM      5  C   UNL     1     -12.059 -33.336  28.866  1.00  0.00     0.072 C 
ATOM      6  C   UNL     1     -13.417 -32.739  28.512  1.00  0.00     0.012 C 
ENDBRANCH   3   5
ENDBRANCH   1   3
BRANCH   1   7
ATOM      7  C   UNL     1     -13.643 -33.574  32.247  1.00  0.00     0.038 C 
BRANCH   7   8
ATOM      8  C   UNL     1     -14.820 -32.658  32.025  1.00  0.00    -0.034 C 
ATOM      9  C   UNL     1     -15.925 -32.736  32.774  1.00  0.00     0.004 C 
ENDBRANCH   7   8
ENDBRANCH   1   7
TORSDOF 4
ENDMDL
MODEL 6
REMARK VINA RESULT:    -4.338      1.870      3.960
REMARK INTER + INTRA:          -5.531
REMARK INTER:                  -5.113
REMARK INTRA:                  -0.419
REMARK UNBOUND:                -0.179
REMARK SMILES C=CC[C@H](C)C(=O)CC
REMARK SMILES IDX 4 1 5 2 6 3 7 4 8 5 9 6 3 7 2 8 1 9
REMARK H PARENT
REMARK Flexibility Score: inf
ROOT
ATOM      1  C   UNL     1     -13.268 -34.516  29.592  1.00  0.00     0.057 C 
ATOM      2  C   UNL     1     -13.424 -33.708  30.888  1.00  0.00     0.016 C 
ENDROOT
BRANCH   1   3
ATOM      3  C   UNL     1     -12.553 -35.829  29.848  1.00  0.00     0.135 C 
ATOM      4  O   UNL     1     -11.333 -35.854  29.925  1.00  0.00    -0.299 OA
BRANCH   3   5
ATOM      5  C   UNL     1     -13.323 -37.112  30.022  1.00  0.00     0.072 C 
ATOM      6  C   UNL     1     -14.043 -37.487  28.731  1.00  0.00     0.012 C 
ENDBRANCH   3   5
ENDBRANCH   1   3
BRANCH   1   7
ATOM      7  C   UNL     1     -12.581 -33.705  28.474  1.00  0.00     0.038 C 
BRANCH   7   8
ATOM      8  C   UNL     1     -12.755 -34.305  27.102  1.00  0.00    -0.034 C 
ATOM      9  C   UNL     1     -11.709 -34.680  26.359  1.00  0.00     0.004 C 
ENDBRANCH   7   8
ENDBRANCH   1   7
TORSDOF 4
ENDMDL
MODEL 7
REMARK VINA RESULT:    -4.328      1.801      2.045
REMARK INTER + INTRA:          -5.519
REMARK INTER:                  -5.193
REMARK INTRA:                  -0.326
REMARK UNBOUND:                -0.179
REMARK SMILES C=CC[C@H](C)C(=O)CC
REMARK SMILES IDX 4 1 5 2 6 3 7 4 8 5 9 6 3 7 2 8 1 9
REMARK H PARENT
REMARK Flexibility Score: inf
ROOT
ATOM      1  C   UNL     1     -12.006 -33.242  29.276  1.00  0.00     0.057 C 
ATOM      2  C   UNL     1     -13.363 -32.797  28.713  1.00  0.00     0.016 C 
ENDROOT
BRANCH   1   3
ATOM      3  C   UNL     1     -11.415 -34.371  28.454  1.00  0.00     0.135 C 
ATOM      4  O   UNL     1     -10.307 -34.809  28.727  1.00  0.00    -0.299 OA
BRANCH   3   5
ATOM      5  C   UNL     1     -12.177 -34.977  27.305  1.00  0.00     0.072 C 
ATOM      6  C   UNL     1     -11.451 -34.730  25.987  1.00  0.00     0.012 C 
ENDBRANCH   3   5
ENDBRANCH   1   3
BRANCH   1   7
ATOM      7  C   UNL     1     -12.084 -33.609  30.773  1.00  0.00     0.038 C 
BRANCH   7   8
ATOM      8  C   UNL     1     -13.328 -34.377  31.139  1.00  0.00    -0.034 C 
ATOM      9  C   UNL     1     -13.271 -35.628  31.607  1.00  0.00     0.004 C 
ENDBRANCH   7   8
ENDBRANCH   1   7
TORSDOF 4
ENDMDL
MODEL 8
REMARK VINA RESULT:    -4.324      1.795      4.222
REMARK INTER + INTRA:          -5.514
REMARK INTER:                  -5.209
REMARK INTRA:                  -0.305
REMARK UNBOUND:                -0.179
REMARK SMILES C=CC[C@H](C)C(=O)CC
REMARK SMILES IDX 4 1 5 2 6 3 7 4 8 5 9 6 3 7 2 8 1 9
REMARK H PARENT
REMARK Flexibility Score: inf
ROOT
ATOM      1  C   UNL     1     -13.337 -33.260  29.122  1.00  0.00     0.057 C 
ATOM      2  C   UNL     1     -14.051 -32.083  28.443  1.00  0.00     0.016 C 
ENDROOT
BRANCH   1   3
ATOM      3  C   UNL     1     -13.722 -33.365  30.585  1.00  0.00     0.135 C 
ATOM      4  O   UNL     1     -14.540 -32.588  31.057  1.00  0.00    -0.299 OA
BRANCH   3   5
ATOM      5  C   UNL     1     -13.122 -34.422  31.474  1.00  0.00     0.072 C 
ATOM      6  C   UNL     1     -12.306 -33.784  32.593  1.00  0.00     0.012 C 
ENDBRANCH   3   5
ENDBRANCH   1   3
BRANCH   1   7
ATOM      7  C   UNL     1     -11.806 -33.201  28.941  1.00  0.00     0.038 C 
BRANCH   7   8
ATOM      8  C   UNL     1     -11.255 -34.333  28.110  1.00  0.00    -0.034 C 
ATOM      9  C   UNL     1     -11.890 -34.783  27.023  1.00  0.00     0.004 C 
ENDBRANCH   7   8
ENDBRANCH   1   7
TORSDOF 4
ENDMDL
MODEL 9
REMARK VINA RESULT:    -4.242      2.554      3.911
REMARK INTER + INTRA:          -5.413
REMARK INTER:                  -5.067
REMARK INTRA:                  -0.345
REMARK UNBOUND:                -0.179
REMARK SMILES C=CC[C@H](C)C(=O)CC
REMARK SMILES IDX 4 1 5 2 6 3 7 4 8 5 9 6 3 7 2 8 1 9
REMARK H PARENT
REMARK Flexibility Score: inf
ROOT
ATOM      1  C   UNL     1     -12.912 -34.641  32.069  1.00  0.00     0.057 C 
ATOM      2  C   UNL     1     -11.759 -33.833  32.682  1.00  0.00     0.016 C 
ENDROOT
BRANCH   1   3
ATOM      3  C   UNL     1     -12.448 -36.019  31.641  1.00  0.00     0.135 C 
ATOM      4  O   UNL     1     -11.253 -36.250  31.519  1.00  0.00    -0.299 OA
BRANCH   3   5
ATOM      5  C   UNL     1     -13.436 -37.123  31.370  1.00  0.00     0.072 C 
ATOM      6  C   UNL     1     -13.402 -37.528  29.900  1.00  0.00     0.012 C 
ENDBRANCH   3   5
ENDBRANCH   1   3
BRANCH   1   7
ATOM      7  C   UNL     1     -13.604 -33.890  30.912  1.00  0.00     0.038 C 
BRANCH   7   8
ATOM      8  C   UNL     1     -12.682 -33.579  29.761  1.00  0.00    -0.034 C 
ATOM      9  C   UNL     1     -13.120 -32.980  28.649  1.00  0.00     0.004 C 
ENDBRANCH   7   8
ENDBRANCH   1   7
TORSDOF 4
ENDMDL
