MODEL 1
REMARK VINA RESULT:    -3.781      0.000      0.000
REMARK INTER + INTRA:          -6.253
REMARK INTER:                  -5.329
REMARK INTRA:                  -0.925
REMARK UNBOUND:                -0.925
REMARK SMILES OCC1=C[C@@H](O)[C@@H]2C=CO[C@H](O[C@@H]3O[C@@H](CO)[C@H](O)[C@H](O)[C@H]3O)[C@@H]12
REMARK SMILES IDX 12 1 11 2 8 3 9 4 7 5 10 6 24 7 5 8 3 9 4 10 6 11 2 13 1 14
REMARK SMILES IDX 13 16 22 17 14 18 20 19 15 20 18 21 23 22 21 24 16 26 17 27
REMARK SMILES IDX 19 29
REMARK H PARENT 6 12 1 15 23 23 21 25 17 28 19 30
REMARK Flexibility Score: inf
ROOT
ATOM      1  O   UNL     1      40.192 -30.654  11.628  1.00  0.00    -0.310 OA
ENDROOT
BRANCH   1   2
ATOM      2  C   UNL     1      41.404 -31.076  12.235  1.00  0.00     0.316 C 
ATOM      3  C   UNL     1      43.480 -33.102  12.437  1.00  0.00     0.018 C 
ATOM      4  C   UNL     1      42.260 -33.340  12.948  1.00  0.00     0.186 C 
ATOM      5  C   UNL     1      43.770 -31.705  11.992  1.00  0.00     0.061 C 
ATOM      6  O   UNL     1      41.248 -32.348  12.908  1.00  0.00    -0.472 OA
ATOM      7  C   UNL     1      42.569 -31.170  11.229  1.00  0.00     0.096 C 
ATOM      8  C   UNL     1      44.936 -31.425  11.048  1.00  0.00     0.145 C 
ATOM      9  C   UNL     1      43.151 -29.953  10.589  1.00  0.00    -0.036 C 
ATOM     10  C   UNL     1      44.463 -30.154  10.396  1.00  0.00     0.007 C 
BRANCH   8  11
ATOM     11  O   UNL     1      46.125 -31.199  11.752  1.00  0.00    -0.388 OA
ATOM     12  H   UNL     1      46.755 -30.784  11.106  1.00  0.00     0.211 HD
ENDBRANCH   8  11
BRANCH   9  13
ATOM     13  C   UNL     1      42.357 -28.890   9.885  1.00  0.00     0.187 C 
BRANCH  13  14
ATOM     14  O   UNL     1      41.229 -29.452   9.275  1.00  0.00    -0.392 OA
ATOM     15  H   UNL     1      40.539 -29.523   9.985  1.00  0.00     0.211 HD
ENDBRANCH  13  14
ENDBRANCH   9  13
ENDBRANCH   1   2
BRANCH   1  16
ATOM     16  C   UNL     1      39.174 -31.650  11.631  1.00  0.00     0.286 C 
ATOM     17  C   UNL     1      38.245 -31.476  12.852  1.00  0.00     0.202 C 
ATOM     18  O   UNL     1      38.444 -31.620  10.414  1.00  0.00    -0.341 OA
ATOM     19  C   UNL     1      37.337 -30.233  12.719  1.00  0.00     0.179 C 
ATOM     20  C   UNL     1      37.790 -30.375  10.217  1.00  0.00     0.178 C 
ATOM     21  C   UNL     1      36.719 -30.138  11.306  1.00  0.00     0.177 C 
BRANCH  17  22
ATOM     22  O   UNL     1      37.448 -32.628  12.976  1.00  0.00    -0.385 OA
ATOM     23  H   UNL     1      37.387 -32.834  13.946  1.00  0.00     0.211 HD
ENDBRANCH  17  22
BRANCH  19  24
ATOM     24  O   UNL     1      38.019 -29.057  13.089  1.00  0.00    -0.387 OA
ATOM     25  H   UNL     1      38.145 -28.497  12.283  1.00  0.00     0.211 HD
ENDBRANCH  19  24
BRANCH  20  26
ATOM     26  C   UNL     1      37.174 -30.368   8.809  1.00  0.00     0.191 C 
BRANCH  26  27
ATOM     27  O   UNL     1      37.256 -29.092   8.230  1.00  0.00    -0.394 OA
ATOM     28  H   UNL     1      36.409 -28.621   8.446  1.00  0.00     0.210 HD
ENDBRANCH  26  27
ENDBRANCH  20  26
BRANCH  21  29
ATOM     29  O   UNL     1      36.120 -28.880  11.124  1.00  0.00    -0.387 OA
ATOM     30  H   UNL     1      36.382 -28.324  11.905  1.00  0.00     0.211 HD
ENDBRANCH  21  29
ENDBRANCH   1  16
TORSDOF 10
ENDMDL
MODEL 2
REMARK VINA RESULT:    -3.754      1.751      6.681
REMARK INTER + INTRA:          -6.215
REMARK INTER:                  -5.695
REMARK INTRA:                  -0.520
REMARK UNBOUND:                -0.925
REMARK SMILES OCC1=C[C@@H](O)[C@@H]2C=CO[C@H](O[C@@H]3O[C@@H](CO)[C@H](O)[C@H](O)[C@H]3O)[C@@H]12
REMARK SMILES IDX 12 1 11 2 8 3 9 4 7 5 10 6 24 7 5 8 3 9 4 10 6 11 2 13 1 14
REMARK SMILES IDX 13 16 22 17 14 18 20 19 15 20 18 21 23 22 21 24 16 26 17 27
REMARK SMILES IDX 19 29
REMARK H PARENT 6 12 1 15 23 23 21 25 17 28 19 30
REMARK Flexibility Score: inf
ROOT
ATOM      1  O   UNL     1      41.283 -32.112  11.208  1.00  0.00    -0.310 OA
ENDROOT
BRANCH   1   2
ATOM      2  C   UNL     1      40.501 -30.937  11.361  1.00  0.00     0.316 C 
ATOM      3  C   UNL     1      38.512 -29.141  10.233  1.00  0.00     0.018 C 
ATOM      4  C   UNL     1      39.760 -29.155   9.735  1.00  0.00     0.186 C 
ATOM      5  C   UNL     1      38.277 -29.894  11.502  1.00  0.00     0.061 C 
ATOM      6  O   UNL     1      40.761 -29.984  10.302  1.00  0.00    -0.472 OA
ATOM      7  C   UNL     1      38.989 -31.234  11.420  1.00  0.00     0.096 C 
ATOM      8  C   UNL     1      36.860 -30.277  11.918  1.00  0.00     0.145 C 
ATOM      9  C   UNL     1      38.379 -31.958  12.575  1.00  0.00    -0.036 C 
ATOM     10  C   UNL     1      37.140 -31.482  12.774  1.00  0.00     0.007 C 
BRANCH   8  11
ATOM     11  O   UNL     1      36.257 -29.268  12.679  1.00  0.00    -0.388 OA
ATOM     12  H   UNL     1      35.624 -28.804  12.072  1.00  0.00     0.211 HD
ENDBRANCH   8  11
BRANCH   9  13
ATOM     13  C   UNL     1      38.868 -33.268  13.123  1.00  0.00     0.187 C 
BRANCH  13  14
ATOM     14  O   UNL     1      37.832 -34.210  13.125  1.00  0.00    -0.392 OA
ATOM     15  H   UNL     1      37.687 -34.458  14.075  1.00  0.00     0.211 HD
ENDBRANCH  13  14
ENDBRANCH   9  13
ENDBRANCH   1   2
BRANCH   1  16
ATOM     16  C   UNL     1      42.235 -32.305  12.249  1.00  0.00     0.286 C 
ATOM     17  C   UNL     1      43.117 -33.539  11.959  1.00  0.00     0.202 C 
ATOM     18  O   UNL     1      43.020 -31.137  12.430  1.00  0.00    -0.341 OA
ATOM     19  C   UNL     1      44.106 -33.286  10.799  1.00  0.00     0.179 C 
ATOM     20  C   UNL     1      43.759 -30.807  11.263  1.00  0.00     0.178 C 
ATOM     21  C   UNL     1      44.793 -31.909  10.937  1.00  0.00     0.177 C 
BRANCH  17  22
ATOM     22  O   UNL     1      43.833 -33.862  13.125  1.00  0.00    -0.385 OA
ATOM     23  H   UNL     1      44.058 -34.828  13.068  1.00  0.00     0.211 HD
ENDBRANCH  17  22
BRANCH  19  24
ATOM     24  O   UNL     1      43.484 -33.456   9.547  1.00  0.00    -0.387 OA
ATOM     25  H   UNL     1      44.184 -33.510   8.850  1.00  0.00     0.211 HD
ENDBRANCH  19  24
BRANCH  20  26
ATOM     26  C   UNL     1      44.438 -29.447  11.487  1.00  0.00     0.191 C 
BRANCH  26  27
ATOM     27  O   UNL     1      45.814 -29.601  11.716  1.00  0.00    -0.394 OA
ATOM     28  H   UNL     1      46.249 -28.749  11.451  1.00  0.00     0.210 HD
ENDBRANCH  26  27
ENDBRANCH  20  26
BRANCH  21  29
ATOM     29  O   UNL     1      45.477 -31.590   9.752  1.00  0.00    -0.387 OA
ATOM     30  H   UNL     1      45.840 -32.443   9.393  1.00  0.00     0.211 HD
ENDBRANCH  21  29
ENDBRANCH   1  16
TORSDOF 10
ENDMDL
MODEL 3
REMARK VINA RESULT:    -3.379      1.800      6.641
REMARK INTER + INTRA:          -5.687
REMARK INTER:                  -4.675
REMARK INTRA:                  -1.012
REMARK UNBOUND:                -0.925
REMARK SMILES OCC1=C[C@@H](O)[C@@H]2C=CO[C@H](O[C@@H]3O[C@@H](CO)[C@H](O)[C@H](O)[C@H]3O)[C@@H]12
REMARK SMILES IDX 12 1 11 2 8 3 9 4 7 5 10 6 24 7 5 8 3 9 4 10 6 11 2 13 1 14
REMARK SMILES IDX 13 16 22 17 14 18 20 19 15 20 18 21 23 22 21 24 16 26 17 27
REMARK SMILES IDX 19 29
REMARK H PARENT 6 12 1 15 23 23 21 25 17 28 19 30
REMARK Flexibility Score: inf
ROOT
ATOM      1  O   UNL     1      40.632 -30.390  10.654  1.00  0.00    -0.310 OA
ENDROOT
BRANCH   1   2
ATOM      2  C   UNL     1      39.462 -29.599  10.510  1.00  0.00     0.316 C 
ATOM      3  C   UNL     1      36.960 -29.141   9.102  1.00  0.00     0.018 C 
ATOM      4  C   UNL     1      38.128 -28.875   8.494  1.00  0.00     0.186 C 
ATOM      5  C   UNL     1      37.008 -29.445  10.565  1.00  0.00     0.061 C 
ATOM      6  O   UNL     1      39.359 -29.041   9.177  1.00  0.00    -0.472 OA
ATOM      7  C   UNL     1      38.174 -30.380  10.838  1.00  0.00     0.096 C 
ATOM      8  C   UNL     1      35.834 -30.144  11.245  1.00  0.00     0.145 C 
ATOM      9  C   UNL     1      37.865 -30.832  12.227  1.00  0.00    -0.036 C 
ATOM     10  C   UNL     1      36.536 -30.795  12.405  1.00  0.00     0.007 C 
BRANCH   8  11
ATOM     11  O   UNL     1      34.884 -29.223  11.705  1.00  0.00    -0.388 OA
ATOM     12  H   UNL     1      34.185 -29.755  12.167  1.00  0.00     0.211 HD
ENDBRANCH   8  11
BRANCH   9  13
ATOM     13  C   UNL     1      38.805 -31.605  13.107  1.00  0.00     0.187 C 
BRANCH  13  14
ATOM     14  O   UNL     1      39.470 -32.587  12.363  1.00  0.00    -0.392 OA
ATOM     15  H   UNL     1      39.671 -32.175  11.482  1.00  0.00     0.211 HD
ENDBRANCH  13  14
ENDBRANCH   9  13
ENDBRANCH   1   2
BRANCH   1  16
ATOM     16  C   UNL     1      41.673 -29.746  11.383  1.00  0.00     0.286 C 
ATOM     17  C   UNL     1      42.498 -30.777  12.182  1.00  0.00     0.202 C 
ATOM     18  O   UNL     1      42.495 -28.986  10.510  1.00  0.00    -0.341 OA
ATOM     19  C   UNL     1      43.380 -31.652  11.264  1.00  0.00     0.179 C 
ATOM     20  C   UNL     1      43.130 -29.800   9.535  1.00  0.00     0.178 C 
ATOM     21  C   UNL     1      44.106 -30.797  10.201  1.00  0.00     0.177 C 
BRANCH  17  22
ATOM     22  O   UNL     1      43.312 -30.087  13.097  1.00  0.00    -0.385 OA
ATOM     23  H   UNL     1      43.301 -29.131  12.830  1.00  0.00     0.211 HD
ENDBRANCH  17  22
BRANCH  19  24
ATOM     24  O   UNL     1      42.641 -32.707  10.695  1.00  0.00    -0.387 OA
ATOM     25  H   UNL     1      41.775 -32.779  11.167  1.00  0.00     0.211 HD
ENDBRANCH  19  24
BRANCH  20  26
ATOM     26  C   UNL     1      43.855 -28.884   8.536  1.00  0.00     0.191 C 
BRANCH  26  27
ATOM     27  O   UNL     1      45.207 -29.242   8.414  1.00  0.00    -0.394 OA
ATOM     28  H   UNL     1      45.631 -28.571   7.818  1.00  0.00     0.210 HD
ENDBRANCH  26  27
ENDBRANCH  20  26
BRANCH  21  29
ATOM     29  O   UNL     1      44.684 -31.627   9.226  1.00  0.00    -0.387 OA
ATOM     30  H   UNL     1      44.014 -31.722   8.498  1.00  0.00     0.211 HD
ENDBRANCH  21  29
ENDBRANCH   1  16
TORSDOF 10
ENDMDL
MODEL 4
REMARK VINA RESULT:    -2.464      1.994      6.470
REMARK INTER + INTRA:          -4.397
REMARK INTER:                  -4.602
REMARK INTRA:                   0.205
REMARK UNBOUND:                -0.925
REMARK SMILES OCC1=C[C@@H](O)[C@@H]2C=CO[C@H](O[C@@H]3O[C@@H](CO)[C@H](O)[C@H](O)[C@H]3O)[C@@H]12
REMARK SMILES IDX 12 1 11 2 8 3 9 4 7 5 10 6 24 7 5 8 3 9 4 10 6 11 2 13 1 14
REMARK SMILES IDX 13 16 22 17 14 18 20 19 15 20 18 21 23 22 21 24 16 26 17 27
REMARK SMILES IDX 19 29
REMARK H PARENT 6 12 1 15 23 23 21 25 17 28 19 30
REMARK Flexibility Score: inf
ROOT
ATOM      1  O   UNL     1      39.661 -31.281  10.228  1.00  0.00    -0.310 OA
ENDROOT
BRANCH   1   2
ATOM      2  C   UNL     1      38.333 -30.948  10.605  1.00  0.00     0.316 C 
ATOM      3  C   UNL     1      36.332 -28.875  10.992  1.00  0.00     0.018 C 
ATOM      4  C   UNL     1      37.354 -28.989  11.857  1.00  0.00     0.186 C 
ATOM      5  C   UNL     1      36.156 -29.978   9.999  1.00  0.00     0.061 C 
ATOM      6  O   UNL     1      38.313 -30.024  11.719  1.00  0.00    -0.472 OA
ATOM      7  C   UNL     1      37.515 -30.360   9.438  1.00  0.00     0.096 C 
ATOM      8  C   UNL     1      35.312 -29.757   8.747  1.00  0.00     0.145 C 
ATOM      9  C   UNL     1      37.121 -31.190   8.261  1.00  0.00    -0.036 C 
ATOM     10  C   UNL     1      35.927 -30.768   7.818  1.00  0.00     0.007 C 
BRANCH   8  11
ATOM     11  O   UNL     1      33.964 -30.063   8.975  1.00  0.00    -0.388 OA
ATOM     12  H   UNL     1      33.452 -29.245   8.744  1.00  0.00     0.211 HD
ENDBRANCH   8  11
BRANCH   9  13
ATOM     13  C   UNL     1      38.064 -32.031   7.449  1.00  0.00     0.187 C 
BRANCH  13  14
ATOM     14  O   UNL     1      38.755 -32.923   8.278  1.00  0.00    -0.392 OA
ATOM     15  H   UNL     1      39.580 -33.173   7.786  1.00  0.00     0.211 HD
ENDBRANCH  13  14
ENDBRANCH   9  13
ENDBRANCH   1   2
BRANCH   1  16
ATOM     16  C   UNL     1      40.646 -30.403  10.764  1.00  0.00     0.286 C 
ATOM     17  C   UNL     1      40.626 -30.439  12.307  1.00  0.00     0.202 C 
ATOM     18  O   UNL     1      41.930 -30.724  10.253  1.00  0.00    -0.341 OA
ATOM     19  C   UNL     1      41.188 -31.766  12.865  1.00  0.00     0.179 C 
ATOM     20  C   UNL     1      42.329 -32.040  10.605  1.00  0.00     0.178 C 
ATOM     21  C   UNL     1      42.488 -32.176  12.137  1.00  0.00     0.177 C 
BRANCH  17  22
ATOM     22  O   UNL     1      41.394 -29.365  12.790  1.00  0.00    -0.385 OA
ATOM     23  H   UNL     1      41.178 -29.265  13.754  1.00  0.00     0.211 HD
ENDBRANCH  17  22
BRANCH  19  24
ATOM     24  O   UNL     1      40.215 -32.784  12.844  1.00  0.00    -0.387 OA
ATOM     25  H   UNL     1      40.333 -33.319  12.020  1.00  0.00     0.211 HD
ENDBRANCH  19  24
BRANCH  20  26
ATOM     26  C   UNL     1      43.641 -32.362   9.872  1.00  0.00     0.191 C 
BRANCH  26  27
ATOM     27  O   UNL     1      43.834 -33.749   9.771  1.00  0.00    -0.394 OA
ATOM     28  H   UNL     1      44.110 -33.935   8.836  1.00  0.00     0.210 HD
ENDBRANCH  26  27
ENDBRANCH  20  26
BRANCH  21  29
ATOM     29  O   UNL     1      42.832 -33.496  12.469  1.00  0.00    -0.387 OA
ATOM     30  H   UNL     1      42.229 -33.771  13.210  1.00  0.00     0.211 HD
ENDBRANCH  21  29
ENDBRANCH   1  16
TORSDOF 10
ENDMDL
MODEL 5
REMARK VINA RESULT:    -2.360      1.938      6.711
REMARK INTER + INTRA:          -4.250
REMARK INTER:                  -3.132
REMARK INTRA:                  -1.119
REMARK UNBOUND:                -0.925
REMARK SMILES OCC1=C[C@@H](O)[C@@H]2C=CO[C@H](O[C@@H]3O[C@@H](CO)[C@H](O)[C@H](O)[C@H]3O)[C@@H]12
REMARK SMILES IDX 12 1 11 2 8 3 9 4 7 5 10 6 24 7 5 8 3 9 4 10 6 11 2 13 1 14
REMARK SMILES IDX 13 16 22 17 14 18 20 19 15 20 18 21 23 22 21 24 16 26 17 27
REMARK SMILES IDX 19 29
REMARK H PARENT 6 12 1 15 23 23 21 25 17 28 19 30
REMARK Flexibility Score: inf
ROOT
ATOM      1  O   UNL     1      38.817 -30.363  10.656  1.00  0.00    -0.310 OA
ENDROOT
BRANCH   1   2
ATOM      2  C   UNL     1      37.425 -30.385  10.932  1.00  0.00     0.316 C 
ATOM      3  C   UNL     1      34.996 -28.875  11.456  1.00  0.00     0.018 C 
ATOM      4  C   UNL     1      35.952 -28.953  12.397  1.00  0.00     0.186 C 
ATOM      5  C   UNL     1      35.139 -29.768  10.266  1.00  0.00     0.061 C 
ATOM      6  O   UNL     1      37.121 -29.726  12.185  1.00  0.00    -0.472 OA
ATOM      7  C   UNL     1      36.587 -29.750   9.805  1.00  0.00     0.096 C 
ATOM      8  C   UNL     1      34.361 -29.474   8.986  1.00  0.00     0.145 C 
ATOM      9  C   UNL     1      36.471 -30.389   8.460  1.00  0.00    -0.036 C 
ATOM     10  C   UNL     1      35.250 -30.134   7.966  1.00  0.00     0.007 C 
BRANCH   8  11
ATOM     11  O   UNL     1      33.100 -30.083   8.999  1.00  0.00    -0.388 OA
ATOM     12  H   UNL     1      32.485 -29.456   8.537  1.00  0.00     0.211 HD
ENDBRANCH   8  11
BRANCH   9  13
ATOM     13  C   UNL     1      37.632 -30.843   7.623  1.00  0.00     0.187 C 
BRANCH  13  14
ATOM     14  O   UNL     1      37.894 -32.199   7.851  1.00  0.00    -0.392 OA
ATOM     15  H   UNL     1      38.881 -32.282   7.916  1.00  0.00     0.211 HD
ENDBRANCH  13  14
ENDBRANCH   9  13
ENDBRANCH   1   2
BRANCH   1  16
ATOM     16  C   UNL     1      39.631 -30.627  11.795  1.00  0.00     0.286 C 
ATOM     17  C   UNL     1      40.051 -32.112  11.832  1.00  0.00     0.202 C 
ATOM     18  O   UNL     1      40.760 -29.767  11.809  1.00  0.00    -0.341 OA
ATOM     19  C   UNL     1      41.087 -32.451  10.737  1.00  0.00     0.179 C 
ATOM     20  C   UNL     1      41.587 -29.955  10.670  1.00  0.00     0.178 C 
ATOM     21  C   UNL     1      42.195 -31.377  10.660  1.00  0.00     0.177 C 
BRANCH  17  22
ATOM     22  O   UNL     1      40.597 -32.391  13.097  1.00  0.00    -0.385 OA
ATOM     23  H   UNL     1      40.108 -33.177  13.456  1.00  0.00     0.211 HD
ENDBRANCH  17  22
BRANCH  19  24
ATOM     24  O   UNL     1      40.465 -32.674   9.493  1.00  0.00    -0.387 OA
ATOM     25  H   UNL     1      39.722 -32.029   9.390  1.00  0.00     0.211 HD
ENDBRANCH  19  24
BRANCH  20  26
ATOM     26  C   UNL     1      42.680 -28.875  10.680  1.00  0.00     0.191 C 
BRANCH  26  27
ATOM     27  O   UNL     1      43.892 -29.388  11.170  1.00  0.00    -0.394 OA
ATOM     28  H   UNL     1      43.676 -30.233  11.645  1.00  0.00     0.210 HD
ENDBRANCH  26  27
ENDBRANCH  20  26
BRANCH  21  29
ATOM     29  O   UNL     1      42.966 -31.560   9.501  1.00  0.00    -0.387 OA
ATOM     30  H   UNL     1      42.404 -31.270   8.734  1.00  0.00     0.211 HD
ENDBRANCH  21  29
ENDBRANCH   1  16
TORSDOF 10
ENDMDL
MODEL 6
REMARK VINA RESULT:    -2.195      1.934      4.369
REMARK INTER + INTRA:          -4.017
REMARK INTER:                  -3.020
REMARK INTRA:                  -0.997
REMARK UNBOUND:                -0.925
REMARK SMILES OCC1=C[C@@H](O)[C@@H]2C=CO[C@H](O[C@@H]3O[C@@H](CO)[C@H](O)[C@H](O)[C@H]3O)[C@@H]12
REMARK SMILES IDX 12 1 11 2 8 3 9 4 7 5 10 6 24 7 5 8 3 9 4 10 6 11 2 13 1 14
REMARK SMILES IDX 13 16 22 17 14 18 20 19 15 20 18 21 23 22 21 24 16 26 17 27
REMARK SMILES IDX 19 29
REMARK H PARENT 6 12 1 15 23 23 21 25 17 28 19 30
REMARK Flexibility Score: inf
ROOT
ATOM      1  O   UNL     1      38.334 -30.876   9.669  1.00  0.00    -0.310 OA
ENDROOT
BRANCH   1   2
ATOM      2  C   UNL     1      39.736 -30.896   9.890  1.00  0.00     0.316 C 
ATOM      3  C   UNL     1      42.071 -29.564  10.998  1.00  0.00     0.018 C 
ATOM      4  C   UNL     1      41.491 -29.083   9.886  1.00  0.00     0.186 C 
ATOM      5  C   UNL     1      41.614 -30.904  11.479  1.00  0.00     0.061 C 
ATOM      6  O   UNL     1      40.384 -29.745   9.297  1.00  0.00    -0.472 OA
ATOM      7  C   UNL     1      40.099 -30.971  11.387  1.00  0.00     0.096 C 
ATOM      8  C   UNL     1      41.896 -31.344  12.912  1.00  0.00     0.145 C 
ATOM      9  C   UNL     1      39.813 -32.190  12.201  1.00  0.00    -0.036 C 
ATOM     10  C   UNL     1      40.776 -32.326  13.125  1.00  0.00     0.007 C 
BRANCH   8  11
ATOM     11  O   UNL     1      43.136 -31.988  13.018  1.00  0.00    -0.388 OA
ATOM     12  H   UNL     1      43.737 -31.356  13.491  1.00  0.00     0.211 HD
ENDBRANCH   8  11
BRANCH   9  13
ATOM     13  C   UNL     1      38.480 -32.879  12.277  1.00  0.00     0.187 C 
BRANCH  13  14
ATOM     14  O   UNL     1      37.456 -31.937  12.430  1.00  0.00    -0.392 OA
ATOM     15  H   UNL     1      37.547 -31.577  13.350  1.00  0.00     0.211 HD
ENDBRANCH  13  14
ENDBRANCH   9  13
ENDBRANCH   1   2
BRANCH   1  16
ATOM     16  C   UNL     1      37.876 -29.703   9.003  1.00  0.00     0.286 C 
ATOM     17  C   UNL     1      37.254 -30.060   7.636  1.00  0.00     0.202 C 
ATOM     18  O   UNL     1      36.959 -28.993   9.821  1.00  0.00    -0.341 OA
ATOM     19  C   UNL     1      35.893 -30.775   7.785  1.00  0.00     0.179 C 
ATOM     20  C   UNL     1      35.804 -29.764  10.120  1.00  0.00     0.178 C 
ATOM     21  C   UNL     1      35.003 -30.074   8.835  1.00  0.00     0.177 C 
BRANCH  17  22
ATOM     22  O   UNL     1      37.084 -28.875   6.898  1.00  0.00    -0.385 OA
ATOM     23  H   UNL     1      36.106 -28.747   6.779  1.00  0.00     0.211 HD
ENDBRANCH  17  22
BRANCH  19  24
ATOM     24  O   UNL     1      36.060 -32.148   8.050  1.00  0.00    -0.387 OA
ATOM     25  H   UNL     1      36.245 -32.616   7.197  1.00  0.00     0.211 HD
ENDBRANCH  19  24
BRANCH  20  26
ATOM     26  C   UNL     1      34.956 -28.991  11.141  1.00  0.00     0.191 C 
BRANCH  26  27
ATOM     27  O   UNL     1      34.954 -29.638  12.387  1.00  0.00    -0.394 OA
ATOM     28  H   UNL     1      35.597 -29.151  12.966  1.00  0.00     0.210 HD
ENDBRANCH  26  27
ENDBRANCH  20  26
BRANCH  21  29
ATOM     29  O   UNL     1      33.894 -30.880   9.144  1.00  0.00    -0.387 OA
ATOM     30  H   UNL     1      33.094 -30.294   9.103  1.00  0.00     0.211 HD
ENDBRANCH  21  29
ENDBRANCH   1  16
TORSDOF 10
ENDMDL
MODEL 7
REMARK VINA RESULT:    -0.982      1.968      6.360
REMARK INTER + INTRA:          -2.309
REMARK INTER:                  -1.909
REMARK INTRA:                  -0.400
REMARK UNBOUND:                -0.925
REMARK SMILES OCC1=C[C@@H](O)[C@@H]2C=CO[C@H](O[C@@H]3O[C@@H](CO)[C@H](O)[C@H](O)[C@H]3O)[C@@H]12
REMARK SMILES IDX 12 1 11 2 8 3 9 4 7 5 10 6 24 7 5 8 3 9 4 10 6 11 2 13 1 14
REMARK SMILES IDX 13 16 22 17 14 18 20 19 15 20 18 21 23 22 21 24 16 26 17 27
REMARK SMILES IDX 19 29
REMARK H PARENT 6 12 1 15 23 23 21 25 17 28 19 30
REMARK Flexibility Score: inf
ROOT
ATOM      1  O   UNL     1      41.481 -32.209  11.455  1.00  0.00    -0.310 OA
ENDROOT
BRANCH   1   2
ATOM      2  C   UNL     1      40.370 -31.473  11.944  1.00  0.00     0.316 C 
ATOM      3  C   UNL     1      39.134 -28.876  12.369  1.00  0.00     0.018 C 
ATOM      4  C   UNL     1      40.179 -29.251  13.125  1.00  0.00     0.186 C 
ATOM      5  C   UNL     1      38.515 -29.920  11.497  1.00  0.00     0.061 C 
ATOM      6  O   UNL     1      40.765 -30.533  12.972  1.00  0.00    -0.472 OA
ATOM      7  C   UNL     1      39.619 -30.721  10.826  1.00  0.00     0.096 C 
ATOM      8  C   UNL     1      37.620 -29.516  10.329  1.00  0.00     0.145 C 
ATOM      9  C   UNL     1      38.850 -31.449   9.774  1.00  0.00    -0.036 C 
ATOM     10  C   UNL     1      37.786 -30.708   9.428  1.00  0.00     0.007 C 
BRANCH   8  11
ATOM     11  O   UNL     1      36.283 -29.388  10.727  1.00  0.00    -0.388 OA
ATOM     12  H   UNL     1      36.095 -30.161  11.321  1.00  0.00     0.211 HD
ENDBRANCH   8  11
BRANCH   9  13
ATOM     13  C   UNL     1      39.392 -32.574   8.938  1.00  0.00     0.187 C 
BRANCH  13  14
ATOM     14  O   UNL     1      38.587 -32.770   7.809  1.00  0.00    -0.392 OA
ATOM     15  H   UNL     1      39.202 -33.019   7.071  1.00  0.00     0.211 HD
ENDBRANCH  13  14
ENDBRANCH   9  13
ENDBRANCH   1   2
BRANCH   1  16
ATOM     16  C   UNL     1      42.569 -32.279  12.371  1.00  0.00     0.286 C 
ATOM     17  C   UNL     1      43.479 -33.483  12.045  1.00  0.00     0.202 C 
ATOM     18  O   UNL     1      43.299 -31.061  12.372  1.00  0.00    -0.341 OA
ATOM     19  C   UNL     1      44.294 -33.262  10.752  1.00  0.00     0.179 C 
ATOM     20  C   UNL     1      43.861 -30.777  11.100  1.00  0.00     0.178 C 
ATOM     21  C   UNL     1      44.909 -31.845  10.710  1.00  0.00     0.177 C 
BRANCH  17  22
ATOM     22  O   UNL     1      44.357 -33.685  13.125  1.00  0.00    -0.385 OA
ATOM     23  H   UNL     1      45.107 -34.242  12.787  1.00  0.00     0.211 HD
ENDBRANCH  17  22
BRANCH  19  24
ATOM     24  O   UNL     1      43.528 -33.551   9.606  1.00  0.00    -0.387 OA
ATOM     25  H   UNL     1      43.348 -32.706   9.123  1.00  0.00     0.211 HD
ENDBRANCH  19  24
BRANCH  20  26
ATOM     26  C   UNL     1      44.479 -29.371  11.146  1.00  0.00     0.191 C 
BRANCH  26  27
ATOM     27  O   UNL     1      45.777 -29.408  11.681  1.00  0.00    -0.394 OA
ATOM     28  H   UNL     1      46.359 -29.832  10.998  1.00  0.00     0.210 HD
ENDBRANCH  26  27
ENDBRANCH  20  26
BRANCH  21  29
ATOM     29  O   UNL     1      45.415 -31.575   9.428  1.00  0.00    -0.387 OA
ATOM     30  H   UNL     1      44.904 -30.798   9.076  1.00  0.00     0.211 HD
ENDBRANCH  21  29
ENDBRANCH   1  16
TORSDOF 10
ENDMDL
