MODEL 1
REMARK VINA RESULT:    -0.117      0.000      0.000
REMARK INTER + INTRA:          -0.117
REMARK INTER:                  -0.117
REMARK INTRA:                   0.000
REMARK UNBOUND:                 0.000
REMARK SMILES CC1=CC[C@H]2C[C@@H]1C2(C)C
REMARK SMILES IDX 1 1 2 2 3 3 4 4 5 5 6 6 7 7 8 8 9 9 10 10
REMARK H PARENT
REMARK Flexibility Score: inf
ROOT
ATOM      1  C   UNL     1     137.755 136.158 161.869  1.00  0.00     0.039 C 
ATOM      2  C   UNL     1     136.697 137.208 162.027  1.00  0.00    -0.074 C 
ATOM      3  C   UNL     1     135.929 137.608 160.971  1.00  0.00    -0.027 C 
ATOM      4  C   UNL     1     134.877 138.712 161.196  1.00  0.00     0.031 C 
ATOM      5  C   UNL     1     134.875 139.154 162.700  1.00  0.00    -0.000 C 
ATOM      6  C   UNL     1     134.875 137.847 163.520  1.00  0.00     0.013 C 
ATOM      7  C   UNL     1     136.411 137.871 163.381  1.00  0.00     0.021 C 
ATOM      8  C   UNL     1     136.326 139.410 163.191  1.00  0.00    -0.026 C 
ATOM      9  C   UNL     1     137.332 140.090 162.220  1.00  0.00     0.012 C 
ATOM     10  C   UNL     1     136.363 140.171 164.541  1.00  0.00     0.012 C 
ENDROOT
TORSDOF 0
ENDMDL
MODEL 2
REMARK VINA RESULT:     0.911      1.215      3.462
REMARK INTER + INTRA:           0.911
REMARK INTER:                   0.911
REMARK INTRA:                   0.000
REMARK UNBOUND:                 0.000
REMARK SMILES CC1=CC[C@H]2C[C@@H]1C2(C)C
REMARK SMILES IDX 1 1 2 2 3 3 4 4 5 5 6 6 7 7 8 8 9 9 10 10
REMARK H PARENT
REMARK Flexibility Score: inf
ROOT
ATOM      1  C   UNL     1     135.500 138.907 164.525  1.00  0.00     0.039 C 
ATOM      2  C   UNL     1     135.699 138.413 163.123  1.00  0.00    -0.074 C 
ATOM      3  C   UNL     1     134.884 138.817 162.105  1.00  0.00    -0.027 C 
ATOM      4  C   UNL     1     135.126 138.249 160.693  1.00  0.00     0.031 C 
ATOM      5  C   UNL     1     136.366 137.291 160.704  1.00  0.00    -0.000 C 
ATOM      6  C   UNL     1     137.467 138.040 161.483  1.00  0.00     0.013 C 
ATOM      7  C   UNL     1     136.835 137.448 162.758  1.00  0.00     0.021 C 
ATOM      8  C   UNL     1     136.268 136.293 161.890  1.00  0.00    -0.026 C 
ATOM      9  C   UNL     1     134.876 135.708 162.258  1.00  0.00     0.012 C 
ATOM     10  C   UNL     1     137.268 135.117 161.752  1.00  0.00     0.012 C 
ENDROOT
TORSDOF 0
ENDMDL
MODEL 3
REMARK VINA RESULT:     1.277      1.344      2.096
REMARK INTER + INTRA:           1.277
REMARK INTER:                   1.277
REMARK INTRA:                   0.000
REMARK UNBOUND:                 0.000
REMARK SMILES CC1=CC[C@H]2C[C@@H]1C2(C)C
REMARK SMILES IDX 1 1 2 2 3 3 4 4 5 5 6 6 7 7 8 8 9 9 10 10
REMARK H PARENT
REMARK Flexibility Score: inf
ROOT
ATOM      1  C   UNL     1     135.334 134.990 161.877  1.00  0.00     0.039 C 
ATOM      2  C   UNL     1     135.815 136.408 161.820  1.00  0.00    -0.074 C 
ATOM      3  C   UNL     1     137.055 136.719 161.341  1.00  0.00    -0.027 C 
ATOM      4  C   UNL     1     137.499 138.195 161.336  1.00  0.00     0.031 C 
ATOM      5  C   UNL     1     136.344 139.105 161.880  1.00  0.00    -0.000 C 
ATOM      6  C   UNL     1     135.065 138.634 161.158  1.00  0.00     0.013 C 
ATOM      7  C   UNL     1     134.936 137.580 162.276  1.00  0.00     0.021 C 
ATOM      8  C   UNL     1     135.765 138.516 163.195  1.00  0.00    -0.026 C 
ATOM      9  C   UNL     1     136.743 137.871 164.216  1.00  0.00     0.012 C 
ATOM     10  C   UNL     1     134.875 139.535 163.952  1.00  0.00     0.012 C 
ENDROOT
TORSDOF 0
ENDMDL
MODEL 4
REMARK VINA RESULT:     1.323     13.276     15.180
REMARK INTER + INTRA:           1.323
REMARK INTER:                   1.323
REMARK INTRA:                   0.000
REMARK UNBOUND:                 0.000
REMARK SMILES CC1=CC[C@H]2C[C@@H]1C2(C)C
REMARK SMILES IDX 1 1 2 2 3 3 4 4 5 5 6 6 7 7 8 8 9 9 10 10
REMARK H PARENT
REMARK Flexibility Score: inf
ROOT
ATOM      1  C   UNL     1     148.812 135.893 160.337  1.00  0.00     0.039 C 
ATOM      2  C   UNL     1     150.088 135.851 161.123  1.00  0.00    -0.074 C 
ATOM      3  C   UNL     1     151.022 134.879 160.910  1.00  0.00    -0.027 C 
ATOM      4  C   UNL     1     152.300 134.877 161.773  1.00  0.00     0.031 C 
ATOM      5  C   UNL     1     152.285 136.097 162.756  1.00  0.00    -0.000 C 
ATOM      6  C   UNL     1     151.876 137.317 161.905  1.00  0.00     0.013 C 
ATOM      7  C   UNL     1     150.417 136.905 162.188  1.00  0.00     0.021 C 
ATOM      8  C   UNL     1     150.912 136.196 163.477  1.00  0.00    -0.026 C 
ATOM      9  C   UNL     1     150.205 134.882 163.914  1.00  0.00     0.012 C 
ATOM     10  C   UNL     1     150.956 137.153 164.695  1.00  0.00     0.012 C 
ENDROOT
TORSDOF 0
ENDMDL
MODEL 5
REMARK VINA RESULT:     1.914      1.193      3.319
REMARK INTER + INTRA:           1.914
REMARK INTER:                   1.914
REMARK INTRA:                   0.000
REMARK UNBOUND:                 0.000
REMARK SMILES CC1=CC[C@H]2C[C@@H]1C2(C)C
REMARK SMILES IDX 1 1 2 2 3 3 4 4 5 5 6 6 7 7 8 8 9 9 10 10
REMARK H PARENT
REMARK Flexibility Score: inf
ROOT
ATOM      1  C   UNL     1     134.892 141.067 161.412  1.00  0.00     0.039 C 
ATOM      2  C   UNL     1     135.504 139.993 162.260  1.00  0.00    -0.074 C 
ATOM      3  C   UNL     1     136.620 140.228 163.010  1.00  0.00    -0.027 C 
ATOM      4  C   UNL     1     137.215 139.071 163.838  1.00  0.00     0.031 C 
ATOM      5  C   UNL     1     136.335 137.784 163.671  1.00  0.00    -0.000 C 
ATOM      6  C   UNL     1     134.875 138.249 163.849  1.00  0.00     0.013 C 
ATOM      7  C   UNL     1     134.899 138.585 162.344  1.00  0.00     0.021 C 
ATOM      8  C   UNL     1     136.025 137.531 162.171  1.00  0.00    -0.026 C 
ATOM      9  C   UNL     1     137.139 137.808 161.123  1.00  0.00     0.012 C 
ATOM     10  C   UNL     1     135.464 136.108 161.920  1.00  0.00     0.012 C 
ENDROOT
TORSDOF 0
ENDMDL
MODEL 6
REMARK VINA RESULT:     2.396      1.033      3.233
REMARK INTER + INTRA:           2.396
REMARK INTER:                   2.396
REMARK INTRA:                   0.000
REMARK UNBOUND:                 0.000
REMARK SMILES CC1=CC[C@H]2C[C@@H]1C2(C)C
REMARK SMILES IDX 1 1 2 2 3 3 4 4 5 5 6 6 7 7 8 8 9 9 10 10
REMARK H PARENT
REMARK Flexibility Score: inf
ROOT
ATOM      1  C   UNL     1     137.716 140.463 162.253  1.00  0.00     0.039 C 
ATOM      2  C   UNL     1     136.677 139.404 162.467  1.00  0.00    -0.074 C 
ATOM      3  C   UNL     1     135.906 139.382 163.593  1.00  0.00    -0.027 C 
ATOM      4  C   UNL     1     134.875 138.249 163.763  1.00  0.00     0.031 C 
ATOM      5  C   UNL     1     134.894 137.312 162.506  1.00  0.00    -0.000 C 
ATOM      6  C   UNL     1     134.879 138.252 161.283  1.00  0.00     0.013 C 
ATOM      7  C   UNL     1     136.414 138.307 161.427  1.00  0.00     0.021 C 
ATOM      8  C   UNL     1     136.353 136.929 162.138  1.00  0.00    -0.026 C 
ATOM      9  C   UNL     1     137.361 136.647 163.287  1.00  0.00     0.012 C 
ATOM     10  C   UNL     1     136.414 135.747 161.137  1.00  0.00     0.012 C 
ENDROOT
TORSDOF 0
ENDMDL
