MODEL 1
REMARK VINA RESULT:    -3.201      0.000      0.000
REMARK INTER + INTRA:          -3.803
REMARK INTER:                  -3.762
REMARK INTRA:                  -0.041
REMARK UNBOUND:                -0.041
REMARK SMILES CCCCC(=O)[O-]
REMARK SMILES IDX 4 1 5 2 6 3 7 4 3 5 2 6 1 7
REMARK H PARENT
REMARK Flexibility Score: inf
ROOT
ATOM      1  C   UNL     1     -14.217   6.660 -15.421  1.00  0.00     0.053 C 
ENDROOT
BRANCH   1   2
ATOM      2  C   UNL     1     -14.514   8.121 -15.296  1.00  0.00     0.041 C 
ATOM      3  O   UNL     1     -15.706   8.524 -15.249  1.00  0.00    -0.550 OA
ATOM      4  O   UNL     1     -13.475   9.043 -15.283  1.00  0.00    -0.550 OA
ENDBRANCH   1   2
BRANCH   1   5
ATOM      5  C   UNL     1     -12.703   6.425 -15.488  1.00  0.00     0.006 C 
BRANCH   5   6
ATOM      6  C   UNL     1     -12.285   5.624 -16.731  1.00  0.00    -0.003 C 
ATOM      7  C   UNL     1     -12.791   4.182 -16.703  1.00  0.00     0.004 C 
ENDBRANCH   5   6
ENDBRANCH   1   5
TORSDOF 3
ENDMDL
MODEL 2
REMARK VINA RESULT:    -3.115     14.684     15.333
REMARK INTER + INTRA:          -3.702
REMARK INTER:                  -3.680
REMARK INTRA:                  -0.022
REMARK UNBOUND:                -0.041
REMARK SMILES CCCCC(=O)[O-]
REMARK SMILES IDX 4 1 5 2 6 3 7 4 3 5 2 6 1 7
REMARK H PARENT
REMARK Flexibility Score: inf
ROOT
ATOM      1  C   UNL     1      -3.992  -0.191  -6.020  1.00  0.00     0.053 C 
ENDROOT
BRANCH   1   2
ATOM      2  C   UNL     1      -4.897   0.982  -5.804  1.00  0.00     0.041 C 
ATOM      3  O   UNL     1      -4.551   1.916  -5.034  1.00  0.00    -0.550 OA
ATOM      4  O   UNL     1      -6.145   1.017  -6.412  1.00  0.00    -0.550 OA
ENDBRANCH   1   2
BRANCH   1   5
ATOM      5  C   UNL     1      -4.779  -1.377  -6.591  1.00  0.00     0.006 C 
BRANCH   5   6
ATOM      6  C   UNL     1      -4.124  -2.729  -6.269  1.00  0.00    -0.003 C 
ATOM      7  C   UNL     1      -4.872  -3.504  -5.184  1.00  0.00     0.004 C 
ENDBRANCH   5   6
ENDBRANCH   1   5
TORSDOF 3
ENDMDL
MODEL 3
REMARK VINA RESULT:    -3.065     15.138     15.790
REMARK INTER + INTRA:          -3.643
REMARK INTER:                  -3.558
REMARK INTRA:                  -0.085
REMARK UNBOUND:                -0.041
REMARK SMILES CCCCC(=O)[O-]
REMARK SMILES IDX 4 1 5 2 6 3 7 4 3 5 2 6 1 7
REMARK H PARENT
REMARK Flexibility Score: inf
ROOT
ATOM      1  C   UNL     1      -5.176  -1.151  -6.488  1.00  0.00     0.053 C 
ENDROOT
BRANCH   1   2
ATOM      2  C   UNL     1      -4.795   0.167  -5.890  1.00  0.00     0.041 C 
ATOM      3  O   UNL     1      -5.510   1.184  -6.090  1.00  0.00    -0.550 OA
ATOM      4  O   UNL     1      -3.623   0.284  -5.154  1.00  0.00    -0.550 OA
ENDBRANCH   1   2
BRANCH   1   5
ATOM      5  C   UNL     1      -3.995  -2.127  -6.427  1.00  0.00     0.006 C 
BRANCH   5   6
ATOM      6  C   UNL     1      -4.388  -3.492  -5.841  1.00  0.00    -0.003 C 
ATOM      7  C   UNL     1      -5.167  -3.370  -4.531  1.00  0.00     0.004 C 
ENDBRANCH   5   6
ENDBRANCH   1   5
TORSDOF 3
ENDMDL
MODEL 4
REMARK VINA RESULT:    -3.027     17.986     18.594
REMARK INTER + INTRA:          -3.598
REMARK INTER:                  -3.566
REMARK INTRA:                  -0.031
REMARK UNBOUND:                -0.041
REMARK SMILES CCCCC(=O)[O-]
REMARK SMILES IDX 4 1 5 2 6 3 7 4 3 5 2 6 1 7
REMARK H PARENT
REMARK Flexibility Score: inf
ROOT
ATOM      1  C   UNL     1     -18.151  -5.986  -4.074  1.00  0.00     0.053 C 
ENDROOT
BRANCH   1   2
ATOM      2  C   UNL     1     -18.006  -7.382  -4.595  1.00  0.00     0.041 C 
ATOM      3  O   UNL     1     -18.783  -7.809  -5.488  1.00  0.00    -0.550 OA
ATOM      4  O   UNL     1     -17.044  -8.227  -4.056  1.00  0.00    -0.550 OA
ENDBRANCH   1   2
BRANCH   1   5
ATOM      5  C   UNL     1     -17.309  -5.796  -2.808  1.00  0.00     0.006 C 
BRANCH   5   6
ATOM      6  C   UNL     1     -17.183  -4.321  -2.399  1.00  0.00    -0.003 C 
ATOM      7  C   UNL     1     -18.361  -3.472  -2.879  1.00  0.00     0.004 C 
ENDBRANCH   5   6
ENDBRANCH   1   5
TORSDOF 3
ENDMDL
MODEL 5
REMARK VINA RESULT:    -2.995     18.188     18.752
REMARK INTER + INTRA:          -3.561
REMARK INTER:                  -3.502
REMARK INTRA:                  -0.059
REMARK UNBOUND:                -0.041
REMARK SMILES CCCCC(=O)[O-]
REMARK SMILES IDX 4 1 5 2 6 3 7 4 3 5 2 6 1 7
REMARK H PARENT
REMARK Flexibility Score: inf
ROOT
ATOM      1  C   UNL     1     -16.719  -5.433  -2.541  1.00  0.00     0.053 C 
ENDROOT
BRANCH   1   2
ATOM      2  C   UNL     1     -17.383  -6.252  -3.603  1.00  0.00     0.041 C 
ATOM      3  O   UNL     1     -16.981  -7.420  -3.846  1.00  0.00    -0.550 OA
ATOM      4  O   UNL     1     -18.411  -5.705  -4.361  1.00  0.00    -0.550 OA
ENDBRANCH   1   2
BRANCH   1   5
ATOM      5  C   UNL     1     -17.379  -4.053  -2.438  1.00  0.00     0.006 C 
BRANCH   5   6
ATOM      6  C   UNL     1     -18.337  -3.944  -1.242  1.00  0.00    -0.003 C 
ATOM      7  C   UNL     1     -17.627  -4.114   0.101  1.00  0.00     0.004 C 
ENDBRANCH   5   6
ENDBRANCH   1   5
TORSDOF 3
ENDMDL
MODEL 6
REMARK VINA RESULT:    -2.968     17.072     17.780
REMARK INTER + INTRA:          -3.529
REMARK INTER:                  -3.452
REMARK INTRA:                  -0.077
REMARK UNBOUND:                -0.041
REMARK SMILES CCCCC(=O)[O-]
REMARK SMILES IDX 4 1 5 2 6 3 7 4 3 5 2 6 1 7
REMARK H PARENT
REMARK Flexibility Score: inf
ROOT
ATOM      1  C   UNL     1      -5.356  -3.415  -4.751  1.00  0.00     0.053 C 
ENDROOT
BRANCH   1   2
ATOM      2  C   UNL     1      -4.760  -3.873  -3.457  1.00  0.00     0.041 C 
ATOM      3  O   UNL     1      -3.563  -3.601  -3.180  1.00  0.00    -0.550 OA
ATOM      4  O   UNL     1      -5.512  -4.645  -2.580  1.00  0.00    -0.550 OA
ENDBRANCH   1   2
BRANCH   1   5
ATOM      5  C   UNL     1      -4.302  -3.439  -5.864  1.00  0.00     0.006 C 
BRANCH   5   6
ATOM      6  C   UNL     1      -3.990  -2.037  -6.411  1.00  0.00    -0.003 C 
ATOM      7  C   UNL     1      -5.189  -1.092  -6.332  1.00  0.00     0.004 C 
ENDBRANCH   5   6
ENDBRANCH   1   5
TORSDOF 3
ENDMDL
MODEL 7
REMARK VINA RESULT:    -2.961     11.489     12.432
REMARK INTER + INTRA:          -3.521
REMARK INTER:                  -3.413
REMARK INTRA:                  -0.108
REMARK UNBOUND:                -0.041
REMARK SMILES CCCCC(=O)[O-]
REMARK SMILES IDX 4 1 5 2 6 3 7 4 3 5 2 6 1 7
REMARK H PARENT
REMARK Flexibility Score: inf
ROOT
ATOM      1  C   UNL     1      -2.379   2.986 -12.498  1.00  0.00     0.053 C 
ENDROOT
BRANCH   1   2
ATOM      2  C   UNL     1      -1.968   3.050 -11.060  1.00  0.00     0.041 C 
ATOM      3  O   UNL     1      -2.503   3.885 -10.285  1.00  0.00    -0.550 OA
ATOM      4  O   UNL     1      -0.958   2.221 -10.589  1.00  0.00    -0.550 OA
ENDBRANCH   1   2
BRANCH   1   5
ATOM      5  C   UNL     1      -3.853   3.378 -12.652  1.00  0.00     0.006 C 
BRANCH   5   6
ATOM      6  C   UNL     1      -4.060   4.502 -13.679  1.00  0.00    -0.003 C 
ATOM      7  C   UNL     1      -3.646   5.874 -13.144  1.00  0.00     0.004 C 
ENDBRANCH   5   6
ENDBRANCH   1   5
TORSDOF 3
ENDMDL
MODEL 8
REMARK VINA RESULT:    -2.877     10.915     11.723
REMARK INTER + INTRA:          -3.422
REMARK INTER:                  -3.374
REMARK INTRA:                  -0.048
REMARK UNBOUND:                -0.041
REMARK SMILES CCCCC(=O)[O-]
REMARK SMILES IDX 4 1 5 2 6 3 7 4 3 5 2 6 1 7
REMARK H PARENT
REMARK Flexibility Score: inf
ROOT
ATOM      1  C   UNL     1      -3.908   3.390 -12.692  1.00  0.00     0.053 C 
ENDROOT
BRANCH   1   2
ATOM      2  C   UNL     1      -3.971   4.673 -13.461  1.00  0.00     0.041 C 
ATOM      3  O   UNL     1      -4.321   4.669 -14.670  1.00  0.00    -0.550 OA
ATOM      4  O   UNL     1      -3.593   5.865 -12.857  1.00  0.00    -0.550 OA
ENDBRANCH   1   2
BRANCH   1   5
ATOM      5  C   UNL     1      -2.451   2.996 -12.425  1.00  0.00     0.006 C 
BRANCH   5   6
ATOM      6  C   UNL     1      -2.030   3.248 -10.969  1.00  0.00    -0.003 C 
ATOM      7  C   UNL     1      -0.946   2.279 -10.491  1.00  0.00     0.004 C 
ENDBRANCH   5   6
ENDBRANCH   1   5
TORSDOF 3
ENDMDL
MODEL 9
REMARK VINA RESULT:    -2.840     19.714     20.211
REMARK INTER + INTRA:          -3.378
REMARK INTER:                  -3.272
REMARK INTRA:                  -0.106
REMARK UNBOUND:                -0.041
REMARK SMILES CCCCC(=O)[O-]
REMARK SMILES IDX 4 1 5 2 6 3 7 4 3 5 2 6 1 7
REMARK H PARENT
REMARK Flexibility Score: inf
ROOT
ATOM      1  C   UNL     1      -6.395  -2.948   0.367  1.00  0.00     0.053 C 
ENDROOT
BRANCH   1   2
ATOM      2  C   UNL     1      -5.397  -3.074  -0.741  1.00  0.00     0.041 C 
ATOM      3  O   UNL     1      -4.482  -2.219  -0.870  1.00  0.00    -0.550 OA
ATOM      4  O   UNL     1      -5.508  -4.108  -1.662  1.00  0.00    -0.550 OA
ENDBRANCH   1   2
BRANCH   1   5
ATOM      5  C   UNL     1      -7.818  -3.137  -0.171  1.00  0.00     0.006 C 
BRANCH   5   6
ATOM      6  C   UNL     1      -8.592  -4.232   0.579  1.00  0.00    -0.003 C 
ATOM      7  C   UNL     1      -8.089  -5.639   0.253  1.00  0.00     0.004 C 
ENDBRANCH   5   6
ENDBRANCH   1   5
TORSDOF 3
ENDMDL
