MODEL 1
REMARK VINA RESULT:    -2.772      0.000      0.000
REMARK INTER + INTRA:          -6.002
REMARK INTER:                  -5.040
REMARK INTRA:                  -0.962
REMARK UNBOUND:                -0.962
REMARK SMILES CCCCCCCCCCCCCC[C@H](C)C(=O)[O-]
REMARK SMILES IDX 9 1 10 2 11 3 12 4 13 5 14 6 15 7 16 8 17 9 18 10 19 11 8 12
REMARK SMILES IDX 7 13 6 14 5 15 4 16 3 17 2 18 1 19
REMARK H PARENT
REMARK Flexibility Score: inf
ROOT
ATOM      1  C   UNL     1       7.007   0.824  -1.908  1.00  0.00     0.000 C 
ENDROOT
BRANCH   1   2
ATOM      2  C   UNL     1       8.087   1.487  -2.784  1.00  0.00     0.000 C 
BRANCH   2   3
ATOM      3  C   UNL     1       9.444   1.711  -2.090  1.00  0.00     0.000 C 
BRANCH   3   4
ATOM      4  C   UNL     1      10.512   0.658  -2.454  1.00  0.00     0.000 C 
BRANCH   4   5
ATOM      5  C   UNL     1      11.806   0.828  -1.645  1.00  0.00     0.001 C 
BRANCH   5   6
ATOM      6  C   UNL     1      13.005   1.096  -2.568  1.00  0.00     0.009 C 
BRANCH   6   7
ATOM      7  C   UNL     1      14.339   0.597  -1.972  1.00  0.00     0.032 C 
ATOM      8  C   UNL     1      15.475   1.612  -2.158  1.00  0.00     0.014 C 
BRANCH   7   9
ATOM      9  C   UNL     1      14.722  -0.710  -2.611  1.00  0.00     0.044 C 
ATOM     10  O   UNL     1      13.865  -1.624  -2.743  1.00  0.00    -0.550 OA
ATOM     11  O   UNL     1      16.020  -0.917  -3.063  1.00  0.00    -0.550 OA
ENDBRANCH   7   9
ENDBRANCH   6   7
ENDBRANCH   5   6
ENDBRANCH   4   5
ENDBRANCH   3   4
ENDBRANCH   2   3
ENDBRANCH   1   2
BRANCH   1  12
ATOM     12  C   UNL     1       6.940   1.338  -0.457  1.00  0.00     0.000 C 
BRANCH  12  13
ATOM     13  C   UNL     1       6.004   0.504   0.430  1.00  0.00    -0.000 C 
BRANCH  13  14
ATOM     14  C   UNL     1       4.662   1.218   0.632  1.00  0.00    -0.000 C 
BRANCH  14  15
ATOM     15  C   UNL     1       3.490   0.298   0.256  1.00  0.00    -0.000 C 
BRANCH  15  16
ATOM     16  C   UNL     1       3.630  -0.299  -1.154  1.00  0.00    -0.000 C 
BRANCH  16  17
ATOM     17  C   UNL     1       2.875  -1.624  -1.375  1.00  0.00    -0.000 C 
BRANCH  17  18
ATOM     18  C   UNL     1       3.774  -2.777  -1.871  1.00  0.00    -0.003 C 
ATOM     19  C   UNL     1       5.159  -2.294  -2.306  1.00  0.00     0.004 C 
ENDBRANCH  17  18
ENDBRANCH  16  17
ENDBRANCH  15  16
ENDBRANCH  14  15
ENDBRANCH  13  14
ENDBRANCH  12  13
ENDBRANCH   1  12
TORSDOF 14
ENDMDL
MODEL 2
REMARK VINA RESULT:    -2.342     23.926     26.383
REMARK INTER + INTRA:          -5.222
REMARK INTER:                  -4.143
REMARK INTRA:                  -1.079
REMARK UNBOUND:                -0.962
REMARK SMILES CCCCCCCCCCCCCC[C@H](C)C(=O)[O-]
REMARK SMILES IDX 9 1 10 2 11 3 12 4 13 5 14 6 15 7 16 8 17 9 18 10 19 11 8 12
REMARK SMILES IDX 7 13 6 14 5 15 4 16 3 17 2 18 1 19
REMARK H PARENT
REMARK Flexibility Score: inf
ROOT
ATOM      1  C   UNL     1      17.242 -17.518  11.106  1.00  0.00     0.000 C 
ENDROOT
BRANCH   1   2
ATOM      2  C   UNL     1      17.128 -17.693  12.632  1.00  0.00     0.000 C 
BRANCH   2   3
ATOM      3  C   UNL     1      15.696 -17.899  13.161  1.00  0.00     0.000 C 
BRANCH   3   4
ATOM      4  C   UNL     1      15.609 -18.012  14.697  1.00  0.00     0.000 C 
BRANCH   4   5
ATOM      5  C   UNL     1      16.991 -18.125  15.358  1.00  0.00     0.001 C 
BRANCH   5   6
ATOM      6  C   UNL     1      16.928 -17.731  16.843  1.00  0.00     0.009 C 
BRANCH   6   7
ATOM      7  C   UNL     1      17.561 -16.351  17.120  1.00  0.00     0.032 C 
ATOM      8  C   UNL     1      16.545 -15.207  16.985  1.00  0.00     0.014 C 
BRANCH   7   9
ATOM      9  C   UNL     1      18.707 -16.120  16.175  1.00  0.00     0.044 C 
ATOM     10  O   UNL     1      18.551 -15.398  15.155  1.00  0.00    -0.550 OA
ATOM     11  O   UNL     1      19.948 -16.697  16.422  1.00  0.00    -0.550 OA
ENDBRANCH   7   9
ENDBRANCH   6   7
ENDBRANCH   5   6
ENDBRANCH   4   5
ENDBRANCH   3   4
ENDBRANCH   2   3
ENDBRANCH   1   2
BRANCH   1  12
ATOM     12  C   UNL     1      18.631 -17.825  10.517  1.00  0.00     0.000 C 
BRANCH  12  13
ATOM     13  C   UNL     1      19.757 -17.028  11.191  1.00  0.00    -0.000 C 
BRANCH  13  14
ATOM     14  C   UNL     1      20.732 -17.963  11.916  1.00  0.00    -0.000 C 
BRANCH  14  15
ATOM     15  C   UNL     1      22.181 -17.684  11.488  1.00  0.00    -0.000 C 
BRANCH  15  16
ATOM     16  C   UNL     1      23.125 -17.471  12.682  1.00  0.00    -0.000 C 
BRANCH  16  17
ATOM     17  C   UNL     1      22.431 -17.046  13.990  1.00  0.00    -0.000 C 
BRANCH  17  18
ATOM     18  C   UNL     1      22.426 -15.521  14.225  1.00  0.00    -0.003 C 
ATOM     19  C   UNL     1      23.070 -15.132  15.557  1.00  0.00     0.004 C 
ENDBRANCH  17  18
ENDBRANCH  16  17
ENDBRANCH  15  16
ENDBRANCH  14  15
ENDBRANCH  13  14
ENDBRANCH  12  13
ENDBRANCH   1  12
TORSDOF 14
ENDMDL
MODEL 3
REMARK VINA RESULT:    -2.335     23.680     25.552
REMARK INTER + INTRA:          -5.208
REMARK INTER:                  -4.586
REMARK INTRA:                  -0.622
REMARK UNBOUND:                -0.962
REMARK SMILES CCCCCCCCCCCCCC[C@H](C)C(=O)[O-]
REMARK SMILES IDX 9 1 10 2 11 3 12 4 13 5 14 6 15 7 16 8 17 9 18 10 19 11 8 12
REMARK SMILES IDX 7 13 6 14 5 15 4 16 3 17 2 18 1 19
REMARK H PARENT
REMARK Flexibility Score: inf
ROOT
ATOM      1  C   UNL     1      18.790 -16.865  15.271  1.00  0.00     0.000 C 
ENDROOT
BRANCH   1   2
ATOM      2  C   UNL     1      19.571 -15.772  16.025  1.00  0.00     0.000 C 
BRANCH   2   3
ATOM      3  C   UNL     1      20.608 -16.292  17.039  1.00  0.00     0.000 C 
BRANCH   3   4
ATOM      4  C   UNL     1      21.930 -15.495  17.043  1.00  0.00     0.000 C 
BRANCH   4   5
ATOM      5  C   UNL     1      23.121 -16.329  16.547  1.00  0.00     0.001 C 
BRANCH   5   6
ATOM      6  C   UNL     1      22.750 -17.131  15.289  1.00  0.00     0.009 C 
BRANCH   6   7
ATOM      7  C   UNL     1      23.120 -16.394  13.983  1.00  0.00     0.032 C 
ATOM      8  C   UNL     1      22.832 -14.888  14.063  1.00  0.00     0.014 C 
BRANCH   7   9
ATOM      9  C   UNL     1      22.359 -16.992  12.832  1.00  0.00     0.044 C 
ATOM     10  O   UNL     1      21.101 -16.931  12.805  1.00  0.00    -0.550 OA
ATOM     11  O   UNL     1      23.037 -17.611  11.788  1.00  0.00    -0.550 OA
ENDBRANCH   7   9
ENDBRANCH   6   7
ENDBRANCH   5   6
ENDBRANCH   4   5
ENDBRANCH   3   4
ENDBRANCH   2   3
ENDBRANCH   1   2
BRANCH   1  12
ATOM     12  C   UNL     1      17.269 -16.638  15.187  1.00  0.00     0.000 C 
BRANCH  12  13
ATOM     13  C   UNL     1      16.477 -17.943  15.025  1.00  0.00    -0.000 C 
BRANCH  13  14
ATOM     14  C   UNL     1      16.013 -18.125  13.575  1.00  0.00    -0.000 C 
BRANCH  14  15
ATOM     15  C   UNL     1      17.209 -18.120  12.611  1.00  0.00    -0.000 C 
BRANCH  15  16
ATOM     16  C   UNL     1      16.799 -17.866  11.152  1.00  0.00    -0.000 C 
BRANCH  16  17
ATOM     17  C   UNL     1      17.965 -17.826  10.146  1.00  0.00    -0.000 C 
BRANCH  17  18
ATOM     18  C   UNL     1      17.766 -16.809   9.003  1.00  0.00    -0.003 C 
ATOM     19  C   UNL     1      18.472 -15.479   9.272  1.00  0.00     0.004 C 
ENDBRANCH  17  18
ENDBRANCH  16  17
ENDBRANCH  15  16
ENDBRANCH  14  15
ENDBRANCH  13  14
ENDBRANCH  12  13
ENDBRANCH   1  12
TORSDOF 14
ENDMDL
MODEL 4
REMARK VINA RESULT:    -2.320     23.615     26.124
REMARK INTER + INTRA:          -5.181
REMARK INTER:                  -4.392
REMARK INTRA:                  -0.788
REMARK UNBOUND:                -0.962
REMARK SMILES CCCCCCCCCCCCCC[C@H](C)C(=O)[O-]
REMARK SMILES IDX 9 1 10 2 11 3 12 4 13 5 14 6 15 7 16 8 17 9 18 10 19 11 8 12
REMARK SMILES IDX 7 13 6 14 5 15 4 16 3 17 2 18 1 19
REMARK H PARENT
REMARK Flexibility Score: inf
ROOT
ATOM      1  C   UNL     1      17.897 -16.911   9.773  1.00  0.00     0.000 C 
ENDROOT
BRANCH   1   2
ATOM      2  C   UNL     1      17.051 -18.105  10.254  1.00  0.00     0.000 C 
BRANCH   2   3
ATOM      3  C   UNL     1      16.642 -18.059  11.739  1.00  0.00     0.000 C 
BRANCH   3   4
ATOM      4  C   UNL     1      17.619 -17.263  12.630  1.00  0.00     0.000 C 
BRANCH   4   5
ATOM      5  C   UNL     1      17.083 -17.058  14.055  1.00  0.00     0.001 C 
BRANCH   5   6
ATOM      6  C   UNL     1      17.998 -16.123  14.861  1.00  0.00     0.009 C 
BRANCH   6   7
ATOM      7  C   UNL     1      17.917 -16.377  16.382  1.00  0.00     0.032 C 
ATOM      8  C   UNL     1      18.146 -17.852  16.739  1.00  0.00     0.014 C 
BRANCH   7   9
ATOM      9  C   UNL     1      16.575 -15.936  16.898  1.00  0.00     0.044 C 
ATOM     10  O   UNL     1      16.354 -14.717  17.125  1.00  0.00    -0.550 OA
ATOM     11  O   UNL     1      15.569 -16.868  17.124  1.00  0.00    -0.550 OA
ENDBRANCH   7   9
ENDBRANCH   6   7
ENDBRANCH   5   6
ENDBRANCH   4   5
ENDBRANCH   3   4
ENDBRANCH   2   3
ENDBRANCH   1   2
BRANCH   1  12
ATOM     12  C   UNL     1      19.414 -17.170   9.711  1.00  0.00     0.000 C 
BRANCH  12  13
ATOM     13  C   UNL     1      20.008 -17.571  11.068  1.00  0.00    -0.000 C 
BRANCH  13  14
ATOM     14  C   UNL     1      21.529 -17.746  10.969  1.00  0.00    -0.000 C 
BRANCH  14  15
ATOM     15  C   UNL     1      22.178 -17.696  12.361  1.00  0.00    -0.000 C 
BRANCH  15  16
ATOM     16  C   UNL     1      21.387 -16.832  13.357  1.00  0.00    -0.000 C 
BRANCH  16  17
ATOM     17  C   UNL     1      22.228 -15.796  14.128  1.00  0.00    -0.000 C 
BRANCH  17  18
ATOM     18  C   UNL     1      22.075 -15.889  15.661  1.00  0.00    -0.003 C 
ATOM     19  C   UNL     1      21.782 -17.313  16.136  1.00  0.00     0.004 C 
ENDBRANCH  17  18
ENDBRANCH  16  17
ENDBRANCH  15  16
ENDBRANCH  14  15
ENDBRANCH  13  14
ENDBRANCH  12  13
ENDBRANCH   1  12
TORSDOF 14
ENDMDL
MODEL 5
REMARK VINA RESULT:    -2.260     23.990     25.188
REMARK INTER + INTRA:          -5.073
REMARK INTER:                  -4.233
REMARK INTRA:                  -0.839
REMARK UNBOUND:                -0.962
REMARK SMILES CCCCCCCCCCCCCC[C@H](C)C(=O)[O-]
REMARK SMILES IDX 9 1 10 2 11 3 12 4 13 5 14 6 15 7 16 8 17 9 18 10 19 11 8 12
REMARK SMILES IDX 7 13 6 14 5 15 4 16 3 17 2 18 1 19
REMARK H PARENT
REMARK Flexibility Score: inf
ROOT
ATOM      1  C   UNL     1      18.021 -17.724  11.959  1.00  0.00     0.000 C 
ENDROOT
BRANCH   1   2
ATOM      2  C   UNL     1      18.949 -16.755  11.202  1.00  0.00     0.000 C 
BRANCH   2   3
ATOM      3  C   UNL     1      20.137 -17.418  10.481  1.00  0.00     0.000 C 
BRANCH   3   4
ATOM      4  C   UNL     1      21.442 -17.425  11.306  1.00  0.00     0.000 C 
BRANCH   4   5
ATOM      5  C   UNL     1      21.270 -18.106  12.672  1.00  0.00     0.001 C 
BRANCH   5   6
ATOM      6  C   UNL     1      21.989 -17.317  13.777  1.00  0.00     0.009 C 
BRANCH   6   7
ATOM      7  C   UNL     1      21.266 -16.001  14.135  1.00  0.00     0.032 C 
ATOM      8  C   UNL     1      22.224 -14.802  14.171  1.00  0.00     0.014 C 
BRANCH   7   9
ATOM      9  C   UNL     1      20.587 -16.142  15.469  1.00  0.00     0.044 C 
ATOM     10  O   UNL     1      19.502 -15.542  15.693  1.00  0.00    -0.550 OA
ATOM     11  O   UNL     1      21.147 -16.937  16.462  1.00  0.00    -0.550 OA
ENDBRANCH   7   9
ENDBRANCH   6   7
ENDBRANCH   5   6
ENDBRANCH   4   5
ENDBRANCH   3   4
ENDBRANCH   2   3
ENDBRANCH   1   2
BRANCH   1  12
ATOM     12  C   UNL     1      17.135 -17.071  13.036  1.00  0.00     0.000 C 
BRANCH  12  13
ATOM     13  C   UNL     1      15.825 -17.836  13.279  1.00  0.00    -0.000 C 
BRANCH  13  14
ATOM     14  C   UNL     1      15.455 -17.828  14.767  1.00  0.00    -0.000 C 
BRANCH  14  15
ATOM     15  C   UNL     1      13.960 -18.125  14.961  1.00  0.00    -0.000 C 
BRANCH  15  16
ATOM     16  C   UNL     1      13.530 -18.078  16.437  1.00  0.00    -0.000 C 
BRANCH  16  17
ATOM     17  C   UNL     1      12.008 -18.123  16.671  1.00  0.00    -0.000 C 
BRANCH  17  18
ATOM     18  C   UNL     1      11.176 -18.012  15.377  1.00  0.00    -0.003 C 
ATOM     19  C   UNL     1       9.675 -17.901  15.653  1.00  0.00     0.004 C 
ENDBRANCH  17  18
ENDBRANCH  16  17
ENDBRANCH  15  16
ENDBRANCH  14  15
ENDBRANCH  13  14
ENDBRANCH  12  13
ENDBRANCH   1  12
TORSDOF 14
ENDMDL
MODEL 6
REMARK VINA RESULT:    -2.201     23.647     25.802
REMARK INTER + INTRA:          -4.964
REMARK INTER:                  -3.667
REMARK INTRA:                  -1.297
REMARK UNBOUND:                -0.962
REMARK SMILES CCCCCCCCCCCCCC[C@H](C)C(=O)[O-]
REMARK SMILES IDX 9 1 10 2 11 3 12 4 13 5 14 6 15 7 16 8 17 9 18 10 19 11 8 12
REMARK SMILES IDX 7 13 6 14 5 15 4 16 3 17 2 18 1 19
REMARK H PARENT
REMARK Flexibility Score: inf
ROOT
ATOM      1  C   UNL     1      16.048 -17.881  11.768  1.00  0.00     0.000 C 
ENDROOT
BRANCH   1   2
ATOM      2  C   UNL     1      15.999 -17.171  13.134  1.00  0.00     0.000 C 
BRANCH   2   3
ATOM      3  C   UNL     1      15.652 -18.078  14.329  1.00  0.00     0.000 C 
BRANCH   3   4
ATOM      4  C   UNL     1      16.748 -18.125  15.415  1.00  0.00     0.000 C 
BRANCH   4   5
ATOM      5  C   UNL     1      16.769 -16.859  16.284  1.00  0.00     0.001 C 
BRANCH   5   6
ATOM      6  C   UNL     1      17.722 -15.803  15.700  1.00  0.00     0.009 C 
BRANCH   6   7
ATOM      7  C   UNL     1      19.129 -16.368  15.409  1.00  0.00     0.032 C 
ATOM      8  C   UNL     1      19.839 -16.848  16.682  1.00  0.00     0.014 C 
BRANCH   7   9
ATOM      9  C   UNL     1      19.966 -15.319  14.731  1.00  0.00     0.044 C 
ATOM     10  O   UNL     1      20.971 -14.836  15.317  1.00  0.00    -0.550 OA
ATOM     11  O   UNL     1      19.640 -14.877  13.454  1.00  0.00    -0.550 OA
ENDBRANCH   7   9
ENDBRANCH   6   7
ENDBRANCH   5   6
ENDBRANCH   4   5
ENDBRANCH   3   4
ENDBRANCH   2   3
ENDBRANCH   1   2
BRANCH   1  12
ATOM     12  C   UNL     1      17.463 -18.125  11.210  1.00  0.00     0.000 C 
BRANCH  12  13
ATOM     13  C   UNL     1      18.424 -16.960  11.489  1.00  0.00    -0.000 C 
BRANCH  13  14
ATOM     14  C   UNL     1      19.467 -16.833  10.371  1.00  0.00    -0.000 C 
BRANCH  14  15
ATOM     15  C   UNL     1      20.365 -18.078  10.314  1.00  0.00    -0.000 C 
BRANCH  15  16
ATOM     16  C   UNL     1      21.863 -17.734  10.338  1.00  0.00    -0.000 C 
BRANCH  16  17
ATOM     17  C   UNL     1      22.591 -18.095  11.648  1.00  0.00    -0.000 C 
BRANCH  17  18
ATOM     18  C   UNL     1      21.844 -17.642  12.920  1.00  0.00    -0.003 C 
ATOM     19  C   UNL     1      22.705 -17.760  14.178  1.00  0.00     0.004 C 
ENDBRANCH  17  18
ENDBRANCH  16  17
ENDBRANCH  15  16
ENDBRANCH  14  15
ENDBRANCH  13  14
ENDBRANCH  12  13
ENDBRANCH   1  12
TORSDOF 14
ENDMDL
MODEL 7
REMARK VINA RESULT:    -2.159     23.662     25.855
REMARK INTER + INTRA:          -4.888
REMARK INTER:                  -3.663
REMARK INTRA:                  -1.224
REMARK UNBOUND:                -0.962
REMARK SMILES CCCCCCCCCCCCCC[C@H](C)C(=O)[O-]
REMARK SMILES IDX 9 1 10 2 11 3 12 4 13 5 14 6 15 7 16 8 17 9 18 10 19 11 8 12
REMARK SMILES IDX 7 13 6 14 5 15 4 16 3 17 2 18 1 19
REMARK H PARENT
REMARK Flexibility Score: inf
ROOT
ATOM      1  C   UNL     1      21.583 -16.766  12.618  1.00  0.00     0.000 C 
ENDROOT
BRANCH   1   2
ATOM      2  C   UNL     1      22.900 -16.430  13.343  1.00  0.00     0.000 C 
BRANCH   2   3
ATOM      3  C   UNL     1      23.102 -14.939  13.674  1.00  0.00     0.000 C 
BRANCH   3   4
ATOM      4  C   UNL     1      22.573 -14.533  15.065  1.00  0.00     0.000 C 
BRANCH   4   5
ATOM      5  C   UNL     1      22.717 -15.657  16.101  1.00  0.00     0.001 C 
BRANCH   5   6
ATOM      6  C   UNL     1      21.569 -15.619  17.122  1.00  0.00     0.009 C 
BRANCH   6   7
ATOM      7  C   UNL     1      20.703 -16.898  17.092  1.00  0.00     0.032 C 
ATOM      8  C   UNL     1      21.407 -18.061  16.380  1.00  0.00     0.014 C 
BRANCH   7   9
ATOM      9  C   UNL     1      19.395 -16.608  16.410  1.00  0.00     0.044 C 
ATOM     10  O   UNL     1      18.395 -17.344  16.621  1.00  0.00    -0.550 OA
ATOM     11  O   UNL     1      19.278 -15.524  15.547  1.00  0.00    -0.550 OA
ENDBRANCH   7   9
ENDBRANCH   6   7
ENDBRANCH   5   6
ENDBRANCH   4   5
ENDBRANCH   3   4
ENDBRANCH   2   3
ENDBRANCH   1   2
BRANCH   1  12
ATOM     12  C   UNL     1      20.962 -18.125  12.992  1.00  0.00     0.000 C 
BRANCH  12  13
ATOM     13  C   UNL     1      19.438 -18.058  13.170  1.00  0.00    -0.000 C 
BRANCH  13  14
ATOM     14  C   UNL     1      18.729 -18.027  11.811  1.00  0.00    -0.000 C 
BRANCH  14  15
ATOM     15  C   UNL     1      17.204 -18.079  11.987  1.00  0.00    -0.000 C 
BRANCH  15  16
ATOM     16  C   UNL     1      16.446 -17.971  10.653  1.00  0.00    -0.000 C 
BRANCH  16  17
ATOM     17  C   UNL     1      17.341 -17.929   9.400  1.00  0.00    -0.000 C 
BRANCH  17  18
ATOM     18  C   UNL     1      17.540 -16.511   8.825  1.00  0.00    -0.003 C 
ATOM     19  C   UNL     1      18.556 -15.693   9.624  1.00  0.00     0.004 C 
ENDBRANCH  17  18
ENDBRANCH  16  17
ENDBRANCH  15  16
ENDBRANCH  14  15
ENDBRANCH  13  14
ENDBRANCH  12  13
ENDBRANCH   1  12
TORSDOF 14
ENDMDL
