MODEL 1
REMARK VINA RESULT:    -3.151      0.000      0.000
REMARK INTER + INTRA:         -13.108
REMARK INTER:                  -7.941
REMARK INTRA:                  -5.167
REMARK UNBOUND:                -5.167
REMARK SMILES CCCCCCCCCCCCCCCCCCCCCCCCCCCC(=O)[O-]
REMARK SMILES IDX 15 1 16 2 17 3 18 4 19 5 20 6 21 7 22 8 23 9 24 10 25 11
REMARK SMILES IDX 26 12 27 13 28 14 29 15 30 16 14 17 13 18 12 19 11 20 10 21
REMARK SMILES IDX 9 22 8 23 7 24 6 25 5 26 4 27 3 28 2 29 1 30
REMARK H PARENT
REMARK Flexibility Score: inf
ROOT
ATOM      1  C   UNL     1      61.252  31.027  57.793  1.00  0.00     0.000 C 
ENDROOT
BRANCH   1   2
ATOM      2  C   UNL     1      60.911  31.639  59.162  1.00  0.00     0.000 C 
BRANCH   2   3
ATOM      3  C   UNL     1      60.342  30.609  60.151  1.00  0.00     0.000 C 
BRANCH   3   4
ATOM      4  C   UNL     1      61.251  30.463  61.380  1.00  0.00     0.000 C 
BRANCH   4   5
ATOM      5  C   UNL     1      62.041  29.140  61.389  1.00  0.00     0.000 C 
BRANCH   5   6
ATOM      6  C   UNL     1      63.517  29.260  60.959  1.00  0.00     0.000 C 
BRANCH   6   7
ATOM      7  C   UNL     1      64.094  30.689  61.006  1.00  0.00     0.000 C 
BRANCH   7   8
ATOM      8  C   UNL     1      64.619  31.221  59.658  1.00  0.00     0.000 C 
BRANCH   8   9
ATOM      9  C   UNL     1      64.436  32.734  59.443  1.00  0.00     0.000 C 
BRANCH   9  10
ATOM     10  C   UNL     1      63.792  33.436  60.653  1.00  0.00     0.000 C 
BRANCH  10  11
ATOM     11  C   UNL     1      64.068  34.950  60.687  1.00  0.00     0.000 C 
BRANCH  11  12
ATOM     12  C   UNL     1      62.815  35.836  60.802  1.00  0.00     0.006 C 
BRANCH  12  13
ATOM     13  C   UNL     1      61.517  35.087  60.468  1.00  0.00     0.053 C 
BRANCH  13  14
ATOM     14  C   UNL     1      61.024  35.445  59.099  1.00  0.00     0.041 C 
ATOM     15  O   UNL     1      61.597  34.988  58.076  1.00  0.00    -0.550 OA
ATOM     16  O   UNL     1      59.901  36.250  58.956  1.00  0.00    -0.550 OA
ENDBRANCH  13  14
ENDBRANCH  12  13
ENDBRANCH  11  12
ENDBRANCH  10  11
ENDBRANCH   9  10
ENDBRANCH   8   9
ENDBRANCH   7   8
ENDBRANCH   6   7
ENDBRANCH   5   6
ENDBRANCH   4   5
ENDBRANCH   3   4
ENDBRANCH   2   3
ENDBRANCH   1   2
BRANCH   1  17
ATOM     17  C   UNL     1      60.997  29.512  57.673  1.00  0.00     0.000 C 
BRANCH  17  18
ATOM     18  C   UNL     1      62.284  28.667  57.578  1.00  0.00     0.000 C 
BRANCH  18  19
ATOM     19  C   UNL     1      62.034  27.174  57.839  1.00  0.00     0.000 C 
BRANCH  19  20
ATOM     20  C   UNL     1      63.203  26.551  58.610  1.00  0.00     0.000 C 
BRANCH  20  21
ATOM     21  C   UNL     1      62.744  25.322  59.412  1.00  0.00     0.000 C 
BRANCH  21  22
ATOM     22  C   UNL     1      63.245  25.354  60.865  1.00  0.00    -0.000 C 
BRANCH  22  23
ATOM     23  C   UNL     1      62.093  25.495  61.877  1.00  0.00    -0.000 C 
BRANCH  23  24
ATOM     24  C   UNL     1      60.740  25.057  61.291  1.00  0.00    -0.000 C 
BRANCH  24  25
ATOM     25  C   UNL     1      59.637  26.104  61.530  1.00  0.00    -0.000 C 
BRANCH  25  26
ATOM     26  C   UNL     1      59.277  26.892  60.260  1.00  0.00    -0.000 C 
BRANCH  26  27
ATOM     27  C   UNL     1      58.086  27.843  60.470  1.00  0.00    -0.000 C 
BRANCH  27  28
ATOM     28  C   UNL     1      56.787  27.331  59.820  1.00  0.00    -0.000 C 
BRANCH  28  29
ATOM     29  C   UNL     1      55.588  27.205  60.777  1.00  0.00    -0.003 C 
ATOM     30  C   UNL     1      55.803  27.925  62.108  1.00  0.00     0.004 C 
ENDBRANCH  28  29
ENDBRANCH  27  28
ENDBRANCH  26  27
ENDBRANCH  25  26
ENDBRANCH  24  25
ENDBRANCH  23  24
ENDBRANCH  22  23
ENDBRANCH  21  22
ENDBRANCH  20  21
ENDBRANCH  19  20
ENDBRANCH  18  19
ENDBRANCH  17  18
ENDBRANCH   1  17
TORSDOF 26
ENDMDL
MODEL 2
REMARK VINA RESULT:    -3.081      3.992      7.547
REMARK INTER + INTRA:         -12.931
REMARK INTER:                  -8.666
REMARK INTRA:                  -4.265
REMARK UNBOUND:                -5.167
REMARK SMILES CCCCCCCCCCCCCCCCCCCCCCCCCCCC(=O)[O-]
REMARK SMILES IDX 15 1 16 2 17 3 18 4 19 5 20 6 21 7 22 8 23 9 24 10 25 11
REMARK SMILES IDX 26 12 27 13 28 14 29 15 30 16 14 17 13 18 12 19 11 20 10 21
REMARK SMILES IDX 9 22 8 23 7 24 6 25 5 26 4 27 3 28 2 29 1 30
REMARK H PARENT
REMARK Flexibility Score: inf
ROOT
ATOM      1  C   UNL     1      60.574  28.631  58.501  1.00  0.00     0.000 C 
ENDROOT
BRANCH   1   2
ATOM      2  C   UNL     1      61.293  27.520  57.716  1.00  0.00     0.000 C 
BRANCH   2   3
ATOM      3  C   UNL     1      62.559  28.017  57.002  1.00  0.00     0.000 C 
BRANCH   3   4
ATOM      4  C   UNL     1      63.766  28.012  57.952  1.00  0.00     0.000 C 
BRANCH   4   5
ATOM      5  C   UNL     1      63.794  26.785  58.882  1.00  0.00     0.000 C 
BRANCH   5   6
ATOM      6  C   UNL     1      65.005  26.715  59.833  1.00  0.00     0.000 C 
BRANCH   6   7
ATOM      7  C   UNL     1      66.118  27.743  59.546  1.00  0.00     0.000 C 
BRANCH   7   8
ATOM      8  C   UNL     1      66.602  28.537  60.776  1.00  0.00     0.000 C 
BRANCH   8   9
ATOM      9  C   UNL     1      67.979  28.117  61.319  1.00  0.00     0.000 C 
BRANCH   9  10
ATOM     10  C   UNL     1      69.053  28.032  60.219  1.00  0.00     0.000 C 
BRANCH  10  11
ATOM     11  C   UNL     1      70.155  29.095  60.373  1.00  0.00     0.000 C 
BRANCH  11  12
ATOM     12  C   UNL     1      70.257  30.097  59.208  1.00  0.00     0.006 C 
BRANCH  12  13
ATOM     13  C   UNL     1      71.634  30.770  59.112  1.00  0.00     0.053 C 
BRANCH  13  14
ATOM     14  C   UNL     1      71.523  32.253  59.287  1.00  0.00     0.041 C 
ATOM     15  O   UNL     1      71.376  32.750  60.434  1.00  0.00    -0.550 OA
ATOM     16  O   UNL     1      71.628  33.091  58.184  1.00  0.00    -0.550 OA
ENDBRANCH  13  14
ENDBRANCH  12  13
ENDBRANCH  11  12
ENDBRANCH  10  11
ENDBRANCH   9  10
ENDBRANCH   8   9
ENDBRANCH   7   8
ENDBRANCH   6   7
ENDBRANCH   5   6
ENDBRANCH   4   5
ENDBRANCH   3   4
ENDBRANCH   2   3
ENDBRANCH   1   2
BRANCH   1  17
ATOM     17  C   UNL     1      60.688  28.526  60.034  1.00  0.00     0.000 C 
BRANCH  17  18
ATOM     18  C   UNL     1      60.424  29.854  60.773  1.00  0.00     0.000 C 
BRANCH  18  19
ATOM     19  C   UNL     1      61.593  30.272  61.678  1.00  0.00     0.000 C 
BRANCH  19  20
ATOM     20  C   UNL     1      62.926  29.756  61.123  1.00  0.00     0.000 C 
BRANCH  20  21
ATOM     21  C   UNL     1      63.921  30.908  60.914  1.00  0.00     0.000 C 
BRANCH  21  22
ATOM     22  C   UNL     1      64.320  31.074  59.439  1.00  0.00    -0.000 C 
BRANCH  22  23
ATOM     23  C   UNL     1      63.695  32.328  58.801  1.00  0.00    -0.000 C 
BRANCH  23  24
ATOM     24  C   UNL     1      62.239  32.098  58.361  1.00  0.00    -0.000 C 
BRANCH  24  25
ATOM     25  C   UNL     1      61.280  33.146  58.957  1.00  0.00    -0.000 C 
BRANCH  25  26
ATOM     26  C   UNL     1      61.768  33.704  60.304  1.00  0.00    -0.000 C 
BRANCH  26  27
ATOM     27  C   UNL     1      61.582  35.227  60.416  1.00  0.00    -0.000 C 
BRANCH  27  28
ATOM     28  C   UNL     1      62.918  35.991  60.487  1.00  0.00    -0.000 C 
BRANCH  28  29
ATOM     29  C   UNL     1      64.035  35.276  61.269  1.00  0.00    -0.003 C 
ATOM     30  C   UNL     1      65.403  35.385  60.596  1.00  0.00     0.004 C 
ENDBRANCH  28  29
ENDBRANCH  27  28
ENDBRANCH  26  27
ENDBRANCH  25  26
ENDBRANCH  24  25
ENDBRANCH  23  24
ENDBRANCH  22  23
ENDBRANCH  21  22
ENDBRANCH  20  21
ENDBRANCH  19  20
ENDBRANCH  18  19
ENDBRANCH  17  18
ENDBRANCH   1  17
TORSDOF 26
ENDMDL
MODEL 3
REMARK VINA RESULT:    -3.080      8.166     10.780
REMARK INTER + INTRA:         -12.927
REMARK INTER:                  -6.896
REMARK INTRA:                  -6.032
REMARK UNBOUND:                -5.167
REMARK SMILES CCCCCCCCCCCCCCCCCCCCCCCCCCCC(=O)[O-]
REMARK SMILES IDX 15 1 16 2 17 3 18 4 19 5 20 6 21 7 22 8 23 9 24 10 25 11
REMARK SMILES IDX 26 12 27 13 28 14 29 15 30 16 14 17 13 18 12 19 11 20 10 21
REMARK SMILES IDX 9 22 8 23 7 24 6 25 5 26 4 27 3 28 2 29 1 30
REMARK H PARENT
REMARK Flexibility Score: inf
ROOT
ATOM      1  C   UNL     1      60.833  26.012  51.573  1.00  0.00     0.000 C 
ENDROOT
BRANCH   1   2
ATOM      2  C   UNL     1      61.169  26.357  50.112  1.00  0.00     0.000 C 
BRANCH   2   3
ATOM      3  C   UNL     1      59.991  27.005  49.366  1.00  0.00     0.000 C 
BRANCH   3   4
ATOM      4  C   UNL     1      60.393  28.364  48.774  1.00  0.00     0.000 C 
BRANCH   4   5
ATOM      5  C   UNL     1      59.354  29.468  49.045  1.00  0.00     0.000 C 
BRANCH   5   6
ATOM      6  C   UNL     1      58.304  29.124  50.121  1.00  0.00     0.000 C 
BRANCH   6   7
ATOM      7  C   UNL     1      58.438  29.916  51.437  1.00  0.00     0.000 C 
BRANCH   7   8
ATOM      8  C   UNL     1      59.842  30.489  51.710  1.00  0.00     0.000 C 
BRANCH   8   9
ATOM      9  C   UNL     1      60.803  29.532  52.437  1.00  0.00     0.000 C 
BRANCH   9  10
ATOM     10  C   UNL     1      62.242  29.603  51.894  1.00  0.00     0.000 C 
BRANCH  10  11
ATOM     11  C   UNL     1      62.431  30.703  50.834  1.00  0.00     0.000 C 
BRANCH  11  12
ATOM     12  C   UNL     1      63.477  30.388  49.750  1.00  0.00     0.006 C 
BRANCH  12  13
ATOM     13  C   UNL     1      63.867  28.903  49.706  1.00  0.00     0.053 C 
BRANCH  13  14
ATOM     14  C   UNL     1      65.326  28.720  49.991  1.00  0.00     0.041 C 
ATOM     15  O   UNL     1      66.147  29.636  49.722  1.00  0.00    -0.550 OA
ATOM     16  O   UNL     1      65.774  27.553  50.596  1.00  0.00    -0.550 OA
ENDBRANCH  13  14
ENDBRANCH  12  13
ENDBRANCH  11  12
ENDBRANCH  10  11
ENDBRANCH   9  10
ENDBRANCH   8   9
ENDBRANCH   7   8
ENDBRANCH   6   7
ENDBRANCH   5   6
ENDBRANCH   4   5
ENDBRANCH   3   4
ENDBRANCH   2   3
ENDBRANCH   1   2
BRANCH   1  17
ATOM     17  C   UNL     1      59.337  26.078  51.932  1.00  0.00     0.000 C 
BRANCH  17  18
ATOM     18  C   UNL     1      59.062  26.463  53.400  1.00  0.00     0.000 C 
BRANCH  18  19
ATOM     19  C   UNL     1      57.634  26.983  53.620  1.00  0.00     0.000 C 
BRANCH  19  20
ATOM     20  C   UNL     1      57.640  28.248  54.487  1.00  0.00     0.000 C 
BRANCH  20  21
ATOM     21  C   UNL     1      56.355  29.066  54.279  1.00  0.00     0.000 C 
BRANCH  21  22
ATOM     22  C   UNL     1      55.414  28.423  53.247  1.00  0.00    -0.000 C 
BRANCH  22  23
ATOM     23  C   UNL     1      54.237  29.343  52.876  1.00  0.00    -0.000 C 
BRANCH  23  24
ATOM     24  C   UNL     1      54.612  30.367  51.790  1.00  0.00    -0.000 C 
BRANCH  24  25
ATOM     25  C   UNL     1      54.775  29.712  50.406  1.00  0.00    -0.000 C 
BRANCH  25  26
ATOM     26  C   UNL     1      53.544  28.894  49.984  1.00  0.00    -0.000 C 
BRANCH  26  27
ATOM     27  C   UNL     1      53.896  27.446  49.603  1.00  0.00    -0.000 C 
BRANCH  27  28
ATOM     28  C   UNL     1      55.404  27.148  49.708  1.00  0.00    -0.000 C 
BRANCH  28  29
ATOM     29  C   UNL     1      55.765  25.920  50.561  1.00  0.00    -0.003 C 
ATOM     30  C   UNL     1      54.610  25.436  51.438  1.00  0.00     0.004 C 
ENDBRANCH  28  29
ENDBRANCH  27  28
ENDBRANCH  26  27
ENDBRANCH  25  26
ENDBRANCH  24  25
ENDBRANCH  23  24
ENDBRANCH  22  23
ENDBRANCH  21  22
ENDBRANCH  20  21
ENDBRANCH  19  20
ENDBRANCH  18  19
ENDBRANCH  17  18
ENDBRANCH   1  17
TORSDOF 26
ENDMDL
MODEL 4
REMARK VINA RESULT:    -3.038      4.699      8.684
REMARK INTER + INTRA:         -12.822
REMARK INTER:                  -8.841
REMARK INTRA:                  -3.981
REMARK UNBOUND:                -5.167
REMARK SMILES CCCCCCCCCCCCCCCCCCCCCCCCCCCC(=O)[O-]
REMARK SMILES IDX 15 1 16 2 17 3 18 4 19 5 20 6 21 7 22 8 23 9 24 10 25 11
REMARK SMILES IDX 26 12 27 13 28 14 29 15 30 16 14 17 13 18 12 19 11 20 10 21
REMARK SMILES IDX 9 22 8 23 7 24 6 25 5 26 4 27 3 28 2 29 1 30
REMARK H PARENT
REMARK Flexibility Score: inf
ROOT
ATOM      1  C   UNL     1      62.369  28.233  60.842  1.00  0.00     0.000 C 
ENDROOT
BRANCH   1   2
ATOM      2  C   UNL     1      63.697  28.081  60.081  1.00  0.00     0.000 C 
BRANCH   2   3
ATOM      3  C   UNL     1      64.813  28.974  60.645  1.00  0.00     0.000 C 
BRANCH   3   4
ATOM      4  C   UNL     1      65.328  29.953  59.580  1.00  0.00     0.000 C 
BRANCH   4   5
ATOM      5  C   UNL     1      65.216  29.396  58.148  1.00  0.00     0.000 C 
BRANCH   5   6
ATOM      6  C   UNL     1      66.494  29.530  57.295  1.00  0.00     0.000 C 
BRANCH   6   7
ATOM      7  C   UNL     1      67.654  30.283  57.976  1.00  0.00     0.000 C 
BRANCH   7   8
ATOM      8  C   UNL     1      68.254  31.437  57.148  1.00  0.00     0.000 C 
BRANCH   8   9
ATOM      9  C   UNL     1      69.768  31.647  57.331  1.00  0.00     0.000 C 
BRANCH   9  10
ATOM     10  C   UNL     1      70.150  33.131  57.483  1.00  0.00     0.000 C 
BRANCH  10  11
ATOM     11  C   UNL     1      71.406  33.342  58.347  1.00  0.00     0.000 C 
BRANCH  11  12
ATOM     12  C   UNL     1      71.356  32.681  59.737  1.00  0.00     0.006 C 
BRANCH  12  13
ATOM     13  C   UNL     1      72.413  31.582  59.917  1.00  0.00     0.053 C 
BRANCH  13  14
ATOM     14  C   UNL     1      71.842  30.397  60.635  1.00  0.00     0.041 C 
ATOM     15  O   UNL     1      70.922  29.717  60.108  1.00  0.00    -0.550 OA
ATOM     16  O   UNL     1      72.357  30.018  61.868  1.00  0.00    -0.550 OA
ENDBRANCH  13  14
ENDBRANCH  12  13
ENDBRANCH  11  12
ENDBRANCH  10  11
ENDBRANCH   9  10
ENDBRANCH   8   9
ENDBRANCH   7   8
ENDBRANCH   6   7
ENDBRANCH   5   6
ENDBRANCH   4   5
ENDBRANCH   3   4
ENDBRANCH   2   3
ENDBRANCH   1   2
BRANCH   1  17
ATOM     17  C   UNL     1      62.164  29.595  61.532  1.00  0.00     0.000 C 
BRANCH  17  18
ATOM     18  C   UNL     1      60.788  30.236  61.255  1.00  0.00     0.000 C 
BRANCH  18  19
ATOM     19  C   UNL     1      60.901  31.639  60.640  1.00  0.00     0.000 C 
BRANCH  19  20
ATOM     20  C   UNL     1      62.237  31.810  59.907  1.00  0.00     0.000 C 
BRANCH  20  21
ATOM     21  C   UNL     1      63.046  32.976  60.498  1.00  0.00     0.000 C 
BRANCH  21  22
ATOM     22  C   UNL     1      62.286  34.310  60.422  1.00  0.00    -0.000 C 
BRANCH  22  23
ATOM     23  C   UNL     1      63.181  35.513  60.772  1.00  0.00    -0.000 C 
BRANCH  23  24
ATOM     24  C   UNL     1      64.461  35.096  61.516  1.00  0.00    -0.000 C 
BRANCH  24  25
ATOM     25  C   UNL     1      65.731  35.638  60.836  1.00  0.00    -0.000 C 
BRANCH  25  26
ATOM     26  C   UNL     1      65.494  36.060  59.378  1.00  0.00    -0.000 C 
BRANCH  26  27
ATOM     27  C   UNL     1      66.691  35.742  58.465  1.00  0.00    -0.000 C 
BRANCH  27  28
ATOM     28  C   UNL     1      66.385  34.635  57.439  1.00  0.00    -0.000 C 
BRANCH  28  29
ATOM     29  C   UNL     1      65.427  33.537  57.934  1.00  0.00    -0.003 C 
ATOM     30  C   UNL     1      64.210  33.348  57.028  1.00  0.00     0.004 C 
ENDBRANCH  28  29
ENDBRANCH  27  28
ENDBRANCH  26  27
ENDBRANCH  25  26
ENDBRANCH  24  25
ENDBRANCH  23  24
ENDBRANCH  22  23
ENDBRANCH  21  22
ENDBRANCH  20  21
ENDBRANCH  19  20
ENDBRANCH  18  19
ENDBRANCH  17  18
ENDBRANCH   1  17
TORSDOF 26
ENDMDL
MODEL 5
REMARK VINA RESULT:    -3.018      2.889      6.429
REMARK INTER + INTRA:         -12.771
REMARK INTER:                  -7.545
REMARK INTRA:                  -5.227
REMARK UNBOUND:                -5.167
REMARK SMILES CCCCCCCCCCCCCCCCCCCCCCCCCCCC(=O)[O-]
REMARK SMILES IDX 15 1 16 2 17 3 18 4 19 5 20 6 21 7 22 8 23 9 24 10 25 11
REMARK SMILES IDX 26 12 27 13 28 14 29 15 30 16 14 17 13 18 12 19 11 20 10 21
REMARK SMILES IDX 9 22 8 23 7 24 6 25 5 26 4 27 3 28 2 29 1 30
REMARK H PARENT
REMARK Flexibility Score: inf
ROOT
ATOM      1  C   UNL     1      62.431  36.799  60.708  1.00  0.00     0.000 C 
ENDROOT
BRANCH   1   2
ATOM      2  C   UNL     1      61.502  35.575  60.650  1.00  0.00     0.000 C 
BRANCH   2   3
ATOM      3  C   UNL     1      61.087  35.208  59.216  1.00  0.00     0.000 C 
BRANCH   3   4
ATOM      4  C   UNL     1      61.127  33.688  59.001  1.00  0.00     0.000 C 
BRANCH   4   5
ATOM      5  C   UNL     1      61.414  32.906  60.297  1.00  0.00     0.000 C 
BRANCH   5   6
ATOM      6  C   UNL     1      60.743  31.521  60.383  1.00  0.00     0.000 C 
BRANCH   6   7
ATOM      7  C   UNL     1      61.046  30.730  61.671  1.00  0.00     0.000 C 
BRANCH   7   8
ATOM      8  C   UNL     1      62.039  29.564  61.499  1.00  0.00     0.000 C 
BRANCH   8   9
ATOM      9  C   UNL     1      63.481  29.984  61.162  1.00  0.00     0.000 C 
BRANCH   9  10
ATOM     10  C   UNL     1      64.351  28.806  60.686  1.00  0.00     0.000 C 
BRANCH  10  11
ATOM     11  C   UNL     1      65.801  29.217  60.377  1.00  0.00     0.000 C 
BRANCH  11  12
ATOM     12  C   UNL     1      66.436  28.500  59.171  1.00  0.00     0.006 C 
BRANCH  12  13
ATOM     13  C   UNL     1      67.911  28.869  58.961  1.00  0.00     0.053 C 
BRANCH  13  14
ATOM     14  C   UNL     1      68.105  29.600  57.668  1.00  0.00     0.041 C 
ATOM     15  O   UNL     1      68.428  28.974  56.625  1.00  0.00    -0.550 OA
ATOM     16  O   UNL     1      67.886  30.971  57.607  1.00  0.00    -0.550 OA
ENDBRANCH  13  14
ENDBRANCH  12  13
ENDBRANCH  11  12
ENDBRANCH  10  11
ENDBRANCH   9  10
ENDBRANCH   8   9
ENDBRANCH   7   8
ENDBRANCH   6   7
ENDBRANCH   5   6
ENDBRANCH   4   5
ENDBRANCH   3   4
ENDBRANCH   2   3
ENDBRANCH   1   2
BRANCH   1  17
ATOM     17  C   UNL     1      63.937  36.477  60.672  1.00  0.00     0.000 C 
BRANCH  17  18
ATOM     18  C   UNL     1      64.313  35.162  61.385  1.00  0.00     0.000 C 
BRANCH  18  19
ATOM     19  C   UNL     1      64.815  34.083  60.414  1.00  0.00     0.000 C 
BRANCH  19  20
ATOM     20  C   UNL     1      64.826  34.606  58.973  1.00  0.00     0.000 C 
BRANCH  20  21
ATOM     21  C   UNL     1      65.167  33.483  57.980  1.00  0.00     0.000 C 
BRANCH  21  22
ATOM     22  C   UNL     1      64.727  32.101  58.488  1.00  0.00    -0.000 C 
BRANCH  22  23
ATOM     23  C   UNL     1      63.587  31.503  57.643  1.00  0.00    -0.000 C 
BRANCH  23  24
ATOM     24  C   UNL     1      64.014  30.222  56.907  1.00  0.00    -0.000 C 
BRANCH  24  25
ATOM     25  C   UNL     1      63.179  29.001  57.333  1.00  0.00    -0.000 C 
BRANCH  25  26
ATOM     26  C   UNL     1      61.771  29.381  57.819  1.00  0.00    -0.000 C 
BRANCH  26  27
ATOM     27  C   UNL     1      60.796  28.191  57.803  1.00  0.00    -0.000 C 
BRANCH  27  28
ATOM     28  C   UNL     1      59.567  28.410  58.705  1.00  0.00    -0.000 C 
BRANCH  28  29
ATOM     29  C   UNL     1      59.537  27.552  59.983  1.00  0.00    -0.003 C 
ATOM     30  C   UNL     1      58.239  27.702  60.777  1.00  0.00     0.004 C 
ENDBRANCH  28  29
ENDBRANCH  27  28
ENDBRANCH  26  27
ENDBRANCH  25  26
ENDBRANCH  24  25
ENDBRANCH  23  24
ENDBRANCH  22  23
ENDBRANCH  21  22
ENDBRANCH  20  21
ENDBRANCH  19  20
ENDBRANCH  18  19
ENDBRANCH  17  18
ENDBRANCH   1  17
TORSDOF 26
ENDMDL
MODEL 6
REMARK VINA RESULT:    -2.998      4.339      7.549
REMARK INTER + INTRA:         -12.722
REMARK INTER:                  -8.790
REMARK INTRA:                  -3.932
REMARK UNBOUND:                -5.167
REMARK SMILES CCCCCCCCCCCCCCCCCCCCCCCCCCCC(=O)[O-]
REMARK SMILES IDX 15 1 16 2 17 3 18 4 19 5 20 6 21 7 22 8 23 9 24 10 25 11
REMARK SMILES IDX 26 12 27 13 28 14 29 15 30 16 14 17 13 18 12 19 11 20 10 21
REMARK SMILES IDX 9 22 8 23 7 24 6 25 5 26 4 27 3 28 2 29 1 30
REMARK H PARENT
REMARK Flexibility Score: inf
ROOT
ATOM      1  C   UNL     1      61.915  33.154  60.337  1.00  0.00     0.000 C 
ENDROOT
BRANCH   1   2
ATOM      2  C   UNL     1      61.622  34.664  60.383  1.00  0.00     0.000 C 
BRANCH   2   3
ATOM      3  C   UNL     1      62.857  35.501  60.751  1.00  0.00     0.000 C 
BRANCH   3   4
ATOM      4  C   UNL     1      64.084  34.605  60.977  1.00  0.00     0.000 C 
BRANCH   4   5
ATOM      5  C   UNL     1      65.399  35.256  60.507  1.00  0.00     0.000 C 
BRANCH   5   6
ATOM      6  C   UNL     1      65.234  36.366  59.449  1.00  0.00     0.000 C 
BRANCH   6   7
ATOM      7  C   UNL     1      65.980  36.118  58.124  1.00  0.00     0.000 C 
BRANCH   7   8
ATOM      8  C   UNL     1      67.508  35.960  58.257  1.00  0.00     0.000 C 
BRANCH   8   9
ATOM      9  C   UNL     1      68.130  34.880  57.354  1.00  0.00     0.000 C 
BRANCH   9  10
ATOM     10  C   UNL     1      69.629  34.663  57.629  1.00  0.00     0.000 C 
BRANCH  10  11
ATOM     11  C   UNL     1      70.211  33.458  56.870  1.00  0.00     0.000 C 
BRANCH  11  12
ATOM     12  C   UNL     1      71.417  32.784  57.548  1.00  0.00     0.006 C 
BRANCH  12  13
ATOM     13  C   UNL     1      71.013  31.819  58.672  1.00  0.00     0.053 C 
BRANCH  13  14
ATOM     14  C   UNL     1      71.531  32.287  59.997  1.00  0.00     0.041 C 
ATOM     15  O   UNL     1      72.328  31.570  60.658  1.00  0.00    -0.550 OA
ATOM     16  O   UNL     1      71.169  33.538  60.482  1.00  0.00    -0.550 OA
ENDBRANCH  13  14
ENDBRANCH  12  13
ENDBRANCH  11  12
ENDBRANCH  10  11
ENDBRANCH   9  10
ENDBRANCH   8   9
ENDBRANCH   7   8
ENDBRANCH   6   7
ENDBRANCH   5   6
ENDBRANCH   4   5
ENDBRANCH   3   4
ENDBRANCH   2   3
ENDBRANCH   1   2
BRANCH   1  17
ATOM     17  C   UNL     1      61.041  32.349  59.357  1.00  0.00     0.000 C 
BRANCH  17  18
ATOM     18  C   UNL     1      60.632  30.958  59.882  1.00  0.00     0.000 C 
BRANCH  18  19
ATOM     19  C   UNL     1      60.725  30.849  61.412  1.00  0.00     0.000 C 
BRANCH  19  20
ATOM     20  C   UNL     1      61.493  29.588  61.825  1.00  0.00     0.000 C 
BRANCH  20  21
ATOM     21  C   UNL     1      62.472  29.151  60.723  1.00  0.00     0.000 C 
BRANCH  21  22
ATOM     22  C   UNL     1      63.903  29.647  60.985  1.00  0.00    -0.000 C 
BRANCH  22  23
ATOM     23  C   UNL     1      64.967  28.642  60.505  1.00  0.00    -0.000 C 
BRANCH  23  24
ATOM     24  C   UNL     1      66.052  29.305  59.640  1.00  0.00    -0.000 C 
BRANCH  24  25
ATOM     25  C   UNL     1      65.500  30.483  58.816  1.00  0.00    -0.000 C 
BRANCH  25  26
ATOM     26  C   UNL     1      66.499  30.999  57.768  1.00  0.00    -0.000 C 
BRANCH  26  27
ATOM     27  C   UNL     1      65.940  32.171  56.942  1.00  0.00    -0.000 C 
BRANCH  27  28
ATOM     28  C   UNL     1      64.779  32.899  57.645  1.00  0.00    -0.000 C 
BRANCH  28  29
ATOM     29  C   UNL     1      63.511  33.076  56.791  1.00  0.00    -0.003 C 
ATOM     30  C   UNL     1      62.893  34.469  56.915  1.00  0.00     0.004 C 
ENDBRANCH  28  29
ENDBRANCH  27  28
ENDBRANCH  26  27
ENDBRANCH  25  26
ENDBRANCH  24  25
ENDBRANCH  23  24
ENDBRANCH  22  23
ENDBRANCH  21  22
ENDBRANCH  20  21
ENDBRANCH  19  20
ENDBRANCH  18  19
ENDBRANCH  17  18
ENDBRANCH   1  17
TORSDOF 26
ENDMDL
MODEL 7
REMARK VINA RESULT:    -2.998      4.014      6.832
REMARK INTER + INTRA:         -12.722
REMARK INTER:                  -7.493
REMARK INTRA:                  -5.228
REMARK UNBOUND:                -5.167
REMARK SMILES CCCCCCCCCCCCCCCCCCCCCCCCCCCC(=O)[O-]
REMARK SMILES IDX 15 1 16 2 17 3 18 4 19 5 20 6 21 7 22 8 23 9 24 10 25 11
REMARK SMILES IDX 26 12 27 13 28 14 29 15 30 16 14 17 13 18 12 19 11 20 10 21
REMARK SMILES IDX 9 22 8 23 7 24 6 25 5 26 4 27 3 28 2 29 1 30
REMARK H PARENT
REMARK Flexibility Score: inf
ROOT
ATOM      1  C   UNL     1      62.734  34.982  60.682  1.00  0.00     0.000 C 
ENDROOT
BRANCH   1   2
ATOM      2  C   UNL     1      64.127  34.427  61.025  1.00  0.00     0.000 C 
BRANCH   2   3
ATOM      3  C   UNL     1      65.204  35.521  61.102  1.00  0.00     0.000 C 
BRANCH   3   4
ATOM      4  C   UNL     1      65.907  35.700  59.748  1.00  0.00     0.000 C 
BRANCH   4   5
ATOM      5  C   UNL     1      65.203  36.722  58.836  1.00  0.00     0.000 C 
BRANCH   5   6
ATOM      6  C   UNL     1      64.454  36.114  57.633  1.00  0.00     0.000 C 
BRANCH   6   7
ATOM      7  C   UNL     1      64.777  34.634  57.347  1.00  0.00     0.000 C 
BRANCH   7   8
ATOM      8  C   UNL     1      65.821  34.400  56.237  1.00  0.00     0.000 C 
BRANCH   8   9
ATOM      9  C   UNL     1      65.933  35.534  55.202  1.00  0.00     0.000 C 
BRANCH   9  10
ATOM     10  C   UNL     1      67.363  36.090  55.080  1.00  0.00     0.000 C 
BRANCH  10  11
ATOM     11  C   UNL     1      67.827  36.839  56.342  1.00  0.00     0.000 C 
BRANCH  11  12
ATOM     12  C   UNL     1      69.228  36.452  56.848  1.00  0.00     0.006 C 
BRANCH  12  13
ATOM     13  C   UNL     1      69.203  35.293  57.855  1.00  0.00     0.053 C 
BRANCH  13  14
ATOM     14  C   UNL     1      70.570  34.708  58.039  1.00  0.00     0.041 C 
ATOM     15  O   UNL     1      71.502  35.008  57.247  1.00  0.00    -0.550 OA
ATOM     16  O   UNL     1      70.825  33.864  59.112  1.00  0.00    -0.550 OA
ENDBRANCH  13  14
ENDBRANCH  12  13
ENDBRANCH  11  12
ENDBRANCH  10  11
ENDBRANCH   9  10
ENDBRANCH   8   9
ENDBRANCH   7   8
ENDBRANCH   6   7
ENDBRANCH   5   6
ENDBRANCH   4   5
ENDBRANCH   3   4
ENDBRANCH   2   3
ENDBRANCH   1   2
BRANCH   1  17
ATOM     17  C   UNL     1      61.756  33.960  60.074  1.00  0.00     0.000 C 
BRANCH  17  18
ATOM     18  C   UNL     1      62.169  32.490  60.297  1.00  0.00     0.000 C 
BRANCH  18  19
ATOM     19  C   UNL     1      60.973  31.579  60.612  1.00  0.00     0.000 C 
BRANCH  19  20
ATOM     20  C   UNL     1      61.428  30.317  61.354  1.00  0.00     0.000 C 
BRANCH  20  21
ATOM     21  C   UNL     1      62.961  30.200  61.358  1.00  0.00     0.000 C 
BRANCH  21  22
ATOM     22  C   UNL     1      63.443  28.848  60.808  1.00  0.00    -0.000 C 
BRANCH  22  23
ATOM     23  C   UNL     1      64.633  29.000  59.844  1.00  0.00    -0.000 C 
BRANCH  23  24
ATOM     24  C   UNL     1      65.302  30.381  59.950  1.00  0.00    -0.000 C 
BRANCH  24  25
ATOM     25  C   UNL     1      65.261  31.152  58.618  1.00  0.00    -0.000 C 
BRANCH  25  26
ATOM     26  C   UNL     1      64.339  30.495  57.577  1.00  0.00    -0.000 C 
BRANCH  26  27
ATOM     27  C   UNL     1      63.107  31.357  57.249  1.00  0.00    -0.000 C 
BRANCH  27  28
ATOM     28  C   UNL     1      61.865  30.517  56.897  1.00  0.00    -0.000 C 
BRANCH  28  29
ATOM     29  C   UNL     1      61.865  29.087  57.465  1.00  0.00    -0.003 C 
ATOM     30  C   UNL     1      60.550  28.713  58.151  1.00  0.00     0.004 C 
ENDBRANCH  28  29
ENDBRANCH  27  28
ENDBRANCH  26  27
ENDBRANCH  25  26
ENDBRANCH  24  25
ENDBRANCH  23  24
ENDBRANCH  22  23
ENDBRANCH  21  22
ENDBRANCH  20  21
ENDBRANCH  19  20
ENDBRANCH  18  19
ENDBRANCH  17  18
ENDBRANCH   1  17
TORSDOF 26
ENDMDL
MODEL 8
REMARK VINA RESULT:    -2.972      2.347      5.258
REMARK INTER + INTRA:         -12.656
REMARK INTER:                  -7.319
REMARK INTRA:                  -5.337
REMARK UNBOUND:                -5.167
REMARK SMILES CCCCCCCCCCCCCCCCCCCCCCCCCCCC(=O)[O-]
REMARK SMILES IDX 15 1 16 2 17 3 18 4 19 5 20 6 21 7 22 8 23 9 24 10 25 11
REMARK SMILES IDX 26 12 27 13 28 14 29 15 30 16 14 17 13 18 12 19 11 20 10 21
REMARK SMILES IDX 9 22 8 23 7 24 6 25 5 26 4 27 3 28 2 29 1 30
REMARK H PARENT
REMARK Flexibility Score: inf
ROOT
ATOM      1  C   UNL     1      63.785  34.240  56.851  1.00  0.00     0.000 C 
ENDROOT
BRANCH   1   2
ATOM      2  C   UNL     1      64.298  35.617  57.306  1.00  0.00     0.000 C 
BRANCH   2   3
ATOM      3  C   UNL     1      65.512  35.522  58.243  1.00  0.00     0.000 C 
BRANCH   3   4
ATOM      4  C   UNL     1      65.241  36.243  59.572  1.00  0.00     0.000 C 
BRANCH   4   5
ATOM      5  C   UNL     1      65.259  35.293  60.785  1.00  0.00     0.000 C 
BRANCH   5   6
ATOM      6  C   UNL     1      63.940  34.536  61.039  1.00  0.00     0.000 C 
BRANCH   6   7
ATOM      7  C   UNL     1      62.660  35.333  60.719  1.00  0.00     0.000 C 
BRANCH   7   8
ATOM      8  C   UNL     1      61.573  34.541  59.966  1.00  0.00     0.000 C 
BRANCH   8   9
ATOM      9  C   UNL     1      60.853  35.323  58.853  1.00  0.00     0.000 C 
BRANCH   9  10
ATOM     10  C   UNL     1      59.785  34.485  58.129  1.00  0.00     0.000 C 
BRANCH  10  11
ATOM     11  C   UNL     1      60.328  33.145  57.601  1.00  0.00     0.000 C 
BRANCH  11  12
ATOM     12  C   UNL     1      59.300  32.276  56.855  1.00  0.00     0.006 C 
BRANCH  12  13
ATOM     13  C   UNL     1      58.122  31.846  57.742  1.00  0.00     0.053 C 
BRANCH  13  14
ATOM     14  C   UNL     1      56.830  32.411  57.235  1.00  0.00     0.041 C 
ATOM     15  O   UNL     1      56.811  33.121  56.196  1.00  0.00    -0.550 OA
ATOM     16  O   UNL     1      55.640  32.116  57.888  1.00  0.00    -0.550 OA
ENDBRANCH  13  14
ENDBRANCH  12  13
ENDBRANCH  11  12
ENDBRANCH  10  11
ENDBRANCH   9  10
ENDBRANCH   8   9
ENDBRANCH   7   8
ENDBRANCH   6   7
ENDBRANCH   5   6
ENDBRANCH   4   5
ENDBRANCH   3   4
ENDBRANCH   2   3
ENDBRANCH   1   2
BRANCH   1  17
ATOM     17  C   UNL     1      64.624  33.040  57.331  1.00  0.00     0.000 C 
BRANCH  17  18
ATOM     18  C   UNL     1      63.888  32.120  58.326  1.00  0.00     0.000 C 
BRANCH  18  19
ATOM     19  C   UNL     1      64.850  31.318  59.216  1.00  0.00     0.000 C 
BRANCH  19  20
ATOM     20  C   UNL     1      64.309  31.210  60.647  1.00  0.00     0.000 C 
BRANCH  20  21
ATOM     21  C   UNL     1      63.922  29.761  60.983  1.00  0.00     0.000 C 
BRANCH  21  22
ATOM     22  C   UNL     1      62.464  29.642  61.455  1.00  0.00    -0.000 C 
BRANCH  22  23
ATOM     23  C   UNL     1      61.671  30.943  61.239  1.00  0.00    -0.000 C 
BRANCH  23  24
ATOM     24  C   UNL     1      60.499  30.760  60.258  1.00  0.00    -0.000 C 
BRANCH  24  25
ATOM     25  C   UNL     1      60.798  29.694  59.189  1.00  0.00    -0.000 C 
BRANCH  25  26
ATOM     26  C   UNL     1      59.698  28.625  59.088  1.00  0.00    -0.000 C 
BRANCH  26  27
ATOM     27  C   UNL     1      59.378  27.973  60.444  1.00  0.00    -0.000 C 
BRANCH  27  28
ATOM     28  C   UNL     1      59.833  26.504  60.527  1.00  0.00    -0.000 C 
BRANCH  28  29
ATOM     29  C   UNL     1      60.983  26.234  61.513  1.00  0.00    -0.003 C 
ATOM     30  C   UNL     1      62.333  26.040  60.822  1.00  0.00     0.004 C 
ENDBRANCH  28  29
ENDBRANCH  27  28
ENDBRANCH  26  27
ENDBRANCH  25  26
ENDBRANCH  24  25
ENDBRANCH  23  24
ENDBRANCH  22  23
ENDBRANCH  21  22
ENDBRANCH  20  21
ENDBRANCH  19  20
ENDBRANCH  18  19
ENDBRANCH  17  18
ENDBRANCH   1  17
TORSDOF 26
ENDMDL
MODEL 9
REMARK VINA RESULT:    -2.883      3.237      7.350
REMARK INTER + INTRA:         -12.432
REMARK INTER:                  -7.196
REMARK INTRA:                  -5.236
REMARK UNBOUND:                -5.167
REMARK SMILES CCCCCCCCCCCCCCCCCCCCCCCCCCCC(=O)[O-]
REMARK SMILES IDX 15 1 16 2 17 3 18 4 19 5 20 6 21 7 22 8 23 9 24 10 25 11
REMARK SMILES IDX 26 12 27 13 28 14 29 15 30 16 14 17 13 18 12 19 11 20 10 21
REMARK SMILES IDX 9 22 8 23 7 24 6 25 5 26 4 27 3 28 2 29 1 30
REMARK H PARENT
REMARK Flexibility Score: inf
ROOT
ATOM      1  C   UNL     1      64.503  33.634  59.815  1.00  0.00     0.000 C 
ENDROOT
BRANCH   1   2
ATOM      2  C   UNL     1      64.293  34.356  58.473  1.00  0.00     0.000 C 
BRANCH   2   3
ATOM      3  C   UNL     1      63.178  33.725  57.624  1.00  0.00     0.000 C 
BRANCH   3   4
ATOM      4  C   UNL     1      63.038  32.225  57.924  1.00  0.00     0.000 C 
BRANCH   4   5
ATOM      5  C   UNL     1      61.571  31.773  58.056  1.00  0.00     0.000 C 
BRANCH   5   6
ATOM      6  C   UNL     1      60.842  32.286  59.314  1.00  0.00     0.000 C 
BRANCH   6   7
ATOM      7  C   UNL     1      61.492  31.882  60.652  1.00  0.00     0.000 C 
BRANCH   7   8
ATOM      8  C   UNL     1      60.771  30.749  61.409  1.00  0.00     0.000 C 
BRANCH   8   9
ATOM      9  C   UNL     1      61.542  29.418  61.472  1.00  0.00     0.000 C 
BRANCH   9  10
ATOM     10  C   UNL     1      61.602  28.698  60.112  1.00  0.00     0.000 C 
BRANCH  10  11
ATOM     11  C   UNL     1      63.033  28.578  59.559  1.00  0.00     0.000 C 
BRANCH  11  12
ATOM     12  C   UNL     1      64.150  28.850  60.583  1.00  0.00     0.006 C 
BRANCH  12  13
ATOM     13  C   UNL     1      64.967  30.110  60.260  1.00  0.00     0.053 C 
BRANCH  13  14
ATOM     14  C   UNL     1      66.009  29.826  59.222  1.00  0.00     0.041 C 
ATOM     15  O   UNL     1      66.160  30.603  58.243  1.00  0.00    -0.550 OA
ATOM     16  O   UNL     1      66.845  28.725  59.361  1.00  0.00    -0.550 OA
ENDBRANCH  13  14
ENDBRANCH  12  13
ENDBRANCH  11  12
ENDBRANCH  10  11
ENDBRANCH   9  10
ENDBRANCH   8   9
ENDBRANCH   7   8
ENDBRANCH   6   7
ENDBRANCH   5   6
ENDBRANCH   4   5
ENDBRANCH   3   4
ENDBRANCH   2   3
ENDBRANCH   1   2
BRANCH   1  17
ATOM     17  C   UNL     1      64.141  34.460  61.064  1.00  0.00     0.000 C 
BRANCH  17  18
ATOM     18  C   UNL     1      63.415  35.784  60.750  1.00  0.00     0.000 C 
BRANCH  18  19
ATOM     19  C   UNL     1      61.885  35.637  60.751  1.00  0.00     0.000 C 
BRANCH  19  20
ATOM     20  C   UNL     1      61.265  36.368  59.554  1.00  0.00     0.000 C 
BRANCH  20  21
ATOM     21  C   UNL     1      59.934  35.720  59.140  1.00  0.00     0.000 C 
BRANCH  21  22
ATOM     22  C   UNL     1      59.600  35.969  57.660  1.00  0.00    -0.000 C 
BRANCH  22  23
ATOM     23  C   UNL     1      59.649  34.678  56.824  1.00  0.00    -0.000 C 
BRANCH  23  24
ATOM     24  C   UNL     1      58.341  34.428  56.053  1.00  0.00    -0.000 C 
BRANCH  24  25
ATOM     25  C   UNL     1      57.102  34.871  56.852  1.00  0.00    -0.000 C 
BRANCH  25  26
ATOM     26  C   UNL     1      56.513  33.743  57.714  1.00  0.00    -0.000 C 
BRANCH  26  27
ATOM     27  C   UNL     1      56.507  32.385  56.990  1.00  0.00    -0.000 C 
BRANCH  27  28
ATOM     28  C   UNL     1      57.340  31.314  57.718  1.00  0.00    -0.000 C 
BRANCH  28  29
ATOM     29  C   UNL     1      58.422  30.637  56.857  1.00  0.00    -0.003 C 
ATOM     30  C   UNL     1      57.982  30.405  55.412  1.00  0.00     0.004 C 
ENDBRANCH  28  29
ENDBRANCH  27  28
ENDBRANCH  26  27
ENDBRANCH  25  26
ENDBRANCH  24  25
ENDBRANCH  23  24
ENDBRANCH  22  23
ENDBRANCH  21  22
ENDBRANCH  20  21
ENDBRANCH  19  20
ENDBRANCH  18  19
ENDBRANCH  17  18
ENDBRANCH   1  17
TORSDOF 26
ENDMDL
