MODEL 1
REMARK VINA RESULT:    -3.621      0.000      0.000
REMARK INTER + INTRA:          -7.325
REMARK INTER:                  -6.161
REMARK INTRA:                  -1.164
REMARK UNBOUND:                -1.164
REMARK SMILES CCCCCCCCCCCCCC(=O)[O-]
REMARK SMILES IDX 8 1 9 2 10 3 11 4 12 5 13 6 14 7 15 8 16 9 7 10 6 11 5 12
REMARK SMILES IDX 4 13 3 14 2 15 1 16
REMARK H PARENT
REMARK Flexibility Score: inf
ROOT
ATOM      1  C   UNL     1     113.700  54.894 228.419  1.00  0.00     0.000 C 
ENDROOT
BRANCH   1   2
ATOM      2  C   UNL     1     113.525  55.248 229.905  1.00  0.00     0.000 C 
BRANCH   2   3
ATOM      3  C   UNL     1     112.544  54.288 230.615  1.00  0.00     0.000 C 
BRANCH   3   4
ATOM      4  C   UNL     1     113.161  53.577 231.834  1.00  0.00     0.000 C 
BRANCH   4   5
ATOM      5  C   UNL     1     112.133  52.873 232.746  1.00  0.00     0.006 C 
BRANCH   5   6
ATOM      6  C   UNL     1     110.676  53.056 232.292  1.00  0.00     0.053 C 
BRANCH   6   7
ATOM      7  C   UNL     1     109.732  52.136 233.001  1.00  0.00     0.041 C 
ATOM      8  O   UNL     1     109.116  52.528 234.026  1.00  0.00    -0.550 OA
ATOM      9  O   UNL     1     109.538  50.843 232.534  1.00  0.00    -0.550 OA
ENDBRANCH   6   7
ENDBRANCH   5   6
ENDBRANCH   4   5
ENDBRANCH   3   4
ENDBRANCH   2   3
ENDBRANCH   1   2
BRANCH   1  10
ATOM     10  C   UNL     1     113.068  53.543 228.049  1.00  0.00     0.000 C 
BRANCH  10  11
ATOM     11  C   UNL     1     113.450  53.079 226.632  1.00  0.00    -0.000 C 
BRANCH  11  12
ATOM     12  C   UNL     1     112.653  53.807 225.537  1.00  0.00    -0.000 C 
BRANCH  12  13
ATOM     13  C   UNL     1     111.156  53.921 225.873  1.00  0.00    -0.000 C 
BRANCH  13  14
ATOM     14  C   UNL     1     110.607  55.340 225.655  1.00  0.00    -0.000 C 
BRANCH  14  15
ATOM     15  C   UNL     1     109.581  55.750 226.722  1.00  0.00    -0.003 C 
ATOM     16  C   UNL     1     110.270  56.121 228.032  1.00  0.00     0.004 C 
ENDBRANCH  14  15
ENDBRANCH  13  14
ENDBRANCH  12  13
ENDBRANCH  11  12
ENDBRANCH  10  11
ENDBRANCH   1  10
TORSDOF 12
ENDMDL
MODEL 2
REMARK VINA RESULT:    -3.580      1.389      2.204
REMARK INTER + INTRA:          -7.256
REMARK INTER:                  -6.575
REMARK INTRA:                  -0.681
REMARK UNBOUND:                -1.164
REMARK SMILES CCCCCCCCCCCCCC(=O)[O-]
REMARK SMILES IDX 8 1 9 2 10 3 11 4 12 5 13 6 14 7 15 8 16 9 7 10 6 11 5 12
REMARK SMILES IDX 4 13 3 14 2 15 1 16
REMARK H PARENT
REMARK Flexibility Score: inf
ROOT
ATOM      1  C   UNL     1     113.279  54.758 228.684  1.00  0.00     0.000 C 
ENDROOT
BRANCH   1   2
ATOM      2  C   UNL     1     113.282  54.682 230.219  1.00  0.00     0.000 C 
BRANCH   2   3
ATOM      3  C   UNL     1     112.598  53.395 230.735  1.00  0.00     0.000 C 
BRANCH   3   4
ATOM      4  C   UNL     1     112.918  53.082 232.208  1.00  0.00     0.000 C 
BRANCH   4   5
ATOM      5  C   UNL     1     111.963  53.750 233.220  1.00  0.00     0.006 C 
BRANCH   5   6
ATOM      6  C   UNL     1     110.496  53.777 232.762  1.00  0.00     0.053 C 
BRANCH   6   7
ATOM      7  C   UNL     1     109.719  52.595 233.251  1.00  0.00     0.041 C 
ATOM      8  O   UNL     1     109.865  51.471 232.703  1.00  0.00    -0.550 OA
ATOM      9  O   UNL     1     108.828  52.736 234.307  1.00  0.00    -0.550 OA
ENDBRANCH   6   7
ENDBRANCH   5   6
ENDBRANCH   4   5
ENDBRANCH   3   4
ENDBRANCH   2   3
ENDBRANCH   1   2
BRANCH   1  10
ATOM     10  C   UNL     1     112.974  53.406 228.019  1.00  0.00     0.000 C 
BRANCH  10  11
ATOM     11  C   UNL     1     113.546  53.304 226.595  1.00  0.00    -0.000 C 
BRANCH  11  12
ATOM     12  C   UNL     1     112.512  53.663 225.516  1.00  0.00    -0.000 C 
BRANCH  12  13
ATOM     13  C   UNL     1     111.064  53.570 226.031  1.00  0.00    -0.000 C 
BRANCH  13  14
ATOM     14  C   UNL     1     110.031  53.565 224.893  1.00  0.00    -0.000 C 
BRANCH  14  15
ATOM     15  C   UNL     1     109.622  52.146 224.469  1.00  0.00    -0.003 C 
ATOM     16  C   UNL     1     108.646  52.184 223.296  1.00  0.00     0.004 C 
ENDBRANCH  14  15
ENDBRANCH  13  14
ENDBRANCH  12  13
ENDBRANCH  11  12
ENDBRANCH  10  11
ENDBRANCH   1  10
TORSDOF 12
ENDMDL
MODEL 3
REMARK VINA RESULT:    -3.509      3.257      6.093
REMARK INTER + INTRA:          -7.136
REMARK INTER:                  -5.474
REMARK INTRA:                  -1.661
REMARK UNBOUND:                -1.164
REMARK SMILES CCCCCCCCCCCCCC(=O)[O-]
REMARK SMILES IDX 8 1 9 2 10 3 11 4 12 5 13 6 14 7 15 8 16 9 7 10 6 11 5 12
REMARK SMILES IDX 4 13 3 14 2 15 1 16
REMARK H PARENT
REMARK Flexibility Score: inf
ROOT
ATOM      1  C   UNL     1     113.088  53.146 232.273  1.00  0.00     0.000 C 
ENDROOT
BRANCH   1   2
ATOM      2  C   UNL     1     112.587  53.379 230.838  1.00  0.00     0.000 C 
BRANCH   2   3
ATOM      3  C   UNL     1     113.277  54.593 230.176  1.00  0.00     0.000 C 
BRANCH   3   4
ATOM      4  C   UNL     1     112.620  55.019 228.850  1.00  0.00     0.000 C 
BRANCH   4   5
ATOM      5  C   UNL     1     113.475  54.732 227.597  1.00  0.00     0.006 C 
BRANCH   5   6
ATOM      6  C   UNL     1     113.259  53.329 227.009  1.00  0.00     0.053 C 
BRANCH   6   7
ATOM      7  C   UNL     1     112.335  53.334 225.832  1.00  0.00     0.041 C 
ATOM      8  O   UNL     1     112.764  53.648 224.690  1.00  0.00    -0.550 OA
ATOM      9  O   UNL     1     110.997  52.999 225.996  1.00  0.00    -0.550 OA
ENDBRANCH   6   7
ENDBRANCH   5   6
ENDBRANCH   4   5
ENDBRANCH   3   4
ENDBRANCH   2   3
ENDBRANCH   1   2
BRANCH   1  10
ATOM     10  C   UNL     1     111.943  52.980 233.285  1.00  0.00     0.000 C 
BRANCH  10  11
ATOM     11  C   UNL     1     110.676  52.379 232.653  1.00  0.00    -0.000 C 
BRANCH  11  12
ATOM     12  C   UNL     1     109.408  53.179 232.996  1.00  0.00    -0.000 C 
BRANCH  12  13
ATOM     13  C   UNL     1     109.666  54.694 233.062  1.00  0.00    -0.000 C 
BRANCH  13  14
ATOM     14  C   UNL     1     109.656  55.357 231.675  1.00  0.00    -0.000 C 
BRANCH  14  15
ATOM     15  C   UNL     1     110.396  56.703 231.656  1.00  0.00    -0.003 C 
ATOM     16  C   UNL     1     111.537  56.717 232.669  1.00  0.00     0.004 C 
ENDBRANCH  14  15
ENDBRANCH  13  14
ENDBRANCH  12  13
ENDBRANCH  11  12
ENDBRANCH  10  11
ENDBRANCH   1  10
TORSDOF 12
ENDMDL
MODEL 4
REMARK VINA RESULT:    -3.421      3.133      6.483
REMARK INTER + INTRA:          -6.985
REMARK INTER:                  -5.961
REMARK INTRA:                  -1.024
REMARK UNBOUND:                -1.164
REMARK SMILES CCCCCCCCCCCCCC(=O)[O-]
REMARK SMILES IDX 8 1 9 2 10 3 11 4 12 5 13 6 14 7 15 8 16 9 7 10 6 11 5 12
REMARK SMILES IDX 4 13 3 14 2 15 1 16
REMARK H PARENT
REMARK Flexibility Score: inf
ROOT
ATOM      1  C   UNL     1     113.104  54.810 230.531  1.00  0.00     0.000 C 
ENDROOT
BRANCH   1   2
ATOM      2  C   UNL     1     113.374  54.964 229.025  1.00  0.00     0.000 C 
BRANCH   2   3
ATOM      3  C   UNL     1     113.013  53.682 228.240  1.00  0.00     0.000 C 
BRANCH   3   4
ATOM      4  C   UNL     1     113.589  53.659 226.813  1.00  0.00     0.000 C 
BRANCH   4   5
ATOM      5  C   UNL     1     112.572  53.255 225.724  1.00  0.00     0.006 C 
BRANCH   5   6
ATOM      6  C   UNL     1     111.116  53.594 226.082  1.00  0.00     0.053 C 
BRANCH   6   7
ATOM      7  C   UNL     1     110.130  52.924 225.177  1.00  0.00     0.041 C 
ATOM      8  O   UNL     1     109.534  51.880 225.552  1.00  0.00    -0.550 OA
ATOM      9  O   UNL     1     109.873  53.449 223.918  1.00  0.00    -0.550 OA
ENDBRANCH   6   7
ENDBRANCH   5   6
ENDBRANCH   4   5
ENDBRANCH   3   4
ENDBRANCH   2   3
ENDBRANCH   1   2
BRANCH   1  10
ATOM     10  C   UNL     1     112.549  53.425 230.900  1.00  0.00     0.000 C 
BRANCH  10  11
ATOM     11  C   UNL     1     113.124  52.890 232.223  1.00  0.00    -0.000 C 
BRANCH  11  12
ATOM     12  C   UNL     1     113.153  53.959 233.329  1.00  0.00    -0.000 C 
BRANCH  12  13
ATOM     13  C   UNL     1     112.331  53.553 234.565  1.00  0.00    -0.000 C 
BRANCH  13  14
ATOM     14  C   UNL     1     110.832  53.414 234.258  1.00  0.00    -0.000 C 
BRANCH  14  15
ATOM     15  C   UNL     1     110.179  54.749 233.870  1.00  0.00    -0.003 C 
ATOM     16  C   UNL     1     109.500  54.652 232.506  1.00  0.00     0.004 C 
ENDBRANCH  14  15
ENDBRANCH  13  14
ENDBRANCH  12  13
ENDBRANCH  11  12
ENDBRANCH  10  11
ENDBRANCH   1  10
TORSDOF 12
ENDMDL
MODEL 5
REMARK VINA RESULT:    -3.409      2.422      4.859
REMARK INTER + INTRA:          -6.965
REMARK INTER:                  -6.241
REMARK INTRA:                  -0.723
REMARK UNBOUND:                -1.164
REMARK SMILES CCCCCCCCCCCCCC(=O)[O-]
REMARK SMILES IDX 8 1 9 2 10 3 11 4 12 5 13 6 14 7 15 8 16 9 7 10 6 11 5 12
REMARK SMILES IDX 4 13 3 14 2 15 1 16
REMARK H PARENT
REMARK Flexibility Score: inf
ROOT
ATOM      1  C   UNL     1     110.800  53.726 232.695  1.00  0.00     0.000 C 
ENDROOT
BRANCH   1   2
ATOM      2  C   UNL     1     109.710  53.384 233.724  1.00  0.00     0.000 C 
BRANCH   2   3
ATOM      3  C   UNL     1     108.838  52.193 233.266  1.00  0.00     0.000 C 
BRANCH   3   4
ATOM      4  C   UNL     1     109.581  51.214 232.338  1.00  0.00     0.000 C 
BRANCH   4   5
ATOM      5  C   UNL     1     108.860  49.865 232.131  1.00  0.00     0.006 C 
BRANCH   5   6
ATOM      6  C   UNL     1     107.381  50.007 231.738  1.00  0.00     0.053 C 
BRANCH   6   7
ATOM      7  C   UNL     1     106.508  48.992 232.406  1.00  0.00     0.041 C 
ATOM      8  O   UNL     1     106.997  47.907 232.817  1.00  0.00    -0.550 OA
ATOM      9  O   UNL     1     105.151  49.241 232.570  1.00  0.00    -0.550 OA
ENDBRANCH   6   7
ENDBRANCH   5   6
ENDBRANCH   4   5
ENDBRANCH   3   4
ENDBRANCH   2   3
ENDBRANCH   1   2
BRANCH   1  10
ATOM     10  C   UNL     1     112.221  53.481 233.227  1.00  0.00     0.000 C 
BRANCH  10  11
ATOM     11  C   UNL     1     113.257  53.331 232.099  1.00  0.00    -0.000 C 
BRANCH  11  12
ATOM     12  C   UNL     1     112.701  53.747 230.727  1.00  0.00    -0.000 C 
BRANCH  12  13
ATOM     13  C   UNL     1     113.516  54.879 230.077  1.00  0.00    -0.000 C 
BRANCH  13  14
ATOM     14  C   UNL     1     113.543  54.783 228.544  1.00  0.00    -0.000 C 
BRANCH  14  15
ATOM     15  C   UNL     1     113.015  53.437 228.024  1.00  0.00    -0.003 C 
ATOM     16  C   UNL     1     113.139  53.348 226.505  1.00  0.00     0.004 C 
ENDBRANCH  14  15
ENDBRANCH  13  14
ENDBRANCH  12  13
ENDBRANCH  11  12
ENDBRANCH  10  11
ENDBRANCH   1  10
TORSDOF 12
ENDMDL
MODEL 6
REMARK VINA RESULT:    -3.399      3.358      6.763
REMARK INTER + INTRA:          -6.947
REMARK INTER:                  -6.000
REMARK INTRA:                  -0.947
REMARK UNBOUND:                -1.164
REMARK SMILES CCCCCCCCCCCCCC(=O)[O-]
REMARK SMILES IDX 8 1 9 2 10 3 11 4 12 5 13 6 14 7 15 8 16 9 7 10 6 11 5 12
REMARK SMILES IDX 4 13 3 14 2 15 1 16
REMARK H PARENT
REMARK Flexibility Score: inf
ROOT
ATOM      1  C   UNL     1     113.138  54.741 230.602  1.00  0.00     0.000 C 
ENDROOT
BRANCH   1   2
ATOM      2  C   UNL     1     113.489  54.998 229.128  1.00  0.00     0.000 C 
BRANCH   2   3
ATOM      3  C   UNL     1     112.948  53.883 228.203  1.00  0.00     0.000 C 
BRANCH   3   4
ATOM      4  C   UNL     1     113.533  53.933 226.780  1.00  0.00     0.000 C 
BRANCH   4   5
ATOM      5  C   UNL     1     112.521  53.592 225.665  1.00  0.00     0.006 C 
BRANCH   5   6
ATOM      6  C   UNL     1     111.058  53.589 226.137  1.00  0.00     0.053 C 
BRANCH   6   7
ATOM      7  C   UNL     1     110.133  52.965 225.140  1.00  0.00     0.041 C 
ATOM      8  O   UNL     1     109.574  51.866 225.396  1.00  0.00    -0.550 OA
ATOM      9  O   UNL     1     109.893  53.593 223.925  1.00  0.00    -0.550 OA
ENDBRANCH   6   7
ENDBRANCH   5   6
ENDBRANCH   4   5
ENDBRANCH   3   4
ENDBRANCH   2   3
ENDBRANCH   1   2
BRANCH   1  10
ATOM     10  C   UNL     1     112.644  53.309 230.858  1.00  0.00     0.000 C 
BRANCH  10  11
ATOM     11  C   UNL     1     112.759  52.898 232.337  1.00  0.00    -0.000 C 
BRANCH  11  12
ATOM     12  C   UNL     1     114.102  53.312 232.961  1.00  0.00    -0.000 C 
BRANCH  12  13
ATOM     13  C   UNL     1     113.930  54.021 234.316  1.00  0.00    -0.000 C 
BRANCH  13  14
ATOM     14  C   UNL     1     112.488  53.947 234.843  1.00  0.00    -0.000 C 
BRANCH  14  15
ATOM     15  C   UNL     1     111.888  55.332 235.125  1.00  0.00    -0.003 C 
ATOM     16  C   UNL     1     112.403  56.367 234.128  1.00  0.00     0.004 C 
ENDBRANCH  14  15
ENDBRANCH  13  14
ENDBRANCH  12  13
ENDBRANCH  11  12
ENDBRANCH  10  11
ENDBRANCH   1  10
TORSDOF 12
ENDMDL
MODEL 7
REMARK VINA RESULT:    -3.292      3.225      6.321
REMARK INTER + INTRA:          -6.766
REMARK INTER:                  -5.266
REMARK INTRA:                  -1.500
REMARK UNBOUND:                -1.164
REMARK SMILES CCCCCCCCCCCCCC(=O)[O-]
REMARK SMILES IDX 8 1 9 2 10 3 11 4 12 5 13 6 14 7 15 8 16 9 7 10 6 11 5 12
REMARK SMILES IDX 4 13 3 14 2 15 1 16
REMARK H PARENT
REMARK Flexibility Score: inf
ROOT
ATOM      1  C   UNL     1     112.091  56.650 231.846  1.00  0.00     0.000 C 
ENDROOT
BRANCH   1   2
ATOM      2  C   UNL     1     112.216  56.818 230.323  1.00  0.00     0.000 C 
BRANCH   2   3
ATOM      3  C   UNL     1     113.149  55.754 229.699  1.00  0.00     0.000 C 
BRANCH   3   4
ATOM      4  C   UNL     1     112.513  55.006 228.512  1.00  0.00     0.000 C 
BRANCH   4   5
ATOM      5  C   UNL     1     113.015  53.558 228.334  1.00  0.00     0.006 C 
BRANCH   5   6
ATOM      6  C   UNL     1     113.505  53.244 226.911  1.00  0.00     0.053 C 
BRANCH   6   7
ATOM      7  C   UNL     1     112.425  53.389 225.885  1.00  0.00     0.041 C 
ATOM      8  O   UNL     1     111.264  52.962 226.122  1.00  0.00    -0.550 OA
ATOM      9  O   UNL     1     112.701  53.989 224.664  1.00  0.00    -0.550 OA
ENDBRANCH   6   7
ENDBRANCH   5   6
ENDBRANCH   4   5
ENDBRANCH   3   4
ENDBRANCH   2   3
ENDBRANCH   1   2
BRANCH   1  10
ATOM     10  C   UNL     1     110.637  56.469 232.310  1.00  0.00     0.000 C 
BRANCH  10  11
ATOM     11  C   UNL     1     110.049  55.109 231.897  1.00  0.00    -0.000 C 
BRANCH  11  12
ATOM     12  C   UNL     1     110.218  54.037 232.987  1.00  0.00    -0.000 C 
BRANCH  12  13
ATOM     13  C   UNL     1     110.721  52.696 232.425  1.00  0.00    -0.000 C 
BRANCH  13  14
ATOM     14  C   UNL     1     112.173  52.772 231.925  1.00  0.00    -0.000 C 
BRANCH  14  15
ATOM     15  C   UNL     1     113.190  52.887 233.071  1.00  0.00    -0.003 C 
ATOM     16  C   UNL     1     114.124  54.074 232.858  1.00  0.00     0.004 C 
ENDBRANCH  14  15
ENDBRANCH  13  14
ENDBRANCH  12  13
ENDBRANCH  11  12
ENDBRANCH  10  11
ENDBRANCH   1  10
TORSDOF 12
ENDMDL
MODEL 8
REMARK VINA RESULT:    -3.274      0.982      1.391
REMARK INTER + INTRA:          -6.735
REMARK INTER:                  -5.499
REMARK INTRA:                  -1.236
REMARK UNBOUND:                -1.164
REMARK SMILES CCCCCCCCCCCCCC(=O)[O-]
REMARK SMILES IDX 8 1 9 2 10 3 11 4 12 5 13 6 14 7 15 8 16 9 7 10 6 11 5 12
REMARK SMILES IDX 4 13 3 14 2 15 1 16
REMARK H PARENT
REMARK Flexibility Score: inf
ROOT
ATOM      1  C   UNL     1     113.190  54.442 228.239  1.00  0.00     0.000 C 
ENDROOT
BRANCH   1   2
ATOM      2  C   UNL     1     112.835  54.086 229.692  1.00  0.00     0.000 C 
BRANCH   2   3
ATOM      3  C   UNL     1     113.616  54.953 230.707  1.00  0.00     0.000 C 
BRANCH   3   4
ATOM      4  C   UNL     1     113.817  54.264 232.069  1.00  0.00     0.000 C 
BRANCH   4   5
ATOM      5  C   UNL     1     113.004  52.965 232.250  1.00  0.00     0.006 C 
BRANCH   5   6
ATOM      6  C   UNL     1     112.086  52.976 233.484  1.00  0.00     0.053 C 
BRANCH   6   7
ATOM      7  C   UNL     1     110.638  53.087 233.123  1.00  0.00     0.041 C 
ATOM      8  O   UNL     1     109.782  52.377 233.713  1.00  0.00    -0.550 OA
ATOM      9  O   UNL     1     110.234  53.970 232.130  1.00  0.00    -0.550 OA
ENDBRANCH   6   7
ENDBRANCH   5   6
ENDBRANCH   4   5
ENDBRANCH   3   4
ENDBRANCH   2   3
ENDBRANCH   1   2
BRANCH   1  10
ATOM     10  C   UNL     1     113.314  53.206 227.334  1.00  0.00     0.000 C 
BRANCH  10  11
ATOM     11  C   UNL     1     112.825  53.471 225.900  1.00  0.00    -0.000 C 
BRANCH  11  12
ATOM     12  C   UNL     1     111.291  53.467 225.789  1.00  0.00    -0.000 C 
BRANCH  12  13
ATOM     13  C   UNL     1     110.723  54.846 225.408  1.00  0.00    -0.000 C 
BRANCH  13  14
ATOM     14  C   UNL     1     109.768  55.407 226.474  1.00  0.00    -0.000 C 
BRANCH  14  15
ATOM     15  C   UNL     1     110.424  56.486 227.349  1.00  0.00    -0.003 C 
ATOM     16  C   UNL     1     109.928  56.400 228.790  1.00  0.00     0.004 C 
ENDBRANCH  14  15
ENDBRANCH  13  14
ENDBRANCH  12  13
ENDBRANCH  11  12
ENDBRANCH  10  11
ENDBRANCH   1  10
TORSDOF 12
ENDMDL
MODEL 9
REMARK VINA RESULT:    -3.222     15.646     18.390
REMARK INTER + INTRA:          -6.646
REMARK INTER:                  -4.788
REMARK INTRA:                  -1.858
REMARK UNBOUND:                -1.164
REMARK SMILES CCCCCCCCCCCCCC(=O)[O-]
REMARK SMILES IDX 8 1 9 2 10 3 11 4 12 5 13 6 14 7 15 8 16 9 7 10 6 11 5 12
REMARK SMILES IDX 4 13 3 14 2 15 1 16
REMARK H PARENT
REMARK Flexibility Score: inf
ROOT
ATOM      1  C   UNL     1      95.278  64.827 226.253  1.00  0.00     0.000 C 
ENDROOT
BRANCH   1   2
ATOM      2  C   UNL     1      95.076  65.089 224.751  1.00  0.00     0.000 C 
BRANCH   2   3
ATOM      3  C   UNL     1      96.161  64.397 223.894  1.00  0.00     0.000 C 
BRANCH   3   4
ATOM      4  C   UNL     1      97.239  63.686 224.732  1.00  0.00     0.000 C 
BRANCH   4   5
ATOM      5  C   UNL     1      98.610  64.395 224.734  1.00  0.00     0.006 C 
BRANCH   5   6
ATOM      6  C   UNL     1      99.805  63.430 224.809  1.00  0.00     0.053 C 
BRANCH   6   7
ATOM      7  C   UNL     1     100.982  63.910 224.020  1.00  0.00     0.041 C 
ATOM      8  O   UNL     1     102.103  63.350 224.149  1.00  0.00    -0.550 OA
ATOM      9  O   UNL     1     100.844  64.979 223.145  1.00  0.00    -0.550 OA
ENDBRANCH   6   7
ENDBRANCH   5   6
ENDBRANCH   4   5
ENDBRANCH   3   4
ENDBRANCH   2   3
ENDBRANCH   1   2
BRANCH   1  10
ATOM     10  C   UNL     1      95.729  66.080 227.022  1.00  0.00     0.000 C 
BRANCH  10  11
ATOM     11  C   UNL     1      96.909  65.800 227.969  1.00  0.00    -0.000 C 
BRANCH  11  12
ATOM     12  C   UNL     1      96.976  64.328 228.409  1.00  0.00    -0.000 C 
BRANCH  12  13
ATOM     13  C   UNL     1      98.421  63.838 228.612  1.00  0.00    -0.000 C 
BRANCH  13  14
ATOM     14  C   UNL     1      98.634  62.402 228.107  1.00  0.00    -0.000 C 
BRANCH  14  15
ATOM     15  C   UNL     1      97.314  61.652 227.878  1.00  0.00    -0.003 C 
ATOM     16  C   UNL     1      97.510  60.473 226.928  1.00  0.00     0.004 C 
ENDBRANCH  14  15
ENDBRANCH  13  14
ENDBRANCH  12  13
ENDBRANCH  11  12
ENDBRANCH  10  11
ENDBRANCH   1  10
TORSDOF 12
ENDMDL
