MODEL 1
REMARK VINA RESULT:    -0.520      0.000      0.000
REMARK INTER + INTRA:          -0.378
REMARK INTER:                  -0.916
REMARK INTRA:                   0.538
REMARK UNBOUND:                 0.538
REMARK SMILES CCCCCCC=CCCCCCCCC(=O)[O-]
REMARK SMILES IDX 10 1 11 2 12 3 13 4 14 5 15 6 16 7 17 8 18 9 9 10 8 11 7 12
REMARK SMILES IDX 6 13 5 14 4 15 3 16 2 17 1 18
REMARK H PARENT
REMARK Flexibility Score: inf
ROOT
ATOM      1  C   UNL     1      52.505 147.321   1.377  1.00  0.00     0.004 C 
ENDROOT
BRANCH   1   2
ATOM      2  C   UNL     1      51.335 148.012   2.100  1.00  0.00     0.000 C 
BRANCH   2   3
ATOM      3  C   UNL     1      50.060 147.155   2.115  1.00  0.00     0.000 C 
BRANCH   3   4
ATOM      4  C   UNL     1      49.072 147.541   1.004  1.00  0.00     0.000 C 
BRANCH   4   5
ATOM      5  C   UNL     1      49.816 147.877  -0.299  1.00  0.00     0.006 C 
BRANCH   5   6
ATOM      6  C   UNL     1      48.856 148.123  -1.470  1.00  0.00     0.053 C 
BRANCH   6   7
ATOM      7  C   UNL     1      47.740 147.124  -1.494  1.00  0.00     0.041 C 
ATOM      8  O   UNL     1      47.297 146.696  -2.593  1.00  0.00    -0.550 OA
ATOM      9  O   UNL     1      47.166 146.691  -0.306  1.00  0.00    -0.550 OA
ENDBRANCH   6   7
ENDBRANCH   5   6
ENDBRANCH   4   5
ENDBRANCH   3   4
ENDBRANCH   2   3
ENDBRANCH   1   2
BRANCH   1  10
ATOM     10  C   UNL     1      53.825 148.087   1.554  1.00  0.00     0.027 C 
BRANCH  10  11
ATOM     11  C   UNL     1      54.684 148.043   0.318  1.00  0.00    -0.031 C 
ATOM     12  C   UNL     1      54.156 147.843  -0.899  1.00  0.00    -0.031 C 
BRANCH  12  13
ATOM     13  C   UNL     1      55.016 147.796  -2.134  1.00  0.00     0.027 C 
BRANCH  13  14
ATOM     14  C   UNL     1      54.206 148.023  -3.419  1.00  0.00     0.004 C 
BRANCH  14  15
ATOM     15  C   UNL     1      54.589 147.026  -4.527  1.00  0.00     0.000 C 
BRANCH  15  16
ATOM     16  C   UNL     1      54.150 147.497  -5.922  1.00  0.00    -0.000 C 
BRANCH  16  17
ATOM     17  C   UNL     1      52.692 147.979  -5.951  1.00  0.00    -0.003 C 
ATOM     18  C   UNL     1      52.170 148.065  -7.383  1.00  0.00     0.004 C 
ENDBRANCH  16  17
ENDBRANCH  15  16
ENDBRANCH  14  15
ENDBRANCH  13  14
ENDBRANCH  12  13
ENDBRANCH  10  11
ENDBRANCH   1  10
TORSDOF 13
ENDMDL
