MODEL 1
REMARK VINA RESULT:    -1.026      0.000      0.000
REMARK INTER + INTRA:          -1.240
REMARK INTER:                  -1.146
REMARK INTRA:                  -0.093
REMARK UNBOUND:                -0.093
REMARK SMILES CCc1ccc(O)cc1O
REMARK SMILES IDX 3 1 9 2 8 3 6 4 5 5 4 6 2 7 1 8 10 9 7 11
REMARK H PARENT 10 10 7 12
REMARK Flexibility Score: inf
ROOT
ATOM      1  C   UNL     1     -27.095  -2.666 -23.151  1.00  0.00    -0.006 A 
ATOM      2  C   UNL     1     -27.094  -1.273 -22.889  1.00  0.00     0.122 A 
ATOM      3  C   UNL     1     -27.104  -0.359 -23.950  1.00  0.00     0.092 A 
ATOM      4  C   UNL     1     -27.115  -0.802 -25.273  1.00  0.00     0.119 A 
ATOM      5  C   UNL     1     -27.116  -2.173 -25.543  1.00  0.00     0.047 A 
ATOM      6  C   UNL     1     -27.107  -3.098 -24.497  1.00  0.00     0.011 A 
ENDROOT
BRANCH   1   7
ATOM      7  C   UNL     1     -27.085  -3.647 -21.988  1.00  0.00     0.036 C 
ATOM      8  C   UNL     1     -25.704  -4.068 -21.479  1.00  0.00     0.009 C 
ENDBRANCH   1   7
BRANCH   2   9
ATOM      9  O   UNL     1     -27.084  -0.760 -21.589  1.00  0.00    -0.508 OA
ATOM     10  H   UNL     1     -27.788  -0.978 -20.898  1.00  0.00     0.293 HD
ENDBRANCH   2   9
BRANCH   4  11
ATOM     11  O   UNL     1     -27.125   0.127 -26.310  1.00  0.00    -0.508 OA
ATOM     12  H   UNL     1     -27.310  -0.149 -27.268  1.00  0.00     0.293 HD
ENDBRANCH   4  11
TORSDOF 3
ENDMDL
MODEL 2
REMARK VINA RESULT:     0.271      1.601      2.215
REMARK INTER + INTRA:           0.209
REMARK INTER:                   0.291
REMARK INTRA:                  -0.082
REMARK UNBOUND:                -0.093
REMARK SMILES CCc1ccc(O)cc1O
REMARK SMILES IDX 3 1 9 2 8 3 6 4 5 5 4 6 2 7 1 8 10 9 7 11
REMARK H PARENT 10 10 7 12
REMARK Flexibility Score: inf
ROOT
ATOM      1  C   UNL     1     -27.012  -2.450 -23.398  1.00  0.00    -0.006 A 
ATOM      2  C   UNL     1     -27.084  -2.796 -24.772  1.00  0.00     0.122 A 
ATOM      3  C   UNL     1     -27.117  -1.792 -25.747  1.00  0.00     0.092 A 
ATOM      4  C   UNL     1     -27.081  -0.445 -25.387  1.00  0.00     0.119 A 
ATOM      5  C   UNL     1     -27.010  -0.092 -24.037  1.00  0.00     0.047 A 
ATOM      6  C   UNL     1     -26.976  -1.081 -23.051  1.00  0.00     0.011 A 
ENDROOT
BRANCH   1   7
ATOM      7  C   UNL     1     -26.976  -3.552 -22.349  1.00  0.00     0.036 C 
ATOM      8  C   UNL     1     -25.665  -3.697 -21.575  1.00  0.00     0.009 C 
ENDBRANCH   1   7
BRANCH   2   9
ATOM      9  O   UNL     1     -27.123  -4.124 -25.204  1.00  0.00    -0.508 OA
ATOM     10  H   UNL     1     -26.589  -4.867 -24.773  1.00  0.00     0.293 HD
ENDBRANCH   2   9
BRANCH   4  11
ATOM     11  O   UNL     1     -27.116   0.534 -26.377  1.00  0.00    -0.508 OA
ATOM     12  H   UNL     1     -26.719   0.373 -27.296  1.00  0.00     0.293 HD
ENDBRANCH   4  11
TORSDOF 3
ENDMDL
MODEL 3
REMARK VINA RESULT:     0.949      1.558      3.778
REMARK INTER + INTRA:           0.967
REMARK INTER:                   1.036
REMARK INTRA:                  -0.069
REMARK UNBOUND:                -0.093
REMARK SMILES CCc1ccc(O)cc1O
REMARK SMILES IDX 3 1 9 2 8 3 6 4 5 5 4 6 2 7 1 8 10 9 7 11
REMARK H PARENT 10 10 7 12
REMARK Flexibility Score: inf
ROOT
ATOM      1  C   UNL     1     -27.103  -1.129 -24.429  1.00  0.00    -0.006 A 
ATOM      2  C   UNL     1     -27.061  -0.789 -23.053  1.00  0.00     0.122 A 
ATOM      3  C   UNL     1     -27.042  -1.796 -22.081  1.00  0.00     0.092 A 
ATOM      4  C   UNL     1     -27.064  -3.142 -22.448  1.00  0.00     0.119 A 
ATOM      5  C   UNL     1     -27.105  -3.489 -23.801  1.00  0.00     0.047 A 
ATOM      6  C   UNL     1     -27.124  -2.497 -24.783  1.00  0.00     0.011 A 
ENDROOT
BRANCH   1   7
ATOM      7  C   UNL     1     -27.123  -0.023 -25.474  1.00  0.00     0.036 C 
ATOM      8  C   UNL     1     -27.116  -0.481 -26.934  1.00  0.00     0.009 C 
ENDBRANCH   1   7
BRANCH   2   9
ATOM      9  O   UNL     1     -27.038   0.538 -22.615  1.00  0.00    -0.508 OA
ATOM     10  H   UNL     1     -27.202   0.813 -21.656  1.00  0.00     0.293 HD
ENDBRANCH   2   9
BRANCH   4  11
ATOM     11  O   UNL     1     -27.044  -4.125 -21.461  1.00  0.00    -0.508 OA
ATOM     12  H   UNL     1     -26.842  -5.094 -21.682  1.00  0.00     0.293 HD
ENDBRANCH   4  11
TORSDOF 3
ENDMDL
MODEL 4
REMARK VINA RESULT:     1.054      1.845      4.392
REMARK INTER + INTRA:           1.084
REMARK INTER:                   1.153
REMARK INTRA:                  -0.069
REMARK UNBOUND:                -0.093
REMARK SMILES CCc1ccc(O)cc1O
REMARK SMILES IDX 3 1 9 2 8 3 6 4 5 5 4 6 2 7 1 8 10 9 7 11
REMARK H PARENT 10 10 7 12
REMARK Flexibility Score: inf
ROOT
ATOM      1  C   UNL     1     -27.124  -1.728 -24.821  1.00  0.00    -0.006 A 
ATOM      2  C   UNL     1     -27.124  -3.146 -24.857  1.00  0.00     0.122 A 
ATOM      3  C   UNL     1     -27.124  -3.878 -23.664  1.00  0.00     0.092 A 
ATOM      4  C   UNL     1     -27.124  -3.231 -22.429  1.00  0.00     0.119 A 
ATOM      5  C   UNL     1     -27.124  -1.834 -22.380  1.00  0.00     0.047 A 
ATOM      6  C   UNL     1     -27.125  -1.088 -23.560  1.00  0.00     0.011 A 
ENDROOT
BRANCH   1   7
ATOM      7  C   UNL     1     -27.124  -0.945 -26.125  1.00  0.00     0.036 C 
ATOM      8  C   UNL     1     -27.119   0.579 -25.992  1.00  0.00     0.009 C 
ENDBRANCH   1   7
BRANCH   2   9
ATOM      9  O   UNL     1     -27.124  -3.859 -26.059  1.00  0.00    -0.508 OA
ATOM     10  H   UNL     1     -27.602  -3.547 -26.893  1.00  0.00     0.293 HD
ENDBRANCH   2   9
BRANCH   4  11
ATOM     11  O   UNL     1     -27.124  -3.983 -21.256  1.00  0.00    -0.508 OA
ATOM     12  H   UNL     1     -27.355  -3.569 -20.360  1.00  0.00     0.293 HD
ENDBRANCH   4  11
TORSDOF 3
ENDMDL
