MODEL 1
REMARK VINA RESULT:    -0.163      0.000      0.000
REMARK INTER + INTRA:          -1.502
REMARK INTER:                  -0.353
REMARK INTRA:                  -1.148
REMARK UNBOUND:                -1.148
REMARK SMILES CCCCCCCCCCCCCCCCCCCCCC(=O)[O-]
REMARK SMILES IDX 12 1 11 2 10 3 9 4 8 5 7 6 6 7 5 8 4 9 3 10 2 11 1 12 13 13
REMARK SMILES IDX 14 14 15 15 16 16 17 17 18 18 19 19 20 20 21 21 22 22 23 23
REMARK SMILES IDX 24 24
REMARK H PARENT
REMARK Flexibility Score: inf
ROOT
ATOM      1  C   UNL     1       1.900   4.441  -2.911  1.00  0.00     0.000 C 
ENDROOT
BRANCH   1   2
ATOM      2  C   UNL     1       0.619   5.254  -3.156  1.00  0.00     0.000 C 
BRANCH   2   3
ATOM      3  C   UNL     1      -0.081   4.858  -4.469  1.00  0.00     0.000 C 
BRANCH   3   4
ATOM      4  C   UNL     1      -0.050   5.977  -5.522  1.00  0.00    -0.000 C 
BRANCH   4   5
ATOM      5  C   UNL     1       0.327   5.461  -6.922  1.00  0.00    -0.000 C 
BRANCH   5   6
ATOM      6  C   UNL     1       0.888   6.567  -7.835  1.00  0.00    -0.000 C 
BRANCH   6   7
ATOM      7  C   UNL     1       0.397   6.520  -9.298  1.00  0.00    -0.000 C 
BRANCH   7   8
ATOM      8  C   UNL     1      -0.510   7.691  -9.728  1.00  0.00    -0.000 C 
BRANCH   8   9
ATOM      9  C   UNL     1      -0.396   8.955  -8.858  1.00  0.00    -0.000 C 
BRANCH   9  10
ATOM     10  C   UNL     1      -1.573   9.111  -7.880  1.00  0.00    -0.000 C 
BRANCH  10  11
ATOM     11  C   UNL     1      -1.212   9.984  -6.667  1.00  0.00    -0.003 C 
ATOM     12  C   UNL     1       0.297  10.103  -6.452  1.00  0.00     0.004 C 
ENDBRANCH  10  11
ENDBRANCH   9  10
ENDBRANCH   8   9
ENDBRANCH   7   8
ENDBRANCH   6   7
ENDBRANCH   5   6
ENDBRANCH   4   5
ENDBRANCH   3   4
ENDBRANCH   2   3
ENDBRANCH   1   2
BRANCH   1  13
ATOM     13  C   UNL     1       1.846   3.644  -1.598  1.00  0.00     0.000 C 
BRANCH  13  14
ATOM     14  C   UNL     1       2.590   2.309  -1.733  1.00  0.00     0.000 C 
BRANCH  14  15
ATOM     15  C   UNL     1       2.069   1.289  -0.708  1.00  0.00     0.000 C 
BRANCH  15  16
ATOM     16  C   UNL     1       3.125   0.911   0.343  1.00  0.00     0.000 C 
BRANCH  16  17
ATOM     17  C   UNL     1       2.507   0.279   1.604  1.00  0.00     0.000 C 
BRANCH  17  18
ATOM     18  C   UNL     1       1.404  -0.740   1.275  1.00  0.00     0.000 C 
BRANCH  18  19
ATOM     19  C   UNL     1       1.037  -1.623   2.480  1.00  0.00     0.000 C 
BRANCH  19  20
ATOM     20  C   UNL     1      -0.481  -1.805   2.637  1.00  0.00     0.006 C 
BRANCH  20  21
ATOM     21  C   UNL     1      -0.892  -2.115   4.083  1.00  0.00     0.053 C 
BRANCH  21  22
ATOM     22  C   UNL     1      -1.165  -0.849   4.834  1.00  0.00     0.041 C 
ATOM     23  O   UNL     1      -1.553  -0.896   6.032  1.00  0.00    -0.550 OA
ATOM     24  O   UNL     1      -1.036   0.379   4.198  1.00  0.00    -0.550 OA
ENDBRANCH  21  22
ENDBRANCH  20  21
ENDBRANCH  19  20
ENDBRANCH  18  19
ENDBRANCH  17  18
ENDBRANCH  16  17
ENDBRANCH  15  16
ENDBRANCH  14  15
ENDBRANCH  13  14
ENDBRANCH   1  13
TORSDOF 20
ENDMDL
MODEL 2
REMARK VINA RESULT:     0.508      4.413     12.438
REMARK INTER + INTRA:          -0.046
REMARK INTER:                   0.983
REMARK INTRA:                  -1.029
REMARK UNBOUND:                -1.148
REMARK SMILES CCCCCCCCCCCCCCCCCCCCCC(=O)[O-]
REMARK SMILES IDX 12 1 11 2 10 3 9 4 8 5 7 6 6 7 5 8 4 9 3 10 2 11 1 12 13 13
REMARK SMILES IDX 14 14 15 15 16 16 17 17 18 18 19 19 20 20 21 21 22 22 23 23
REMARK SMILES IDX 24 24
REMARK H PARENT
REMARK Flexibility Score: inf
ROOT
ATOM      1  C   UNL     1       1.892   4.645  -2.842  1.00  0.00     0.000 C 
ENDROOT
BRANCH   1   2
ATOM      2  C   UNL     1       2.223   3.727  -1.653  1.00  0.00     0.000 C 
BRANCH   2   3
ATOM      3  C   UNL     1       1.920   2.249  -1.957  1.00  0.00     0.000 C 
BRANCH   3   4
ATOM      4  C   UNL     1       2.892   1.285  -1.257  1.00  0.00    -0.000 C 
BRANCH   4   5
ATOM      5  C   UNL     1       2.548   1.075   0.228  1.00  0.00    -0.000 C 
BRANCH   5   6
ATOM      6  C   UNL     1       1.825  -0.259   0.491  1.00  0.00    -0.000 C 
BRANCH   6   7
ATOM      7  C   UNL     1       1.822  -0.724   1.963  1.00  0.00    -0.000 C 
BRANCH   7   8
ATOM      8  C   UNL     1       0.933  -1.945   2.268  1.00  0.00    -0.000 C 
BRANCH   8   9
ATOM      9  C   UNL     1      -0.515  -1.611   2.671  1.00  0.00    -0.000 C 
BRANCH   9  10
ATOM     10  C   UNL     1      -0.958  -2.340   3.951  1.00  0.00    -0.000 C 
BRANCH  10  11
ATOM     11  C   UNL     1      -1.289  -1.366   5.093  1.00  0.00    -0.003 C 
ATOM     12  C   UNL     1      -1.409   0.083   4.618  1.00  0.00     0.004 C 
ENDBRANCH  10  11
ENDBRANCH   9  10
ENDBRANCH   8   9
ENDBRANCH   7   8
ENDBRANCH   6   7
ENDBRANCH   5   6
ENDBRANCH   4   5
ENDBRANCH   3   4
ENDBRANCH   2   3
ENDBRANCH   1   2
BRANCH   1  13
ATOM     13  C   UNL     1       0.470   4.420  -3.378  1.00  0.00     0.000 C 
BRANCH  13  14
ATOM     14  C   UNL     1       0.036   5.574  -4.290  1.00  0.00     0.000 C 
BRANCH  14  15
ATOM     15  C   UNL     1       0.053   5.141  -5.764  1.00  0.00     0.000 C 
BRANCH  15  16
ATOM     16  C   UNL     1       0.253   6.321  -6.728  1.00  0.00     0.000 C 
BRANCH  16  17
ATOM     17  C   UNL     1       0.998   5.916  -8.015  1.00  0.00     0.000 C 
BRANCH  17  18
ATOM     18  C   UNL     1       1.086   7.064  -9.033  1.00  0.00     0.000 C 
BRANCH  18  19
ATOM     19  C   UNL     1      -0.294   7.625  -9.413  1.00  0.00     0.000 C 
BRANCH  19  20
ATOM     20  C   UNL     1      -0.261   9.137  -9.687  1.00  0.00     0.006 C 
BRANCH  20  21
ATOM     21  C   UNL     1       0.246   9.944  -8.484  1.00  0.00     0.053 C 
BRANCH  21  22
ATOM     22  C   UNL     1      -0.724   9.854  -7.347  1.00  0.00     0.041 C 
ATOM     23  O   UNL     1      -1.963   9.937  -7.564  1.00  0.00    -0.550 OA
ATOM     24  O   UNL     1      -0.259   9.726  -6.044  1.00  0.00    -0.550 OA
ENDBRANCH  21  22
ENDBRANCH  20  21
ENDBRANCH  19  20
ENDBRANCH  18  19
ENDBRANCH  17  18
ENDBRANCH  16  17
ENDBRANCH  15  16
ENDBRANCH  14  15
ENDBRANCH  13  14
ENDBRANCH   1  13
TORSDOF 20
ENDMDL
MODEL 3
REMARK VINA RESULT:     0.699      4.557     12.649
REMARK INTER + INTRA:           0.369
REMARK INTER:                   1.205
REMARK INTRA:                  -0.837
REMARK UNBOUND:                -1.148
REMARK SMILES CCCCCCCCCCCCCCCCCCCCCC(=O)[O-]
REMARK SMILES IDX 12 1 11 2 10 3 9 4 8 5 7 6 6 7 5 8 4 9 3 10 2 11 1 12 13 13
REMARK SMILES IDX 14 14 15 15 16 16 17 17 18 18 19 19 20 20 21 21 22 22 23 23
REMARK SMILES IDX 24 24
REMARK H PARENT
REMARK Flexibility Score: inf
ROOT
ATOM      1  C   UNL     1       1.931   4.509  -2.620  1.00  0.00     0.000 C 
ENDROOT
BRANCH   1   2
ATOM      2  C   UNL     1       2.051   3.550  -1.425  1.00  0.00     0.000 C 
BRANCH   2   3
ATOM      3  C   UNL     1       2.334   2.102  -1.866  1.00  0.00     0.000 C 
BRANCH   3   4
ATOM      4  C   UNL     1       2.885   1.228  -0.727  1.00  0.00    -0.000 C 
BRANCH   4   5
ATOM      5  C   UNL     1       1.955   0.052  -0.384  1.00  0.00    -0.000 C 
BRANCH   5   6
ATOM      6  C   UNL     1       1.857  -0.210   1.130  1.00  0.00    -0.000 C 
BRANCH   6   7
ATOM      7  C   UNL     1       1.291  -1.592   1.521  1.00  0.00    -0.000 C 
BRANCH   7   8
ATOM      8  C   UNL     1       0.708  -1.689   2.945  1.00  0.00    -0.000 C 
BRANCH   8   9
ATOM      9  C   UNL     1      -0.827  -1.791   3.014  1.00  0.00    -0.000 C 
BRANCH   9  10
ATOM     10  C   UNL     1      -1.333  -2.195   4.409  1.00  0.00    -0.000 C 
BRANCH  10  11
ATOM     11  C   UNL     1      -1.519  -0.983   5.336  1.00  0.00    -0.003 C 
ATOM     12  C   UNL     1      -1.012  -1.241   6.755  1.00  0.00     0.004 C 
ENDBRANCH  10  11
ENDBRANCH   9  10
ENDBRANCH   8   9
ENDBRANCH   7   8
ENDBRANCH   6   7
ENDBRANCH   5   6
ENDBRANCH   4   5
ENDBRANCH   3   4
ENDBRANCH   2   3
ENDBRANCH   1   2
BRANCH   1  13
ATOM     13  C   UNL     1       0.670   4.247  -3.457  1.00  0.00     0.000 C 
BRANCH  13  14
ATOM     14  C   UNL     1       0.165   5.539  -4.114  1.00  0.00     0.000 C 
BRANCH  14  15
ATOM     15  C   UNL     1      -0.180   5.300  -5.592  1.00  0.00     0.000 C 
BRANCH  15  16
ATOM     16  C   UNL     1       0.320   6.428  -6.508  1.00  0.00     0.000 C 
BRANCH  16  17
ATOM     17  C   UNL     1       0.783   5.913  -7.885  1.00  0.00     0.000 C 
BRANCH  17  18
ATOM     18  C   UNL     1       0.982   7.046  -8.904  1.00  0.00     0.000 C 
BRANCH  18  19
ATOM     19  C   UNL     1      -0.328   7.448  -9.604  1.00  0.00     0.000 C 
BRANCH  19  20
ATOM     20  C   UNL     1      -0.485   8.971  -9.731  1.00  0.00     0.006 C 
BRANCH  20  21
ATOM     21  C   UNL     1       0.381   9.740  -8.724  1.00  0.00     0.053 C 
BRANCH  21  22
ATOM     22  C   UNL     1      -0.336   9.882  -7.418  1.00  0.00     0.041 C 
ATOM     23  O   UNL     1       0.317  10.043  -6.352  1.00  0.00    -0.550 OA
ATOM     24  O   UNL     1      -1.722   9.791  -7.370  1.00  0.00    -0.550 OA
ENDBRANCH  21  22
ENDBRANCH  20  21
ENDBRANCH  19  20
ENDBRANCH  18  19
ENDBRANCH  17  18
ENDBRANCH  16  17
ENDBRANCH  15  16
ENDBRANCH  14  15
ENDBRANCH  13  14
ENDBRANCH   1  13
TORSDOF 20
ENDMDL
MODEL 4
REMARK VINA RESULT:     0.803      0.899      2.295
REMARK INTER + INTRA:           0.594
REMARK INTER:                   1.235
REMARK INTRA:                  -0.641
REMARK UNBOUND:                -1.148
REMARK SMILES CCCCCCCCCCCCCCCCCCCCCC(=O)[O-]
REMARK SMILES IDX 12 1 11 2 10 3 9 4 8 5 7 6 6 7 5 8 4 9 3 10 2 11 1 12 13 13
REMARK SMILES IDX 14 14 15 15 16 16 17 17 18 18 19 19 20 20 21 21 22 22 23 23
REMARK SMILES IDX 24 24
REMARK H PARENT
REMARK Flexibility Score: inf
ROOT
ATOM      1  C   UNL     1       1.908   2.297  -1.612  1.00  0.00     0.000 C 
ENDROOT
BRANCH   1   2
ATOM      2  C   UNL     1       2.103   3.818  -1.719  1.00  0.00     0.000 C 
BRANCH   2   3
ATOM      3  C   UNL     1       1.719   4.358  -3.109  1.00  0.00     0.000 C 
BRANCH   3   4
ATOM      4  C   UNL     1       0.533   5.335  -3.063  1.00  0.00    -0.000 C 
BRANCH   4   5
ATOM      5  C   UNL     1      -0.500   5.063  -4.170  1.00  0.00    -0.000 C 
BRANCH   5   6
ATOM      6  C   UNL     1       0.138   4.943  -5.566  1.00  0.00    -0.000 C 
BRANCH   6   7
ATOM      7  C   UNL     1       0.245   6.266  -6.353  1.00  0.00    -0.000 C 
BRANCH   7   8
ATOM      8  C   UNL     1       0.676   6.125  -7.827  1.00  0.00    -0.000 C 
BRANCH   8   9
ATOM      9  C   UNL     1       0.769   7.449  -8.607  1.00  0.00    -0.000 C 
BRANCH   9  10
ATOM     10  C   UNL     1      -0.598   8.131  -8.784  1.00  0.00    -0.000 C 
BRANCH  10  11
ATOM     11  C   UNL     1      -0.566   9.615  -8.383  1.00  0.00    -0.003 C 
ATOM     12  C   UNL     1       0.089   9.845  -7.021  1.00  0.00     0.004 C 
ENDBRANCH  10  11
ENDBRANCH   9  10
ENDBRANCH   8   9
ENDBRANCH   7   8
ENDBRANCH   6   7
ENDBRANCH   5   6
ENDBRANCH   4   5
ENDBRANCH   3   4
ENDBRANCH   2   3
ENDBRANCH   1   2
BRANCH   1  13
ATOM     13  C   UNL     1       3.005   1.624  -0.771  1.00  0.00     0.000 C 
BRANCH  13  14
ATOM     14  C   UNL     1       2.425   0.493   0.087  1.00  0.00     0.000 C 
BRANCH  14  15
ATOM     15  C   UNL     1       2.767   0.704   1.570  1.00  0.00     0.000 C 
BRANCH  15  16
ATOM     16  C   UNL     1       2.050  -0.294   2.493  1.00  0.00     0.000 C 
BRANCH  16  17
ATOM     17  C   UNL     1       1.214  -1.328   1.713  1.00  0.00     0.000 C 
BRANCH  17  18
ATOM     18  C   UNL     1       0.536  -2.356   2.633  1.00  0.00     0.000 C 
BRANCH  18  19
ATOM     19  C   UNL     1      -0.856  -1.901   3.102  1.00  0.00     0.000 C 
BRANCH  19  20
ATOM     20  C   UNL     1      -1.199  -2.411   4.511  1.00  0.00     0.006 C 
BRANCH  20  21
ATOM     21  C   UNL     1      -1.172  -1.296   5.565  1.00  0.00     0.053 C 
BRANCH  21  22
ATOM     22  C   UNL     1      -1.595   0.007   4.962  1.00  0.00     0.041 C 
ATOM     23  O   UNL     1      -0.784   0.673   4.263  1.00  0.00    -0.550 OA
ATOM     24  O   UNL     1      -2.867   0.508   5.207  1.00  0.00    -0.550 OA
ENDBRANCH  21  22
ENDBRANCH  20  21
ENDBRANCH  19  20
ENDBRANCH  18  19
ENDBRANCH  17  18
ENDBRANCH  16  17
ENDBRANCH  15  16
ENDBRANCH  14  15
ENDBRANCH  13  14
ENDBRANCH   1  13
TORSDOF 20
ENDMDL
MODEL 5
REMARK VINA RESULT:     0.860     14.385     16.243
REMARK INTER + INTRA:           0.718
REMARK INTER:                   0.446
REMARK INTRA:                   0.271
REMARK UNBOUND:                -1.148
REMARK SMILES CCCCCCCCCCCCCCCCCCCCCC(=O)[O-]
REMARK SMILES IDX 12 1 11 2 10 3 9 4 8 5 7 6 6 7 5 8 4 9 3 10 2 11 1 12 13 13
REMARK SMILES IDX 14 14 15 15 16 16 17 17 18 18 19 19 20 20 21 21 22 22 23 23
REMARK SMILES IDX 24 24
REMARK H PARENT
REMARK Flexibility Score: inf
ROOT
ATOM      1  C   UNL     1      -8.025  -6.625  -7.724  1.00  0.00     0.000 C 
ENDROOT
BRANCH   1   2
ATOM      2  C   UNL     1      -7.867  -6.256  -9.208  1.00  0.00     0.000 C 
BRANCH   2   3
ATOM      3  C   UNL     1      -8.741  -7.133 -10.123  1.00  0.00     0.000 C 
BRANCH   3   4
ATOM      4  C   UNL     1      -9.812  -7.919  -9.349  1.00  0.00    -0.000 C 
BRANCH   4   5
ATOM      5  C   UNL     1      -9.971  -9.361  -9.860  1.00  0.00    -0.000 C 
BRANCH   5   6
ATOM      6  C   UNL     1      -8.621 -10.062 -10.102  1.00  0.00    -0.000 C 
BRANCH   6   7
ATOM      7  C   UNL     1      -7.381  -9.282  -9.613  1.00  0.00    -0.000 C 
BRANCH   7   8
ATOM      8  C   UNL     1      -6.024  -9.827 -10.101  1.00  0.00    -0.000 C 
BRANCH   8   9
ATOM      9  C   UNL     1      -4.840  -8.856  -9.945  1.00  0.00    -0.000 C 
BRANCH   9  10
ATOM     10  C   UNL     1      -5.211  -7.590  -9.153  1.00  0.00    -0.000 C 
BRANCH  10  11
ATOM     11  C   UNL     1      -4.363  -7.427  -7.881  1.00  0.00    -0.003 C 
ATOM     12  C   UNL     1      -3.579  -8.692  -7.528  1.00  0.00     0.004 C 
ENDBRANCH  10  11
ENDBRANCH   9  10
ENDBRANCH   8   9
ENDBRANCH   7   8
ENDBRANCH   6   7
ENDBRANCH   5   6
ENDBRANCH   4   5
ENDBRANCH   3   4
ENDBRANCH   2   3
ENDBRANCH   1   2
BRANCH   1  13
ATOM     13  C   UNL     1      -7.780  -5.428  -6.792  1.00  0.00     0.000 C 
BRANCH  13  14
ATOM     14  C   UNL     1      -8.897  -4.385  -6.928  1.00  0.00     0.000 C 
BRANCH  14  15
ATOM     15  C   UNL     1     -10.125  -4.792  -6.098  1.00  0.00     0.000 C 
BRANCH  15  16
ATOM     16  C   UNL     1      -9.810  -5.889  -5.069  1.00  0.00     0.000 C 
BRANCH  16  17
ATOM     17  C   UNL     1     -10.125  -7.303  -5.595  1.00  0.00     0.000 C 
BRANCH  17  18
ATOM     18  C   UNL     1      -9.907  -8.391  -4.532  1.00  0.00     0.000 C 
BRANCH  18  19
ATOM     19  C   UNL     1      -9.565  -9.759  -5.148  1.00  0.00     0.000 C 
BRANCH  19  20
ATOM     20  C   UNL     1      -8.769  -9.634  -6.457  1.00  0.00     0.006 C 
BRANCH  20  21
ATOM     21  C   UNL     1      -7.306 -10.070  -6.301  1.00  0.00     0.053 C 
BRANCH  21  22
ATOM     22  C   UNL     1      -6.646  -9.308  -5.195  1.00  0.00     0.041 C 
ATOM     23  O   UNL     1      -6.071  -8.212  -5.438  1.00  0.00    -0.550 OA
ATOM     24  O   UNL     1      -6.624  -9.828  -3.907  1.00  0.00    -0.550 OA
ENDBRANCH  21  22
ENDBRANCH  20  21
ENDBRANCH  19  20
ENDBRANCH  18  19
ENDBRANCH  17  18
ENDBRANCH  16  17
ENDBRANCH  15  16
ENDBRANCH  14  15
ENDBRANCH  13  14
ENDBRANCH   1  13
TORSDOF 20
ENDMDL
MODEL 6
REMARK VINA RESULT:     0.896      6.616      8.332
REMARK INTER + INTRA:           0.795
REMARK INTER:                   1.604
REMARK INTRA:                  -0.809
REMARK UNBOUND:                -1.148
REMARK SMILES CCCCCCCCCCCCCCCCCCCCCC(=O)[O-]
REMARK SMILES IDX 12 1 11 2 10 3 9 4 8 5 7 6 6 7 5 8 4 9 3 10 2 11 1 12 13 13
REMARK SMILES IDX 14 14 15 15 16 16 17 17 18 18 19 19 20 20 21 21 22 22 23 23
REMARK SMILES IDX 24 24
REMARK H PARENT
REMARK Flexibility Score: inf
ROOT
ATOM      1  C   UNL     1       5.284   1.514   0.714  1.00  0.00     0.000 C 
ENDROOT
BRANCH   1   2
ATOM      2  C   UNL     1       6.783   1.371   0.403  1.00  0.00     0.000 C 
BRANCH   2   3
ATOM      3  C   UNL     1       7.424   2.712   0.000  1.00  0.00     0.000 C 
BRANCH   3   4
ATOM      4  C   UNL     1       8.943   2.604  -0.219  1.00  0.00    -0.000 C 
BRANCH   4   5
ATOM      5  C   UNL     1       9.439   3.506  -1.362  1.00  0.00    -0.000 C 
BRANCH   5   6
ATOM      6  C   UNL     1       9.832   4.916  -0.884  1.00  0.00    -0.000 C 
BRANCH   6   7
ATOM      7  C   UNL     1       9.944   5.081   0.647  1.00  0.00    -0.000 C 
BRANCH   7   8
ATOM      8  C   UNL     1       9.958   6.537   1.154  1.00  0.00    -0.000 C 
BRANCH   8   9
ATOM      9  C   UNL     1       8.971   6.837   2.297  1.00  0.00    -0.000 C 
BRANCH   9  10
ATOM     10  C   UNL     1       8.350   8.241   2.192  1.00  0.00    -0.000 C 
BRANCH  10  11
ATOM     11  C   UNL     1       6.815   8.197   2.127  1.00  0.00    -0.003 C 
ATOM     12  C   UNL     1       6.225   9.356   1.324  1.00  0.00     0.004 C 
ENDBRANCH  10  11
ENDBRANCH   9  10
ENDBRANCH   8   9
ENDBRANCH   7   8
ENDBRANCH   6   7
ENDBRANCH   5   6
ENDBRANCH   4   5
ENDBRANCH   3   4
ENDBRANCH   2   3
ENDBRANCH   1   2
BRANCH   1  13
ATOM     13  C   UNL     1       4.398   1.041  -0.449  1.00  0.00     0.000 C 
BRANCH  13  14
ATOM     14  C   UNL     1       2.949   1.510  -0.264  1.00  0.00     0.000 C 
BRANCH  14  15
ATOM     15  C   UNL     1       1.962   0.439  -0.755  1.00  0.00     0.000 C 
BRANCH  15  16
ATOM     16  C   UNL     1       1.726  -0.670   0.283  1.00  0.00     0.000 C 
BRANCH  16  17
ATOM     17  C   UNL     1       2.215  -0.279   1.691  1.00  0.00     0.000 C 
BRANCH  17  18
ATOM     18  C   UNL     1       1.506  -1.068   2.803  1.00  0.00     0.000 C 
BRANCH  18  19
ATOM     19  C   UNL     1       0.541  -2.130   2.252  1.00  0.00     0.000 C 
BRANCH  19  20
ATOM     20  C   UNL     1      -0.908  -1.907   2.713  1.00  0.00     0.006 C 
BRANCH  20  21
ATOM     21  C   UNL     1      -1.062  -1.992   4.238  1.00  0.00     0.053 C 
BRANCH  21  22
ATOM     22  C   UNL     1      -1.394  -0.648   4.807  1.00  0.00     0.041 C 
ATOM     23  O   UNL     1      -1.125   0.398   4.158  1.00  0.00    -0.550 OA
ATOM     24  O   UNL     1      -1.959  -0.548   6.073  1.00  0.00    -0.550 OA
ENDBRANCH  21  22
ENDBRANCH  20  21
ENDBRANCH  19  20
ENDBRANCH  18  19
ENDBRANCH  17  18
ENDBRANCH  16  17
ENDBRANCH  15  16
ENDBRANCH  14  15
ENDBRANCH  13  14
ENDBRANCH   1  13
TORSDOF 20
ENDMDL
MODEL 7
REMARK VINA RESULT:     0.925      7.733     11.788
REMARK INTER + INTRA:           0.859
REMARK INTER:                   1.942
REMARK INTRA:                  -1.083
REMARK UNBOUND:                -1.148
REMARK SMILES CCCCCCCCCCCCCCCCCCCCCC(=O)[O-]
REMARK SMILES IDX 12 1 11 2 10 3 9 4 8 5 7 6 6 7 5 8 4 9 3 10 2 11 1 12 13 13
REMARK SMILES IDX 14 14 15 15 16 16 17 17 18 18 19 19 20 20 21 21 22 22 23 23
REMARK SMILES IDX 24 24
REMARK H PARENT
REMARK Flexibility Score: inf
ROOT
ATOM      1  C   UNL     1       6.715   1.204   0.416  1.00  0.00     0.000 C 
ENDROOT
BRANCH   1   2
ATOM      2  C   UNL     1       5.270   1.458   0.878  1.00  0.00     0.000 C 
BRANCH   2   3
ATOM      3  C   UNL     1       4.343   1.836  -0.291  1.00  0.00     0.000 C 
BRANCH   3   4
ATOM      4  C   UNL     1       2.997   1.095  -0.247  1.00  0.00    -0.000 C 
BRANCH   4   5
ATOM      5  C   UNL     1       2.630   0.619   1.169  1.00  0.00    -0.000 C 
BRANCH   5   6
ATOM      6  C   UNL     1       1.617  -0.541   1.166  1.00  0.00    -0.000 C 
BRANCH   6   7
ATOM      7  C   UNL     1       1.474  -1.289   2.508  1.00  0.00    -0.000 C 
BRANCH   7   8
ATOM      8  C   UNL     1       0.337  -2.329   2.567  1.00  0.00    -0.000 C 
BRANCH   8   9
ATOM      9  C   UNL     1      -0.744  -2.050   3.628  1.00  0.00    -0.000 C 
BRANCH   9  10
ATOM     10  C   UNL     1      -1.087  -0.555   3.747  1.00  0.00    -0.000 C 
BRANCH  10  11
ATOM     11  C   UNL     1      -1.488  -0.160   5.177  1.00  0.00    -0.003 C 
ATOM     12  C   UNL     1      -1.129  -1.231   6.208  1.00  0.00     0.004 C 
ENDBRANCH  10  11
ENDBRANCH   9  10
ENDBRANCH   8   9
ENDBRANCH   7   8
ENDBRANCH   6   7
ENDBRANCH   5   6
ENDBRANCH   4   5
ENDBRANCH   3   4
ENDBRANCH   2   3
ENDBRANCH   1   2
BRANCH   1  13
ATOM     13  C   UNL     1       7.452   2.503   0.055  1.00  0.00     0.000 C 
BRANCH  13  14
ATOM     14  C   UNL     1       8.716   2.211  -0.763  1.00  0.00     0.000 C 
BRANCH  14  15
ATOM     15  C   UNL     1       9.705   3.383  -0.676  1.00  0.00     0.000 C 
BRANCH  15  16
ATOM     16  C   UNL     1       9.007   4.752  -0.701  1.00  0.00     0.000 C 
BRANCH  16  17
ATOM     17  C   UNL     1       9.789   5.830   0.074  1.00  0.00     0.000 C 
BRANCH  17  18
ATOM     18  C   UNL     1       9.258   6.035   1.502  1.00  0.00     0.000 C 
BRANCH  18  19
ATOM     19  C   UNL     1       9.264   7.513   1.928  1.00  0.00     0.000 C 
BRANCH  19  20
ATOM     20  C   UNL     1       7.978   7.919   2.667  1.00  0.00     0.006 C 
BRANCH  20  21
ATOM     21  C   UNL     1       6.763   8.006   1.733  1.00  0.00     0.053 C 
BRANCH  21  22
ATOM     22  C   UNL     1       6.521   9.423   1.319  1.00  0.00     0.041 C 
ATOM     23  O   UNL     1       7.471  10.123   0.874  1.00  0.00    -0.550 OA
ATOM     24  O   UNL     1       5.259   9.986   1.466  1.00  0.00    -0.550 OA
ENDBRANCH  21  22
ENDBRANCH  20  21
ENDBRANCH  19  20
ENDBRANCH  18  19
ENDBRANCH  17  18
ENDBRANCH  16  17
ENDBRANCH  15  16
ENDBRANCH  14  15
ENDBRANCH  13  14
ENDBRANCH   1  13
TORSDOF 20
ENDMDL
MODEL 8
REMARK VINA RESULT:     1.123      5.130     12.483
REMARK INTER + INTRA:           1.288
REMARK INTER:                   2.401
REMARK INTRA:                  -1.113
REMARK UNBOUND:                -1.148
REMARK SMILES CCCCCCCCCCCCCCCCCCCCCC(=O)[O-]
REMARK SMILES IDX 12 1 11 2 10 3 9 4 8 5 7 6 6 7 5 8 4 9 3 10 2 11 1 12 13 13
REMARK SMILES IDX 14 14 15 15 16 16 17 17 18 18 19 19 20 20 21 21 22 22 23 23
REMARK SMILES IDX 24 24
REMARK H PARENT
REMARK Flexibility Score: inf
ROOT
ATOM      1  C   UNL     1       2.622   2.423  -1.702  1.00  0.00     0.000 C 
ENDROOT
BRANCH   1   2
ATOM      2  C   UNL     1       2.316   1.469  -0.535  1.00  0.00     0.000 C 
BRANCH   2   3
ATOM      3  C   UNL     1       1.908   0.067  -1.021  1.00  0.00     0.000 C 
BRANCH   3   4
ATOM      4  C   UNL     1       1.545  -0.882   0.133  1.00  0.00    -0.000 C 
BRANCH   4   5
ATOM      5  C   UNL     1       1.815  -0.261   1.514  1.00  0.00    -0.000 C 
BRANCH   5   6
ATOM      6  C   UNL     1       1.749  -1.293   2.656  1.00  0.00    -0.000 C 
BRANCH   6   7
ATOM      7  C   UNL     1       0.602  -2.319   2.546  1.00  0.00    -0.000 C 
BRANCH   7   8
ATOM      8  C   UNL     1      -0.800  -1.784   2.905  1.00  0.00    -0.000 C 
BRANCH   8   9
ATOM      9  C   UNL     1      -1.258  -2.077   4.345  1.00  0.00    -0.000 C 
BRANCH   9  10
ATOM     10  C   UNL     1      -1.126  -0.854   5.270  1.00  0.00    -0.000 C 
BRANCH  10  11
ATOM     11  C   UNL     1      -0.927   0.452   4.485  1.00  0.00    -0.003 C 
ATOM     12  C   UNL     1      -2.242   1.179   4.205  1.00  0.00     0.004 C 
ENDBRANCH  10  11
ENDBRANCH   9  10
ENDBRANCH   8   9
ENDBRANCH   7   8
ENDBRANCH   6   7
ENDBRANCH   5   6
ENDBRANCH   4   5
ENDBRANCH   3   4
ENDBRANCH   2   3
ENDBRANCH   1   2
BRANCH   1  13
ATOM     13  C   UNL     1       1.864   3.755  -1.584  1.00  0.00     0.000 C 
BRANCH  13  14
ATOM     14  C   UNL     1       1.859   4.506  -2.921  1.00  0.00     0.000 C 
BRANCH  14  15
ATOM     15  C   UNL     1       0.485   5.142  -3.184  1.00  0.00     0.000 C 
BRANCH  15  16
ATOM     16  C   UNL     1      -0.038   4.862  -4.602  1.00  0.00     0.000 C 
BRANCH  16  17
ATOM     17  C   UNL     1      -0.331   6.152  -5.391  1.00  0.00     0.000 C 
BRANCH  17  18
ATOM     18  C   UNL     1       0.363   6.177  -6.762  1.00  0.00     0.000 C 
BRANCH  18  19
ATOM     19  C   UNL     1      -0.037   7.401  -7.604  1.00  0.00     0.000 C 
BRANCH  19  20
ATOM     20  C   UNL     1       0.250   7.205  -9.102  1.00  0.00     0.006 C 
BRANCH  20  21
ATOM     21  C   UNL     1       1.477   6.320  -9.357  1.00  0.00     0.053 C 
BRANCH  21  22
ATOM     22  C   UNL     1       2.644   7.152  -9.788  1.00  0.00     0.041 C 
ATOM     23  O   UNL     1       3.799   6.649  -9.831  1.00  0.00    -0.550 OA
ATOM     24  O   UNL     1       2.465   8.495 -10.099  1.00  0.00    -0.550 OA
ENDBRANCH  21  22
ENDBRANCH  20  21
ENDBRANCH  19  20
ENDBRANCH  18  19
ENDBRANCH  17  18
ENDBRANCH  16  17
ENDBRANCH  15  16
ENDBRANCH  14  15
ENDBRANCH  13  14
ENDBRANCH   1  13
TORSDOF 20
ENDMDL
