MODEL 1
REMARK VINA RESULT:    -3.524      0.000      0.000
REMARK INTER + INTRA:          -4.447
REMARK INTER:                  -4.348
REMARK INTRA:                  -0.099
REMARK UNBOUND:                -0.099
REMARK SMILES CCCCC=CC(C)=O
REMARK SMILES IDX 4 1 3 2 2 3 1 4 5 5 6 6 7 7 9 8 8 9
REMARK H PARENT
REMARK Flexibility Score: inf
ROOT
ATOM      1  C   UNL     1      -3.156  -8.608  -5.878  1.00  0.00     0.027 C 
ENDROOT
BRANCH   1   2
ATOM      2  C   UNL     1      -2.247  -7.883  -4.877  1.00  0.00     0.004 C 
BRANCH   2   3
ATOM      3  C   UNL     1      -1.103  -7.160  -5.598  1.00  0.00    -0.003 C 
ATOM      4  C   UNL     1       0.242  -7.475  -4.951  1.00  0.00     0.004 C 
ENDBRANCH   2   3
ENDBRANCH   1   2
BRANCH   1   5
ATOM      5  C   UNL     1      -3.958  -9.683  -5.205  1.00  0.00    -0.023 C 
ATOM      6  C   UNL     1      -4.701 -10.545  -5.908  1.00  0.00     0.042 C 
BRANCH   6   7
ATOM      7  C   UNL     1      -5.486 -11.616  -5.267  1.00  0.00     0.152 C 
ATOM      8  O   UNL     1      -4.955 -12.725  -4.984  1.00  0.00    -0.295 OA
ATOM      9  C   UNL     1      -6.928 -11.387  -4.948  1.00  0.00     0.093 C 
ENDBRANCH   6   7
ENDBRANCH   1   5
TORSDOF 4
ENDMDL
MODEL 2
REMARK VINA RESULT:    -3.087      2.478      5.521
REMARK INTER + INTRA:          -3.909
REMARK INTER:                  -3.734
REMARK INTRA:                  -0.175
REMARK UNBOUND:                -0.099
REMARK SMILES CCCCC=CC(C)=O
REMARK SMILES IDX 4 1 3 2 2 3 1 4 5 5 6 6 7 7 9 8 8 9
REMARK H PARENT
REMARK Flexibility Score: inf
ROOT
ATOM      1  C   UNL     1      -4.191 -10.303  -5.885  1.00  0.00     0.027 C 
ENDROOT
BRANCH   1   2
ATOM      2  C   UNL     1      -4.210 -11.622  -5.103  1.00  0.00     0.004 C 
BRANCH   2   3
ATOM      3  C   UNL     1      -5.642 -12.148  -4.948  1.00  0.00    -0.003 C 
ATOM      4  C   UNL     1      -6.646 -11.001  -4.880  1.00  0.00     0.004 C 
ENDBRANCH   2   3
ENDBRANCH   1   2
BRANCH   1   5
ATOM      5  C   UNL     1      -3.310  -9.287  -5.218  1.00  0.00    -0.023 C 
ATOM      6  C   UNL     1      -2.903  -8.186  -5.859  1.00  0.00     0.042 C 
BRANCH   6   7
ATOM      7  C   UNL     1      -2.048  -7.170  -5.217  1.00  0.00     0.152 C 
ATOM      8  O   UNL     1      -2.520  -6.052  -4.875  1.00  0.00    -0.295 OA
ATOM      9  C   UNL     1      -0.605  -7.468  -4.967  1.00  0.00     0.093 C 
ENDBRANCH   6   7
ENDBRANCH   1   5
TORSDOF 4
ENDMDL
MODEL 3
REMARK VINA RESULT:    -1.620     19.363     20.529
REMARK INTER + INTRA:          -2.098
REMARK INTER:                  -1.965
REMARK INTRA:                  -0.133
REMARK UNBOUND:                -0.099
REMARK SMILES CCCCC=CC(C)=O
REMARK SMILES IDX 4 1 3 2 2 3 1 4 5 5 6 6 7 7 9 8 8 9
REMARK H PARENT
REMARK Flexibility Score: inf
ROOT
ATOM      1  C   UNL     1      -8.697 -15.556 -22.965  1.00  0.00     0.027 C 
ENDROOT
BRANCH   1   2
ATOM      2  C   UNL     1      -8.468 -14.178 -23.600  1.00  0.00     0.004 C 
BRANCH   2   3
ATOM      3  C   UNL     1      -9.037 -13.064 -22.714  1.00  0.00    -0.003 C 
ATOM      4  C   UNL     1     -10.528 -13.267 -22.463  1.00  0.00     0.004 C 
ENDBRANCH   2   3
ENDBRANCH   1   2
BRANCH   1   5
ATOM      5  C   UNL     1      -8.408 -16.659 -23.942  1.00  0.00    -0.023 C 
ATOM      6  C   UNL     1      -8.109 -17.896 -23.529  1.00  0.00     0.042 C 
BRANCH   6   7
ATOM      7  C   UNL     1      -7.834 -18.997 -24.472  1.00  0.00     0.152 C 
ATOM      8  O   UNL     1      -8.731 -19.833 -24.767  1.00  0.00    -0.295 OA
ATOM      9  C   UNL     1      -6.477 -19.123 -25.086  1.00  0.00     0.093 C 
ENDBRANCH   6   7
ENDBRANCH   1   5
TORSDOF 4
ENDMDL
MODEL 4
REMARK VINA RESULT:    -1.454      3.013      4.789
REMARK INTER + INTRA:          -1.893
REMARK INTER:                  -1.809
REMARK INTRA:                  -0.083
REMARK UNBOUND:                -0.099
REMARK SMILES CCCCC=CC(C)=O
REMARK SMILES IDX 4 1 3 2 2 3 1 4 5 5 6 6 7 7 9 8 8 9
REMARK H PARENT
REMARK Flexibility Score: inf
ROOT
ATOM      1  C   UNL     1       1.207  -7.295  -5.397  1.00  0.00     0.027 C 
ENDROOT
BRANCH   1   2
ATOM      2  C   UNL     1       2.046  -6.119  -4.882  1.00  0.00     0.004 C 
BRANCH   2   3
ATOM      3  C   UNL     1       3.539  -6.468  -4.882  1.00  0.00    -0.003 C 
ATOM      4  C   UNL     1       4.364  -5.362  -5.531  1.00  0.00     0.004 C 
ENDBRANCH   2   3
ENDBRANCH   1   2
BRANCH   1   5
ATOM      5  C   UNL     1      -0.245  -7.116  -5.060  1.00  0.00    -0.023 C 
ATOM      6  C   UNL     1      -1.173  -7.980  -5.486  1.00  0.00     0.042 C 
BRANCH   6   7
ATOM      7  C   UNL     1      -2.602  -7.829  -5.156  1.00  0.00     0.152 C 
ATOM      8  O   UNL     1      -3.084  -6.698  -4.875  1.00  0.00    -0.295 OA
ATOM      9  C   UNL     1      -3.493  -9.030  -5.156  1.00  0.00     0.093 C 
ENDBRANCH   6   7
ENDBRANCH   1   5
TORSDOF 4
ENDMDL
MODEL 5
REMARK VINA RESULT:    -0.782     21.723     22.984
REMARK INTER + INTRA:          -1.064
REMARK INTER:                  -0.942
REMARK INTRA:                  -0.122
REMARK UNBOUND:                -0.099
REMARK SMILES CCCCC=CC(C)=O
REMARK SMILES IDX 4 1 3 2 2 3 1 4 5 5 6 6 7 7 9 8 8 9
REMARK H PARENT
REMARK Flexibility Score: inf
ROOT
ATOM      1  C   UNL     1      -7.156 -20.534 -25.117  1.00  0.00     0.027 C 
ENDROOT
BRANCH   1   2
ATOM      2  C   UNL     1      -6.983 -19.061 -24.726  1.00  0.00     0.004 C 
BRANCH   2   3
ATOM      3  C   UNL     1      -8.340 -18.406 -24.442  1.00  0.00    -0.003 C 
ATOM      4  C   UNL     1      -8.427 -17.924 -22.997  1.00  0.00     0.004 C 
ENDBRANCH   2   3
ENDBRANCH   1   2
BRANCH   1   5
ATOM      5  C   UNL     1      -5.839 -21.254 -25.118  1.00  0.00    -0.023 C 
ATOM      6  C   UNL     1      -5.764 -22.575 -24.921  1.00  0.00     0.042 C 
BRANCH   6   7
ATOM      7  C   UNL     1      -4.482 -23.303 -24.931  1.00  0.00     0.152 C 
ATOM      8  O   UNL     1      -4.452 -24.555 -25.086  1.00  0.00    -0.295 OA
ATOM      9  C   UNL     1      -3.202 -22.551 -24.757  1.00  0.00     0.093 C 
ENDBRANCH   6   7
ENDBRANCH   1   5
TORSDOF 4
ENDMDL
MODEL 6
REMARK VINA RESULT:    -0.761     22.913     24.275
REMARK INTER + INTRA:          -1.039
REMARK INTER:                  -0.918
REMARK INTRA:                  -0.120
REMARK UNBOUND:                -0.099
REMARK SMILES CCCCC=CC(C)=O
REMARK SMILES IDX 4 1 3 2 2 3 1 4 5 5 6 6 7 7 9 8 8 9
REMARK H PARENT
REMARK Flexibility Score: inf
ROOT
ATOM      1  C   UNL     1      -3.604 -24.622 -24.757  1.00  0.00     0.027 C 
ENDROOT
BRANCH   1   2
ATOM      2  C   UNL     1      -5.045 -25.048 -25.066  1.00  0.00     0.004 C 
BRANCH   2   3
ATOM      3  C   UNL     1      -5.894 -25.081 -23.789  1.00  0.00    -0.003 C 
ATOM      4  C   UNL     1      -7.383 -25.106 -24.118  1.00  0.00     0.004 C 
ENDBRANCH   2   3
ENDBRANCH   1   2
BRANCH   1   5
ATOM      5  C   UNL     1      -3.402 -23.158 -25.019  1.00  0.00    -0.023 C 
ATOM      6  C   UNL     1      -2.244 -22.550 -24.736  1.00  0.00     0.042 C 
BRANCH   6   7
ATOM      7  C   UNL     1      -2.021 -21.116 -24.998  1.00  0.00     0.152 C 
ATOM      8  O   UNL     1      -2.994 -20.323 -25.116  1.00  0.00    -0.295 OA
ATOM      9  C   UNL     1      -0.625 -20.596 -25.123  1.00  0.00     0.093 C 
ENDBRANCH   6   7
ENDBRANCH   1   5
TORSDOF 4
ENDMDL
