MODEL 1
REMARK VINA RESULT:    -5.265      0.000      0.000
REMARK INTER + INTRA:          -5.994
REMARK INTER:                  -5.881
REMARK INTRA:                  -0.114
REMARK UNBOUND:                -0.114
REMARK SMILES COc1cc2ccc(=O)oc2cc1OC
REMARK SMILES IDX 3 1 13 2 12 3 11 4 5 5 4 6 6 7 7 8 8 9 9 10 10 11 2 12 1 13
REMARK SMILES IDX 14 14 15 15
REMARK H PARENT
REMARK Flexibility Score: inf
ROOT
ATOM      1  C   UNL     1       2.850  26.259  27.210  1.00  0.00     0.161 A 
ATOM      2  C   UNL     1       2.117  26.722  26.104  1.00  0.00     0.164 A 
ATOM      3  C   UNL     1       0.894  26.110  25.770  1.00  0.00     0.098 A 
ATOM      4  C   UNL     1       0.404  25.046  26.531  1.00  0.00     0.142 A 
ATOM      5  C   UNL     1       1.138  24.580  27.640  1.00  0.00     0.022 A 
ATOM      6  C   UNL     1       2.355  25.185  27.976  1.00  0.00     0.062 A 
ATOM      7  C   UNL     1       0.621  23.512  28.382  1.00  0.00     0.019 A 
ATOM      8  C   UNL     1      -0.595  22.943  28.007  1.00  0.00     0.094 A 
ATOM      9  C   UNL     1      -1.268  23.458  26.894  1.00  0.00     0.336 A 
ATOM     10  O   UNL     1      -2.368  22.959  26.538  1.00  0.00    -0.246 OA
ATOM     11  O   UNL     1      -0.753  24.474  26.206  1.00  0.00    -0.423 OA
ENDROOT
BRANCH   1  12
ATOM     12  O   UNL     1       4.065  26.893  27.514  1.00  0.00    -0.493 OA
ATOM     13  C   UNL     1       4.368  27.501  28.766  1.00  0.00     0.278 C 
ENDBRANCH   1  12
BRANCH   2  14
ATOM     14  O   UNL     1       2.640  27.794  25.362  1.00  0.00    -0.493 OA
ATOM     15  C   UNL     1       2.051  28.318  24.176  1.00  0.00     0.278 C 
ENDBRANCH   2  14
TORSDOF 2
ENDMDL
MODEL 2
REMARK VINA RESULT:    -5.090      2.042      3.370
REMARK INTER + INTRA:          -5.798
REMARK INTER:                  -5.665
REMARK INTRA:                  -0.134
REMARK UNBOUND:                -0.114
REMARK SMILES COc1cc2ccc(=O)oc2cc1OC
REMARK SMILES IDX 3 1 13 2 12 3 11 4 5 5 4 6 6 7 7 8 8 9 9 10 10 11 2 12 1 13
REMARK SMILES IDX 14 14 15 15
REMARK H PARENT
REMARK Flexibility Score: inf
ROOT
ATOM      1  C   UNL     1       1.050  25.500  26.202  1.00  0.00     0.161 A 
ATOM      2  C   UNL     1       1.681  24.740  27.201  1.00  0.00     0.164 A 
ATOM      3  C   UNL     1       0.911  24.146  28.219  1.00  0.00     0.098 A 
ATOM      4  C   UNL     1      -0.476  24.305  28.242  1.00  0.00     0.142 A 
ATOM      5  C   UNL     1      -1.111  25.067  27.240  1.00  0.00     0.022 A 
ATOM      6  C   UNL     1      -0.350  25.661  26.226  1.00  0.00     0.062 A 
ATOM      7  C   UNL     1      -2.502  25.209  27.292  1.00  0.00     0.019 A 
ATOM      8  C   UNL     1      -3.215  24.599  28.322  1.00  0.00     0.094 A 
ATOM      9  C   UNL     1      -2.518  23.858  29.282  1.00  0.00     0.336 A 
ATOM     10  O   UNL     1      -3.143  23.298  30.221  1.00  0.00    -0.246 OA
ATOM     11  O   UNL     1      -1.195  23.739  29.209  1.00  0.00    -0.423 OA
ENDROOT
BRANCH   1  12
ATOM     12  O   UNL     1       1.848  26.078  25.202  1.00  0.00    -0.493 OA
ATOM     13  C   UNL     1       1.877  27.468  24.894  1.00  0.00     0.278 C 
ENDBRANCH   1  12
BRANCH   2  14
ATOM     14  O   UNL     1       3.078  24.600  27.147  1.00  0.00    -0.493 OA
ATOM     15  C   UNL     1       3.981  25.134  28.109  1.00  0.00     0.278 C 
ENDBRANCH   2  14
TORSDOF 2
ENDMDL
MODEL 3
REMARK VINA RESULT:    -5.005      1.598      4.873
REMARK INTER + INTRA:          -5.704
REMARK INTER:                  -5.591
REMARK INTRA:                  -0.114
REMARK UNBOUND:                -0.114
REMARK SMILES COc1cc2ccc(=O)oc2cc1OC
REMARK SMILES IDX 3 1 13 2 12 3 11 4 5 5 4 6 6 7 7 8 8 9 9 10 10 11 2 12 1 13
REMARK SMILES IDX 14 14 15 15
REMARK H PARENT
REMARK Flexibility Score: inf
ROOT
ATOM      1  C   UNL     1       0.172  24.990  26.453  1.00  0.00     0.161 A 
ATOM      2  C   UNL     1      -0.130  26.362  26.440  1.00  0.00     0.164 A 
ATOM      3  C   UNL     1       0.775  27.283  27.004  1.00  0.00     0.098 A 
ATOM      4  C   UNL     1       1.970  26.841  27.575  1.00  0.00     0.142 A 
ATOM      5  C   UNL     1       2.275  25.464  27.589  1.00  0.00     0.022 A 
ATOM      6  C   UNL     1       1.379  24.545  27.030  1.00  0.00     0.062 A 
ATOM      7  C   UNL     1       3.479  25.053  28.169  1.00  0.00     0.019 A 
ATOM      8  C   UNL     1       4.338  26.007  28.713  1.00  0.00     0.094 A 
ATOM      9  C   UNL     1       3.970  27.355  28.664  1.00  0.00     0.336 A 
ATOM     10  O   UNL     1       4.732  28.233  29.149  1.00  0.00    -0.246 OA
ATOM     11  O   UNL     1       2.818  27.719  28.106  1.00  0.00    -0.423 OA
ENDROOT
BRANCH   1  12
ATOM     12  O   UNL     1      -0.752  24.101  25.881  1.00  0.00    -0.493 OA
ATOM     13  C   UNL     1      -1.714  23.352  26.617  1.00  0.00     0.278 C 
ENDBRANCH   1  12
BRANCH   2  14
ATOM     14  O   UNL     1      -1.340  26.771  25.857  1.00  0.00    -0.493 OA
ATOM     15  C   UNL     1      -1.649  28.113  25.494  1.00  0.00     0.278 C 
ENDBRANCH   2  14
TORSDOF 2
ENDMDL
MODEL 4
REMARK VINA RESULT:    -4.998      2.201      5.507
REMARK INTER + INTRA:          -5.696
REMARK INTER:                  -5.563
REMARK INTRA:                  -0.133
REMARK UNBOUND:                -0.114
REMARK SMILES COc1cc2ccc(=O)oc2cc1OC
REMARK SMILES IDX 3 1 13 2 12 3 11 4 5 5 4 6 6 7 7 8 8 9 9 10 10 11 2 12 1 13
REMARK SMILES IDX 14 14 15 15
REMARK H PARENT
REMARK Flexibility Score: inf
ROOT
ATOM      1  C   UNL     1      -1.466  25.398  27.043  1.00  0.00     0.161 A 
ATOM      2  C   UNL     1      -0.336  24.628  26.720  1.00  0.00     0.164 A 
ATOM      3  C   UNL     1       0.716  25.205  25.982  1.00  0.00     0.098 A 
ATOM      4  C   UNL     1       0.643  26.537  25.570  1.00  0.00     0.142 A 
ATOM      5  C   UNL     1      -0.490  27.311  25.893  1.00  0.00     0.022 A 
ATOM      6  C   UNL     1      -1.538  26.742  26.626  1.00  0.00     0.062 A 
ATOM      7  C   UNL     1      -0.533  28.642  25.465  1.00  0.00     0.019 A 
ATOM      8  C   UNL     1       0.536  29.162  24.737  1.00  0.00     0.094 A 
ATOM      9  C   UNL     1       1.628  28.335  24.454  1.00  0.00     0.336 A 
ATOM     10  O   UNL     1       2.604  28.786  23.798  1.00  0.00    -0.246 OA
ATOM     11  O   UNL     1       1.643  27.073  24.873  1.00  0.00    -0.423 OA
ENDROOT
BRANCH   1  12
ATOM     12  O   UNL     1      -2.495  24.791  27.780  1.00  0.00    -0.493 OA
ATOM     13  C   UNL     1      -2.702  24.970  29.178  1.00  0.00     0.278 C 
ENDBRANCH   1  12
BRANCH   2  14
ATOM     14  O   UNL     1      -0.297  23.292  27.152  1.00  0.00    -0.493 OA
ATOM     15  C   UNL     1       0.813  22.688  27.809  1.00  0.00     0.278 C 
ENDBRANCH   2  14
TORSDOF 2
ENDMDL
MODEL 5
REMARK VINA RESULT:    -4.993      2.066      2.388
REMARK INTER + INTRA:          -5.691
REMARK INTER:                  -5.566
REMARK INTRA:                  -0.125
REMARK UNBOUND:                -0.114
REMARK SMILES COc1cc2ccc(=O)oc2cc1OC
REMARK SMILES IDX 3 1 13 2 12 3 11 4 5 5 4 6 6 7 7 8 8 9 9 10 10 11 2 12 1 13
REMARK SMILES IDX 14 14 15 15
REMARK H PARENT
REMARK Flexibility Score: inf
ROOT
ATOM      1  C   UNL     1       1.369  24.837  27.027  1.00  0.00     0.161 A 
ATOM      2  C   UNL     1       0.883  25.745  26.072  1.00  0.00     0.164 A 
ATOM      3  C   UNL     1      -0.486  26.078  26.058  1.00  0.00     0.098 A 
ATOM      4  C   UNL     1      -1.361  25.513  26.987  1.00  0.00     0.142 A 
ATOM      5  C   UNL     1      -0.874  24.601  27.946  1.00  0.00     0.022 A 
ATOM      6  C   UNL     1       0.485  24.266  27.964  1.00  0.00     0.062 A 
ATOM      7  C   UNL     1      -1.776  24.051  28.863  1.00  0.00     0.019 A 
ATOM      8  C   UNL     1      -3.121  24.416  28.804  1.00  0.00     0.094 A 
ATOM      9  C   UNL     1      -3.532  25.326  27.825  1.00  0.00     0.336 A 
ATOM     10  O   UNL     1      -4.742  25.670  27.755  1.00  0.00    -0.246 OA
ATOM     11  O   UNL     1      -2.653  25.834  26.965  1.00  0.00    -0.423 OA
ENDROOT
BRANCH   1  12
ATOM     12  O   UNL     1       2.739  24.528  27.012  1.00  0.00    -0.493 OA
ATOM     13  C   UNL     1       3.657  24.876  28.044  1.00  0.00     0.278 C 
ENDBRANCH   1  12
BRANCH   2  14
ATOM     14  O   UNL     1       1.791  26.295  25.153  1.00  0.00    -0.493 OA
ATOM     15  C   UNL     1       1.809  27.662  24.754  1.00  0.00     0.278 C 
ENDBRANCH   2  14
TORSDOF 2
ENDMDL
MODEL 6
REMARK VINA RESULT:    -4.989      2.043      3.258
REMARK INTER + INTRA:          -5.686
REMARK INTER:                  -5.552
REMARK INTRA:                  -0.133
REMARK UNBOUND:                -0.114
REMARK SMILES COc1cc2ccc(=O)oc2cc1OC
REMARK SMILES IDX 3 1 13 2 12 3 11 4 5 5 4 6 6 7 7 8 8 9 9 10 10 11 2 12 1 13
REMARK SMILES IDX 14 14 15 15
REMARK H PARENT
REMARK Flexibility Score: inf
ROOT
ATOM      1  C   UNL     1       1.333  28.079  25.429  1.00  0.00     0.161 A 
ATOM      2  C   UNL     1      -0.027  27.752  25.560  1.00  0.00     0.164 A 
ATOM      3  C   UNL     1      -0.399  26.538  26.169  1.00  0.00     0.098 A 
ATOM      4  C   UNL     1       0.575  25.657  26.644  1.00  0.00     0.142 A 
ATOM      5  C   UNL     1       1.941  25.984  26.514  1.00  0.00     0.022 A 
ATOM      6  C   UNL     1       2.315  27.190  25.909  1.00  0.00     0.062 A 
ATOM      7  C   UNL     1       2.892  25.081  26.999  1.00  0.00     0.019 A 
ATOM      8  C   UNL     1       2.469  23.893  27.594  1.00  0.00     0.094 A 
ATOM      9  C   UNL     1       1.097  23.636  27.688  1.00  0.00     0.336 A 
ATOM     10  O   UNL     1       0.694  22.568  28.222  1.00  0.00    -0.246 OA
ATOM     11  O   UNL     1       0.214  24.512  27.218  1.00  0.00    -0.423 OA
ENDROOT
BRANCH   1  12
ATOM     12  O   UNL     1       1.667  29.297  24.817  1.00  0.00    -0.493 OA
ATOM     13  C   UNL     1       2.060  29.437  23.455  1.00  0.00     0.278 C 
ENDBRANCH   1  12
BRANCH   2  14
ATOM     14  O   UNL     1      -0.980  28.661  25.071  1.00  0.00    -0.493 OA
ATOM     15  C   UNL     1      -1.836  29.451  25.890  1.00  0.00     0.278 C 
ENDBRANCH   2  14
TORSDOF 2
ENDMDL
MODEL 7
REMARK VINA RESULT:    -4.943      2.230      5.723
REMARK INTER + INTRA:          -5.634
REMARK INTER:                  -5.469
REMARK INTRA:                  -0.165
REMARK UNBOUND:                -0.114
REMARK SMILES COc1cc2ccc(=O)oc2cc1OC
REMARK SMILES IDX 3 1 13 2 12 3 11 4 5 5 4 6 6 7 7 8 8 9 9 10 10 11 2 12 1 13
REMARK SMILES IDX 14 14 15 15
REMARK H PARENT
REMARK Flexibility Score: inf
ROOT
ATOM      1  C   UNL     1      -2.229  24.725  27.382  1.00  0.00     0.161 A 
ATOM      2  C   UNL     1      -1.856  23.825  28.394  1.00  0.00     0.164 A 
ATOM      3  C   UNL     1      -0.492  23.582  28.646  1.00  0.00     0.098 A 
ATOM      4  C   UNL     1       0.492  24.231  27.898  1.00  0.00     0.142 A 
ATOM      5  C   UNL     1       0.120  25.135  26.882  1.00  0.00     0.022 A 
ATOM      6  C   UNL     1      -1.235  25.380  26.627  1.00  0.00     0.062 A 
ATOM      7  C   UNL     1       1.129  25.768  26.150  1.00  0.00     0.019 A 
ATOM      8  C   UNL     1       2.464  25.491  26.441  1.00  0.00     0.094 A 
ATOM      9  C   UNL     1       2.759  24.582  27.463  1.00  0.00     0.336 A 
ATOM     10  O   UNL     1       3.958  24.318  27.742  1.00  0.00    -0.246 OA
ATOM     11  O   UNL     1       1.779  23.994  28.144  1.00  0.00    -0.423 OA
ENDROOT
BRANCH   1  12
ATOM     12  O   UNL     1      -3.598  24.944  27.159  1.00  0.00    -0.493 OA
ATOM     13  C   UNL     1      -4.325  26.071  27.639  1.00  0.00     0.278 C 
ENDBRANCH   1  12
BRANCH   2  14
ATOM     14  O   UNL     1      -2.872  23.191  29.128  1.00  0.00    -0.493 OA
ATOM     15  C   UNL     1      -3.239  23.531  30.460  1.00  0.00     0.278 C 
ENDBRANCH   2  14
TORSDOF 2
ENDMDL
MODEL 8
REMARK VINA RESULT:    -4.914      2.155      3.479
REMARK INTER + INTRA:          -5.603
REMARK INTER:                  -5.495
REMARK INTRA:                  -0.108
REMARK UNBOUND:                -0.114
REMARK SMILES COc1cc2ccc(=O)oc2cc1OC
REMARK SMILES IDX 3 1 13 2 12 3 11 4 5 5 4 6 6 7 7 8 8 9 9 10 10 11 2 12 1 13
REMARK SMILES IDX 14 14 15 15
REMARK H PARENT
REMARK Flexibility Score: inf
ROOT
ATOM      1  C   UNL     1      -0.438  28.041  25.529  1.00  0.00     0.161 A 
ATOM      2  C   UNL     1       0.948  27.818  25.476  1.00  0.00     0.164 A 
ATOM      3  C   UNL     1       1.476  26.589  25.918  1.00  0.00     0.098 A 
ATOM      4  C   UNL     1       0.630  25.591  26.407  1.00  0.00     0.142 A 
ATOM      5  C   UNL     1      -0.761  25.814  26.461  1.00  0.00     0.022 A 
ATOM      6  C   UNL     1      -1.290  27.034  26.023  1.00  0.00     0.062 A 
ATOM      7  C   UNL     1      -1.581  24.795  26.957  1.00  0.00     0.019 A 
ATOM      8  C   UNL     1      -1.006  23.598  27.381  1.00  0.00     0.094 A 
ATOM      9  C   UNL     1       0.382  23.448  27.298  1.00  0.00     0.336 A 
ATOM     10  O   UNL     1       0.921  22.374  27.675  1.00  0.00    -0.246 OA
ATOM     11  O   UNL     1       1.138  24.433  26.823  1.00  0.00    -0.423 OA
ENDROOT
BRANCH   1  12
ATOM     12  O   UNL     1      -0.929  29.278  25.080  1.00  0.00    -0.493 OA
ATOM     13  C   UNL     1      -2.057  29.437  24.225  1.00  0.00     0.278 C 
ENDBRANCH   1  12
BRANCH   2  14
ATOM     14  O   UNL     1       1.769  28.843  24.978  1.00  0.00    -0.493 OA
ATOM     15  C   UNL     1       2.149  28.981  23.613  1.00  0.00     0.278 C 
ENDBRANCH   2  14
TORSDOF 2
ENDMDL
MODEL 9
REMARK VINA RESULT:    -4.888      2.574      4.449
REMARK INTER + INTRA:          -5.573
REMARK INTER:                  -5.462
REMARK INTRA:                  -0.111
REMARK UNBOUND:                -0.114
REMARK SMILES COc1cc2ccc(=O)oc2cc1OC
REMARK SMILES IDX 3 1 13 2 12 3 11 4 5 5 4 6 6 7 7 8 8 9 9 10 10 11 2 12 1 13
REMARK SMILES IDX 14 14 15 15
REMARK H PARENT
REMARK Flexibility Score: inf
ROOT
ATOM      1  C   UNL     1       4.779  27.596  30.348  1.00  0.00     0.161 A 
ATOM      2  C   UNL     1       3.858  28.598  29.998  1.00  0.00     0.164 A 
ATOM      3  C   UNL     1       2.911  28.355  28.984  1.00  0.00     0.098 A 
ATOM      4  C   UNL     1       2.881  27.124  28.325  1.00  0.00     0.142 A 
ATOM      5  C   UNL     1       3.804  26.117  28.676  1.00  0.00     0.022 A 
ATOM      6  C   UNL     1       4.748  26.355  29.682  1.00  0.00     0.062 A 
ATOM      7  C   UNL     1       3.749  24.896  27.997  1.00  0.00     0.019 A 
ATOM      8  C   UNL     1       2.791  24.708  27.001  1.00  0.00     0.094 A 
ATOM      9  C   UNL     1       1.907  25.752  26.707  1.00  0.00     0.336 A 
ATOM     10  O   UNL     1       1.034  25.603  25.812  1.00  0.00    -0.246 OA
ATOM     11  O   UNL     1       1.982  26.903  27.368  1.00  0.00    -0.423 OA
ENDROOT
BRANCH   1  12
ATOM     12  O   UNL     1       5.708  27.873  31.363  1.00  0.00    -0.493 OA
ATOM     13  C   UNL     1       7.067  28.235  31.138  1.00  0.00     0.278 C 
ENDBRANCH   1  12
BRANCH   2  14
ATOM     14  O   UNL     1       3.917  29.824  30.682  1.00  0.00    -0.493 OA
ATOM     15  C   UNL     1       3.182  30.125  31.863  1.00  0.00     0.278 C 
ENDBRANCH   2  14
TORSDOF 2
ENDMDL
