MODEL 1
REMARK VINA RESULT:    -3.811      0.000      0.000
REMARK INTER + INTRA:          -9.686
REMARK INTER:                  -6.929
REMARK INTRA:                  -2.756
REMARK UNBOUND:                -2.756
REMARK SMILES CCCCCCCCCCCCCC[C@H](C)C(=O)[O-]
REMARK SMILES IDX 9 1 10 2 11 3 12 4 13 5 14 6 15 7 16 8 17 9 18 10 19 11 8 12
REMARK SMILES IDX 7 13 6 14 5 15 4 16 3 17 2 18 1 19
REMARK H PARENT
REMARK Flexibility Score: inf
ROOT
ATOM      1  C   UNL     1      19.250  51.741  41.612  1.00  0.00     0.000 C 
ENDROOT
BRANCH   1   2
ATOM      2  C   UNL     1      18.108  51.344  40.659  1.00  0.00     0.000 C 
BRANCH   2   3
ATOM      3  C   UNL     1      18.480  50.153  39.759  1.00  0.00     0.000 C 
BRANCH   3   4
ATOM      4  C   UNL     1      17.555  50.027  38.536  1.00  0.00     0.000 C 
BRANCH   4   5
ATOM      5  C   UNL     1      16.794  51.328  38.234  1.00  0.00     0.001 C 
BRANCH   5   6
ATOM      6  C   UNL     1      16.310  51.409  36.772  1.00  0.00     0.009 C 
BRANCH   6   7
ATOM      7  C   UNL     1      17.226  50.687  35.760  1.00  0.00     0.032 C 
ATOM      8  C   UNL     1      17.900  51.655  34.779  1.00  0.00     0.014 C 
BRANCH   7   9
ATOM      9  C   UNL     1      16.499  49.581  35.040  1.00  0.00     0.044 C 
ATOM     10  O   UNL     1      16.243  48.505  35.642  1.00  0.00    -0.550 OA
ATOM     11  O   UNL     1      16.061  49.750  33.731  1.00  0.00    -0.550 OA
ENDBRANCH   7   9
ENDBRANCH   6   7
ENDBRANCH   5   6
ENDBRANCH   4   5
ENDBRANCH   3   4
ENDBRANCH   2   3
ENDBRANCH   1   2
BRANCH   1  12
ATOM     12  C   UNL     1      20.558  50.990  41.312  1.00  0.00     0.000 C 
BRANCH  12  13
ATOM     13  C   UNL     1      21.780  51.920  41.264  1.00  0.00    -0.000 C 
BRANCH  13  14
ATOM     14  C   UNL     1      22.736  51.510  40.134  1.00  0.00    -0.000 C 
BRANCH  14  15
ATOM     15  C   UNL     1      22.311  50.209  39.429  1.00  0.00    -0.000 C 
BRANCH  15  16
ATOM     16  C   UNL     1      21.732  50.390  38.014  1.00  0.00    -0.000 C 
BRANCH  16  17
ATOM     17  C   UNL     1      21.725  51.857  37.553  1.00  0.00    -0.000 C 
BRANCH  17  18
ATOM     18  C   UNL     1      20.302  52.410  37.371  1.00  0.00    -0.003 C 
ATOM     19  C   UNL     1      19.978  53.546  38.339  1.00  0.00     0.004 C 
ENDBRANCH  17  18
ENDBRANCH  16  17
ENDBRANCH  15  16
ENDBRANCH  14  15
ENDBRANCH  13  14
ENDBRANCH  12  13
ENDBRANCH   1  12
TORSDOF 14
ENDMDL
MODEL 2
REMARK VINA RESULT:    -3.802      2.414      3.634
REMARK INTER + INTRA:          -9.670
REMARK INTER:                  -7.325
REMARK INTRA:                  -2.345
REMARK UNBOUND:                -2.756
REMARK SMILES CCCCCCCCCCCCCC[C@H](C)C(=O)[O-]
REMARK SMILES IDX 9 1 10 2 11 3 12 4 13 5 14 6 15 7 16 8 17 9 18 10 19 11 8 12
REMARK SMILES IDX 7 13 6 14 5 15 4 16 3 17 2 18 1 19
REMARK H PARENT
REMARK Flexibility Score: inf
ROOT
ATOM      1  C   UNL     1      17.662  51.847  38.016  1.00  0.00     0.000 C 
ENDROOT
BRANCH   1   2
ATOM      2  C   UNL     1      16.572  50.942  38.616  1.00  0.00     0.000 C 
BRANCH   2   3
ATOM      3  C   UNL     1      16.391  49.634  37.828  1.00  0.00     0.000 C 
BRANCH   3   4
ATOM      4  C   UNL     1      17.456  48.581  38.179  1.00  0.00     0.000 C 
BRANCH   4   5
ATOM      5  C   UNL     1      18.304  48.170  36.965  1.00  0.00     0.001 C 
BRANCH   5   6
ATOM      6  C   UNL     1      19.677  48.873  36.933  1.00  0.00     0.009 C 
BRANCH   6   7
ATOM      7  C   UNL     1      19.908  49.754  35.686  1.00  0.00     0.032 C 
ATOM      8  C   UNL     1      18.610  50.049  34.923  1.00  0.00     0.014 C 
BRANCH   7   9
ATOM      9  C   UNL     1      20.966  49.175  34.783  1.00  0.00     0.044 C 
ATOM     10  O   UNL     1      20.799  49.188  33.535  1.00  0.00    -0.550 OA
ATOM     11  O   UNL     1      22.150  48.667  35.306  1.00  0.00    -0.550 OA
ENDBRANCH   7   9
ENDBRANCH   6   7
ENDBRANCH   5   6
ENDBRANCH   4   5
ENDBRANCH   3   4
ENDBRANCH   2   3
ENDBRANCH   1   2
BRANCH   1  12
ATOM     12  C   UNL     1      18.916  51.928  38.901  1.00  0.00     0.000 C 
BRANCH  12  13
ATOM     13  C   UNL     1      19.771  53.171  38.610  1.00  0.00    -0.000 C 
BRANCH  13  14
ATOM     14  C   UNL     1      20.630  52.962  37.354  1.00  0.00    -0.000 C 
BRANCH  14  15
ATOM     15  C   UNL     1      21.864  52.075  37.610  1.00  0.00    -0.000 C 
BRANCH  15  16
ATOM     16  C   UNL     1      22.908  52.669  38.573  1.00  0.00    -0.000 C 
BRANCH  16  17
ATOM     17  C   UNL     1      23.168  51.775  39.798  1.00  0.00    -0.000 C 
BRANCH  17  18
ATOM     18  C   UNL     1      22.293  50.510  39.799  1.00  0.00    -0.003 C 
ATOM     19  C   UNL     1      21.296  50.480  40.957  1.00  0.00     0.004 C 
ENDBRANCH  17  18
ENDBRANCH  16  17
ENDBRANCH  15  16
ENDBRANCH  14  15
ENDBRANCH  13  14
ENDBRANCH  12  13
ENDBRANCH   1  12
TORSDOF 14
ENDMDL
MODEL 3
REMARK VINA RESULT:    -3.778     13.602     15.772
REMARK INTER + INTRA:          -9.626
REMARK INTER:                  -7.820
REMARK INTRA:                  -1.806
REMARK UNBOUND:                -2.756
REMARK SMILES CCCCCCCCCCCCCC[C@H](C)C(=O)[O-]
REMARK SMILES IDX 9 1 10 2 11 3 12 4 13 5 14 6 15 7 16 8 17 9 18 10 19 11 8 12
REMARK SMILES IDX 7 13 6 14 5 15 4 16 3 17 2 18 1 19
REMARK H PARENT
REMARK Flexibility Score: inf
ROOT
ATOM      1  C   UNL     1      26.500  59.046  25.462  1.00  0.00     0.000 C 
ENDROOT
BRANCH   1   2
ATOM      2  C   UNL     1      26.642  60.019  26.647  1.00  0.00     0.000 C 
BRANCH   2   3
ATOM      3  C   UNL     1      25.796  61.291  26.469  1.00  0.00     0.000 C 
BRANCH   3   4
ATOM      4  C   UNL     1      25.119  61.737  27.776  1.00  0.00     0.000 C 
BRANCH   4   5
ATOM      5  C   UNL     1      23.625  61.380  27.819  1.00  0.00     0.001 C 
BRANCH   5   6
ATOM      6  C   UNL     1      23.359  59.893  27.511  1.00  0.00     0.009 C 
BRANCH   6   7
ATOM      7  C   UNL     1      22.260  59.652  26.454  1.00  0.00     0.032 C 
ATOM      8  C   UNL     1      22.802  59.697  25.019  1.00  0.00     0.014 C 
BRANCH   7   9
ATOM      9  C   UNL     1      21.094  60.588  26.638  1.00  0.00     0.044 C 
ATOM     10  O   UNL     1      20.255  60.369  27.552  1.00  0.00    -0.550 OA
ATOM     11  O   UNL     1      20.957  61.721  25.845  1.00  0.00    -0.550 OA
ENDBRANCH   7   9
ENDBRANCH   6   7
ENDBRANCH   5   6
ENDBRANCH   4   5
ENDBRANCH   3   4
ENDBRANCH   2   3
ENDBRANCH   1   2
BRANCH   1  12
ATOM     12  C   UNL     1      27.338  57.770  25.643  1.00  0.00     0.000 C 
BRANCH  12  13
ATOM     13  C   UNL     1      26.585  56.499  25.219  1.00  0.00    -0.000 C 
BRANCH  13  14
ATOM     14  C   UNL     1      25.575  56.809  24.104  1.00  0.00    -0.000 C 
BRANCH  14  15
ATOM     15  C   UNL     1      24.127  56.446  24.485  1.00  0.00    -0.000 C 
BRANCH  15  16
ATOM     16  C   UNL     1      23.929  55.995  25.944  1.00  0.00    -0.000 C 
BRANCH  16  17
ATOM     17  C   UNL     1      22.455  55.725  26.291  1.00  0.00    -0.000 C 
BRANCH  17  18
ATOM     18  C   UNL     1      21.678  55.104  25.118  1.00  0.00    -0.003 C 
ATOM     19  C   UNL     1      20.916  53.840  25.513  1.00  0.00     0.004 C 
ENDBRANCH  17  18
ENDBRANCH  16  17
ENDBRANCH  15  16
ENDBRANCH  14  15
ENDBRANCH  13  14
ENDBRANCH  12  13
ENDBRANCH   1  12
TORSDOF 14
ENDMDL
MODEL 4
REMARK VINA RESULT:    -3.767      1.367      2.205
REMARK INTER + INTRA:          -9.607
REMARK INTER:                  -6.889
REMARK INTRA:                  -2.718
REMARK UNBOUND:                -2.756
REMARK SMILES CCCCCCCCCCCCCC[C@H](C)C(=O)[O-]
REMARK SMILES IDX 9 1 10 2 11 3 12 4 13 5 14 6 15 7 16 8 17 9 18 10 19 11 8 12
REMARK SMILES IDX 7 13 6 14 5 15 4 16 3 17 2 18 1 19
REMARK H PARENT
REMARK Flexibility Score: inf
ROOT
ATOM      1  C   UNL     1      19.756  49.553  40.764  1.00  0.00     0.000 C 
ENDROOT
BRANCH   1   2
ATOM      2  C   UNL     1      18.506  49.875  39.927  1.00  0.00     0.000 C 
BRANCH   2   3
ATOM      3  C   UNL     1      18.062  51.341  40.069  1.00  0.00     0.000 C 
BRANCH   3   4
ATOM      4  C   UNL     1      16.677  51.601  39.452  1.00  0.00     0.000 C 
BRANCH   4   5
ATOM      5  C   UNL     1      16.363  50.653  38.284  1.00  0.00     0.001 C 
BRANCH   5   6
ATOM      6  C   UNL     1      16.571  51.315  36.907  1.00  0.00     0.009 C 
BRANCH   6   7
ATOM      7  C   UNL     1      16.866  50.320  35.764  1.00  0.00     0.032 C 
ATOM      8  C   UNL     1      17.601  49.063  36.251  1.00  0.00     0.014 C 
BRANCH   7   9
ATOM      9  C   UNL     1      17.594  50.983  34.623  1.00  0.00     0.044 C 
ATOM     10  O   UNL     1      18.497  50.356  34.008  1.00  0.00    -0.550 OA
ATOM     11  O   UNL     1      17.249  52.263  34.204  1.00  0.00    -0.550 OA
ENDBRANCH   7   9
ENDBRANCH   6   7
ENDBRANCH   5   6
ENDBRANCH   4   5
ENDBRANCH   3   4
ENDBRANCH   2   3
ENDBRANCH   1   2
BRANCH   1  12
ATOM     12  C   UNL     1      20.378  50.806  41.402  1.00  0.00     0.000 C 
BRANCH  12  13
ATOM     13  C   UNL     1      21.802  51.086  40.896  1.00  0.00    -0.000 C 
BRANCH  13  14
ATOM     14  C   UNL     1      21.883  52.466  40.226  1.00  0.00    -0.000 C 
BRANCH  14  15
ATOM     15  C   UNL     1      22.137  52.384  38.709  1.00  0.00    -0.000 C 
BRANCH  15  16
ATOM     16  C   UNL     1      20.934  52.757  37.823  1.00  0.00    -0.000 C 
BRANCH  16  17
ATOM     17  C   UNL     1      20.311  51.541  37.116  1.00  0.00    -0.000 C 
BRANCH  17  18
ATOM     18  C   UNL     1      21.157  50.268  37.282  1.00  0.00    -0.003 C 
ATOM     19  C   UNL     1      21.357  49.514  35.967  1.00  0.00     0.004 C 
ENDBRANCH  17  18
ENDBRANCH  16  17
ENDBRANCH  15  16
ENDBRANCH  14  15
ENDBRANCH  13  14
ENDBRANCH  12  13
ENDBRANCH   1  12
TORSDOF 14
ENDMDL
MODEL 5
REMARK VINA RESULT:    -3.758      2.269      3.058
REMARK INTER + INTRA:          -9.589
REMARK INTER:                  -6.982
REMARK INTRA:                  -2.607
REMARK UNBOUND:                -2.756
REMARK SMILES CCCCCCCCCCCCCC[C@H](C)C(=O)[O-]
REMARK SMILES IDX 9 1 10 2 11 3 12 4 13 5 14 6 15 7 16 8 17 9 18 10 19 11 8 12
REMARK SMILES IDX 7 13 6 14 5 15 4 16 3 17 2 18 1 19
REMARK H PARENT
REMARK Flexibility Score: inf
ROOT
ATOM      1  C   UNL     1      18.239  51.279  39.855  1.00  0.00     0.000 C 
ENDROOT
BRANCH   1   2
ATOM      2  C   UNL     1      16.920  51.145  39.073  1.00  0.00     0.000 C 
BRANCH   2   3
ATOM      3  C   UNL     1      17.063  51.563  37.599  1.00  0.00     0.000 C 
BRANCH   3   4
ATOM      4  C   UNL     1      18.533  51.665  37.155  1.00  0.00     0.000 C 
BRANCH   4   5
ATOM      5  C   UNL     1      18.909  50.605  36.108  1.00  0.00     0.001 C 
BRANCH   5   6
ATOM      6  C   UNL     1      19.034  49.191  36.712  1.00  0.00     0.009 C 
BRANCH   6   7
ATOM      7  C   UNL     1      20.375  48.489  36.408  1.00  0.00     0.032 C 
ATOM      8  C   UNL     1      21.452  49.463  35.912  1.00  0.00     0.014 C 
BRANCH   7   9
ATOM      9  C   UNL     1      20.195  47.329  35.463  1.00  0.00     0.044 C 
ATOM     10  O   UNL     1      19.043  47.031  35.050  1.00  0.00    -0.550 OA
ATOM     11  O   UNL     1      21.291  46.611  34.998  1.00  0.00    -0.550 OA
ENDBRANCH   7   9
ENDBRANCH   6   7
ENDBRANCH   5   6
ENDBRANCH   4   5
ENDBRANCH   3   4
ENDBRANCH   2   3
ENDBRANCH   1   2
BRANCH   1  12
ATOM     12  C   UNL     1      18.757  49.927  40.373  1.00  0.00     0.000 C 
BRANCH  12  13
ATOM     13  C   UNL     1      20.234  49.979  40.795  1.00  0.00    -0.000 C 
BRANCH  13  14
ATOM     14  C   UNL     1      21.155  49.986  39.565  1.00  0.00    -0.000 C 
BRANCH  14  15
ATOM     15  C   UNL     1      22.584  50.459  39.887  1.00  0.00    -0.000 C 
BRANCH  15  16
ATOM     16  C   UNL     1      22.997  51.789  39.230  1.00  0.00    -0.000 C 
BRANCH  16  17
ATOM     17  C   UNL     1      21.956  52.307  38.223  1.00  0.00    -0.000 C 
BRANCH  17  18
ATOM     18  C   UNL     1      21.329  53.641  38.661  1.00  0.00    -0.003 C 
ATOM     19  C   UNL     1      20.960  53.664  40.144  1.00  0.00     0.004 C 
ENDBRANCH  17  18
ENDBRANCH  16  17
ENDBRANCH  15  16
ENDBRANCH  14  15
ENDBRANCH  13  14
ENDBRANCH  12  13
ENDBRANCH   1  12
TORSDOF 14
ENDMDL
MODEL 6
REMARK VINA RESULT:    -3.738      7.142     11.719
REMARK INTER + INTRA:          -9.553
REMARK INTER:                  -7.353
REMARK INTRA:                  -2.200
REMARK UNBOUND:                -2.756
REMARK SMILES CCCCCCCCCCCCCC[C@H](C)C(=O)[O-]
REMARK SMILES IDX 9 1 10 2 11 3 12 4 13 5 14 6 15 7 16 8 17 9 18 10 19 11 8 12
REMARK SMILES IDX 7 13 6 14 5 15 4 16 3 17 2 18 1 19
REMARK H PARENT
REMARK Flexibility Score: inf
ROOT
ATOM      1  C   UNL     1      15.996  50.610  26.168  1.00  0.00     0.000 C 
ENDROOT
BRANCH   1   2
ATOM      2  C   UNL     1      16.962  50.709  27.362  1.00  0.00     0.000 C 
BRANCH   2   3
ATOM      3  C   UNL     1      17.599  52.104  27.490  1.00  0.00     0.000 C 
BRANCH   3   4
ATOM      4  C   UNL     1      19.123  52.040  27.688  1.00  0.00     0.000 C 
BRANCH   4   5
ATOM      5  C   UNL     1      19.534  51.068  28.805  1.00  0.00     0.001 C 
BRANCH   5   6
ATOM      6  C   UNL     1      19.429  51.697  30.209  1.00  0.00     0.009 C 
BRANCH   6   7
ATOM      7  C   UNL     1      18.688  50.819  31.242  1.00  0.00     0.032 C 
ATOM      8  C   UNL     1      17.162  50.918  31.113  1.00  0.00     0.014 C 
BRANCH   7   9
ATOM      9  C   UNL     1      19.148  51.106  32.648  1.00  0.00     0.044 C 
ATOM     10  O   UNL     1      18.742  52.141  33.240  1.00  0.00    -0.550 OA
ATOM     11  O   UNL     1      19.978  50.217  33.322  1.00  0.00    -0.550 OA
ENDBRANCH   7   9
ENDBRANCH   6   7
ENDBRANCH   5   6
ENDBRANCH   4   5
ENDBRANCH   3   4
ENDBRANCH   2   3
ENDBRANCH   1   2
BRANCH   1  12
ATOM     12  C   UNL     1      16.208  51.735  25.141  1.00  0.00     0.000 C 
BRANCH  12  13
ATOM     13  C   UNL     1      14.904  52.462  24.778  1.00  0.00    -0.000 C 
BRANCH  13  14
ATOM     14  C   UNL     1      14.463  53.396  25.916  1.00  0.00    -0.000 C 
BRANCH  14  15
ATOM     15  C   UNL     1      13.030  53.113  26.405  1.00  0.00    -0.000 C 
BRANCH  15  16
ATOM     16  C   UNL     1      12.829  53.205  27.929  1.00  0.00    -0.000 C 
BRANCH  16  17
ATOM     17  C   UNL     1      13.838  52.354  28.719  1.00  0.00    -0.000 C 
BRANCH  17  18
ATOM     18  C   UNL     1      14.442  53.115  29.911  1.00  0.00    -0.003 C 
ATOM     19  C   UNL     1      15.360  54.258  29.482  1.00  0.00     0.004 C 
ENDBRANCH  17  18
ENDBRANCH  16  17
ENDBRANCH  15  16
ENDBRANCH  14  15
ENDBRANCH  13  14
ENDBRANCH  12  13
ENDBRANCH   1  12
TORSDOF 14
ENDMDL
MODEL 7
REMARK VINA RESULT:    -3.737      8.694     11.774
REMARK INTER + INTRA:          -9.552
REMARK INTER:                  -7.140
REMARK INTRA:                  -2.412
REMARK UNBOUND:                -2.756
REMARK SMILES CCCCCCCCCCCCCC[C@H](C)C(=O)[O-]
REMARK SMILES IDX 9 1 10 2 11 3 12 4 13 5 14 6 15 7 16 8 17 9 18 10 19 11 8 12
REMARK SMILES IDX 7 13 6 14 5 15 4 16 3 17 2 18 1 19
REMARK H PARENT
REMARK Flexibility Score: inf
ROOT
ATOM      1  C   UNL     1      17.175  51.463  30.518  1.00  0.00     0.000 C 
ENDROOT
BRANCH   1   2
ATOM      2  C   UNL     1      15.833  51.723  31.225  1.00  0.00     0.000 C 
BRANCH   2   3
ATOM      3  C   UNL     1      14.818  52.440  30.318  1.00  0.00     0.000 C 
BRANCH   3   4
ATOM      4  C   UNL     1      15.294  53.840  29.891  1.00  0.00     0.000 C 
BRANCH   4   5
ATOM      5  C   UNL     1      15.346  54.006  28.364  1.00  0.00     0.001 C 
BRANCH   5   6
ATOM      6  C   UNL     1      14.702  52.822  27.614  1.00  0.00     0.009 C 
BRANCH   6   7
ATOM      7  C   UNL     1      14.010  53.212  26.290  1.00  0.00     0.032 C 
ATOM      8  C   UNL     1      14.614  54.474  25.658  1.00  0.00     0.014 C 
BRANCH   7   9
ATOM      9  C   UNL     1      12.518  53.332  26.455  1.00  0.00     0.044 C 
ATOM     10  O   UNL     1      12.001  53.189  27.595  1.00  0.00    -0.550 OA
ATOM     11  O   UNL     1      11.703  53.647  25.373  1.00  0.00    -0.550 OA
ENDBRANCH   7   9
ENDBRANCH   6   7
ENDBRANCH   5   6
ENDBRANCH   4   5
ENDBRANCH   3   4
ENDBRANCH   2   3
ENDBRANCH   1   2
BRANCH   1  12
ATOM     12  C   UNL     1      17.116  50.259  29.564  1.00  0.00     0.000 C 
BRANCH  12  13
ATOM     13  C   UNL     1      17.516  50.620  28.125  1.00  0.00    -0.000 C 
BRANCH  13  14
ATOM     14  C   UNL     1      18.615  51.694  28.116  1.00  0.00    -0.000 C 
BRANCH  14  15
ATOM     15  C   UNL     1      18.745  52.410  26.759  1.00  0.00    -0.000 C 
BRANCH  15  16
ATOM     16  C   UNL     1      17.604  52.137  25.763  1.00  0.00    -0.000 C 
BRANCH  16  17
ATOM     17  C   UNL     1      17.900  52.673  24.352  1.00  0.00    -0.000 C 
BRANCH  17  18
ATOM     18  C   UNL     1      16.736  52.434  23.376  1.00  0.00    -0.003 C 
ATOM     19  C   UNL     1      16.221  50.996  23.407  1.00  0.00     0.004 C 
ENDBRANCH  17  18
ENDBRANCH  16  17
ENDBRANCH  15  16
ENDBRANCH  14  15
ENDBRANCH  13  14
ENDBRANCH  12  13
ENDBRANCH   1  12
TORSDOF 14
ENDMDL
MODEL 8
REMARK VINA RESULT:    -3.710      8.666     11.831
REMARK INTER + INTRA:          -9.503
REMARK INTER:                  -7.097
REMARK INTRA:                  -2.406
REMARK UNBOUND:                -2.756
REMARK SMILES CCCCCCCCCCCCCC[C@H](C)C(=O)[O-]
REMARK SMILES IDX 9 1 10 2 11 3 12 4 13 5 14 6 15 7 16 8 17 9 18 10 19 11 8 12
REMARK SMILES IDX 7 13 6 14 5 15 4 16 3 17 2 18 1 19
REMARK H PARENT
REMARK Flexibility Score: inf
ROOT
ATOM      1  C   UNL     1      16.179  51.169  31.082  1.00  0.00     0.000 C 
ENDROOT
BRANCH   1   2
ATOM      2  C   UNL     1      16.858  50.654  29.800  1.00  0.00     0.000 C 
BRANCH   2   3
ATOM      3  C   UNL     1      18.238  51.292  29.568  1.00  0.00     0.000 C 
BRANCH   3   4
ATOM      4  C   UNL     1      18.398  51.850  28.143  1.00  0.00     0.000 C 
BRANCH   4   5
ATOM      5  C   UNL     1      17.246  51.438  27.214  1.00  0.00     0.001 C 
BRANCH   5   6
ATOM      6  C   UNL     1      16.977  52.474  26.104  1.00  0.00     0.009 C 
BRANCH   6   7
ATOM      7  C   UNL     1      17.372  52.002  24.687  1.00  0.00     0.032 C 
ATOM      8  C   UNL     1      17.924  53.140  23.819  1.00  0.00     0.014 C 
BRANCH   7   9
ATOM      9  C   UNL     1      16.241  51.279  24.005  1.00  0.00     0.044 C 
ATOM     10  O   UNL     1      16.130  50.030  24.129  1.00  0.00    -0.550 OA
ATOM     11  O   UNL     1      15.284  51.977  23.277  1.00  0.00    -0.550 OA
ENDBRANCH   7   9
ENDBRANCH   6   7
ENDBRANCH   5   6
ENDBRANCH   4   5
ENDBRANCH   3   4
ENDBRANCH   2   3
ENDBRANCH   1   2
BRANCH   1  12
ATOM     12  C   UNL     1      16.501  52.645  31.369  1.00  0.00     0.000 C 
BRANCH  12  13
ATOM     13  C   UNL     1      15.393  53.599  30.896  1.00  0.00    -0.000 C 
BRANCH  13  14
ATOM     14  C   UNL     1      15.750  54.224  29.539  1.00  0.00    -0.000 C 
BRANCH  14  15
ATOM     15  C   UNL     1      14.629  54.075  28.494  1.00  0.00    -0.000 C 
BRANCH  15  16
ATOM     16  C   UNL     1      13.647  52.915  28.748  1.00  0.00    -0.000 C 
BRANCH  16  17
ATOM     17  C   UNL     1      13.503  51.978  27.536  1.00  0.00    -0.000 C 
BRANCH  17  18
ATOM     18  C   UNL     1      13.341  52.747  26.215  1.00  0.00    -0.003 C 
ATOM     19  C   UNL     1      11.986  53.443  26.096  1.00  0.00     0.004 C 
ENDBRANCH  17  18
ENDBRANCH  16  17
ENDBRANCH  15  16
ENDBRANCH  14  15
ENDBRANCH  13  14
ENDBRANCH  12  13
ENDBRANCH   1  12
TORSDOF 14
ENDMDL
MODEL 9
REMARK VINA RESULT:    -3.674      2.394      4.169
REMARK INTER + INTRA:          -9.437
REMARK INTER:                  -6.674
REMARK INTRA:                  -2.763
REMARK UNBOUND:                -2.756
REMARK SMILES CCCCCCCCCCCCCC[C@H](C)C(=O)[O-]
REMARK SMILES IDX 9 1 10 2 11 3 12 4 13 5 14 6 15 7 16 8 17 9 18 10 19 11 8 12
REMARK SMILES IDX 7 13 6 14 5 15 4 16 3 17 2 18 1 19
REMARK H PARENT
REMARK Flexibility Score: inf
ROOT
ATOM      1  C   UNL     1      21.392  51.537  40.763  1.00  0.00     0.000 C 
ENDROOT
BRANCH   1   2
ATOM      2  C   UNL     1      20.651  52.846  40.436  1.00  0.00     0.000 C 
BRANCH   2   3
ATOM      3  C   UNL     1      20.817  53.265  38.965  1.00  0.00     0.000 C 
BRANCH   3   4
ATOM      4  C   UNL     1      21.607  52.232  38.143  1.00  0.00     0.000 C 
BRANCH   4   5
ATOM      5  C   UNL     1      20.766  51.603  37.020  1.00  0.00     0.001 C 
BRANCH   5   6
ATOM      6  C   UNL     1      20.980  50.081  36.899  1.00  0.00     0.009 C 
BRANCH   6   7
ATOM      7  C   UNL     1      20.198  49.421  35.742  1.00  0.00     0.032 C 
ATOM      8  C   UNL     1      19.329  48.247  36.211  1.00  0.00     0.014 C 
BRANCH   7   9
ATOM      9  C   UNL     1      21.109  49.023  34.610  1.00  0.00     0.044 C 
ATOM     10  O   UNL     1      20.775  49.271  33.421  1.00  0.00    -0.550 OA
ATOM     11  O   UNL     1      22.340  48.427  34.861  1.00  0.00    -0.550 OA
ENDBRANCH   7   9
ENDBRANCH   6   7
ENDBRANCH   5   6
ENDBRANCH   4   5
ENDBRANCH   3   4
ENDBRANCH   2   3
ENDBRANCH   1   2
BRANCH   1  12
ATOM     12  C   UNL     1      20.733  50.757  41.914  1.00  0.00     0.000 C 
BRANCH  12  13
ATOM     13  C   UNL     1      19.346  50.210  41.543  1.00  0.00    -0.000 C 
BRANCH  13  14
ATOM     14  C   UNL     1      19.387  49.486  40.188  1.00  0.00    -0.000 C 
BRANCH  14  15
ATOM     15  C   UNL     1      18.078  49.627  39.390  1.00  0.00    -0.000 C 
BRANCH  15  16
ATOM     16  C   UNL     1      17.432  51.024  39.432  1.00  0.00    -0.000 C 
BRANCH  16  17
ATOM     17  C   UNL     1      17.407  51.713  38.057  1.00  0.00    -0.000 C 
BRANCH  17  18
ATOM     18  C   UNL     1      16.505  50.981  37.050  1.00  0.00    -0.003 C 
ATOM     19  C   UNL     1      16.896  51.251  35.598  1.00  0.00     0.004 C 
ENDBRANCH  17  18
ENDBRANCH  16  17
ENDBRANCH  15  16
ENDBRANCH  14  15
ENDBRANCH  13  14
ENDBRANCH  12  13
ENDBRANCH   1  12
TORSDOF 14
ENDMDL
