MODEL 1
REMARK VINA RESULT:    -3.176      0.000      0.000
REMARK INTER + INTRA:          -3.957
REMARK INTER:                  -3.640
REMARK INTRA:                  -0.317
REMARK UNBOUND:                -0.317
REMARK SMILES COC(=O)c1ccccc1O
REMARK SMILES IDX 5 1 6 2 7 3 8 4 9 5 10 6 3 7 4 8 2 9 1 10 11 11
REMARK H PARENT 11 12
REMARK Flexibility Score: inf
ROOT
ATOM      1  C   UNL     1     114.012 104.518 108.964  1.00  0.00     0.101 A 
ATOM      2  C   UNL     1     114.317 104.351 110.328  1.00  0.00     0.019 A 
ATOM      3  C   UNL     1     114.771 103.122 110.812  1.00  0.00     0.001 A 
ATOM      4  C   UNL     1     114.927 102.043 109.944  1.00  0.00     0.004 A 
ATOM      5  C   UNL     1     114.631 102.189 108.588  1.00  0.00     0.047 A 
ATOM      6  C   UNL     1     114.174 103.418 108.088  1.00  0.00     0.130 A 
ENDROOT
BRANCH   1   7
ATOM      7  C   UNL     1     113.531 105.841 108.486  1.00  0.00     0.341 C 
ATOM      8  O   UNL     1     112.628 106.461 109.113  1.00  0.00    -0.246 OA
BRANCH   7   9
ATOM      9  O   UNL     1     114.083 106.403 107.330  1.00  0.00    -0.465 OA
ATOM     10  C   UNL     1     113.362 107.293 106.487  1.00  0.00     0.282 C 
ENDBRANCH   7   9
ENDBRANCH   1   7
BRANCH   6  11
ATOM     11  O   UNL     1     113.884 103.537 106.729  1.00  0.00    -0.507 OA
ATOM     12  H   UNL     1     114.484 103.131 106.019  1.00  0.00     0.293 HD
ENDBRANCH   6  11
TORSDOF 3
ENDMDL
MODEL 2
REMARK VINA RESULT:    -3.165      9.136     10.031
REMARK INTER + INTRA:          -3.945
REMARK INTER:                  -3.622
REMARK INTRA:                  -0.323
REMARK UNBOUND:                -0.317
REMARK SMILES COC(=O)c1ccccc1O
REMARK SMILES IDX 5 1 6 2 7 3 8 4 9 5 10 6 3 7 4 8 2 9 1 10 11 11
REMARK H PARENT 11 12
REMARK Flexibility Score: inf
ROOT
ATOM      1  C   UNL     1     104.510 106.012 109.030  1.00  0.00     0.101 A 
ATOM      2  C   UNL     1     104.334 105.698 110.391  1.00  0.00     0.019 A 
ATOM      3  C   UNL     1     103.104 105.237 110.863  1.00  0.00     0.001 A 
ATOM      4  C   UNL     1     102.030 105.084 109.987  1.00  0.00     0.004 A 
ATOM      5  C   UNL     1     102.185 105.390 108.635  1.00  0.00     0.047 A 
ATOM      6  C   UNL     1     103.416 105.853 108.146  1.00  0.00     0.130 A 
ENDROOT
BRANCH   1   7
ATOM      7  C   UNL     1     105.834 106.500 108.564  1.00  0.00     0.341 C 
ATOM      8  O   UNL     1     106.460 107.382 109.215  1.00  0.00    -0.246 OA
BRANCH   7   9
ATOM      9  O   UNL     1     106.393 105.977 107.392  1.00  0.00    -0.465 OA
ATOM     10  C   UNL     1     107.202 106.749 106.514  1.00  0.00     0.282 C 
ENDBRANCH   7   9
ENDBRANCH   1   7
BRANCH   6  11
ATOM     11  O   UNL     1     103.543 106.152 106.790  1.00  0.00    -0.507 OA
ATOM     12  H   UNL     1     103.112 105.578 106.074  1.00  0.00     0.293 HD
ENDBRANCH   6  11
TORSDOF 3
ENDMDL
MODEL 3
REMARK VINA RESULT:    -3.141      9.504     10.483
REMARK INTER + INTRA:          -3.918
REMARK INTER:                  -3.654
REMARK INTRA:                  -0.264
REMARK UNBOUND:                -0.317
REMARK SMILES COC(=O)c1ccccc1O
REMARK SMILES IDX 5 1 6 2 7 3 8 4 9 5 10 6 3 7 4 8 2 9 1 10 11 11
REMARK H PARENT 11 12
REMARK Flexibility Score: inf
ROOT
ATOM      1  C   UNL     1     115.738 114.623 108.944  1.00  0.00     0.101 A 
ATOM      2  C   UNL     1     115.912 115.075 110.265  1.00  0.00     0.019 A 
ATOM      3  C   UNL     1     117.189 115.333 110.769  1.00  0.00     0.001 A 
ATOM      4  C   UNL     1     118.311 115.143 109.963  1.00  0.00     0.004 A 
ATOM      5  C   UNL     1     118.159 114.696 108.650  1.00  0.00     0.047 A 
ATOM      6  C   UNL     1     116.882 114.433 108.131  1.00  0.00     0.130 A 
ENDROOT
BRANCH   1   7
ATOM      7  C   UNL     1     114.364 114.359 108.443  1.00  0.00     0.341 C 
ATOM      8  O   UNL     1     113.368 114.932 108.966  1.00  0.00    -0.246 OA
BRANCH   7   9
ATOM      9  O   UNL     1     114.172 113.467 107.382  1.00  0.00    -0.465 OA
ATOM     10  C   UNL     1     112.969 113.420 106.625  1.00  0.00     0.282 C 
ENDBRANCH   7   9
ENDBRANCH   1   7
BRANCH   6  11
ATOM     11  O   UNL     1     116.758 113.987 106.815  1.00  0.00    -0.507 OA
ATOM     12  H   UNL     1     117.210 114.467 106.045  1.00  0.00     0.293 HD
ENDBRANCH   6  11
TORSDOF 3
ENDMDL
MODEL 4
REMARK VINA RESULT:    -3.135     11.669     14.327
REMARK INTER + INTRA:          -3.911
REMARK INTER:                  -3.587
REMARK INTRA:                  -0.324
REMARK UNBOUND:                -0.317
REMARK SMILES COC(=O)c1ccccc1O
REMARK SMILES IDX 5 1 6 2 7 3 8 4 9 5 10 6 3 7 4 8 2 9 1 10 11 11
REMARK H PARENT 11 12
REMARK Flexibility Score: inf
ROOT
ATOM      1  C   UNL     1     106.003 115.712 108.952  1.00  0.00     0.101 A 
ATOM      2  C   UNL     1     105.623 115.967 110.284  1.00  0.00     0.019 A 
ATOM      3  C   UNL     1     105.141 117.223 110.660  1.00  0.00     0.001 A 
ATOM      4  C   UNL     1     105.030 118.242 109.715  1.00  0.00     0.004 A 
ATOM      5  C   UNL     1     105.400 118.009 108.391  1.00  0.00     0.047 A 
ATOM      6  C   UNL     1     105.887 116.752 107.998  1.00  0.00     0.130 A 
ENDROOT
BRANCH   1   7
ATOM      7  C   UNL     1     106.512 114.364 108.589  1.00  0.00     0.341 C 
ATOM      8  O   UNL     1     107.406 113.806 109.284  1.00  0.00    -0.246 OA
BRANCH   7   9
ATOM      9  O   UNL     1     105.997 113.708 107.466  1.00  0.00    -0.465 OA
ATOM     10  C   UNL     1     106.789 112.870 106.633  1.00  0.00     0.282 C 
ENDBRANCH   7   9
ENDBRANCH   1   7
BRANCH   6  11
ATOM     11  O   UNL     1     106.250 116.546 106.668  1.00  0.00    -0.507 OA
ATOM     12  H   UNL     1     105.645 116.055 106.020  1.00  0.00     0.293 HD
ENDBRANCH   6  11
TORSDOF 3
ENDMDL
MODEL 5
REMARK VINA RESULT:    -2.995      2.808      4.442
REMARK INTER + INTRA:          -3.750
REMARK INTER:                  -3.414
REMARK INTRA:                  -0.336
REMARK UNBOUND:                -0.317
REMARK SMILES COC(=O)c1ccccc1O
REMARK SMILES IDX 5 1 6 2 7 3 8 4 9 5 10 6 3 7 4 8 2 9 1 10 11 11
REMARK H PARENT 11 12
REMARK Flexibility Score: inf
ROOT
ATOM      1  C   UNL     1     115.823 102.795 109.157  1.00  0.00     0.101 A 
ATOM      2  C   UNL     1     116.140 104.126 109.488  1.00  0.00     0.019 A 
ATOM      3  C   UNL     1     115.316 105.178 109.082  1.00  0.00     0.001 A 
ATOM      4  C   UNL     1     114.165 104.919 108.340  1.00  0.00     0.004 A 
ATOM      5  C   UNL     1     113.833 103.607 108.002  1.00  0.00     0.047 A 
ATOM      6  C   UNL     1     114.652 102.540 108.403  1.00  0.00     0.130 A 
ENDROOT
BRANCH   1   7
ATOM      7  C   UNL     1     116.724 101.702 109.606  1.00  0.00     0.341 C 
ATOM      8  O   UNL     1     116.941 101.512 110.835  1.00  0.00    -0.246 OA
BRANCH   7   9
ATOM      9  O   UNL     1     117.338 100.876 108.658  1.00  0.00    -0.465 OA
ATOM     10  C   UNL     1     118.127 101.384 107.590  1.00  0.00     0.282 C 
ENDBRANCH   7   9
ENDBRANCH   1   7
BRANCH   6  11
ATOM     11  O   UNL     1     114.298 101.237 108.051  1.00  0.00    -0.507 OA
ATOM     12  H   UNL     1     113.550 100.742 108.524  1.00  0.00     0.293 HD
ENDBRANCH   6  11
TORSDOF 3
ENDMDL
MODEL 6
REMARK VINA RESULT:    -2.977     10.919     11.832
REMARK INTER + INTRA:          -3.729
REMARK INTER:                  -3.403
REMARK INTRA:                  -0.326
REMARK UNBOUND:                -0.317
REMARK SMILES COC(=O)c1ccccc1O
REMARK SMILES IDX 5 1 6 2 7 3 8 4 9 5 10 6 3 7 4 8 2 9 1 10 11 11
REMARK H PARENT 11 12
REMARK Flexibility Score: inf
ROOT
ATOM      1  C   UNL     1     102.796 104.176 109.154  1.00  0.00     0.101 A 
ATOM      2  C   UNL     1     104.130 103.848 109.465  1.00  0.00     0.019 A 
ATOM      3  C   UNL     1     105.178 104.688 109.082  1.00  0.00     0.001 A 
ATOM      4  C   UNL     1     104.913 105.866 108.385  1.00  0.00     0.004 A 
ATOM      5  C   UNL     1     103.598 106.208 108.069  1.00  0.00     0.047 A 
ATOM      6  C   UNL     1     102.535 105.374 108.447  1.00  0.00     0.130 A 
ENDROOT
BRANCH   1   7
ATOM      7  C   UNL     1     101.707 103.258 109.577  1.00  0.00     0.341 C 
ATOM      8  O   UNL     1     101.509 103.015 110.800  1.00  0.00    -0.246 OA
BRANCH   7   9
ATOM      9  O   UNL     1     100.892 102.657 108.612  1.00  0.00    -0.465 OA
ATOM     10  C   UNL     1     101.406 101.817 107.585  1.00  0.00     0.282 C 
ENDBRANCH   7   9
ENDBRANCH   1   7
BRANCH   6  11
ATOM     11  O   UNL     1     101.230 105.740 108.118  1.00  0.00    -0.507 OA
ATOM     12  H   UNL     1     100.840 105.556 107.200  1.00  0.00     0.293 HD
ENDBRANCH   6  11
TORSDOF 3
ENDMDL
MODEL 7
REMARK VINA RESULT:    -2.971      6.141      7.109
REMARK INTER + INTRA:          -3.723
REMARK INTER:                  -3.374
REMARK INTRA:                  -0.349
REMARK UNBOUND:                -0.317
REMARK SMILES COC(=O)c1ccccc1O
REMARK SMILES IDX 5 1 6 2 7 3 8 4 9 5 10 6 3 7 4 8 2 9 1 10 11 11
REMARK H PARENT 11 12
REMARK Flexibility Score: inf
ROOT
ATOM      1  C   UNL     1     109.046 107.655 106.020  1.00  0.00     0.101 A 
ATOM      2  C   UNL     1     109.436 107.781 107.367  1.00  0.00     0.019 A 
ATOM      3  C   UNL     1     108.613 107.318 108.395  1.00  0.00     0.001 A 
ATOM      4  C   UNL     1     107.389 106.722 108.096  1.00  0.00     0.004 A 
ATOM      5  C   UNL     1     106.984 106.586 106.768  1.00  0.00     0.047 A 
ATOM      6  C   UNL     1     107.801 107.048 105.725  1.00  0.00     0.130 A 
ENDROOT
BRANCH   1   7
ATOM      7  C   UNL     1     109.948 108.160 104.953  1.00  0.00     0.341 C 
ATOM      8  O   UNL     1     111.191 107.949 105.009  1.00  0.00    -0.246 OA
BRANCH   7   9
ATOM      9  O   UNL     1     109.415 108.877 103.876  1.00  0.00    -0.465 OA
ATOM     10  C   UNL     1     109.051 110.249 103.969  1.00  0.00     0.282 C 
ENDBRANCH   7   9
ENDBRANCH   1   7
BRANCH   6  11
ATOM     11  O   UNL     1     107.373 106.901 104.406  1.00  0.00    -0.507 OA
ATOM     12  H   UNL     1     106.390 106.816 104.170  1.00  0.00     0.293 HD
ENDBRANCH   6  11
TORSDOF 3
ENDMDL
MODEL 8
REMARK VINA RESULT:    -2.969      1.876      3.811
REMARK INTER + INTRA:          -3.720
REMARK INTER:                  -3.377
REMARK INTRA:                  -0.343
REMARK UNBOUND:                -0.317
REMARK SMILES COC(=O)c1ccccc1O
REMARK SMILES IDX 5 1 6 2 7 3 8 4 9 5 10 6 3 7 4 8 2 9 1 10 11 11
REMARK H PARENT 11 12
REMARK Flexibility Score: inf
ROOT
ATOM      1  C   UNL     1     114.605 103.997 109.062  1.00  0.00     0.101 A 
ATOM      2  C   UNL     1     114.794 104.953 110.079  1.00  0.00     0.019 A 
ATOM      3  C   UNL     1     114.435 106.288 109.878  1.00  0.00     0.001 A 
ATOM      4  C   UNL     1     113.883 106.689 108.663  1.00  0.00     0.004 A 
ATOM      5  C   UNL     1     113.688 105.757 107.643  1.00  0.00     0.047 A 
ATOM      6  C   UNL     1     114.044 104.413 107.831  1.00  0.00     0.130 A 
ENDROOT
BRANCH   1   7
ATOM      7  C   UNL     1     114.999 102.587 109.312  1.00  0.00     0.341 C 
ATOM      8  O   UNL     1     114.780 102.046 110.431  1.00  0.00    -0.246 OA
BRANCH   7   9
ATOM      9  O   UNL     1     115.620 101.850 108.296  1.00  0.00    -0.465 OA
ATOM     10  C   UNL     1     117.011 101.944 108.018  1.00  0.00     0.282 C 
ENDBRANCH   7   9
ENDBRANCH   1   7
BRANCH   6  11
ATOM     11  O   UNL     1     113.838 103.502 106.795  1.00  0.00    -0.507 OA
ATOM     12  H   UNL     1     113.088 102.820 106.826  1.00  0.00     0.293 HD
ENDBRANCH   6  11
TORSDOF 3
ENDMDL
