MODEL 1
REMARK VINA RESULT:    31.038      0.000      0.000
REMARK INTER + INTRA:          37.114
REMARK INTER:                  37.389
REMARK INTRA:                  -0.276
REMARK UNBOUND:                -0.276
REMARK SMILES O=c1c(O)c(-c2ccc(O)c(O)c2)oc2cc(O)cc(O)c12
REMARK SMILES IDX 5 1 3 2 2 3 1 4 22 5 20 6 19 7 17 8 16 9 15 10 14 11 6 12
REMARK SMILES IDX 7 13 8 14 9 15 13 16 11 17 10 18 12 20 4 22 21 24 18 26
REMARK H PARENT 10 19 12 21 4 23 21 25 18 27
REMARK Flexibility Score: inf
ROOT
ATOM      1  C   UNL     1      12.800   5.208  18.308  1.00  0.00     0.180 A 
ATOM      2  C   UNL     1      13.690   6.118  18.904  1.00  0.00     0.208 A 
ATOM      3  C   UNL     1      13.589   7.481  18.581  1.00  0.00     0.238 A 
ATOM      4  O   UNL     1      14.424   8.282  19.076  1.00  0.00    -0.285 OA
ATOM      5  C   UNL     1      12.590   7.920  17.680  1.00  0.00     0.111 A 
ATOM      6  C   UNL     1      12.370   9.281  17.313  1.00  0.00     0.134 A 
ATOM      7  C   UNL     1      11.438   9.585  16.313  1.00  0.00     0.093 A 
ATOM      8  C   UNL     1      10.671   8.583  15.715  1.00  0.00     0.123 A 
ATOM      9  C   UNL     1      10.835   7.258  16.109  1.00  0.00     0.094 A 
ATOM     10  C   UNL     1      11.783   6.919  17.078  1.00  0.00     0.146 A 
ATOM     11  O   UNL     1      11.915   5.642  17.417  1.00  0.00    -0.452 OA
ENDROOT
BRANCH   1  12
ATOM     12  C   UNL     1      12.827   3.761  18.617  1.00  0.00     0.025 A 
ATOM     13  C   UNL     1      12.305   3.305  19.838  1.00  0.00     0.016 A 
ATOM     14  C   UNL     1      12.339   1.945  20.158  1.00  0.00     0.051 A 
ATOM     15  C   UNL     1      12.909   1.024  19.274  1.00  0.00     0.157 A 
ATOM     16  C   UNL     1      13.419   2.836  17.739  1.00  0.00     0.062 A 
ATOM     17  C   UNL     1      13.456   1.471  18.059  1.00  0.00     0.158 A 
BRANCH  15  18
ATOM     18  O   UNL     1      12.926  -0.327  19.621  1.00  0.00    -0.504 OA
ATOM     19  H   UNL     1      12.143  -0.940  19.432  1.00  0.00     0.293 HD
ENDBRANCH  15  18
BRANCH  17  20
ATOM     20  O   UNL     1      14.038   0.560  17.180  1.00  0.00    -0.504 OA
ATOM     21  H   UNL     1      14.271   0.816  16.227  1.00  0.00     0.293 HD
ENDBRANCH  17  20
ENDBRANCH   1  12
BRANCH   2  22
ATOM     22  O   UNL     1      14.684   5.660  19.774  1.00  0.00    -0.502 OA
ATOM     23  H   UNL     1      15.030   4.708  19.751  1.00  0.00     0.293 HD
ENDBRANCH   2  22
BRANCH   6  24
ATOM     24  O   UNL     1      13.017  10.365  17.915  1.00  0.00    -0.507 OA
ATOM     25  H   UNL     1      12.675  11.314  17.907  1.00  0.00     0.293 HD
ENDBRANCH   6  24
BRANCH   8  26
ATOM     26  O   UNL     1       9.734   8.897  14.732  1.00  0.00    -0.508 OA
ATOM     27  H   UNL     1       8.818   8.464  14.716  1.00  0.00     0.293 HD
ENDBRANCH   8  26
TORSDOF 6
ENDMDL
MODEL 2
REMARK VINA RESULT:    31.946      4.702      8.113
REMARK INTER + INTRA:          38.206
REMARK INTER:                  38.470
REMARK INTRA:                  -0.263
REMARK UNBOUND:                -0.276
REMARK SMILES O=c1c(O)c(-c2ccc(O)c(O)c2)oc2cc(O)cc(O)c12
REMARK SMILES IDX 5 1 3 2 2 3 1 4 22 5 20 6 19 7 17 8 16 9 15 10 14 11 6 12
REMARK SMILES IDX 7 13 8 14 9 15 13 16 11 17 10 18 12 20 4 22 21 24 18 26
REMARK H PARENT 10 19 12 21 4 23 21 25 18 27
REMARK Flexibility Score: inf
ROOT
ATOM      1  C   UNL     1       9.372   9.937  19.401  1.00  0.00     0.180 A 
ATOM      2  C   UNL     1       8.873   9.444  18.182  1.00  0.00     0.208 A 
ATOM      3  C   UNL     1       9.775   8.956  17.225  1.00  0.00     0.238 A 
ATOM      4  O   UNL     1       9.327   8.567  16.115  1.00  0.00    -0.285 OA
ATOM      5  C   UNL     1      11.163   8.949  17.503  1.00  0.00     0.111 A 
ATOM      6  C   UNL     1      12.164   8.440  16.622  1.00  0.00     0.134 A 
ATOM      7  C   UNL     1      13.517   8.604  16.945  1.00  0.00     0.093 A 
ATOM      8  C   UNL     1      13.903   9.199  18.148  1.00  0.00     0.123 A 
ATOM      9  C   UNL     1      12.933   9.646  19.042  1.00  0.00     0.094 A 
ATOM     10  C   UNL     1      11.575   9.529  18.731  1.00  0.00     0.146 A 
ATOM     11  O   UNL     1      10.683   9.978  19.606  1.00  0.00    -0.452 OA
ENDROOT
BRANCH   1  12
ATOM     12  C   UNL     1       8.482  10.445  20.469  1.00  0.00     0.025 A 
ATOM     13  C   UNL     1       7.740   9.537  21.241  1.00  0.00     0.016 A 
ATOM     14  C   UNL     1       6.878   9.997  22.241  1.00  0.00     0.051 A 
ATOM     15  C   UNL     1       6.733  11.367  22.474  1.00  0.00     0.157 A 
ATOM     16  C   UNL     1       8.318  11.824  20.691  1.00  0.00     0.062 A 
ATOM     17  C   UNL     1       7.452  12.287  21.693  1.00  0.00     0.158 A 
BRANCH  15  18
ATOM     18  O   UNL     1       5.868  11.795  23.481  1.00  0.00    -0.504 OA
ATOM     19  H   UNL     1       5.919  12.727  23.873  1.00  0.00     0.293 HD
ENDBRANCH  15  18
BRANCH  17  20
ATOM     20  O   UNL     1       7.301  13.655  21.911  1.00  0.00    -0.504 OA
ATOM     21  H   UNL     1       7.468  14.332  21.175  1.00  0.00     0.293 HD
ENDBRANCH  17  20
ENDBRANCH   1  12
BRANCH   2  22
ATOM     22  O   UNL     1       7.501   9.482  17.920  1.00  0.00    -0.502 OA
ATOM     23  H   UNL     1       6.954  10.330  18.005  1.00  0.00     0.293 HD
ENDBRANCH   2  22
BRANCH   6  24
ATOM     24  O   UNL     1      11.884   7.746  15.441  1.00  0.00    -0.507 OA
ATOM     25  H   UNL     1      11.048   7.864  14.889  1.00  0.00     0.293 HD
ENDBRANCH   6  24
BRANCH   8  26
ATOM     26  O   UNL     1      15.251   9.344  18.469  1.00  0.00    -0.508 OA
ATOM     27  H   UNL     1      15.586   9.223  19.418  1.00  0.00     0.293 HD
ENDBRANCH   8  26
TORSDOF 6
ENDMDL
MODEL 3
REMARK VINA RESULT:    32.382      1.186      2.827
REMARK INTER + INTRA:          38.732
REMARK INTER:                  38.961
REMARK INTRA:                  -0.229
REMARK UNBOUND:                -0.276
REMARK SMILES O=c1c(O)c(-c2ccc(O)c(O)c2)oc2cc(O)cc(O)c12
REMARK SMILES IDX 5 1 3 2 2 3 1 4 22 5 20 6 19 7 17 8 16 9 15 10 14 11 6 12
REMARK SMILES IDX 7 13 8 14 9 15 13 16 11 17 10 18 12 20 4 22 21 24 18 26
REMARK H PARENT 10 19 12 21 4 23 21 25 18 27
REMARK Flexibility Score: inf
ROOT
ATOM      1  C   UNL     1      12.288   5.185  17.818  1.00  0.00     0.180 A 
ATOM      2  C   UNL     1      11.390   5.437  16.766  1.00  0.00     0.208 A 
ATOM      3  C   UNL     1      11.183   6.762  16.350  1.00  0.00     0.238 A 
ATOM      4  O   UNL     1      10.337   6.986  15.446  1.00  0.00    -0.285 OA
ATOM      5  C   UNL     1      11.888   7.816  16.977  1.00  0.00     0.111 A 
ATOM      6  C   UNL     1      11.787   9.191  16.609  1.00  0.00     0.134 A 
ATOM      7  C   UNL     1      12.432  10.164  17.384  1.00  0.00     0.093 A 
ATOM      8  C   UNL     1      13.228   9.804  18.474  1.00  0.00     0.123 A 
ATOM      9  C   UNL     1      13.381   8.460  18.805  1.00  0.00     0.094 A 
ATOM     10  C   UNL     1      12.721   7.470  18.073  1.00  0.00     0.146 A 
ATOM     11  O   UNL     1      12.886   6.202  18.429  1.00  0.00    -0.452 OA
ENDROOT
BRANCH   1  12
ATOM     12  C   UNL     1      12.578   3.814  18.296  1.00  0.00     0.025 A 
ATOM     13  C   UNL     1      12.201   3.442  19.596  1.00  0.00     0.016 A 
ATOM     14  C   UNL     1      12.484   2.160  20.075  1.00  0.00     0.051 A 
ATOM     15  C   UNL     1      13.159   1.237  19.271  1.00  0.00     0.157 A 
ATOM     16  C   UNL     1      13.276   2.892  17.496  1.00  0.00     0.062 A 
ATOM     17  C   UNL     1      13.561   1.605  17.975  1.00  0.00     0.158 A 
BRANCH  15  18
ATOM     18  O   UNL     1      13.424  -0.036  19.775  1.00  0.00    -0.504 OA
ATOM     19  H   UNL     1      13.997  -0.704  19.275  1.00  0.00     0.293 HD
ENDBRANCH  15  18
BRANCH  17  20
ATOM     20  O   UNL     1      14.247   0.695  17.174  1.00  0.00    -0.504 OA
ATOM     21  H   UNL     1      14.104   0.658  16.170  1.00  0.00     0.293 HD
ENDBRANCH  17  20
ENDBRANCH   1  12
BRANCH   2  22
ATOM     22  O   UNL     1      10.687   4.383  16.177  1.00  0.00    -0.502 OA
ATOM     23  H   UNL     1      11.147   3.645  15.657  1.00  0.00     0.293 HD
ENDBRANCH   2  22
BRANCH   6  24
ATOM     24  O   UNL     1      11.094   9.649  15.484  1.00  0.00    -0.507 OA
ATOM     25  H   UNL     1      11.529   9.970  14.632  1.00  0.00     0.293 HD
ENDBRANCH   6  24
BRANCH   8  26
ATOM     26  O   UNL     1      13.878  10.777  19.230  1.00  0.00    -0.508 OA
ATOM     27  H   UNL     1      14.605  10.534  19.893  1.00  0.00     0.293 HD
ENDBRANCH   8  26
TORSDOF 6
ENDMDL
MODEL 4
REMARK VINA RESULT:    33.159      4.639      7.499
REMARK INTER + INTRA:          39.668
REMARK INTER:                  39.885
REMARK INTRA:                  -0.217
REMARK UNBOUND:                -0.276
REMARK SMILES O=c1c(O)c(-c2ccc(O)c(O)c2)oc2cc(O)cc(O)c12
REMARK SMILES IDX 5 1 3 2 2 3 1 4 22 5 20 6 19 7 17 8 16 9 15 10 14 11 6 12
REMARK SMILES IDX 7 13 8 14 9 15 13 16 11 17 10 18 12 20 4 22 21 24 18 26
REMARK H PARENT 10 19 12 21 4 23 21 25 18 27
REMARK Flexibility Score: inf
ROOT
ATOM      1  C   UNL     1       9.969  10.000  19.731  1.00  0.00     0.180 A 
ATOM      2  C   UNL     1      11.304  10.305  20.048  1.00  0.00     0.208 A 
ATOM      3  C   UNL     1      12.322   9.898  19.171  1.00  0.00     0.238 A 
ATOM      4  O   UNL     1      13.518  10.126  19.487  1.00  0.00    -0.285 OA
ATOM      5  C   UNL     1      11.993   9.207  17.980  1.00  0.00     0.111 A 
ATOM      6  C   UNL     1      12.940   8.783  17.001  1.00  0.00     0.134 A 
ATOM      7  C   UNL     1      12.515   7.992  15.926  1.00  0.00     0.093 A 
ATOM      8  C   UNL     1      11.166   7.666  15.760  1.00  0.00     0.123 A 
ATOM      9  C   UNL     1      10.226   8.125  16.679  1.00  0.00     0.094 A 
ATOM     10  C   UNL     1      10.625   8.885  17.782  1.00  0.00     0.146 A 
ATOM     11  O   UNL     1       9.697   9.293  18.639  1.00  0.00    -0.452 OA
ENDROOT
BRANCH   1  12
ATOM     12  C   UNL     1       8.839  10.417  20.592  1.00  0.00     0.025 A 
ATOM     13  C   UNL     1       8.051   9.439  21.219  1.00  0.00     0.016 A 
ATOM     14  C   UNL     1       6.967   9.810  22.020  1.00  0.00     0.051 A 
ATOM     15  C   UNL     1       6.644  11.159  22.193  1.00  0.00     0.157 A 
ATOM     16  C   UNL     1       8.500  11.772  20.750  1.00  0.00     0.062 A 
ATOM     17  C   UNL     1       7.412  12.147  21.552  1.00  0.00     0.158 A 
BRANCH  15  18
ATOM     18  O   UNL     1       5.559  11.499  23.000  1.00  0.00    -0.504 OA
ATOM     19  H   UNL     1       4.702  10.960  23.004  1.00  0.00     0.293 HD
ENDBRANCH  15  18
BRANCH  17  20
ATOM     20  O   UNL     1       7.087  13.493  21.709  1.00  0.00    -0.504 OA
ATOM     21  H   UNL     1       7.345  14.186  21.016  1.00  0.00     0.293 HD
ENDBRANCH  17  20
ENDBRANCH   1  12
BRANCH   2  22
ATOM     22  O   UNL     1      11.608  10.968  21.240  1.00  0.00    -0.502 OA
ATOM     23  H   UNL     1      12.145  11.827  21.262  1.00  0.00     0.293 HD
ENDBRANCH   2  22
BRANCH   6  24
ATOM     24  O   UNL     1      14.294   9.132  17.022  1.00  0.00    -0.507 OA
ATOM     25  H   UNL     1      14.642  10.077  17.080  1.00  0.00     0.293 HD
ENDBRANCH   6  24
BRANCH   8  26
ATOM     26  O   UNL     1      10.750   6.892  14.679  1.00  0.00    -0.508 OA
ATOM     27  H   UNL     1      11.409   6.542  13.994  1.00  0.00     0.293 HD
ENDBRANCH   8  26
TORSDOF 6
ENDMDL
