MODEL 1
REMARK VINA RESULT:    -3.457      0.000      0.000
REMARK INTER + INTRA:          -3.457
REMARK INTER:                  -3.457
REMARK INTRA:                   0.000
REMARK UNBOUND:                 0.000
REMARK SMILES c1cc[nH]c1
REMARK SMILES IDX 1 1 5 2 4 3 3 4 2 5
REMARK H PARENT 4 6
REMARK Flexibility Score: inf
ROOT
ATOM      1  C   UNL     1      23.061  23.386  17.454  1.00  0.00     0.019 A 
ATOM      2  C   UNL     1      23.404  22.053  17.545  1.00  0.00     0.082 A 
ATOM      3  N   UNL     1      23.105  21.584  18.769  1.00  0.00    -0.368 N 
ATOM      4  C   UNL     1      22.571  22.605  19.464  1.00  0.00     0.082 A 
ATOM      5  C   UNL     1      22.528  23.738  18.678  1.00  0.00     0.019 A 
ATOM      6  H   UNL     1      23.256  20.611  19.115  1.00  0.00     0.165 HD
ENDROOT
TORSDOF 0
ENDMDL
MODEL 2
REMARK VINA RESULT:    -2.993      0.865      1.385
REMARK INTER + INTRA:          -2.993
REMARK INTER:                  -2.993
REMARK INTRA:                   0.000
REMARK UNBOUND:                 0.000
REMARK SMILES c1cc[nH]c1
REMARK SMILES IDX 1 1 5 2 4 3 3 4 2 5
REMARK H PARENT 4 6
REMARK Flexibility Score: inf
ROOT
ATOM      1  C   UNL     1      23.364  22.177  17.501  1.00  0.00     0.019 A 
ATOM      2  C   UNL     1      23.078  21.767  18.787  1.00  0.00     0.082 A 
ATOM      3  N   UNL     1      22.533  22.781  19.482  1.00  0.00    -0.368 N 
ATOM      4  C   UNL     1      22.466  23.838  18.652  1.00  0.00     0.082 A 
ATOM      5  C   UNL     1      22.973  23.498  17.414  1.00  0.00     0.019 A 
ATOM      6  H   UNL     1      22.219  22.754  20.477  1.00  0.00     0.165 HD
ENDROOT
TORSDOF 0
ENDMDL
MODEL 3
REMARK VINA RESULT:    -2.811      0.872      1.643
REMARK INTER + INTRA:          -2.811
REMARK INTER:                  -2.811
REMARK INTRA:                   0.000
REMARK UNBOUND:                 0.000
REMARK SMILES c1cc[nH]c1
REMARK SMILES IDX 1 1 5 2 4 3 3 4 2 5
REMARK H PARENT 4 6
REMARK Flexibility Score: inf
ROOT
ATOM      1  C   UNL     1      22.740  23.605  17.924  1.00  0.00     0.019 A 
ATOM      2  C   UNL     1      22.262  23.406  19.203  1.00  0.00     0.082 A 
ATOM      3  N   UNL     1      22.620  22.186  19.643  1.00  0.00    -0.368 N 
ATOM      4  C   UNL     1      23.325  21.602  18.657  1.00  0.00     0.082 A 
ATOM      5  C   UNL     1      23.418  22.454  17.576  1.00  0.00     0.019 A 
ATOM      6  H   UNL     1      22.396  21.771  20.574  1.00  0.00     0.165 HD
ENDROOT
TORSDOF 0
ENDMDL
MODEL 4
REMARK VINA RESULT:    -2.468     18.759     19.158
REMARK INTER + INTRA:          -2.468
REMARK INTER:                  -2.468
REMARK INTRA:                   0.000
REMARK UNBOUND:                 0.000
REMARK SMILES c1cc[nH]c1
REMARK SMILES IDX 1 1 5 2 4 3 3 4 2 5
REMARK H PARENT 4 6
REMARK Flexibility Score: inf
ROOT
ATOM      1  C   UNL     1       3.876  26.668  15.721  1.00  0.00     0.019 A 
ATOM      2  C   UNL     1       3.876  27.738  14.851  1.00  0.00     0.082 A 
ATOM      3  N   UNL     1       5.004  27.735  14.118  1.00  0.00    -0.368 N 
ATOM      4  C   UNL     1       5.726  26.670  14.510  1.00  0.00     0.082 A 
ATOM      5  C   UNL     1       5.056  25.985  15.503  1.00  0.00     0.019 A 
ATOM      6  H   UNL     1       5.269  28.426  13.383  1.00  0.00     0.165 HD
ENDROOT
TORSDOF 0
ENDMDL
MODEL 5
REMARK VINA RESULT:    -2.465     18.764     19.122
REMARK INTER + INTRA:          -2.465
REMARK INTER:                  -2.465
REMARK INTRA:                   0.000
REMARK UNBOUND:                 0.000
REMARK SMILES c1cc[nH]c1
REMARK SMILES IDX 1 1 5 2 4 3 3 4 2 5
REMARK H PARENT 4 6
REMARK Flexibility Score: inf
ROOT
ATOM      1  C   UNL     1       5.067  26.012  15.464  1.00  0.00     0.019 A 
ATOM      2  C   UNL     1       5.739  26.742  14.505  1.00  0.00     0.082 A 
ATOM      3  N   UNL     1       5.009  27.814  14.148  1.00  0.00    -0.368 N 
ATOM      4  C   UNL     1       3.875  27.778  14.871  1.00  0.00     0.082 A 
ATOM      5  C   UNL     1       3.878  26.674  15.698  1.00  0.00     0.019 A 
ATOM      6  H   UNL     1       5.273  28.538  13.444  1.00  0.00     0.165 HD
ENDROOT
TORSDOF 0
ENDMDL
MODEL 6
REMARK VINA RESULT:    -2.328     19.635     20.034
REMARK INTER + INTRA:          -2.328
REMARK INTER:                  -2.328
REMARK INTRA:                   0.000
REMARK UNBOUND:                 0.000
REMARK SMILES c1cc[nH]c1
REMARK SMILES IDX 1 1 5 2 4 3 3 4 2 5
REMARK H PARENT 4 6
REMARK Flexibility Score: inf
ROOT
ATOM      1  C   UNL     1       3.985  27.529  13.755  1.00  0.00     0.019 A 
ATOM      2  C   UNL     1       4.711  28.017  14.823  1.00  0.00     0.082 A 
ATOM      3  N   UNL     1       5.045  29.301  14.603  1.00  0.00    -0.368 N 
ATOM      4  C   UNL     1       4.539  29.641  13.404  1.00  0.00     0.082 A 
ATOM      5  C   UNL     1       3.875  28.566  12.850  1.00  0.00     0.019 A 
ATOM      6  H   UNL     1       5.593  29.917  15.243  1.00  0.00     0.165 HD
ENDROOT
TORSDOF 0
ENDMDL
MODEL 7
REMARK VINA RESULT:    -2.121     19.038     19.394
REMARK INTER + INTRA:          -2.121
REMARK INTER:                  -2.121
REMARK INTRA:                   0.000
REMARK UNBOUND:                 0.000
REMARK SMILES c1cc[nH]c1
REMARK SMILES IDX 1 1 5 2 4 3 3 4 2 5
REMARK H PARENT 4 6
REMARK Flexibility Score: inf
ROOT
ATOM      1  C   UNL     1       3.875  25.994  14.284  1.00  0.00     0.019 A 
ATOM      2  C   UNL     1       4.622  25.965  15.444  1.00  0.00     0.082 A 
ATOM      3  N   UNL     1       5.076  27.199  15.730  1.00  0.00    -0.368 N 
ATOM      4  C   UNL     1       4.625  28.019  14.763  1.00  0.00     0.082 A 
ATOM      5  C   UNL     1       3.877  27.305  13.850  1.00  0.00     0.019 A 
ATOM      6  H   UNL     1       5.665  27.469  16.548  1.00  0.00     0.165 HD
ENDROOT
TORSDOF 0
ENDMDL
MODEL 8
REMARK VINA RESULT:    -1.628     20.107     20.502
REMARK INTER + INTRA:          -1.628
REMARK INTER:                  -1.628
REMARK INTRA:                   0.000
REMARK UNBOUND:                 0.000
REMARK SMILES c1cc[nH]c1
REMARK SMILES IDX 1 1 5 2 4 3 3 4 2 5
REMARK H PARENT 4 6
REMARK Flexibility Score: inf
ROOT
ATOM      1  C   UNL     1       3.875  30.013  14.088  1.00  0.00     0.019 A 
ATOM      2  C   UNL     1       3.912  29.817  12.722  1.00  0.00     0.082 A 
ATOM      3  N   UNL     1       4.233  28.539  12.450  1.00  0.00    -0.368 N 
ATOM      4  C   UNL     1       4.402  27.915  13.629  1.00  0.00     0.082 A 
ATOM      5  C   UNL     1       4.187  28.799  14.667  1.00  0.00     0.019 A 
ATOM      6  H   UNL     1       4.332  28.113  11.503  1.00  0.00     0.165 HD
ENDROOT
TORSDOF 0
ENDMDL
