MODEL 1
REMARK VINA RESULT:    -5.572      0.000      0.000
REMARK INTER + INTRA:          -5.735
REMARK INTER:                  -5.735
REMARK INTRA:                   0.000
REMARK UNBOUND:                 0.000
REMARK SMILES Cc1cccc(O)c1C
REMARK SMILES IDX 1 1 2 2 8 3 6 4 5 5 4 6 3 7 9 8 7 9
REMARK H PARENT 7 10
REMARK Flexibility Score: inf
ROOT
ATOM      1  C   UNL     1       8.323   4.078  -4.231  1.00  0.00     0.045 C 
ATOM      2  C   UNL     1       9.183   4.545  -3.084  1.00  0.00    -0.045 A 
ATOM      3  C   UNL     1      10.519   4.994  -3.276  1.00  0.00    -0.006 A 
ATOM      4  C   UNL     1      11.271   5.419  -2.151  1.00  0.00     0.118 A 
ATOM      5  C   UNL     1      10.699   5.393  -0.875  1.00  0.00     0.046 A 
ATOM      6  C   UNL     1       9.391   4.952  -0.695  1.00  0.00     0.004 A 
ATOM      7  C   UNL     1       8.638   4.531  -1.789  1.00  0.00     0.004 A 
ATOM      8  C   UNL     1      11.159   5.030  -4.645  1.00  0.00     0.048 C 
ENDROOT
BRANCH   4   9
ATOM      9  O   UNL     1      12.588   5.873  -2.263  1.00  0.00    -0.508 OA
ATOM     10  H   UNL     1      13.394   5.304  -2.041  1.00  0.00     0.293 HD
ENDBRANCH   4   9
TORSDOF 1
ENDMDL
MODEL 2
REMARK VINA RESULT:    -5.512      1.888      2.356
REMARK INTER + INTRA:          -5.673
REMARK INTER:                  -5.673
REMARK INTRA:                   0.000
REMARK UNBOUND:                 0.000
REMARK SMILES Cc1cccc(O)c1C
REMARK SMILES IDX 1 1 2 2 8 3 6 4 5 5 4 6 3 7 9 8 7 9
REMARK H PARENT 7 10
REMARK Flexibility Score: inf
ROOT
ATOM      1  C   UNL     1       8.117   6.725  -1.701  1.00  0.00     0.045 C 
ATOM      2  C   UNL     1       8.907   5.443  -1.760  1.00  0.00    -0.045 A 
ATOM      3  C   UNL     1       9.473   4.961  -2.973  1.00  0.00    -0.006 A 
ATOM      4  C   UNL     1      10.206   3.746  -2.955  1.00  0.00     0.118 A 
ATOM      5  C   UNL     1      10.363   3.040  -1.759  1.00  0.00     0.046 A 
ATOM      6  C   UNL     1       9.806   3.518  -0.576  1.00  0.00     0.004 A 
ATOM      7  C   UNL     1       9.084   4.709  -0.575  1.00  0.00     0.004 A 
ATOM      8  C   UNL     1       9.315   5.706  -4.278  1.00  0.00     0.048 C 
ENDROOT
BRANCH   4   9
ATOM      9  O   UNL     1      10.790   3.212  -4.107  1.00  0.00    -0.508 OA
ATOM     10  H   UNL     1      11.789   3.182  -4.262  1.00  0.00     0.293 HD
ENDBRANCH   4   9
TORSDOF 1
ENDMDL
MODEL 3
REMARK VINA RESULT:    -5.402      1.010      2.607
REMARK INTER + INTRA:          -5.560
REMARK INTER:                  -5.560
REMARK INTRA:                   0.000
REMARK UNBOUND:                 0.000
REMARK SMILES Cc1cccc(O)c1C
REMARK SMILES IDX 1 1 2 2 8 3 6 4 5 5 4 6 3 7 9 8 7 9
REMARK H PARENT 7 10
REMARK Flexibility Score: inf
ROOT
ATOM      1  C   UNL     1       8.244   4.004  -4.328  1.00  0.00     0.045 C 
ATOM      2  C   UNL     1       9.539   4.605  -3.841  1.00  0.00    -0.045 A 
ATOM      3  C   UNL     1       9.768   4.892  -2.467  1.00  0.00    -0.006 A 
ATOM      4  C   UNL     1      11.010   5.457  -2.080  1.00  0.00     0.118 A 
ATOM      5  C   UNL     1      11.988   5.725  -3.042  1.00  0.00     0.046 A 
ATOM      6  C   UNL     1      11.757   5.441  -4.385  1.00  0.00     0.004 A 
ATOM      7  C   UNL     1      10.542   4.886  -4.783  1.00  0.00     0.004 A 
ATOM      8  C   UNL     1       8.725   4.612  -1.409  1.00  0.00     0.048 C 
ENDROOT
BRANCH   4   9
ATOM      9  O   UNL     1      11.306   5.765  -0.749  1.00  0.00    -0.508 OA
ATOM     10  H   UNL     1      11.801   6.602  -0.468  1.00  0.00     0.293 HD
ENDBRANCH   4   9
TORSDOF 1
ENDMDL
MODEL 4
REMARK VINA RESULT:    -5.352      1.798      3.131
REMARK INTER + INTRA:          -5.509
REMARK INTER:                  -5.509
REMARK INTRA:                   0.000
REMARK UNBOUND:                 0.000
REMARK SMILES Cc1cccc(O)c1C
REMARK SMILES IDX 1 1 2 2 8 3 6 4 5 5 4 6 3 7 9 8 7 9
REMARK H PARENT 7 10
REMARK Flexibility Score: inf
ROOT
ATOM      1  C   UNL     1       8.593   5.698  -0.187  1.00  0.00     0.045 C 
ATOM      2  C   UNL     1       9.054   5.381  -1.588  1.00  0.00    -0.045 A 
ATOM      3  C   UNL     1       9.857   4.244  -1.879  1.00  0.00    -0.006 A 
ATOM      4  C   UNL     1      10.254   4.007  -3.220  1.00  0.00     0.118 A 
ATOM      5  C   UNL     1       9.857   4.884  -4.234  1.00  0.00     0.046 A 
ATOM      6  C   UNL     1       9.070   5.995  -3.941  1.00  0.00     0.004 A 
ATOM      7  C   UNL     1       8.671   6.243  -2.629  1.00  0.00     0.004 A 
ATOM      8  C   UNL     1      10.300   3.283  -0.800  1.00  0.00     0.048 C 
ENDROOT
BRANCH   4   9
ATOM      9  O   UNL     1      11.043   2.911  -3.581  1.00  0.00    -0.508 OA
ATOM     10  H   UNL     1      11.900   2.662  -3.107  1.00  0.00     0.293 HD
ENDBRANCH   4   9
TORSDOF 1
ENDMDL
MODEL 5
REMARK VINA RESULT:    -5.268      2.032      2.060
REMARK INTER + INTRA:          -5.422
REMARK INTER:                  -5.422
REMARK INTRA:                   0.000
REMARK UNBOUND:                 0.000
REMARK SMILES Cc1cccc(O)c1C
REMARK SMILES IDX 1 1 2 2 8 3 6 4 5 5 4 6 3 7 9 8 7 9
REMARK H PARENT 7 10
REMARK Flexibility Score: inf
ROOT
ATOM      1  C   UNL     1       8.664   3.885  -4.326  1.00  0.00     0.045 C 
ATOM      2  C   UNL     1       8.829   5.036  -3.366  1.00  0.00    -0.045 A 
ATOM      3  C   UNL     1       9.363   6.289  -3.775  1.00  0.00    -0.006 A 
ATOM      4  C   UNL     1       9.490   7.328  -2.817  1.00  0.00     0.118 A 
ATOM      5  C   UNL     1       9.095   7.114  -1.494  1.00  0.00     0.046 A 
ATOM      6  C   UNL     1       8.573   5.884  -1.101  1.00  0.00     0.004 A 
ATOM      7  C   UNL     1       8.441   4.852  -2.028  1.00  0.00     0.004 A 
ATOM      8  C   UNL     1       9.798   6.544  -5.200  1.00  0.00     0.048 C 
ENDROOT
BRANCH   4   9
ATOM      9  O   UNL     1      10.005   8.585  -3.146  1.00  0.00    -0.508 OA
ATOM     10  H   UNL     1      10.533   9.157  -2.500  1.00  0.00     0.293 HD
ENDBRANCH   4   9
TORSDOF 1
ENDMDL
MODEL 6
REMARK VINA RESULT:    -5.144      1.823      2.453
REMARK INTER + INTRA:          -5.295
REMARK INTER:                  -5.295
REMARK INTRA:                   0.000
REMARK UNBOUND:                 0.000
REMARK SMILES Cc1cccc(O)c1C
REMARK SMILES IDX 1 1 2 2 8 3 6 4 5 5 4 6 3 7 9 8 7 9
REMARK H PARENT 7 10
REMARK Flexibility Score: inf
ROOT
ATOM      1  C   UNL     1      11.264   5.853  -5.423  1.00  0.00     0.045 C 
ATOM      2  C   UNL     1      10.610   6.067  -4.081  1.00  0.00    -0.045 A 
ATOM      3  C   UNL     1      11.266   5.739  -2.861  1.00  0.00    -0.006 A 
ATOM      4  C   UNL     1      10.591   5.967  -1.634  1.00  0.00     0.118 A 
ATOM      5  C   UNL     1       9.301   6.506  -1.634  1.00  0.00     0.046 A 
ATOM      6  C   UNL     1       8.666   6.824  -2.831  1.00  0.00     0.004 A 
ATOM      7  C   UNL     1       9.314   6.607  -4.046  1.00  0.00     0.004 A 
ATOM      8  C   UNL     1      12.660   5.155  -2.838  1.00  0.00     0.048 C 
ENDROOT
BRANCH   4   9
ATOM      9  O   UNL     1      11.172   5.671  -0.399  1.00  0.00    -0.508 OA
ATOM     10  H   UNL     1      10.655   5.655   0.471  1.00  0.00     0.293 HD
ENDBRANCH   4   9
TORSDOF 1
ENDMDL
MODEL 7
REMARK VINA RESULT:    -5.143      2.116      2.745
REMARK INTER + INTRA:          -5.294
REMARK INTER:                  -5.294
REMARK INTRA:                   0.000
REMARK UNBOUND:                 0.000
REMARK SMILES Cc1cccc(O)c1C
REMARK SMILES IDX 1 1 2 2 8 3 6 4 5 5 4 6 3 7 9 8 7 9
REMARK H PARENT 7 10
REMARK Flexibility Score: inf
ROOT
ATOM      1  C   UNL     1       9.206   5.414  -4.510  1.00  0.00     0.045 C 
ATOM      2  C   UNL     1       9.369   4.896  -3.103  1.00  0.00    -0.045 A 
ATOM      3  C   UNL     1       8.928   5.635  -1.971  1.00  0.00    -0.006 A 
ATOM      4  C   UNL     1       9.112   5.086  -0.676  1.00  0.00     0.118 A 
ATOM      5  C   UNL     1       9.720   3.836  -0.524  1.00  0.00     0.046 A 
ATOM      6  C   UNL     1      10.150   3.119  -1.638  1.00  0.00     0.004 A 
ATOM      7  C   UNL     1       9.976   3.643  -2.917  1.00  0.00     0.004 A 
ATOM      8  C   UNL     1       8.268   6.988  -2.109  1.00  0.00     0.048 C 
ENDROOT
BRANCH   4   9
ATOM      9  O   UNL     1       8.704   5.754   0.482  1.00  0.00    -0.508 OA
ATOM     10  H   UNL     1       8.144   6.597   0.471  1.00  0.00     0.293 HD
ENDBRANCH   4   9
TORSDOF 1
ENDMDL
MODEL 8
REMARK VINA RESULT:    -5.109      1.868      2.362
REMARK INTER + INTRA:          -5.259
REMARK INTER:                  -5.259
REMARK INTRA:                   0.000
REMARK UNBOUND:                 0.000
REMARK SMILES Cc1cccc(O)c1C
REMARK SMILES IDX 1 1 2 2 8 3 6 4 5 5 4 6 3 7 9 8 7 9
REMARK H PARENT 7 10
REMARK Flexibility Score: inf
ROOT
ATOM      1  C   UNL     1      10.133   3.250  -0.630  1.00  0.00     0.045 C 
ATOM      2  C   UNL     1       9.754   4.638  -1.081  1.00  0.00    -0.045 A 
ATOM      3  C   UNL     1      10.509   5.347  -2.057  1.00  0.00    -0.006 A 
ATOM      4  C   UNL     1      10.094   6.650  -2.434  1.00  0.00     0.118 A 
ATOM      5  C   UNL     1       8.960   7.221  -1.849  1.00  0.00     0.046 A 
ATOM      6  C   UNL     1       8.227   6.522  -0.894  1.00  0.00     0.004 A 
ATOM      7  C   UNL     1       8.620   5.241  -0.512  1.00  0.00     0.004 A 
ATOM      8  C   UNL     1      11.738   4.750  -2.702  1.00  0.00     0.048 C 
ENDROOT
BRANCH   4   9
ATOM      9  O   UNL     1      10.785   7.405  -3.385  1.00  0.00    -0.508 OA
ATOM     10  H   UNL     1      11.598   7.966  -3.168  1.00  0.00     0.293 HD
ENDBRANCH   4   9
TORSDOF 1
ENDMDL
MODEL 9
REMARK VINA RESULT:    -5.069      1.682      2.711
REMARK INTER + INTRA:          -5.217
REMARK INTER:                  -5.217
REMARK INTRA:                   0.000
REMARK UNBOUND:                 0.000
REMARK SMILES Cc1cccc(O)c1C
REMARK SMILES IDX 1 1 2 2 8 3 6 4 5 5 4 6 3 7 9 8 7 9
REMARK H PARENT 7 10
REMARK Flexibility Score: inf
ROOT
ATOM      1  C   UNL     1       8.371   4.495  -0.075  1.00  0.00     0.045 C 
ATOM      2  C   UNL     1       9.429   4.501  -1.149  1.00  0.00    -0.045 A 
ATOM      3  C   UNL     1       9.781   5.685  -1.856  1.00  0.00    -0.006 A 
ATOM      4  C   UNL     1      10.786   5.617  -2.855  1.00  0.00     0.118 A 
ATOM      5  C   UNL     1      11.416   4.401  -3.134  1.00  0.00     0.046 A 
ATOM      6  C   UNL     1      11.066   3.246  -2.438  1.00  0.00     0.004 A 
ATOM      7  C   UNL     1      10.081   3.294  -1.454  1.00  0.00     0.004 A 
ATOM      8  C   UNL     1       9.114   7.011  -1.571  1.00  0.00     0.048 C 
ENDROOT
BRANCH   4   9
ATOM      9  O   UNL     1      11.184   6.738  -3.588  1.00  0.00    -0.508 OA
ATOM     10  H   UNL     1      10.877   7.679  -3.379  1.00  0.00     0.293 HD
ENDBRANCH   4   9
TORSDOF 1
ENDMDL
