MODEL 1
REMARK VINA RESULT:    -5.168      0.000      0.000
REMARK INTER + INTRA:          -6.792
REMARK INTER:                  -6.980
REMARK INTRA:                   0.188
REMARK UNBOUND:                 0.188
REMARK SMILES C=C1C(=O)O[C@H]2[C@H]3O[C@@]3(C)CCC=C(C)CC[C@@H]12
REMARK SMILES IDX 6 1 18 2 2 3 1 4 3 5 4 6 5 7 17 8 16 9 14 10 15 11 13 12
REMARK SMILES IDX 7 14 9 15 8 16 10 17 11 18 12 19
REMARK H PARENT
REMARK Flexibility Score: 70.00
ROOT
ATOM      1  C   UNL     1       7.152   8.412  22.087  1.00  0.00     0.216 C 
ATOM      2  C   UNL     1       6.498   8.561  20.643  1.00  0.00     0.070 C 
ATOM      3  C   UNL     1       7.693   8.879  19.786  1.00  0.00     0.037 C 
ATOM      4  C   UNL     1       7.730   8.851  18.452  1.00  0.00     0.021 C 
ATOM      5  C   UNL     1       8.820   9.126  20.645  1.00  0.00     0.334 C 
ATOM      6  O   UNL     1       9.965   9.489  20.269  1.00  0.00    -0.247 OA
ATOM      7  O   UNL     1       8.483   8.908  21.959  1.00  0.00    -0.455 OA
ENDROOT
BRANCH   2   8
ATOM      8  C   UNL     1       5.388   9.632  20.422  1.00  0.00     0.017 C 
BRANCH   8   9
ATOM      9  C   UNL     1       3.943   9.060  20.475  1.00  0.00     0.031 C 
BRANCH   9  10
ATOM     10  C   UNL     1       3.905   7.556  20.300  1.00  0.00    -0.077 C 
ATOM     11  C   UNL     1       3.995   6.999  18.904  1.00  0.00     0.039 C 
ATOM     12  C   UNL     1       3.753   6.686  21.328  1.00  0.00    -0.028 CG0
ATOM     13  G   UNL     1       3.635   7.047  22.793  1.00  0.00     0.000 G0
ENDBRANCH   9  10
ENDBRANCH   8   9
ENDBRANCH   2   8
BRANCH   1  14
ATOM     14  C   UNL     1       6.543   9.013  23.383  1.00  0.00     0.192 C 
ATOM     15  C   UNL     1       5.520   8.236  24.155  1.00  0.00     0.096 C 
ATOM     16  O   UNL     1       5.178   9.332  23.336  1.00  0.00    -0.362 OA
ATOM     17  C   UNL     1       5.336   8.570  25.635  1.00  0.00     0.045 C 
BRANCH  15  18
ATOM     18  C   UNL     1       4.937   6.905  23.630  1.00  0.00     0.042 C 
BRANCH  18  19
ATOM     19  C   UNL     1       3.637   7.045  22.807  1.00  0.00     0.030 CG0
ATOM     20  G   UNL     1       3.748   6.691  21.339  1.00  0.00     0.000 G0
ENDBRANCH  18  19
ENDBRANCH  15  18
ENDBRANCH   1  14
TORSDOF 0
ENDMDL
MODEL 2
REMARK VINA RESULT:    -4.992      3.534      5.595
REMARK INTER + INTRA:          -6.555
REMARK INTER:                  -6.821
REMARK INTRA:                   0.265
REMARK UNBOUND:                 0.188
REMARK SMILES C=C1C(=O)O[C@H]2[C@H]3O[C@@]3(C)CCC=C(C)CC[C@@H]12
REMARK SMILES IDX 6 1 18 2 2 3 1 4 3 5 4 6 5 7 17 8 16 9 14 10 15 11 13 12
REMARK SMILES IDX 7 14 9 15 8 16 10 17 11 18 12 19
REMARK H PARENT
REMARK Flexibility Score: 70.00
ROOT
ATOM      1  C   UNL     1       3.752   6.066  19.300  1.00  0.00     0.216 C 
ATOM      2  C   UNL     1       3.554   5.656  20.825  1.00  0.00     0.070 C 
ATOM      3  C   UNL     1       3.874   4.186  20.802  1.00  0.00     0.037 C 
ATOM      4  C   UNL     1       4.102   3.417  21.869  1.00  0.00     0.021 C 
ATOM      5  C   UNL     1       3.991   3.764  19.433  1.00  0.00     0.334 C 
ATOM      6  O   UNL     1       4.182   2.584  19.040  1.00  0.00    -0.247 OA
ATOM      7  O   UNL     1       3.866   4.837  18.584  1.00  0.00    -0.455 OA
ENDROOT
BRANCH   2   8
ATOM      8  C   UNL     1       2.166   5.885  21.496  1.00  0.00     0.017 C 
BRANCH   8   9
ATOM      9  C   UNL     1       2.035   7.255  22.219  1.00  0.00     0.031 C 
BRANCH   9  10
ATOM     10  C   UNL     1       3.374   7.812  22.659  1.00  0.00    -0.077 C 
ATOM     11  C   UNL     1       4.041   7.194  23.859  1.00  0.00     0.039 C 
ATOM     12  C   UNL     1       3.983   8.862  22.057  1.00  0.00    -0.028 CG0
ATOM     13  G   UNL     1       3.471   9.620  20.851  1.00  0.00     0.000 G0
ENDBRANCH   9  10
ENDBRANCH   8   9
ENDBRANCH   2   8
BRANCH   1  14
ATOM     14  C   UNL     1       2.780   6.987  18.514  1.00  0.00     0.192 C 
ATOM     15  C   UNL     1       2.967   8.474  18.555  1.00  0.00     0.096 C 
ATOM     16  O   UNL     1       1.955   7.818  19.285  1.00  0.00    -0.362 OA
ATOM     17  C   UNL     1       2.380   9.299  17.409  1.00  0.00     0.045 C 
BRANCH  15  18
ATOM     18  C   UNL     1       4.015   9.142  19.471  1.00  0.00     0.042 C 
BRANCH  18  19
ATOM     19  C   UNL     1       3.475   9.619  20.837  1.00  0.00     0.030 CG0
ATOM     20  G   UNL     1       3.980   8.860  22.045  1.00  0.00     0.000 G0
ENDBRANCH  18  19
ENDBRANCH  15  18
ENDBRANCH   1  14
TORSDOF 0
ENDMDL
MODEL 3
REMARK VINA RESULT:    -4.950      4.115      5.583
REMARK INTER + INTRA:          -6.498
REMARK INTER:                  -6.661
REMARK INTRA:                   0.163
REMARK UNBOUND:                 0.188
REMARK SMILES C=C1C(=O)O[C@H]2[C@H]3O[C@@]3(C)CCC=C(C)CC[C@@H]12
REMARK SMILES IDX 6 1 18 2 2 3 1 4 3 5 4 6 5 7 17 8 16 9 14 10 15 11 13 12
REMARK SMILES IDX 7 14 9 15 8 16 10 17 11 18 12 19
REMARK H PARENT
REMARK Flexibility Score: 70.00
ROOT
ATOM      1  C   UNL     1       3.402   5.430  20.667  1.00  0.00     0.216 C 
ATOM      2  C   UNL     1       3.675   4.492  19.410  1.00  0.00     0.070 C 
ATOM      3  C   UNL     1       4.338   3.298  20.043  1.00  0.00     0.037 C 
ATOM      4  C   UNL     1       4.542   2.115  19.460  1.00  0.00     0.021 C 
ATOM      5  C   UNL     1       4.629   3.612  21.415  1.00  0.00     0.334 C 
ATOM      6  O   UNL     1       5.246   2.870  22.224  1.00  0.00    -0.247 OA
ATOM      7  O   UNL     1       4.137   4.851  21.744  1.00  0.00    -0.455 OA
ENDROOT
BRANCH   2   8
ATOM      8  C   UNL     1       4.557   5.029  18.242  1.00  0.00     0.017 C 
BRANCH   8   9
ATOM      9  C   UNL     1       3.742   5.500  17.004  1.00  0.00     0.031 C 
BRANCH   9  10
ATOM     10  C   UNL     1       2.301   5.034  17.043  1.00  0.00    -0.077 C 
ATOM     11  C   UNL     1       1.988   3.647  16.545  1.00  0.00     0.039 C 
ATOM     12  C   UNL     1       1.274   5.811  17.463  1.00  0.00    -0.028 CG0
ATOM     13  G   UNL     1       1.381   7.227  17.987  1.00  0.00     0.000 G0
ENDBRANCH   9  10
ENDBRANCH   8   9
ENDBRANCH   2   8
BRANCH   1  14
ATOM     14  C   UNL     1       3.660   6.960  20.681  1.00  0.00     0.192 C 
ATOM     15  C   UNL     1       2.599   7.899  20.188  1.00  0.00     0.096 C 
ATOM     16  O   UNL     1       3.745   7.587  19.429  1.00  0.00    -0.362 OA
ATOM     17  C   UNL     1       2.639   9.345  20.684  1.00  0.00     0.045 C 
BRANCH  15  18
ATOM     18  C   UNL     1       1.299   7.390  19.528  1.00  0.00     0.042 C 
BRANCH  18  19
ATOM     19  C   UNL     1       1.369   7.231  17.994  1.00  0.00     0.030 CG0
ATOM     20  G   UNL     1       1.243   5.814  17.474  1.00  0.00     0.000 G0
ENDBRANCH  18  19
ENDBRANCH  15  18
ENDBRANCH   1  14
TORSDOF 0
ENDMDL
MODEL 4
REMARK VINA RESULT:    -4.884      3.004      5.050
REMARK INTER + INTRA:          -6.409
REMARK INTER:                  -6.564
REMARK INTRA:                   0.155
REMARK UNBOUND:                 0.188
REMARK SMILES C=C1C(=O)O[C@H]2[C@H]3O[C@@]3(C)CCC=C(C)CC[C@@H]12
REMARK SMILES IDX 6 1 18 2 2 3 1 4 3 5 4 6 5 7 17 8 16 9 14 10 15 11 13 12
REMARK SMILES IDX 7 14 9 15 8 16 10 17 11 18 12 19
REMARK H PARENT
REMARK Flexibility Score: 70.00
ROOT
ATOM      1  C   UNL     1       2.646   6.161  21.539  1.00  0.00     0.216 C 
ATOM      2  C   UNL     1       2.387   6.804  20.107  1.00  0.00     0.070 C 
ATOM      3  C   UNL     1       1.468   5.798  19.468  1.00  0.00     0.037 C 
ATOM      4  C   UNL     1       0.754   5.984  18.356  1.00  0.00     0.021 C 
ATOM      5  C   UNL     1       1.410   4.634  20.309  1.00  0.00     0.334 C 
ATOM      6  O   UNL     1       0.792   3.568  20.049  1.00  0.00    -0.247 OA
ATOM      7  O   UNL     1       2.129   4.833  21.463  1.00  0.00    -0.455 OA
ENDROOT
BRANCH   2   8
ATOM      8  C   UNL     1       3.603   7.078  19.170  1.00  0.00     0.017 C 
BRANCH   8   9
ATOM      9  C   UNL     1       3.961   8.585  19.028  1.00  0.00     0.031 C 
BRANCH   9  10
ATOM     10  C   UNL     1       2.937   9.490  19.683  1.00  0.00    -0.077 C 
ATOM     11  C   UNL     1       1.761   9.947  18.860  1.00  0.00     0.039 C 
ATOM     12  C   UNL     1       3.044   9.945  20.955  1.00  0.00    -0.028 CG0
ATOM     13  G   UNL     1       4.149   9.610  21.933  1.00  0.00     0.000 G0
ENDBRANCH   9  10
ENDBRANCH   8   9
ENDBRANCH   2   8
BRANCH   1  14
ATOM     14  C   UNL     1       4.037   6.092  22.223  1.00  0.00     0.192 C 
ATOM     15  C   UNL     1       4.537   7.264  23.014  1.00  0.00     0.096 C 
ATOM     16  O   UNL     1       5.017   6.961  21.723  1.00  0.00    -0.362 OA
ATOM     17  C   UNL     1       5.604   7.004  24.078  1.00  0.00     0.045 C 
BRANCH  15  18
ATOM     18  C   UNL     1       3.774   8.606  23.058  1.00  0.00     0.042 C 
BRANCH  18  19
ATOM     19  C   UNL     1       4.148   9.604  21.941  1.00  0.00     0.030 CG0
ATOM     20  G   UNL     1       3.040   9.946  20.968  1.00  0.00     0.000 G0
ENDBRANCH  18  19
ENDBRANCH  15  18
ENDBRANCH   1  14
TORSDOF 0
ENDMDL
MODEL 5
REMARK VINA RESULT:    -4.865      4.103      6.300
REMARK INTER + INTRA:          -6.384
REMARK INTER:                  -6.601
REMARK INTRA:                   0.218
REMARK UNBOUND:                 0.188
REMARK SMILES C=C1C(=O)O[C@H]2[C@H]3O[C@@]3(C)CCC=C(C)CC[C@@H]12
REMARK SMILES IDX 6 1 18 2 2 3 1 4 3 5 4 6 5 7 17 8 16 9 14 10 15 11 13 12
REMARK SMILES IDX 7 14 9 15 8 16 10 17 11 18 12 19
REMARK H PARENT
REMARK Flexibility Score: 70.00
ROOT
ATOM      1  C   UNL     1       3.745   4.450  18.841  1.00  0.00     0.216 C 
ATOM      2  C   UNL     1       3.720   4.493  20.432  1.00  0.00     0.070 C 
ATOM      3  C   UNL     1       4.400   3.201  20.796  1.00  0.00     0.037 C 
ATOM      4  C   UNL     1       4.858   2.869  22.004  1.00  0.00     0.021 C 
ATOM      5  C   UNL     1       4.564   2.419  19.600  1.00  0.00     0.334 C 
ATOM      6  O   UNL     1       5.033   1.252  19.543  1.00  0.00    -0.247 OA
ATOM      7  O   UNL     1       4.138   3.122  18.500  1.00  0.00    -0.455 OA
ENDROOT
BRANCH   2   8
ATOM      8  C   UNL     1       2.347   4.591  21.165  1.00  0.00     0.017 C 
BRANCH   8   9
ATOM      9  C   UNL     1       1.949   6.041  21.563  1.00  0.00     0.031 C 
BRANCH   9  10
ATOM     10  C   UNL     1       3.138   6.978  21.612  1.00  0.00    -0.077 C 
ATOM     11  C   UNL     1       4.038   6.925  22.819  1.00  0.00     0.039 C 
ATOM     12  C   UNL     1       3.413   7.891  20.649  1.00  0.00    -0.028 CG0
ATOM     13  G   UNL     1       2.628   8.106  19.372  1.00  0.00     0.000 G0
ENDBRANCH   9  10
ENDBRANCH   8   9
ENDBRANCH   2   8
BRANCH   1  14
ATOM     14  C   UNL     1       2.541   4.838  17.942  1.00  0.00     0.192 C 
ATOM     15  C   UNL     1       2.341   6.268  17.541  1.00  0.00     0.096 C 
ATOM     16  O   UNL     1       1.559   5.644  18.534  1.00  0.00    -0.362 OA
ATOM     17  C   UNL     1       1.519   6.549  16.283  1.00  0.00     0.045 C 
BRANCH  15  18
ATOM     18  C   UNL     1       3.216   7.407  18.109  1.00  0.00     0.042 C 
BRANCH  18  19
ATOM     19  C   UNL     1       2.641   8.106  19.361  1.00  0.00     0.030 CG0
ATOM     20  G   UNL     1       3.411   7.890  20.646  1.00  0.00     0.000 G0
ENDBRANCH  18  19
ENDBRANCH  15  18
ENDBRANCH   1  14
TORSDOF 0
ENDMDL
MODEL 6
REMARK VINA RESULT:    -4.860      2.519      4.254
REMARK INTER + INTRA:          -6.377
REMARK INTER:                  -6.527
REMARK INTRA:                   0.150
REMARK UNBOUND:                 0.188
REMARK SMILES C=C1C(=O)O[C@H]2[C@H]3O[C@@]3(C)CCC=C(C)CC[C@@H]12
REMARK SMILES IDX 6 1 18 2 2 3 1 4 3 5 4 6 5 7 17 8 16 9 14 10 15 11 13 12
REMARK SMILES IDX 7 14 9 15 8 16 10 17 11 18 12 19
REMARK H PARENT
REMARK Flexibility Score: 70.00
ROOT
ATOM      1  C   UNL     1       4.301   6.699  22.282  1.00  0.00     0.216 C 
ATOM      2  C   UNL     1       5.229   7.911  21.830  1.00  0.00     0.070 C 
ATOM      3  C   UNL     1       6.083   8.128  23.050  1.00  0.00     0.037 C 
ATOM      4  C   UNL     1       7.195   8.864  23.107  1.00  0.00     0.021 C 
ATOM      5  C   UNL     1       5.556   7.333  24.125  1.00  0.00     0.334 C 
ATOM      6  O   UNL     1       5.980   7.324  25.310  1.00  0.00    -0.247 OA
ATOM      7  O   UNL     1       4.506   6.562  23.687  1.00  0.00    -0.455 OA
ENDROOT
BRANCH   2   8
ATOM      8  C   UNL     1       4.564   9.255  21.404  1.00  0.00     0.017 C 
BRANCH   8   9
ATOM      9  C   UNL     1       4.546   9.487  19.867  1.00  0.00     0.031 C 
BRANCH   9  10
ATOM     10  C   UNL     1       5.423   8.504  19.118  1.00  0.00    -0.077 C 
ATOM     11  C   UNL     1       6.885   8.831  18.961  1.00  0.00     0.039 C 
ATOM     12  C   UNL     1       4.956   7.368  18.547  1.00  0.00    -0.028 CG0
ATOM     13  G   UNL     1       3.526   6.872  18.585  1.00  0.00     0.000 G0
ENDBRANCH   9  10
ENDBRANCH   8   9
ENDBRANCH   2   8
BRANCH   1  14
ATOM     14  C   UNL     1       2.774   6.627  22.014  1.00  0.00     0.192 C 
ATOM     15  C   UNL     1       2.271   6.081  20.711  1.00  0.00     0.096 C 
ATOM     16  O   UNL     1       2.282   7.461  21.000  1.00  0.00    -0.362 OA
ATOM     17  C   UNL     1       0.845   5.534  20.668  1.00  0.00     0.045 C 
BRANCH  15  18
ATOM     18  C   UNL     1       3.227   5.715  19.555  1.00  0.00     0.042 C 
BRANCH  18  19
ATOM     19  C   UNL     1       3.520   6.863  18.564  1.00  0.00     0.030 CG0
ATOM     20  G   UNL     1       4.946   7.370  18.547  1.00  0.00     0.000 G0
ENDBRANCH  18  19
ENDBRANCH  15  18
ENDBRANCH   1  14
TORSDOF 0
ENDMDL
MODEL 7
REMARK VINA RESULT:    -4.815      3.826      6.047
REMARK INTER + INTRA:          -6.316
REMARK INTER:                  -6.478
REMARK INTRA:                   0.162
REMARK UNBOUND:                 0.188
REMARK SMILES C=C1C(=O)O[C@H]2[C@H]3O[C@@]3(C)CCC=C(C)CC[C@@H]12
REMARK SMILES IDX 6 1 18 2 2 3 1 4 3 5 4 6 5 7 17 8 16 9 14 10 15 11 13 12
REMARK SMILES IDX 7 14 9 15 8 16 10 17 11 18 12 19
REMARK H PARENT
REMARK Flexibility Score: 70.00
ROOT
ATOM      1  C   UNL     1       2.620   5.568  19.937  1.00  0.00     0.216 C 
ATOM      2  C   UNL     1       3.315   6.514  21.012  1.00  0.00     0.070 C 
ATOM      3  C   UNL     1       3.775   5.528  22.052  1.00  0.00     0.037 C 
ATOM      4  C   UNL     1       4.635   5.778  23.042  1.00  0.00     0.021 C 
ATOM      5  C   UNL     1       3.209   4.243  21.745  1.00  0.00     0.334 C 
ATOM      6  O   UNL     1       3.327   3.202  22.443  1.00  0.00    -0.247 OA
ATOM      7  O   UNL     1       2.509   4.292  20.565  1.00  0.00    -0.455 OA
ENDROOT
BRANCH   2   8
ATOM      8  C   UNL     1       2.473   7.640  21.687  1.00  0.00     0.017 C 
BRANCH   8   9
ATOM      9  C   UNL     1       2.755   9.060  21.121  1.00  0.00     0.031 C 
BRANCH   9  10
ATOM     10  C   UNL     1       3.993   9.105  20.248  1.00  0.00    -0.077 C 
ATOM     11  C   UNL     1       5.331   9.278  20.918  1.00  0.00     0.039 C 
ATOM     12  C   UNL     1       3.958   9.038  18.895  1.00  0.00    -0.028 CG0
ATOM     13  G   UNL     1       2.719   8.875  18.041  1.00  0.00     0.000 G0
ENDBRANCH   9  10
ENDBRANCH   8   9
ENDBRANCH   2   8
BRANCH   1  14
ATOM     14  C   UNL     1       1.263   5.882  19.251  1.00  0.00     0.192 C 
ATOM     15  C   UNL     1       1.232   6.736  18.019  1.00  0.00     0.096 C 
ATOM     16  O   UNL     1       0.846   7.220  19.286  1.00  0.00    -0.362 OA
ATOM     17  C   UNL     1       0.028   6.600  17.087  1.00  0.00     0.045 C 
BRANCH  15  18
ATOM     18  C   UNL     1       2.496   7.440  17.480  1.00  0.00     0.042 C 
BRANCH  18  19
ATOM     19  C   UNL     1       2.729   8.866  18.026  1.00  0.00     0.030 CG0
ATOM     20  G   UNL     1       3.956   9.046  18.893  1.00  0.00     0.000 G0
ENDBRANCH  18  19
ENDBRANCH  15  18
ENDBRANCH   1  14
TORSDOF 0
ENDMDL
MODEL 8
REMARK VINA RESULT:    -4.687      3.073      4.543
REMARK INTER + INTRA:          -6.143
REMARK INTER:                  -6.306
REMARK INTRA:                   0.163
REMARK UNBOUND:                 0.188
REMARK SMILES C=C1C(=O)O[C@H]2[C@H]3O[C@@]3(C)CCC=C(C)CC[C@@H]12
REMARK SMILES IDX 6 1 18 2 2 3 1 4 3 5 4 6 5 7 17 8 16 9 14 10 15 11 13 12
REMARK SMILES IDX 7 14 9 15 8 16 10 17 11 18 12 19
REMARK H PARENT
REMARK Flexibility Score: 70.00
ROOT
ATOM      1  C   UNL     1       4.486   6.484  21.643  1.00  0.00     0.216 C 
ATOM      2  C   UNL     1       3.404   7.519  21.103  1.00  0.00     0.070 C 
ATOM      3  C   UNL     1       3.805   8.791  21.802  1.00  0.00     0.037 C 
ATOM      4  C   UNL     1       3.374  10.018  21.503  1.00  0.00     0.021 C 
ATOM      5  C   UNL     1       4.805   8.476  22.785  1.00  0.00     0.334 C 
ATOM      6  O   UNL     1       5.315   9.287  23.602  1.00  0.00    -0.247 OA
ATOM      7  O   UNL     1       5.146   7.146  22.720  1.00  0.00    -0.455 OA
ENDROOT
BRANCH   2   8
ATOM      8  C   UNL     1       1.892   7.233  21.353  1.00  0.00     0.017 C 
BRANCH   8   9
ATOM      9  C   UNL     1       1.093   6.902  20.061  1.00  0.00     0.031 C 
BRANCH   9  10
ATOM     10  C   UNL     1       1.945   6.986  18.811  1.00  0.00    -0.077 C 
ATOM     11  C   UNL     1       1.971   8.287  18.053  1.00  0.00     0.039 C 
ATOM     12  C   UNL     1       2.653   5.942  18.316  1.00  0.00    -0.028 CG0
ATOM     13  G   UNL     1       2.747   4.559  18.923  1.00  0.00     0.000 G0
ENDBRANCH   9  10
ENDBRANCH   8   9
ENDBRANCH   2   8
BRANCH   1  14
ATOM     14  C   UNL     1       4.152   5.040  22.105  1.00  0.00     0.192 C 
ATOM     15  C   UNL     1       4.044   3.941  21.091  1.00  0.00     0.096 C 
ATOM     16  O   UNL     1       2.913   4.528  21.694  1.00  0.00    -0.362 OA
ATOM     17  C   UNL     1       4.246   2.503  21.572  1.00  0.00     0.045 C 
BRANCH  15  18
ATOM     18  C   UNL     1       4.113   4.218  19.573  1.00  0.00     0.042 C 
BRANCH  18  19
ATOM     19  C   UNL     1       2.759   4.559  18.912  1.00  0.00     0.030 CG0
ATOM     20  G   UNL     1       2.648   5.947  18.320  1.00  0.00     0.000 G0
ENDBRANCH  18  19
ENDBRANCH  15  18
ENDBRANCH   1  14
TORSDOF 0
ENDMDL
MODEL 9
REMARK VINA RESULT:    -4.542      2.999      5.021
REMARK INTER + INTRA:          -5.947
REMARK INTER:                  -6.123
REMARK INTRA:                   0.175
REMARK UNBOUND:                 0.188
REMARK SMILES C=C1C(=O)O[C@H]2[C@H]3O[C@@]3(C)CCC=C(C)CC[C@@H]12
REMARK SMILES IDX 6 1 18 2 2 3 1 4 3 5 4 6 5 7 17 8 16 9 14 10 15 11 13 12
REMARK SMILES IDX 7 14 9 15 8 16 10 17 11 18 12 19
REMARK H PARENT
REMARK Flexibility Score: 70.00
ROOT
ATOM      1  C   UNL     1       3.116   8.661  21.066  1.00  0.00     0.216 C 
ATOM      2  C   UNL     1       3.598   7.161  21.293  1.00  0.00     0.070 C 
ATOM      3  C   UNL     1       4.408   7.276  22.556  1.00  0.00     0.037 C 
ATOM      4  C   UNL     1       4.826   6.261  23.314  1.00  0.00     0.021 C 
ATOM      5  C   UNL     1       4.575   8.670  22.867  1.00  0.00     0.334 C 
ATOM      6  O   UNL     1       5.259   9.135  23.816  1.00  0.00    -0.247 OA
ATOM      7  O   UNL     1       3.877   9.451  21.978  1.00  0.00    -0.455 OA
ENDROOT
BRANCH   2   8
ATOM      8  C   UNL     1       4.443   6.462  20.185  1.00  0.00     0.017 C 
BRANCH   8   9
ATOM      9  C   UNL     1       3.703   5.294  19.474  1.00  0.00     0.031 C 
BRANCH   9  10
ATOM     10  C   UNL     1       2.323   5.043  20.047  1.00  0.00    -0.077 C 
ATOM     11  C   UNL     1       2.180   4.012  21.135  1.00  0.00     0.039 C 
ATOM     12  C   UNL     1       1.205   5.667  19.605  1.00  0.00    -0.028 CG0
ATOM     13  G   UNL     1       1.139   6.721  18.520  1.00  0.00     0.000 G0
ENDBRANCH   9  10
ENDBRANCH   8   9
ENDBRANCH   2   8
BRANCH   1  14
ATOM     14  C   UNL     1       3.127   9.379  19.690  1.00  0.00     0.192 C 
ATOM     15  C   UNL     1       1.985   9.181  18.738  1.00  0.00     0.096 C 
ATOM     16  O   UNL     1       3.235   8.554  18.561  1.00  0.00    -0.362 OA
ATOM     17  C   UNL     1       1.748  10.255  17.675  1.00  0.00     0.045 C 
BRANCH  15  18
ATOM     18  C   UNL     1       0.853   8.169  19.018  1.00  0.00     0.042 C 
BRANCH  18  19
ATOM     19  C   UNL     1       1.131   6.731  18.529  1.00  0.00     0.030 CG0
ATOM     20  G   UNL     1       1.190   5.670  19.608  1.00  0.00     0.000 G0
ENDBRANCH  18  19
ENDBRANCH  15  18
ENDBRANCH   1  14
TORSDOF 0
ENDMDL
