MODEL 1
REMARK VINA RESULT:    -3.394      0.000      0.000
REMARK INTER + INTRA:          -5.057
REMARK INTER:                  -4.584
REMARK INTRA:                  -0.473
REMARK UNBOUND:                -0.473
REMARK SMILES CCCCCCCC(=O)[O-]
REMARK SMILES IDX 5 1 6 2 7 3 8 4 9 5 10 6 4 7 3 8 2 9 1 10
REMARK H PARENT
REMARK Flexibility Score: inf
ROOT
ATOM      1  C   UNL     1      50.490  -5.352 -54.803  1.00  0.00     0.000 C 
ENDROOT
BRANCH   1   2
ATOM      2  C   UNL     1      50.653  -4.927 -56.266  1.00  0.00     0.006 C 
BRANCH   2   3
ATOM      3  C   UNL     1      50.831  -6.144 -57.177  1.00  0.00     0.053 C 
BRANCH   3   4
ATOM      4  C   UNL     1      52.089  -6.023 -57.977  1.00  0.00     0.041 C 
ATOM      5  O   UNL     1      52.265  -6.745 -58.993  1.00  0.00    -0.550 OA
ATOM      6  O   UNL     1      53.045  -5.077 -57.631  1.00  0.00    -0.550 OA
ENDBRANCH   3   4
ENDBRANCH   2   3
ENDBRANCH   1   2
BRANCH   1   7
ATOM      7  C   UNL     1      50.609  -6.874 -54.655  1.00  0.00     0.000 C 
BRANCH   7   8
ATOM      8  C   UNL     1      49.433  -7.442 -53.850  1.00  0.00    -0.000 C 
BRANCH   8   9
ATOM      9  C   UNL     1      48.164  -7.514 -54.708  1.00  0.00    -0.003 C 
ATOM     10  C   UNL     1      48.186  -8.736 -55.622  1.00  0.00     0.004 C 
ENDBRANCH   8   9
ENDBRANCH   7   8
ENDBRANCH   1   7
TORSDOF 6
ENDMDL
MODEL 2
REMARK VINA RESULT:    -3.364      1.510      2.740
REMARK INTER + INTRA:          -5.018
REMARK INTER:                  -4.668
REMARK INTRA:                  -0.350
REMARK UNBOUND:                -0.473
REMARK SMILES CCCCCCCC(=O)[O-]
REMARK SMILES IDX 5 1 6 2 7 3 8 4 9 5 10 6 4 7 3 8 2 9 1 10
REMARK H PARENT
REMARK Flexibility Score: inf
ROOT
ATOM      1  C   UNL     1      48.687  -7.175 -53.860  1.00  0.00     0.000 C 
ENDROOT
BRANCH   1   2
ATOM      2  C   UNL     1      50.134  -7.377 -54.324  1.00  0.00     0.006 C 
BRANCH   2   3
ATOM      3  C   UNL     1      50.740  -6.063 -54.822  1.00  0.00     0.053 C 
BRANCH   3   4
ATOM      4  C   UNL     1      51.158  -6.186 -56.253  1.00  0.00     0.041 C 
ATOM      5  O   UNL     1      52.375  -6.104 -56.567  1.00  0.00    -0.550 OA
ATOM      6  O   UNL     1      50.210  -6.441 -57.235  1.00  0.00    -0.550 OA
ENDBRANCH   3   4
ENDBRANCH   2   3
ENDBRANCH   1   2
BRANCH   1   7
ATOM      7  C   UNL     1      47.699  -7.813 -54.843  1.00  0.00     0.000 C 
BRANCH   7   8
ATOM      8  C   UNL     1      48.343  -8.991 -55.585  1.00  0.00    -0.000 C 
BRANCH   8   9
ATOM      9  C   UNL     1      47.365  -9.605 -56.595  1.00  0.00    -0.003 C 
ATOM     10  C   UNL     1      47.713 -11.062 -56.881  1.00  0.00     0.004 C 
ENDBRANCH   8   9
ENDBRANCH   7   8
ENDBRANCH   1   7
TORSDOF 6
ENDMDL
MODEL 3
REMARK VINA RESULT:    -3.360      2.833      4.582
REMARK INTER + INTRA:          -5.011
REMARK INTER:                  -4.689
REMARK INTRA:                  -0.322
REMARK UNBOUND:                -0.473
REMARK SMILES CCCCCCCC(=O)[O-]
REMARK SMILES IDX 5 1 6 2 7 3 8 4 9 5 10 6 4 7 3 8 2 9 1 10
REMARK H PARENT
REMARK Flexibility Score: inf
ROOT
ATOM      1  C   UNL     1      51.457  -6.173 -55.154  1.00  0.00     0.000 C 
ENDROOT
BRANCH   1   2
ATOM      2  C   UNL     1      50.115  -6.275 -54.422  1.00  0.00     0.006 C 
BRANCH   2   3
ATOM      3  C   UNL     1      49.685  -7.736 -54.263  1.00  0.00     0.053 C 
BRANCH   3   4
ATOM      4  C   UNL     1      48.386  -7.980 -54.964  1.00  0.00     0.041 C 
ATOM      5  O   UNL     1      47.298  -7.677 -54.405  1.00  0.00    -0.550 OA
ATOM      6  O   UNL     1      48.377  -8.494 -56.253  1.00  0.00    -0.550 OA
ENDBRANCH   3   4
ENDBRANCH   2   3
ENDBRANCH   1   2
BRANCH   1   7
ATOM      7  C   UNL     1      51.280  -5.553 -56.545  1.00  0.00     0.000 C 
BRANCH   7   8
ATOM      8  C   UNL     1      52.458  -5.909 -57.461  1.00  0.00    -0.000 C 
BRANCH   8   9
ATOM      9  C   UNL     1      51.963  -6.435 -58.813  1.00  0.00    -0.003 C 
ATOM     10  C   UNL     1      50.472  -6.756 -58.766  1.00  0.00     0.004 C 
ENDBRANCH   8   9
ENDBRANCH   7   8
ENDBRANCH   1   7
TORSDOF 6
ENDMDL
MODEL 4
REMARK VINA RESULT:    -3.358      7.436      9.110
REMARK INTER + INTRA:          -5.010
REMARK INTER:                  -4.618
REMARK INTRA:                  -0.392
REMARK UNBOUND:                -0.473
REMARK SMILES CCCCCCCC(=O)[O-]
REMARK SMILES IDX 5 1 6 2 7 3 8 4 9 5 10 6 4 7 3 8 2 9 1 10
REMARK H PARENT
REMARK Flexibility Score: inf
ROOT
ATOM      1  C   UNL     1      48.787 -13.296 -56.135  1.00  0.00     0.000 C 
ENDROOT
BRANCH   1   2
ATOM      2  C   UNL     1      47.687 -14.293 -55.750  1.00  0.00     0.006 C 
BRANCH   2   3
ATOM      3  C   UNL     1      48.109 -15.728 -56.072  1.00  0.00     0.053 C 
BRANCH   3   4
ATOM      4  C   UNL     1      47.169 -16.343 -57.060  1.00  0.00     0.041 C 
ATOM      5  O   UNL     1      47.330 -17.536 -57.431  1.00  0.00    -0.550 OA
ATOM      6  O   UNL     1      46.084 -15.616 -57.534  1.00  0.00    -0.550 OA
ENDBRANCH   3   4
ENDBRANCH   2   3
ENDBRANCH   1   2
BRANCH   1   7
ATOM      7  C   UNL     1      48.187 -11.948 -56.553  1.00  0.00     0.000 C 
BRANCH   7   8
ATOM      8  C   UNL     1      46.871 -12.145 -57.318  1.00  0.00    -0.000 C 
BRANCH   8   9
ATOM      9  C   UNL     1      47.084 -11.974 -58.827  1.00  0.00    -0.003 C 
ATOM     10  C   UNL     1      48.004 -10.795 -59.124  1.00  0.00     0.004 C 
ENDBRANCH   8   9
ENDBRANCH   7   8
ENDBRANCH   1   7
TORSDOF 6
ENDMDL
MODEL 5
REMARK VINA RESULT:    -3.331      3.104      5.239
REMARK INTER + INTRA:          -4.972
REMARK INTER:                  -4.645
REMARK INTRA:                  -0.327
REMARK UNBOUND:                -0.473
REMARK SMILES CCCCCCCC(=O)[O-]
REMARK SMILES IDX 5 1 6 2 7 3 8 4 9 5 10 6 4 7 3 8 2 9 1 10
REMARK H PARENT
REMARK Flexibility Score: inf
ROOT
ATOM      1  C   UNL     1      51.398  -5.913 -56.511  1.00  0.00     0.000 C 
ENDROOT
BRANCH   1   2
ATOM      2  C   UNL     1      51.398  -6.152 -54.997  1.00  0.00     0.006 C 
BRANCH   2   3
ATOM      3  C   UNL     1      50.027  -5.845 -54.392  1.00  0.00     0.053 C 
BRANCH   3   4
ATOM      4  C   UNL     1      49.322  -7.110 -54.017  1.00  0.00     0.041 C 
ATOM      5  O   UNL     1      48.105  -7.085 -53.694  1.00  0.00    -0.550 OA
ATOM      6  O   UNL     1      49.994  -8.324 -54.074  1.00  0.00    -0.550 OA
ENDBRANCH   3   4
ENDBRANCH   2   3
ENDBRANCH   1   2
BRANCH   1   7
ATOM      7  C   UNL     1      50.860  -4.518 -56.849  1.00  0.00     0.000 C 
BRANCH   7   8
ATOM      8  C   UNL     1      51.835  -3.756 -57.756  1.00  0.00    -0.000 C 
BRANCH   8   9
ATOM      9  C   UNL     1      52.996  -4.657 -58.192  1.00  0.00    -0.003 C 
ATOM     10  C   UNL     1      54.329  -3.919 -58.100  1.00  0.00     0.004 C 
ENDBRANCH   8   9
ENDBRANCH   7   8
ENDBRANCH   1   7
TORSDOF 6
ENDMDL
MODEL 6
REMARK VINA RESULT:    -3.286      2.895      5.323
REMARK INTER + INTRA:          -4.912
REMARK INTER:                  -4.571
REMARK INTRA:                  -0.341
REMARK UNBOUND:                -0.473
REMARK SMILES CCCCCCCC(=O)[O-]
REMARK SMILES IDX 5 1 6 2 7 3 8 4 9 5 10 6 4 7 3 8 2 9 1 10
REMARK H PARENT
REMARK Flexibility Score: inf
ROOT
ATOM      1  C   UNL     1      51.121  -6.222 -57.476  1.00  0.00     0.000 C 
ENDROOT
BRANCH   1   2
ATOM      2  C   UNL     1      51.764  -5.911 -56.120  1.00  0.00     0.006 C 
BRANCH   2   3
ATOM      3  C   UNL     1      50.884  -6.405 -54.968  1.00  0.00     0.053 C 
BRANCH   3   4
ATOM      4  C   UNL     1      49.952  -5.326 -54.518  1.00  0.00     0.041 C 
ATOM      5  O   UNL     1      50.408  -4.253 -54.041  1.00  0.00    -0.550 OA
ATOM      6  O   UNL     1      48.581  -5.482 -54.672  1.00  0.00    -0.550 OA
ENDBRANCH   3   4
ENDBRANCH   2   3
ENDBRANCH   1   2
BRANCH   1   7
ATOM      7  C   UNL     1      51.880  -5.532 -58.616  1.00  0.00     0.000 C 
BRANCH   7   8
ATOM      8  C   UNL     1      53.194  -6.261 -58.924  1.00  0.00    -0.000 C 
BRANCH   8   9
ATOM      9  C   UNL     1      54.342  -5.264 -59.118  1.00  0.00    -0.003 C 
ATOM     10  C   UNL     1      54.124  -4.004 -58.286  1.00  0.00     0.004 C 
ENDBRANCH   8   9
ENDBRANCH   7   8
ENDBRANCH   1   7
TORSDOF 6
ENDMDL
MODEL 7
REMARK VINA RESULT:    -3.280      1.313      1.605
REMARK INTER + INTRA:          -4.904
REMARK INTER:                  -4.635
REMARK INTRA:                  -0.269
REMARK UNBOUND:                -0.473
REMARK SMILES CCCCCCCC(=O)[O-]
REMARK SMILES IDX 5 1 6 2 7 3 8 4 9 5 10 6 4 7 3 8 2 9 1 10
REMARK H PARENT
REMARK Flexibility Score: inf
ROOT
ATOM      1  C   UNL     1      51.599  -6.247 -55.373  1.00  0.00     0.000 C 
ENDROOT
BRANCH   1   2
ATOM      2  C   UNL     1      51.302  -5.944 -56.846  1.00  0.00     0.006 C 
BRANCH   2   3
ATOM      3  C   UNL     1      52.592  -5.891 -57.668  1.00  0.00     0.053 C 
BRANCH   3   4
ATOM      4  C   UNL     1      52.990  -4.472 -57.930  1.00  0.00     0.041 C 
ATOM      5  O   UNL     1      54.142  -4.208 -58.365  1.00  0.00    -0.550 OA
ATOM      6  O   UNL     1      52.073  -3.447 -57.741  1.00  0.00    -0.550 OA
ENDBRANCH   3   4
ENDBRANCH   2   3
ENDBRANCH   1   2
BRANCH   1   7
ATOM      7  C   UNL     1      50.315  -6.218 -54.535  1.00  0.00     0.000 C 
BRANCH   7   8
ATOM      8  C   UNL     1      49.795  -7.638 -54.277  1.00  0.00    -0.000 C 
BRANCH   8   9
ATOM      9  C   UNL     1      48.323  -7.766 -54.686  1.00  0.00    -0.003 C 
ATOM     10  C   UNL     1      48.145  -8.816 -55.779  1.00  0.00     0.004 C 
ENDBRANCH   8   9
ENDBRANCH   7   8
ENDBRANCH   1   7
TORSDOF 6
ENDMDL
MODEL 8
REMARK VINA RESULT:    -3.272      3.253      4.763
REMARK INTER + INTRA:          -4.893
REMARK INTER:                  -4.502
REMARK INTRA:                  -0.391
REMARK UNBOUND:                -0.473
REMARK SMILES CCCCCCCC(=O)[O-]
REMARK SMILES IDX 5 1 6 2 7 3 8 4 9 5 10 6 4 7 3 8 2 9 1 10
REMARK H PARENT
REMARK Flexibility Score: inf
ROOT
ATOM      1  C   UNL     1      49.743  -7.654 -54.214  1.00  0.00     0.000 C 
ENDROOT
BRANCH   1   2
ATOM      2  C   UNL     1      48.315  -7.880 -54.722  1.00  0.00     0.006 C 
BRANCH   2   3
ATOM      3  C   UNL     1      48.314  -8.280 -56.200  1.00  0.00     0.053 C 
BRANCH   3   4
ATOM      4  C   UNL     1      47.510  -9.525 -56.407  1.00  0.00     0.041 C 
ATOM      5  O   UNL     1      46.301  -9.449 -56.748  1.00  0.00    -0.550 OA
ATOM      6  O   UNL     1      48.111 -10.771 -56.273  1.00  0.00    -0.550 OA
ENDBRANCH   3   4
ENDBRANCH   2   3
ENDBRANCH   1   2
BRANCH   1   7
ATOM      7  C   UNL     1      50.207  -6.220 -54.496  1.00  0.00     0.000 C 
BRANCH   7   8
ATOM      8  C   UNL     1      51.644  -6.203 -55.034  1.00  0.00    -0.000 C 
BRANCH   8   9
ATOM      9  C   UNL     1      51.662  -5.937 -56.543  1.00  0.00    -0.003 C 
ATOM     10  C   UNL     1      50.710  -4.804 -56.914  1.00  0.00     0.004 C 
ENDBRANCH   8   9
ENDBRANCH   7   8
ENDBRANCH   1   7
TORSDOF 6
ENDMDL
MODEL 9
REMARK VINA RESULT:    -3.231      1.770      2.648
REMARK INTER + INTRA:          -4.838
REMARK INTER:                  -4.540
REMARK INTRA:                  -0.298
REMARK UNBOUND:                -0.473
REMARK SMILES CCCCCCCC(=O)[O-]
REMARK SMILES IDX 5 1 6 2 7 3 8 4 9 5 10 6 4 7 3 8 2 9 1 10
REMARK H PARENT
REMARK Flexibility Score: inf
ROOT
ATOM      1  C   UNL     1      50.955  -5.828 -57.124  1.00  0.00     0.000 C 
ENDROOT
BRANCH   1   2
ATOM      2  C   UNL     1      52.470  -5.877 -57.347  1.00  0.00     0.006 C 
BRANCH   2   3
ATOM      3  C   UNL     1      52.855  -5.198 -58.663  1.00  0.00     0.053 C 
BRANCH   3   4
ATOM      4  C   UNL     1      53.899  -4.152 -58.429  1.00  0.00     0.041 C 
ATOM      5  O   UNL     1      53.566  -3.002 -58.037  1.00  0.00    -0.550 OA
ATOM      6  O   UNL     1      55.243  -4.460 -58.596  1.00  0.00    -0.550 OA
ENDBRANCH   3   4
ENDBRANCH   2   3
ENDBRANCH   1   2
BRANCH   1   7
ATOM      7  C   UNL     1      50.590  -4.807 -56.040  1.00  0.00     0.000 C 
BRANCH   7   8
ATOM      8  C   UNL     1      50.693  -5.428 -54.641  1.00  0.00    -0.000 C 
BRANCH   8   9
ATOM      9  C   UNL     1      49.479  -6.316 -54.344  1.00  0.00    -0.003 C 
ATOM     10  C   UNL     1      49.901  -7.761 -54.093  1.00  0.00     0.004 C 
ENDBRANCH   8   9
ENDBRANCH   7   8
ENDBRANCH   1   7
TORSDOF 6
ENDMDL
