MODEL 1
REMARK VINA RESULT:    -3.786      0.000      0.000
REMARK INTER + INTRA:          -7.248
REMARK INTER:                  -5.999
REMARK INTRA:                  -1.249
REMARK UNBOUND:                -1.249
REMARK SMILES CCCCCCCCCCCC(=O)[O-]
REMARK SMILES IDX 7 1 8 2 9 3 10 4 11 5 12 6 13 7 14 8 6 9 5 10 4 11 3 12 2 13
REMARK SMILES IDX 1 14
REMARK H PARENT
REMARK Flexibility Score: inf
ROOT
ATOM      1  C   UNL     1      17.599  20.795  23.417  1.00  0.00     0.000 C 
ENDROOT
BRANCH   1   2
ATOM      2  C   UNL     1      17.358  22.314  23.398  1.00  0.00     0.000 C 
BRANCH   2   3
ATOM      3  C   UNL     1      16.191  22.736  24.307  1.00  0.00     0.000 C 
BRANCH   3   4
ATOM      4  C   UNL     1      15.906  24.248  24.258  1.00  0.00     0.006 C 
BRANCH   4   5
ATOM      5  C   UNL     1      14.431  24.614  24.509  1.00  0.00     0.053 C 
BRANCH   5   6
ATOM      6  C   UNL     1      14.228  25.311  25.821  1.00  0.00     0.041 C 
ATOM      7  O   UNL     1      14.162  26.567  25.866  1.00  0.00    -0.550 OA
ATOM      8  O   UNL     1      14.073  24.573  26.988  1.00  0.00    -0.550 OA
ENDBRANCH   5   6
ENDBRANCH   4   5
ENDBRANCH   3   4
ENDBRANCH   2   3
ENDBRANCH   1   2
BRANCH   1   9
ATOM      9  C   UNL     1      17.751  20.208  22.003  1.00  0.00     0.000 C 
BRANCH   9  10
ATOM     10  C   UNL     1      16.784  19.041  21.741  1.00  0.00    -0.000 C 
BRANCH  10  11
ATOM     11  C   UNL     1      15.441  19.208  22.467  1.00  0.00    -0.000 C 
BRANCH  11  12
ATOM     12  C   UNL     1      14.368  19.752  21.518  1.00  0.00    -0.000 C 
BRANCH  12  13
ATOM     13  C   UNL     1      14.060  21.224  21.819  1.00  0.00    -0.003 C 
ATOM     14  C   UNL     1      14.669  22.142  20.763  1.00  0.00     0.004 C 
ENDBRANCH  12  13
ENDBRANCH  11  12
ENDBRANCH  10  11
ENDBRANCH   9  10
ENDBRANCH   1   9
TORSDOF 10
ENDMDL
MODEL 2
REMARK VINA RESULT:    -3.729      3.189      4.988
REMARK INTER + INTRA:          -7.158
REMARK INTER:                  -6.023
REMARK INTRA:                  -1.134
REMARK UNBOUND:                -1.249
REMARK SMILES CCCCCCCCCCCC(=O)[O-]
REMARK SMILES IDX 7 1 8 2 9 3 10 4 11 5 12 6 13 7 14 8 6 9 5 10 4 11 3 12 2 13
REMARK SMILES IDX 1 14
REMARK H PARENT
REMARK Flexibility Score: inf
ROOT
ATOM      1  C   UNL     1      14.239  21.469  22.917  1.00  0.00     0.000 C 
ENDROOT
BRANCH   1   2
ATOM      2  C   UNL     1      14.572  22.599  21.928  1.00  0.00     0.000 C 
BRANCH   2   3
ATOM      3  C   UNL     1      14.666  22.101  20.476  1.00  0.00     0.000 C 
BRANCH   3   4
ATOM      4  C   UNL     1      14.087  23.100  19.458  1.00  0.00     0.006 C 
BRANCH   4   5
ATOM      5  C   UNL     1      12.616  22.832  19.087  1.00  0.00     0.053 C 
BRANCH   5   6
ATOM      6  C   UNL     1      11.728  24.005  19.373  1.00  0.00     0.041 C 
ATOM      7  O   UNL     1      11.813  24.609  20.475  1.00  0.00    -0.550 OA
ATOM      8  O   UNL     1      10.834  24.456  18.410  1.00  0.00    -0.550 OA
ENDBRANCH   5   6
ENDBRANCH   4   5
ENDBRANCH   3   4
ENDBRANCH   2   3
ENDBRANCH   1   2
BRANCH   1   9
ATOM      9  C   UNL     1      15.296  21.329  24.026  1.00  0.00     0.000 C 
BRANCH   9  10
ATOM     10  C   UNL     1      16.695  21.776  23.568  1.00  0.00    -0.000 C 
BRANCH  10  11
ATOM     11  C   UNL     1      17.625  20.593  23.260  1.00  0.00    -0.000 C 
BRANCH  11  12
ATOM     12  C   UNL     1      17.656  20.297  21.756  1.00  0.00    -0.000 C 
BRANCH  12  13
ATOM     13  C   UNL     1      17.390  18.812  21.482  1.00  0.00    -0.003 C 
ATOM     14  C   UNL     1      15.907  18.481  21.626  1.00  0.00     0.004 C 
ENDBRANCH  12  13
ENDBRANCH  11  12
ENDBRANCH  10  11
ENDBRANCH   9  10
ENDBRANCH   1   9
TORSDOF 10
ENDMDL
MODEL 3
REMARK VINA RESULT:    -3.711      3.390      5.398
REMARK INTER + INTRA:          -7.130
REMARK INTER:                  -5.608
REMARK INTRA:                  -1.522
REMARK UNBOUND:                -1.249
REMARK SMILES CCCCCCCCCCCC(=O)[O-]
REMARK SMILES IDX 7 1 8 2 9 3 10 4 11 5 12 6 13 7 14 8 6 9 5 10 4 11 3 12 2 13
REMARK SMILES IDX 1 14
REMARK H PARENT
REMARK Flexibility Score: inf
ROOT
ATOM      1  C   UNL     1      14.030  21.151  24.668  1.00  0.00     0.000 C 
ENDROOT
BRANCH   1   2
ATOM      2  C   UNL     1      13.807  20.085  23.582  1.00  0.00     0.000 C 
BRANCH   2   3
ATOM      3  C   UNL     1      14.102  18.662  24.086  1.00  0.00     0.000 C 
BRANCH   3   4
ATOM      4  C   UNL     1      15.284  18.604  25.069  1.00  0.00     0.006 C 
BRANCH   4   5
ATOM      5  C   UNL     1      15.029  17.716  26.302  1.00  0.00     0.053 C 
BRANCH   5   6
ATOM      6  C   UNL     1      13.659  17.911  26.877  1.00  0.00     0.041 C 
ATOM      7  O   UNL     1      12.822  16.971  26.851  1.00  0.00    -0.550 OA
ATOM      8  O   UNL     1      13.318  19.118  27.477  1.00  0.00    -0.550 OA
ENDBRANCH   5   6
ENDBRANCH   4   5
ENDBRANCH   3   4
ENDBRANCH   2   3
ENDBRANCH   1   2
BRANCH   1   9
ATOM      9  C   UNL     1      14.521  22.488  24.085  1.00  0.00     0.000 C 
BRANCH   9  10
ATOM     10  C   UNL     1      15.647  22.305  23.055  1.00  0.00    -0.000 C 
BRANCH  10  11
ATOM     11  C   UNL     1      17.019  22.083  23.708  1.00  0.00    -0.000 C 
BRANCH  11  12
ATOM     12  C   UNL     1      17.615  20.734  23.288  1.00  0.00    -0.000 C 
BRANCH  12  13
ATOM     13  C   UNL     1      17.165  20.349  21.874  1.00  0.00    -0.003 C 
ATOM     14  C   UNL     1      17.234  18.839  21.666  1.00  0.00     0.004 C 
ENDBRANCH  12  13
ENDBRANCH  11  12
ENDBRANCH  10  11
ENDBRANCH   9  10
ENDBRANCH   1   9
TORSDOF 10
ENDMDL
MODEL 4
REMARK VINA RESULT:    -3.692     10.442     11.787
REMARK INTER + INTRA:          -7.099
REMARK INTER:                  -6.488
REMARK INTRA:                  -0.611
REMARK UNBOUND:                -1.249
REMARK SMILES CCCCCCCCCCCC(=O)[O-]
REMARK SMILES IDX 7 1 8 2 9 3 10 4 11 5 12 6 13 7 14 8 6 9 5 10 4 11 3 12 2 13
REMARK SMILES IDX 1 14
REMARK H PARENT
REMARK Flexibility Score: inf
ROOT
ATOM      1  C   UNL     1      11.676  15.846  31.350  1.00  0.00     0.000 C 
ENDROOT
BRANCH   1   2
ATOM      2  C   UNL     1      10.647  15.936  32.489  1.00  0.00     0.000 C 
BRANCH   2   3
ATOM      3  C   UNL     1       9.515  14.904  32.343  1.00  0.00     0.000 C 
BRANCH   3   4
ATOM      4  C   UNL     1       9.985  13.582  31.709  1.00  0.00     0.006 C 
BRANCH   4   5
ATOM      5  C   UNL     1       9.163  13.152  30.479  1.00  0.00     0.053 C 
BRANCH   5   6
ATOM      6  C   UNL     1       7.752  12.787  30.830  1.00  0.00     0.041 C 
ATOM      7  O   UNL     1       7.521  11.799  31.576  1.00  0.00    -0.550 OA
ATOM      8  O   UNL     1       6.694  13.558  30.366  1.00  0.00    -0.550 OA
ENDBRANCH   5   6
ENDBRANCH   4   5
ENDBRANCH   3   4
ENDBRANCH   2   3
ENDBRANCH   1   2
BRANCH   1   9
ATOM      9  C   UNL     1      11.499  16.965  30.310  1.00  0.00     0.000 C 
BRANCH   9  10
ATOM     10  C   UNL     1      11.878  16.516  28.889  1.00  0.00    -0.000 C 
BRANCH  10  11
ATOM     11  C   UNL     1      11.533  17.567  27.823  1.00  0.00    -0.000 C 
BRANCH  11  12
ATOM     12  C   UNL     1      12.804  18.194  27.239  1.00  0.00    -0.000 C 
BRANCH  12  13
ATOM     13  C   UNL     1      13.806  17.113  26.813  1.00  0.00    -0.003 C 
ATOM     14  C   UNL     1      15.166  17.722  26.482  1.00  0.00     0.004 C 
ENDBRANCH  12  13
ENDBRANCH  11  12
ENDBRANCH  10  11
ENDBRANCH   9  10
ENDBRANCH   1   9
TORSDOF 10
ENDMDL
MODEL 5
REMARK VINA RESULT:    -3.682      4.513      6.088
REMARK INTER + INTRA:          -7.082
REMARK INTER:                  -6.246
REMARK INTRA:                  -0.836
REMARK UNBOUND:                -1.249
REMARK SMILES CCCCCCCCCCCC(=O)[O-]
REMARK SMILES IDX 7 1 8 2 9 3 10 4 11 5 12 6 13 7 14 8 6 9 5 10 4 11 3 12 2 13
REMARK SMILES IDX 1 14
REMARK H PARENT
REMARK Flexibility Score: inf
ROOT
ATOM      1  C   UNL     1      14.166  17.904  23.850  1.00  0.00     0.000 C 
ENDROOT
BRANCH   1   2
ATOM      2  C   UNL     1      15.190  18.488  24.837  1.00  0.00     0.000 C 
BRANCH   2   3
ATOM      3  C   UNL     1      15.025  17.925  26.259  1.00  0.00     0.000 C 
BRANCH   3   4
ATOM      4  C   UNL     1      13.579  18.017  26.778  1.00  0.00     0.006 C 
BRANCH   4   5
ATOM      5  C   UNL     1      12.980  16.664  27.203  1.00  0.00     0.053 C 
BRANCH   5   6
ATOM      6  C   UNL     1      11.946  16.805  28.279  1.00  0.00     0.041 C 
ATOM      7  O   UNL     1      11.956  16.030  29.272  1.00  0.00    -0.550 OA
ATOM      8  O   UNL     1      10.995  17.815  28.207  1.00  0.00    -0.550 OA
ENDBRANCH   5   6
ENDBRANCH   4   5
ENDBRANCH   3   4
ENDBRANCH   2   3
ENDBRANCH   1   2
BRANCH   1   9
ATOM      9  C   UNL     1      14.828  17.343  22.580  1.00  0.00     0.000 C 
BRANCH   9  10
ATOM     10  C   UNL     1      15.357  18.449  21.652  1.00  0.00    -0.000 C 
BRANCH  10  11
ATOM     11  C   UNL     1      16.840  18.268  21.297  1.00  0.00    -0.000 C 
BRANCH  11  12
ATOM     12  C   UNL     1      17.699  19.356  21.951  1.00  0.00    -0.000 C 
BRANCH  12  13
ATOM     13  C   UNL     1      16.912  20.664  22.099  1.00  0.00    -0.003 C 
ATOM     14  C   UNL     1      17.232  21.354  23.422  1.00  0.00     0.004 C 
ENDBRANCH  12  13
ENDBRANCH  11  12
ENDBRANCH  10  11
ENDBRANCH   9  10
ENDBRANCH   1   9
TORSDOF 10
ENDMDL
MODEL 6
REMARK VINA RESULT:    -3.638      1.830      2.838
REMARK INTER + INTRA:          -7.014
REMARK INTER:                  -5.661
REMARK INTRA:                  -1.353
REMARK UNBOUND:                -1.249
REMARK SMILES CCCCCCCCCCCC(=O)[O-]
REMARK SMILES IDX 7 1 8 2 9 3 10 4 11 5 12 6 13 7 14 8 6 9 5 10 4 11 3 12 2 13
REMARK SMILES IDX 1 14
REMARK H PARENT
REMARK Flexibility Score: inf
ROOT
ATOM      1  C   UNL     1      16.755  19.601  21.478  1.00  0.00     0.000 C 
ENDROOT
BRANCH   1   2
ATOM      2  C   UNL     1      17.840  20.374  22.247  1.00  0.00     0.000 C 
BRANCH   2   3
ATOM      3  C   UNL     1      17.252  21.276  23.346  1.00  0.00     0.000 C 
BRANCH   3   4
ATOM      4  C   UNL     1      15.950  21.976  22.918  1.00  0.00     0.006 C 
BRANCH   4   5
ATOM      5  C   UNL     1      15.044  22.384  24.094  1.00  0.00     0.053 C 
BRANCH   5   6
ATOM      6  C   UNL     1      14.880  23.870  24.205  1.00  0.00     0.041 C 
ATOM      7  O   UNL     1      13.737  24.369  24.383  1.00  0.00    -0.550 OA
ATOM      8  O   UNL     1      15.991  24.702  24.149  1.00  0.00    -0.550 OA
ENDBRANCH   5   6
ENDBRANCH   4   5
ENDBRANCH   3   4
ENDBRANCH   2   3
ENDBRANCH   1   2
BRANCH   1   9
ATOM      9  C   UNL     1      17.025  18.087  21.446  1.00  0.00     0.000 C 
BRANCH   9  10
ATOM     10  C   UNL     1      15.764  17.269  21.122  1.00  0.00    -0.000 C 
BRANCH  10  11
ATOM     11  C   UNL     1      14.471  17.971  21.563  1.00  0.00    -0.000 C 
BRANCH  11  12
ATOM     12  C   UNL     1      14.062  17.533  22.974  1.00  0.00    -0.000 C 
BRANCH  12  13
ATOM     13  C   UNL     1      14.021  18.730  23.932  1.00  0.00    -0.003 C 
ATOM     14  C   UNL     1      15.162  18.667  24.943  1.00  0.00     0.004 C 
ENDBRANCH  12  13
ENDBRANCH  11  12
ENDBRANCH  10  11
ENDBRANCH   9  10
ENDBRANCH   1   9
TORSDOF 10
ENDMDL
MODEL 7
REMARK VINA RESULT:    -3.637      7.139      8.094
REMARK INTER + INTRA:          -7.012
REMARK INTER:                  -6.003
REMARK INTRA:                  -1.009
REMARK UNBOUND:                -1.249
REMARK SMILES CCCCCCCCCCCC(=O)[O-]
REMARK SMILES IDX 7 1 8 2 9 3 10 4 11 5 12 6 13 7 14 8 6 9 5 10 4 11 3 12 2 13
REMARK SMILES IDX 1 14
REMARK H PARENT
REMARK Flexibility Score: inf
ROOT
ATOM      1  C   UNL     1      11.831  15.746  30.695  1.00  0.00     0.000 C 
ENDROOT
BRANCH   1   2
ATOM      2  C   UNL     1      11.858  16.983  31.608  1.00  0.00     0.000 C 
BRANCH   2   3
ATOM      3  C   UNL     1      10.973  18.124  31.080  1.00  0.00     0.000 C 
BRANCH   3   4
ATOM      4  C   UNL     1      11.781  19.362  30.648  1.00  0.00     0.006 C 
BRANCH   4   5
ATOM      5  C   UNL     1      11.010  20.317  29.718  1.00  0.00     0.053 C 
BRANCH   5   6
ATOM      6  C   UNL     1      11.451  21.742  29.865  1.00  0.00     0.041 C 
ATOM      7  O   UNL     1      11.870  22.382  28.864  1.00  0.00    -0.550 OA
ATOM      8  O   UNL     1      11.366  22.377  31.098  1.00  0.00    -0.550 OA
ENDBRANCH   5   6
ENDBRANCH   4   5
ENDBRANCH   3   4
ENDBRANCH   2   3
ENDBRANCH   1   2
BRANCH   1   9
ATOM      9  C   UNL     1      11.106  16.015  29.365  1.00  0.00     0.000 C 
BRANCH   9  10
ATOM     10  C   UNL     1      12.079  16.217  28.191  1.00  0.00    -0.000 C 
BRANCH  10  11
ATOM     11  C   UNL     1      11.790  17.496  27.393  1.00  0.00    -0.000 C 
BRANCH  11  12
ATOM     12  C   UNL     1      13.063  18.331  27.213  1.00  0.00    -0.000 C 
BRANCH  12  13
ATOM     13  C   UNL     1      13.952  17.749  26.108  1.00  0.00    -0.003 C 
ATOM     14  C   UNL     1      15.415  17.706  26.541  1.00  0.00     0.004 C 
ENDBRANCH  12  13
ENDBRANCH  11  12
ENDBRANCH  10  11
ENDBRANCH   9  10
ENDBRANCH   1   9
TORSDOF 10
ENDMDL
MODEL 8
REMARK VINA RESULT:    -3.587      2.804      4.059
REMARK INTER + INTRA:          -6.932
REMARK INTER:                  -6.089
REMARK INTRA:                  -0.843
REMARK UNBOUND:                -1.249
REMARK SMILES CCCCCCCCCCCC(=O)[O-]
REMARK SMILES IDX 7 1 8 2 9 3 10 4 11 5 12 6 13 7 14 8 6 9 5 10 4 11 3 12 2 13
REMARK SMILES IDX 1 14
REMARK H PARENT
REMARK Flexibility Score: inf
ROOT
ATOM      1  C   UNL     1      14.945  19.906  22.288  1.00  0.00     0.000 C 
ENDROOT
BRANCH   1   2
ATOM      2  C   UNL     1      16.069  20.592  21.494  1.00  0.00     0.000 C 
BRANCH   2   3
ATOM      3  C   UNL     1      17.369  20.720  22.306  1.00  0.00     0.000 C 
BRANCH   3   4
ATOM      4  C   UNL     1      17.140  21.264  23.727  1.00  0.00     0.006 C 
BRANCH   4   5
ATOM      5  C   UNL     1      17.146  22.802  23.817  1.00  0.00     0.053 C 
BRANCH   5   6
ATOM      6  C   UNL     1      15.783  23.367  24.080  1.00  0.00     0.041 C 
ATOM      7  O   UNL     1      14.917  23.384  23.165  1.00  0.00    -0.550 OA
ATOM      8  O   UNL     1      15.454  23.840  25.344  1.00  0.00    -0.550 OA
ENDBRANCH   5   6
ENDBRANCH   4   5
ENDBRANCH   3   4
ENDBRANCH   2   3
ENDBRANCH   1   2
BRANCH   1   9
ATOM      9  C   UNL     1      15.215  18.408  22.513  1.00  0.00     0.000 C 
BRANCH   9  10
ATOM     10  C   UNL     1      14.614  17.890  23.830  1.00  0.00    -0.000 C 
BRANCH  10  11
ATOM     11  C   UNL     1      15.161  18.626  25.063  1.00  0.00    -0.000 C 
BRANCH  11  12
ATOM     12  C   UNL     1      15.148  17.716  26.296  1.00  0.00    -0.000 C 
BRANCH  12  13
ATOM     13  C   UNL     1      13.718  17.489  26.799  1.00  0.00    -0.003 C 
ATOM     14  C   UNL     1      13.075  18.800  27.242  1.00  0.00     0.004 C 
ENDBRANCH  12  13
ENDBRANCH  11  12
ENDBRANCH  10  11
ENDBRANCH   9  10
ENDBRANCH   1   9
TORSDOF 10
ENDMDL
MODEL 9
REMARK VINA RESULT:    -3.582      6.886      8.510
REMARK INTER + INTRA:          -6.924
REMARK INTER:                  -5.828
REMARK INTRA:                  -1.096
REMARK UNBOUND:                -1.249
REMARK SMILES CCCCCCCCCCCC(=O)[O-]
REMARK SMILES IDX 7 1 8 2 9 3 10 4 11 5 12 6 13 7 14 8 6 9 5 10 4 11 3 12 2 13
REMARK SMILES IDX 1 14
REMARK H PARENT
REMARK Flexibility Score: inf
ROOT
ATOM      1  C   UNL     1      11.266  16.319  28.848  1.00  0.00     0.000 C 
ENDROOT
BRANCH   1   2
ATOM      2  C   UNL     1      12.412  16.282  27.824  1.00  0.00     0.000 C 
BRANCH   2   3
ATOM      3  C   UNL     1      12.439  17.530  26.925  1.00  0.00     0.000 C 
BRANCH   3   4
ATOM      4  C   UNL     1      13.724  18.361  27.086  1.00  0.00     0.006 C 
BRANCH   4   5
ATOM      5  C   UNL     1      14.905  17.857  26.236  1.00  0.00     0.053 C 
BRANCH   5   6
ATOM      6  C   UNL     1      14.920  18.454  24.862  1.00  0.00     0.041 C 
ATOM      7  O   UNL     1      15.116  19.689  24.710  1.00  0.00    -0.550 OA
ATOM      8  O   UNL     1      14.755  17.643  23.745  1.00  0.00    -0.550 OA
ENDBRANCH   5   6
ENDBRANCH   4   5
ENDBRANCH   3   4
ENDBRANCH   2   3
ENDBRANCH   1   2
BRANCH   1   9
ATOM      9  C   UNL     1      11.749  16.031  30.280  1.00  0.00     0.000 C 
BRANCH   9  10
ATOM     10  C   UNL     1      11.637  17.258  31.200  1.00  0.00    -0.000 C 
BRANCH  10  11
ATOM     11  C   UNL     1      11.061  18.488  30.482  1.00  0.00    -0.000 C 
BRANCH  11  12
ATOM     12  C   UNL     1      12.092  19.621  30.423  1.00  0.00    -0.000 C 
BRANCH  12  13
ATOM     13  C   UNL     1      11.747  20.622  29.314  1.00  0.00    -0.003 C 
ATOM     14  C   UNL     1      12.936  21.523  28.994  1.00  0.00     0.004 C 
ENDBRANCH  12  13
ENDBRANCH  11  12
ENDBRANCH  10  11
ENDBRANCH   9  10
ENDBRANCH   1   9
TORSDOF 10
ENDMDL
