MODEL 1
REMARK VINA RESULT:    -6.048      0.000      0.000
REMARK INTER + INTRA:          -6.225
REMARK INTER:                  -6.225
REMARK INTRA:                   0.000
REMARK UNBOUND:                 0.000
REMARK SMILES O=c1ccc2ccc(O)cc2o1
REMARK SMILES IDX 6 1 7 2 8 3 10 4 11 5 5 6 4 7 3 8 2 9 1 10 12 11 9 12
REMARK H PARENT 9 13
REMARK Flexibility Score: inf
ROOT
ATOM      1  C   UNL     1     -33.420   9.899 -38.892  1.00  0.00     0.016 A 
ATOM      2  C   UNL     1     -33.995  10.914 -39.665  1.00  0.00     0.047 A 
ATOM      3  C   UNL     1     -34.183  12.192 -39.128  1.00  0.00     0.119 A 
ATOM      4  C   UNL     1     -33.793  12.461 -37.807  1.00  0.00     0.094 A 
ATOM      5  C   UNL     1     -33.218  11.453 -37.026  1.00  0.00     0.142 A 
ATOM      6  C   UNL     1     -33.030  10.164 -37.572  1.00  0.00     0.018 A 
ATOM      7  C   UNL     1     -32.452   9.177 -36.767  1.00  0.00     0.019 A 
ATOM      8  C   UNL     1     -32.081   9.491 -35.460  1.00  0.00     0.094 A 
ATOM      9  C   UNL     1     -32.298  10.789 -34.986  1.00  0.00     0.336 A 
ATOM     10  O   UNL     1     -31.970  11.091 -33.809  1.00  0.00    -0.246 OA
ATOM     11  O   UNL     1     -32.850  11.710 -35.773  1.00  0.00    -0.423 OA
ENDROOT
BRANCH   3  12
ATOM     12  O   UNL     1     -34.756  13.190 -39.914  1.00  0.00    -0.508 OA
ATOM     13  H   UNL     1     -34.196  13.763 -40.533  1.00  0.00     0.293 HD
ENDBRANCH   3  12
TORSDOF 1
ENDMDL
MODEL 2
REMARK VINA RESULT:    -6.041      1.052      4.244
REMARK INTER + INTRA:          -6.218
REMARK INTER:                  -6.218
REMARK INTRA:                   0.000
REMARK UNBOUND:                 0.000
REMARK SMILES O=c1ccc2ccc(O)cc2o1
REMARK SMILES IDX 6 1 7 2 8 3 10 4 11 5 5 6 4 7 3 8 2 9 1 10 12 11 9 12
REMARK H PARENT 9 13
REMARK Flexibility Score: inf
ROOT
ATOM      1  C   UNL     1     -32.216   9.696 -36.059  1.00  0.00     0.016 A 
ATOM      2  C   UNL     1     -32.120  10.172 -34.747  1.00  0.00     0.047 A 
ATOM      3  C   UNL     1     -32.621  11.436 -34.414  1.00  0.00     0.119 A 
ATOM      4  C   UNL     1     -33.223  12.232 -35.400  1.00  0.00     0.094 A 
ATOM      5  C   UNL     1     -33.323  11.765 -36.714  1.00  0.00     0.142 A 
ATOM      6  C   UNL     1     -32.817  10.490 -37.047  1.00  0.00     0.018 A 
ATOM      7  C   UNL     1     -32.931  10.050 -38.370  1.00  0.00     0.019 A 
ATOM      8  C   UNL     1     -33.537  10.877 -39.315  1.00  0.00     0.094 A 
ATOM      9  C   UNL     1     -34.016  12.128 -38.914  1.00  0.00     0.336 A 
ATOM     10  O   UNL     1     -34.566  12.889 -39.753  1.00  0.00    -0.246 OA
ATOM     11  O   UNL     1     -33.894  12.523 -37.648  1.00  0.00    -0.423 OA
ENDROOT
BRANCH   3  12
ATOM     12  O   UNL     1     -32.517  11.892 -33.101  1.00  0.00    -0.508 OA
ATOM     13  H   UNL     1     -32.200  11.285 -32.354  1.00  0.00     0.293 HD
ENDBRANCH   3  12
TORSDOF 1
ENDMDL
MODEL 3
REMARK VINA RESULT:    -5.872      1.681      2.260
REMARK INTER + INTRA:          -6.043
REMARK INTER:                  -6.043
REMARK INTRA:                   0.000
REMARK UNBOUND:                 0.000
REMARK SMILES O=c1ccc2ccc(O)cc2o1
REMARK SMILES IDX 6 1 7 2 8 3 10 4 11 5 5 6 4 7 3 8 2 9 1 10 12 11 9 12
REMARK H PARENT 9 13
REMARK Flexibility Score: inf
ROOT
ATOM      1  C   UNL     1     -31.700   9.036 -37.074  1.00  0.00     0.016 A 
ATOM      2  C   UNL     1     -31.888   9.074 -38.460  1.00  0.00     0.047 A 
ATOM      3  C   UNL     1     -32.593  10.129 -39.049  1.00  0.00     0.119 A 
ATOM      4  C   UNL     1     -33.115  11.156 -38.249  1.00  0.00     0.094 A 
ATOM      5  C   UNL     1     -32.932  11.127 -36.863  1.00  0.00     0.142 A 
ATOM      6  C   UNL     1     -32.220  10.060 -36.271  1.00  0.00     0.018 A 
ATOM      7  C   UNL     1     -32.054  10.058 -34.882  1.00  0.00     0.019 A 
ATOM      8  C   UNL     1     -32.591  11.101 -34.128  1.00  0.00     0.094 A 
ATOM      9  C   UNL     1     -33.285  12.124 -34.781  1.00  0.00     0.336 A 
ATOM     10  O   UNL     1     -33.777  13.074 -34.118  1.00  0.00    -0.246 OA
ATOM     11  O   UNL     1     -33.429  12.102 -36.105  1.00  0.00    -0.423 OA
ENDROOT
BRANCH   3  12
ATOM     12  O   UNL     1     -32.769  10.149 -40.432  1.00  0.00    -0.508 OA
ATOM     13  H   UNL     1     -32.907   9.296 -40.960  1.00  0.00     0.293 HD
ENDBRANCH   3  12
TORSDOF 1
ENDMDL
MODEL 4
REMARK VINA RESULT:    -5.719      1.772      3.963
REMARK INTER + INTRA:          -5.886
REMARK INTER:                  -5.886
REMARK INTRA:                   0.000
REMARK UNBOUND:                 0.000
REMARK SMILES O=c1ccc2ccc(O)cc2o1
REMARK SMILES IDX 6 1 7 2 8 3 10 4 11 5 5 6 4 7 3 8 2 9 1 10 12 11 9 12
REMARK H PARENT 9 13
REMARK Flexibility Score: inf
ROOT
ATOM      1  C   UNL     1     -31.976   9.976 -35.125  1.00  0.00     0.016 A 
ATOM      2  C   UNL     1     -32.517  11.009 -34.352  1.00  0.00     0.047 A 
ATOM      3  C   UNL     1     -33.337  11.978 -34.941  1.00  0.00     0.119 A 
ATOM      4  C   UNL     1     -33.620  11.917 -36.313  1.00  0.00     0.094 A 
ATOM      5  C   UNL     1     -33.083  10.888 -37.094  1.00  0.00     0.142 A 
ATOM      6  C   UNL     1     -32.256   9.911 -36.497  1.00  0.00     0.018 A 
ATOM      7  C   UNL     1     -31.735   8.895 -37.304  1.00  0.00     0.019 A 
ATOM      8  C   UNL     1     -32.043   8.875 -38.664  1.00  0.00     0.094 A 
ATOM      9  C   UNL     1     -32.869   9.875 -39.187  1.00  0.00     0.336 A 
ATOM     10  O   UNL     1     -33.159   9.875 -40.412  1.00  0.00    -0.246 OA
ATOM     11  O   UNL     1     -33.352  10.832 -38.397  1.00  0.00    -0.423 OA
ENDROOT
BRANCH   3  12
ATOM     12  O   UNL     1     -33.867  12.999 -34.153  1.00  0.00    -0.508 OA
ATOM     13  H   UNL     1     -34.847  13.018 -33.901  1.00  0.00     0.293 HD
ENDBRANCH   3  12
TORSDOF 1
ENDMDL
MODEL 5
REMARK VINA RESULT:    -5.654      1.731      4.629
REMARK INTER + INTRA:          -5.819
REMARK INTER:                  -5.819
REMARK INTRA:                   0.000
REMARK UNBOUND:                 0.000
REMARK SMILES O=c1ccc2ccc(O)cc2o1
REMARK SMILES IDX 6 1 7 2 8 3 10 4 11 5 5 6 4 7 3 8 2 9 1 10 12 11 9 12
REMARK H PARENT 9 13
REMARK Flexibility Score: inf
ROOT
ATOM      1  C   UNL     1     -33.594  12.528 -36.086  1.00  0.00     0.016 A 
ATOM      2  C   UNL     1     -33.219  11.933 -34.876  1.00  0.00     0.047 A 
ATOM      3  C   UNL     1     -32.879  10.576 -34.830  1.00  0.00     0.119 A 
ATOM      4  C   UNL     1     -32.912   9.806 -36.002  1.00  0.00     0.094 A 
ATOM      5  C   UNL     1     -33.285  10.391 -37.216  1.00  0.00     0.142 A 
ATOM      6  C   UNL     1     -33.628  11.760 -37.259  1.00  0.00     0.018 A 
ATOM      7  C   UNL     1     -33.997  12.318 -38.488  1.00  0.00     0.019 A 
ATOM      8  C   UNL     1     -34.016  11.512 -39.626  1.00  0.00     0.094 A 
ATOM      9  C   UNL     1     -33.664  10.163 -39.509  1.00  0.00     0.336 A 
ATOM     10  O   UNL     1     -33.674   9.420 -40.525  1.00  0.00    -0.246 OA
ATOM     11  O   UNL     1     -33.316   9.658 -38.327  1.00  0.00    -0.423 OA
ENDROOT
BRANCH   3  12
ATOM     12  O   UNL     1     -32.508  10.003 -33.615  1.00  0.00    -0.508 OA
ATOM     13  H   UNL     1     -32.749   9.046 -33.387  1.00  0.00     0.293 HD
ENDBRANCH   3  12
TORSDOF 1
ENDMDL
MODEL 6
REMARK VINA RESULT:    -5.352      1.878      4.449
REMARK INTER + INTRA:          -5.508
REMARK INTER:                  -5.508
REMARK INTRA:                   0.000
REMARK UNBOUND:                 0.000
REMARK SMILES O=c1ccc2ccc(O)cc2o1
REMARK SMILES IDX 6 1 7 2 8 3 10 4 11 5 5 6 4 7 3 8 2 9 1 10 12 11 9 12
REMARK H PARENT 9 13
REMARK Flexibility Score: inf
ROOT
ATOM      1  C   UNL     1     -33.625  12.751 -35.967  1.00  0.00     0.016 A 
ATOM      2  C   UNL     1     -33.257  12.582 -34.628  1.00  0.00     0.047 A 
ATOM      3  C   UNL     1     -32.551  11.443 -34.226  1.00  0.00     0.119 A 
ATOM      4  C   UNL     1     -32.209  10.462 -35.169  1.00  0.00     0.094 A 
ATOM      5  C   UNL     1     -32.573  10.621 -36.510  1.00  0.00     0.142 A 
ATOM      6  C   UNL     1     -33.285  11.772 -36.913  1.00  0.00     0.018 A 
ATOM      7  C   UNL     1     -33.635  11.903 -38.260  1.00  0.00     0.019 A 
ATOM      8  C   UNL     1     -33.274  10.902 -39.161  1.00  0.00     0.094 A 
ATOM      9  C   UNL     1     -32.569   9.789 -38.692  1.00  0.00     0.336 A 
ATOM     10  O   UNL     1     -32.234   8.875 -39.490  1.00  0.00    -0.246 OA
ATOM     11  O   UNL     1     -32.248   9.689 -37.403  1.00  0.00    -0.423 OA
ENDROOT
BRANCH   3  12
ATOM     12  O   UNL     1     -32.193  11.294 -32.888  1.00  0.00    -0.508 OA
ATOM     13  H   UNL     1     -31.582  10.545 -32.584  1.00  0.00     0.293 HD
ENDBRANCH   3  12
TORSDOF 1
ENDMDL
MODEL 7
REMARK VINA RESULT:    -5.191      1.651      2.408
REMARK INTER + INTRA:          -5.342
REMARK INTER:                  -5.342
REMARK INTRA:                   0.000
REMARK UNBOUND:                 0.000
REMARK SMILES O=c1ccc2ccc(O)cc2o1
REMARK SMILES IDX 6 1 7 2 8 3 10 4 11 5 5 6 4 7 3 8 2 9 1 10 12 11 9 12
REMARK H PARENT 9 13
REMARK Flexibility Score: inf
ROOT
ATOM      1  C   UNL     1     -34.174  12.267 -39.008  1.00  0.00     0.016 A 
ATOM      2  C   UNL     1     -34.515  11.453 -40.094  1.00  0.00     0.047 A 
ATOM      3  C   UNL     1     -34.427  10.060 -39.989  1.00  0.00     0.119 A 
ATOM      4  C   UNL     1     -33.995   9.474 -38.790  1.00  0.00     0.094 A 
ATOM      5  C   UNL     1     -33.652  10.279 -37.699  1.00  0.00     0.142 A 
ATOM      6  C   UNL     1     -33.742  11.684 -37.808  1.00  0.00     0.018 A 
ATOM      7  C   UNL     1     -33.391  12.463 -36.700  1.00  0.00     0.019 A 
ATOM      8  C   UNL     1     -32.968  11.835 -35.530  1.00  0.00     0.094 A 
ATOM      9  C   UNL     1     -32.903  10.439 -35.494  1.00  0.00     0.336 A 
ATOM     10  O   UNL     1     -32.522   9.854 -34.446  1.00  0.00    -0.246 OA
ATOM     11  O   UNL     1     -33.241   9.721 -36.563  1.00  0.00    -0.423 OA
ENDROOT
BRANCH   3  12
ATOM     12  O   UNL     1     -34.772   9.267 -41.082  1.00  0.00    -0.508 OA
ATOM     13  H   UNL     1     -35.173   9.668 -41.921  1.00  0.00     0.293 HD
ENDBRANCH   3  12
TORSDOF 1
ENDMDL
MODEL 8
REMARK VINA RESULT:    -5.142      2.049      3.114
REMARK INTER + INTRA:          -5.292
REMARK INTER:                  -5.292
REMARK INTRA:                   0.000
REMARK UNBOUND:                 0.000
REMARK SMILES O=c1ccc2ccc(O)cc2o1
REMARK SMILES IDX 6 1 7 2 8 3 10 4 11 5 5 6 4 7 3 8 2 9 1 10 12 11 9 12
REMARK H PARENT 9 13
REMARK Flexibility Score: inf
ROOT
ATOM      1  C   UNL     1     -33.592  11.508 -37.508  1.00  0.00     0.016 A 
ATOM      2  C   UNL     1     -32.910  10.562 -38.280  1.00  0.00     0.047 A 
ATOM      3  C   UNL     1     -31.866   9.813 -37.725  1.00  0.00     0.119 A 
ATOM      4  C   UNL     1     -31.499  10.011 -36.385  1.00  0.00     0.094 A 
ATOM      5  C   UNL     1     -32.174  10.955 -35.605  1.00  0.00     0.142 A 
ATOM      6  C   UNL     1     -33.227  11.709 -36.169  1.00  0.00     0.018 A 
ATOM      7  C   UNL     1     -33.883  12.645 -35.363  1.00  0.00     0.019 A 
ATOM      8  C   UNL     1     -33.483  12.807 -34.037  1.00  0.00     0.094 A 
ATOM      9  C   UNL     1     -32.432  12.026 -33.546  1.00  0.00     0.336 A 
ATOM     10  O   UNL     1     -32.056  12.158 -32.352  1.00  0.00    -0.246 OA
ATOM     11  O   UNL     1     -31.823  11.142 -34.334  1.00  0.00    -0.423 OA
ENDROOT
BRANCH   3  12
ATOM     12  O   UNL     1     -31.200   8.875 -38.511  1.00  0.00    -0.508 OA
ATOM     13  H   UNL     1     -30.431   8.328 -38.144  1.00  0.00     0.293 HD
ENDBRANCH   3  12
TORSDOF 1
ENDMDL
MODEL 9
REMARK VINA RESULT:    -4.443      1.354      4.457
REMARK INTER + INTRA:          -4.573
REMARK INTER:                  -4.573
REMARK INTRA:                   0.000
REMARK UNBOUND:                 0.000
REMARK SMILES O=c1ccc2ccc(O)cc2o1
REMARK SMILES IDX 6 1 7 2 8 3 10 4 11 5 5 6 4 7 3 8 2 9 1 10 12 11 9 12
REMARK H PARENT 9 13
REMARK Flexibility Score: inf
ROOT
ATOM      1  C   UNL     1     -33.339   9.484 -37.351  1.00  0.00     0.016 A 
ATOM      2  C   UNL     1     -33.001  10.384 -36.334  1.00  0.00     0.047 A 
ATOM      3  C   UNL     1     -33.227  11.755 -36.499  1.00  0.00     0.119 A 
ATOM      4  C   UNL     1     -33.797  12.233 -37.688  1.00  0.00     0.094 A 
ATOM      5  C   UNL     1     -34.139  11.342 -38.710  1.00  0.00     0.142 A 
ATOM      6  C   UNL     1     -33.909   9.958 -38.541  1.00  0.00     0.018 A 
ATOM      7  C   UNL     1     -34.261   9.092 -39.581  1.00  0.00     0.019 A 
ATOM      8  C   UNL     1     -34.824   9.613 -40.745  1.00  0.00     0.094 A 
ATOM      9  C   UNL     1     -35.023  10.994 -40.843  1.00  0.00     0.336 A 
ATOM     10  O   UNL     1     -35.530  11.484 -41.886  1.00  0.00    -0.246 OA
ATOM     11  O   UNL     1     -34.678  11.797 -39.838  1.00  0.00    -0.423 OA
ENDROOT
BRANCH   3  12
ATOM     12  O   UNL     1     -32.884  12.635 -35.474  1.00  0.00    -0.508 OA
ATOM     13  H   UNL     1     -32.287  12.347 -34.708  1.00  0.00     0.293 HD
ENDBRANCH   3  12
TORSDOF 1
ENDMDL
