MODEL 1
REMARK VINA RESULT:    -3.546      0.000      0.000
REMARK INTER + INTRA:          -4.708
REMARK INTER:                  -4.997
REMARK INTRA:                   0.289
REMARK UNBOUND:                 0.289
REMARK SMILES CC1=CCC(=C(C)C)C(=O)CC(C)=CCC1
REMARK SMILES IDX 12 1 14 2 13 3 15 4 16 5 2 6 1 7 3 8 11 10 9 11 10 12 5 13
REMARK SMILES IDX 6 14 7 15 8 16 4 17
REMARK H PARENT
REMARK Flexibility Score: 60.00
ROOT
ATOM      1  C   UNL     1      27.540  30.487 142.491  1.00  0.00    -0.070 C 
ATOM      2  C   UNL     1      28.628  29.875 141.952  1.00  0.00    -0.027 C 
ATOM      3  C   UNL     1      27.294  30.260 143.964  1.00  0.00     0.039 C 
ENDROOT
BRANCH   2   4
ATOM      4  C   UNL     1      29.163  30.027 140.548  1.00  0.00     0.032 C 
BRANCH   4   5
ATOM      5  C   UNL     1      28.246  29.472 139.447  1.00  0.00     0.034 C 
BRANCH   5   6
ATOM      6  C   UNL     1      27.820  30.468 138.382  1.00  0.00    -0.077 C 
ATOM      7  C   UNL     1      28.886  31.227 137.630  1.00  0.00     0.039 C 
ATOM      8  C   UNL     1      26.527  30.780 138.127  1.00  0.00    -0.023 CG0
ATOM      9  G   UNL     1      25.328  30.041 138.659  1.00  0.00     0.000 G0
ENDBRANCH   5   6
ENDBRANCH   4   5
ENDBRANCH   2   4
BRANCH   1  10
ATOM     10  C   UNL     1      26.489  31.276 141.716  1.00  0.00     0.111 C 
BRANCH  10  11
ATOM     11  C   UNL     1      25.325  30.478 141.199  1.00  0.00     0.163 C 
ATOM     12  O   UNL     1      24.903  29.489 141.858  1.00  0.00    -0.294 OA
BRANCH  11  13
ATOM     13  C   UNL     1      24.742  30.773 139.866  1.00  0.00    -0.002 C 
ATOM     14  C   UNL     1      23.693  31.636 139.760  1.00  0.00    -0.069 C 
ATOM     15  C   UNL     1      23.126  32.312 140.989  1.00  0.00     0.039 C 
ATOM     16  C   UNL     1      23.041  31.934 138.431  1.00  0.00     0.039 C 
BRANCH  13  17
ATOM     17  C   UNL     1      25.322  30.033 138.669  1.00  0.00     0.066 CG0
ATOM     18  G   UNL     1      26.519  30.776 138.135  1.00  0.00     0.000 G0
ENDBRANCH  13  17
ENDBRANCH  11  13
ENDBRANCH  10  11
ENDBRANCH   1  10
TORSDOF 0
ENDMDL
MODEL 2
REMARK VINA RESULT:    -3.540     11.344     12.270
REMARK INTER + INTRA:          -4.699
REMARK INTER:                  -4.997
REMARK INTRA:                   0.298
REMARK UNBOUND:                 0.289
REMARK SMILES CC1=CCC(=C(C)C)C(=O)CC(C)=CCC1
REMARK SMILES IDX 12 1 14 2 13 3 15 4 16 5 2 6 1 7 3 8 11 10 9 11 10 12 5 13
REMARK SMILES IDX 6 14 7 15 8 16 4 17
REMARK H PARENT
REMARK Flexibility Score: 60.00
ROOT
ATOM      1  C   UNL     1      27.091  44.419 142.860  1.00  0.00    -0.070 C 
ATOM      2  C   UNL     1      28.266  44.152 143.488  1.00  0.00    -0.027 C 
ATOM      3  C   UNL     1      27.105  45.529 141.837  1.00  0.00     0.039 C 
ENDROOT
BRANCH   2   4
ATOM      4  C   UNL     1      28.554  43.029 144.457  1.00  0.00     0.032 C 
BRANCH   4   5
ATOM      5  C   UNL     1      28.813  41.664 143.800  1.00  0.00     0.034 C 
BRANCH   5   6
ATOM      6  C   UNL     1      29.267  41.707 142.351  1.00  0.00    -0.077 C 
ATOM      7  C   UNL     1      30.663  42.190 142.042  1.00  0.00     0.039 C 
ATOM      8  C   UNL     1      28.455  41.419 141.306  1.00  0.00    -0.023 CG0
ATOM      9  G   UNL     1      27.091  40.788 141.406  1.00  0.00     0.000 G0
ENDBRANCH   5   6
ENDBRANCH   4   5
ENDBRANCH   2   4
BRANCH   1  10
ATOM     10  C   UNL     1      25.743  43.782 143.187  1.00  0.00     0.111 C 
BRANCH  10  11
ATOM     11  C   UNL     1      25.596  42.335 142.810  1.00  0.00     0.163 C 
ATOM     12  O   UNL     1      25.216  41.499 143.676  1.00  0.00    -0.294 OA
BRANCH  11  13
ATOM     13  C   UNL     1      26.004  41.862 141.463  1.00  0.00    -0.002 C 
ATOM     14  C   UNL     1      25.375  42.345 140.356  1.00  0.00    -0.069 C 
ATOM     15  C   UNL     1      24.274  43.375 140.484  1.00  0.00     0.039 C 
ATOM     16  C   UNL     1      25.727  41.861 138.969  1.00  0.00     0.039 C 
BRANCH  13  17
ATOM     17  C   UNL     1      27.086  40.794 141.395  1.00  0.00     0.066 CG0
ATOM     18  G   UNL     1      28.443  41.441 141.303  1.00  0.00     0.000 G0
ENDBRANCH  13  17
ENDBRANCH  11  13
ENDBRANCH  10  11
ENDBRANCH   1  10
TORSDOF 0
ENDMDL
MODEL 3
REMARK VINA RESULT:    -3.525     11.163     13.977
REMARK INTER + INTRA:          -4.678
REMARK INTER:                  -4.847
REMARK INTRA:                   0.169
REMARK UNBOUND:                 0.289
REMARK SMILES CC1=CCC(=C(C)C)C(=O)CC(C)=CCC1
REMARK SMILES IDX 12 1 14 2 13 3 15 4 16 5 2 6 1 7 3 8 11 10 9 11 10 12 5 13
REMARK SMILES IDX 6 14 7 15 8 16 4 17
REMARK H PARENT
REMARK Flexibility Score: 60.00
ROOT
ATOM      1  C   UNL     1      35.694  33.503 135.042  1.00  0.00    -0.070 C 
ATOM      2  C   UNL     1      36.097  33.029 133.834  1.00  0.00    -0.027 C 
ATOM      3  C   UNL     1      34.211  33.723 135.225  1.00  0.00     0.039 C 
ENDROOT
BRANCH   2   4
ATOM      4  C   UNL     1      37.492  32.613 133.430  1.00  0.00     0.032 C 
BRANCH   4   5
ATOM      5  C   UNL     1      38.390  33.763 132.946  1.00  0.00     0.034 C 
BRANCH   5   6
ATOM      6  C   UNL     1      39.734  33.886 133.642  1.00  0.00    -0.077 C 
ATOM      7  C   UNL     1      40.805  32.868 133.336  1.00  0.00     0.039 C 
ATOM      8  C   UNL     1      40.000  34.812 134.593  1.00  0.00    -0.023 CG0
ATOM      9  G   UNL     1      39.128  35.992 134.934  1.00  0.00     0.000 G0
ENDBRANCH   5   6
ENDBRANCH   4   5
ENDBRANCH   2   4
BRANCH   1  10
ATOM     10  C   UNL     1      36.616  33.944 136.176  1.00  0.00     0.111 C 
BRANCH  10  11
ATOM     11  C   UNL     1      37.000  35.397 136.177  1.00  0.00     0.163 C 
ATOM     12  O   UNL     1      36.112  36.278 136.017  1.00  0.00    -0.294 OA
BRANCH  11  13
ATOM     13  C   UNL     1      38.427  35.798 136.249  1.00  0.00    -0.002 C 
ATOM     14  C   UNL     1      39.011  36.015 137.460  1.00  0.00    -0.069 C 
ATOM     15  C   UNL     1      38.222  35.833 138.738  1.00  0.00     0.039 C 
ATOM     16  C   UNL     1      40.448  36.466 137.580  1.00  0.00     0.039 C 
BRANCH  13  17
ATOM     17  C   UNL     1      39.162  36.009 134.932  1.00  0.00     0.066 CG0
ATOM     18  G   UNL     1      40.003  34.801 134.613  1.00  0.00     0.000 G0
ENDBRANCH  13  17
ENDBRANCH  11  13
ENDBRANCH  10  11
ENDBRANCH   1  10
TORSDOF 0
ENDMDL
MODEL 4
REMARK VINA RESULT:    -3.341     11.388     12.350
REMARK INTER + INTRA:          -4.419
REMARK INTER:                  -4.922
REMARK INTRA:                   0.502
REMARK UNBOUND:                 0.289
REMARK SMILES CC1=CCC(=C(C)C)C(=O)CC(C)=CCC1
REMARK SMILES IDX 12 1 14 2 13 3 15 4 16 5 2 6 1 7 3 8 11 10 9 11 10 12 5 13
REMARK SMILES IDX 6 14 7 15 8 16 4 17
REMARK H PARENT
REMARK Flexibility Score: 60.00
ROOT
ATOM      1  C   UNL     1      29.465  42.024 143.929  1.00  0.00    -0.070 C 
ATOM      2  C   UNL     1      29.020  43.080 144.661  1.00  0.00    -0.027 C 
ATOM      3  C   UNL     1      30.277  40.984 144.663  1.00  0.00     0.039 C 
ENDROOT
BRANCH   2   4
ATOM      4  C   UNL     1      28.099  44.187 144.206  1.00  0.00     0.032 C 
BRANCH   4   5
ATOM      5  C   UNL     1      26.775  43.709 143.587  1.00  0.00     0.034 C 
BRANCH   5   6
ATOM      6  C   UNL     1      26.495  44.195 142.176  1.00  0.00    -0.077 C 
ATOM      7  C   UNL     1      26.620  45.669 141.878  1.00  0.00     0.039 C 
ATOM      8  C   UNL     1      26.051  43.388 141.183  1.00  0.00    -0.023 CG0
ATOM      9  G   UNL     1      26.000  41.884 141.236  1.00  0.00     0.000 G0
ENDBRANCH   5   6
ENDBRANCH   4   5
ENDBRANCH   2   4
BRANCH   1  10
ATOM     10  C   UNL     1      29.321  41.866 142.418  1.00  0.00     0.111 C 
BRANCH  10  11
ATOM     11  C   UNL     1      28.250  40.918 141.960  1.00  0.00     0.163 C 
ATOM     12  O   UNL     1      28.183  39.762 142.460  1.00  0.00    -0.294 OA
BRANCH  11  13
ATOM     13  C   UNL     1      27.343  41.287 140.844  1.00  0.00    -0.002 C 
ATOM     14  C   UNL     1      27.760  41.144 139.556  1.00  0.00    -0.069 C 
ATOM     15  C   UNL     1      29.136  40.595 139.248  1.00  0.00     0.039 C 
ATOM     16  C   UNL     1      26.889  41.547 138.389  1.00  0.00     0.039 C 
BRANCH  13  17
ATOM     17  C   UNL     1      25.987  41.875 141.209  1.00  0.00     0.066 CG0
ATOM     18  G   UNL     1      26.049  43.380 141.163  1.00  0.00     0.000 G0
ENDBRANCH  13  17
ENDBRANCH  11  13
ENDBRANCH  10  11
ENDBRANCH   1  10
TORSDOF 0
ENDMDL
MODEL 5
REMARK VINA RESULT:    -3.318      2.104      4.231
REMARK INTER + INTRA:          -4.387
REMARK INTER:                  -4.555
REMARK INTRA:                   0.168
REMARK UNBOUND:                 0.289
REMARK SMILES CC1=CCC(=C(C)C)C(=O)CC(C)=CCC1
REMARK SMILES IDX 12 1 14 2 13 3 15 4 16 5 2 6 1 7 3 8 11 10 9 11 10 12 5 13
REMARK SMILES IDX 6 14 7 15 8 16 4 17
REMARK H PARENT
REMARK Flexibility Score: 60.00
ROOT
ATOM      1  C   UNL     1      28.825  30.819 140.790  1.00  0.00    -0.070 C 
ATOM      2  C   UNL     1      27.671  30.386 141.364  1.00  0.00    -0.027 C 
ATOM      3  C   UNL     1      29.785  29.756 140.312  1.00  0.00     0.039 C 
ENDROOT
BRANCH   2   4
ATOM      4  C   UNL     1      26.500  31.226 141.816  1.00  0.00     0.032 C 
BRANCH   4   5
ATOM      5  C   UNL     1      25.461  31.521 140.722  1.00  0.00     0.034 C 
BRANCH   5   6
ATOM      6  C   UNL     1      25.548  30.651 139.480  1.00  0.00    -0.077 C 
ATOM      7  C   UNL     1      24.959  29.262 139.523  1.00  0.00     0.039 C 
ATOM      8  C   UNL     1      26.208  31.019 138.356  1.00  0.00    -0.023 CG0
ATOM      9  G   UNL     1      26.733  32.401 138.063  1.00  0.00     0.000 G0
ENDBRANCH   5   6
ENDBRANCH   4   5
ENDBRANCH   2   4
BRANCH   1  10
ATOM     10  C   UNL     1      29.282  32.272 140.701  1.00  0.00     0.111 C 
BRANCH  10  11
ATOM     11  C   UNL     1      28.609  33.105 139.647  1.00  0.00     0.163 C 
ATOM     12  O   UNL     1      28.287  34.297 139.905  1.00  0.00    -0.294 OA
BRANCH  11  13
ATOM     13  C   UNL     1      28.217  32.505 138.348  1.00  0.00    -0.002 C 
ATOM     14  C   UNL     1      29.176  32.121 137.461  1.00  0.00    -0.069 C 
ATOM     15  C   UNL     1      30.643  32.285 137.795  1.00  0.00     0.039 C 
ATOM     16  C   UNL     1      28.824  31.544 136.110  1.00  0.00     0.039 C 
BRANCH  13  17
ATOM     17  C   UNL     1      26.729  32.402 138.045  1.00  0.00     0.066 CG0
ATOM     18  G   UNL     1      26.238  31.009 138.340  1.00  0.00     0.000 G0
ENDBRANCH  13  17
ENDBRANCH  11  13
ENDBRANCH  10  11
ENDBRANCH   1  10
TORSDOF 0
ENDMDL
MODEL 6
REMARK VINA RESULT:    -3.317      2.427      3.628
REMARK INTER + INTRA:          -4.385
REMARK INTER:                  -4.914
REMARK INTRA:                   0.529
REMARK UNBOUND:                 0.289
REMARK SMILES CC1=CCC(=C(C)C)C(=O)CC(C)=CCC1
REMARK SMILES IDX 12 1 14 2 13 3 15 4 16 5 2 6 1 7 3 8 11 10 9 11 10 12 5 13
REMARK SMILES IDX 6 14 7 15 8 16 4 17
REMARK H PARENT
REMARK Flexibility Score: 60.00
ROOT
ATOM      1  C   UNL     1      29.252  30.321 139.537  1.00  0.00    -0.070 C 
ATOM      2  C   UNL     1      29.876  31.529 139.536  1.00  0.00    -0.027 C 
ATOM      3  C   UNL     1      29.786  29.282 140.493  1.00  0.00     0.039 C 
ENDROOT
BRANCH   2   4
ATOM      4  C   UNL     1      29.474  32.769 138.772  1.00  0.00     0.032 C 
BRANCH   4   5
ATOM      5  C   UNL     1      28.761  33.839 139.614  1.00  0.00     0.034 C 
BRANCH   5   6
ATOM      6  C   UNL     1      27.258  33.938 139.416  1.00  0.00    -0.077 C 
ATOM      7  C   UNL     1      26.716  35.006 138.498  1.00  0.00     0.039 C 
ATOM      8  C   UNL     1      26.365  33.174 140.089  1.00  0.00    -0.023 CG0
ATOM      9  G   UNL     1      26.702  31.969 140.929  1.00  0.00     0.000 G0
ENDBRANCH   5   6
ENDBRANCH   4   5
ENDBRANCH   2   4
BRANCH   1  10
ATOM     10  C   UNL     1      28.148  29.891 138.575  1.00  0.00     0.111 C 
BRANCH  10  11
ATOM     11  C   UNL     1      26.798  30.508 138.812  1.00  0.00     0.163 C 
ATOM     12  O   UNL     1      26.141  30.965 137.838  1.00  0.00    -0.294 OA
BRANCH  11  13
ATOM     13  C   UNL     1      26.284  30.689 140.193  1.00  0.00    -0.002 C 
ATOM     14  C   UNL     1      25.435  29.768 140.727  1.00  0.00    -0.069 C 
ATOM     15  C   UNL     1      25.022  28.549 139.930  1.00  0.00     0.039 C 
ATOM     16  C   UNL     1      24.853  29.931 142.111  1.00  0.00     0.039 C 
BRANCH  13  17
ATOM     17  C   UNL     1      26.697  31.954 140.934  1.00  0.00     0.066 CG0
ATOM     18  G   UNL     1      26.379  33.166 140.098  1.00  0.00     0.000 G0
ENDBRANCH  13  17
ENDBRANCH  11  13
ENDBRANCH  10  11
ENDBRANCH   1  10
TORSDOF 0
ENDMDL
MODEL 7
REMARK VINA RESULT:    -3.295      2.319      4.183
REMARK INTER + INTRA:          -4.354
REMARK INTER:                  -5.037
REMARK INTRA:                   0.683
REMARK UNBOUND:                 0.289
REMARK SMILES CC1=CCC(=C(C)C)C(=O)CC(C)=CCC1
REMARK SMILES IDX 12 1 14 2 13 3 15 4 16 5 2 6 1 7 3 8 11 10 9 11 10 12 5 13
REMARK SMILES IDX 6 14 7 15 8 16 4 17
REMARK H PARENT
REMARK Flexibility Score: 60.00
ROOT
ATOM      1  C   UNL     1      26.651  30.127 138.736  1.00  0.00    -0.070 C 
ATOM      2  C   UNL     1      26.835  30.880 137.620  1.00  0.00    -0.027 C 
ATOM      3  C   UNL     1      25.247  30.064 139.288  1.00  0.00     0.039 C 
ENDROOT
BRANCH   2   4
ATOM      4  C   UNL     1      28.100  31.017 136.804  1.00  0.00     0.032 C 
BRANCH   4   5
ATOM      5  C   UNL     1      28.720  32.424 136.812  1.00  0.00     0.034 C 
BRANCH   5   6
ATOM      6  C   UNL     1      29.879  32.626 137.773  1.00  0.00    -0.077 C 
ATOM      7  C   UNL     1      31.284  32.639 137.224  1.00  0.00     0.039 C 
ATOM      8  C   UNL     1      29.728  32.707 139.117  1.00  0.00    -0.023 CG0
ATOM      9  G   UNL     1      28.417  32.858 139.842  1.00  0.00     0.000 G0
ENDBRANCH   5   6
ENDBRANCH   4   5
ENDBRANCH   2   4
BRANCH   1  10
ATOM     10  C   UNL     1      27.755  29.446 139.541  1.00  0.00     0.111 C 
BRANCH  10  11
ATOM     11  C   UNL     1      28.644  30.362 140.334  1.00  0.00     0.163 C 
ATOM     12  O   UNL     1      29.776  29.956 140.716  1.00  0.00    -0.294 OA
BRANCH  11  13
ATOM     13  C   UNL     1      28.158  31.695 140.768  1.00  0.00    -0.002 C 
ATOM     14  C   UNL     1      27.462  31.816 141.933  1.00  0.00    -0.069 C 
ATOM     15  C   UNL     1      27.195  30.605 142.799  1.00  0.00     0.039 C 
ATOM     16  C   UNL     1      26.911  33.145 142.394  1.00  0.00     0.039 C 
BRANCH  13  17
ATOM     17  C   UNL     1      28.417  32.872 139.838  1.00  0.00     0.066 CG0
ATOM     18  G   UNL     1      29.733  32.687 139.129  1.00  0.00     0.000 G0
ENDBRANCH  13  17
ENDBRANCH  11  13
ENDBRANCH  10  11
ENDBRANCH   1  10
TORSDOF 0
ENDMDL
MODEL 8
REMARK VINA RESULT:    -3.250     11.512     12.397
REMARK INTER + INTRA:          -4.290
REMARK INTER:                  -4.711
REMARK INTRA:                   0.421
REMARK UNBOUND:                 0.289
REMARK SMILES CC1=CCC(=C(C)C)C(=O)CC(C)=CCC1
REMARK SMILES IDX 12 1 14 2 13 3 15 4 16 5 2 6 1 7 3 8 11 10 9 11 10 12 5 13
REMARK SMILES IDX 6 14 7 15 8 16 4 17
REMARK H PARENT
REMARK Flexibility Score: 60.00
ROOT
ATOM      1  C   UNL     1      28.416  43.478 143.267  1.00  0.00    -0.070 C 
ATOM      2  C   UNL     1      29.000  42.357 142.766  1.00  0.00    -0.027 C 
ATOM      3  C   UNL     1      28.675  43.784 144.723  1.00  0.00     0.039 C 
ENDROOT
BRANCH   2   4
ATOM      4  C   UNL     1      29.002  41.887 141.331  1.00  0.00     0.032 C 
BRANCH   4   5
ATOM      5  C   UNL     1      28.202  40.600 141.075  1.00  0.00     0.034 C 
BRANCH   5   6
ATOM      6  C   UNL     1      26.901  40.469 141.849  1.00  0.00    -0.077 C 
ATOM      7  C   UNL     1      26.808  39.432 142.942  1.00  0.00     0.039 C 
ATOM      8  C   UNL     1      25.783  41.173 141.554  1.00  0.00    -0.023 CG0
ATOM      9  G   UNL     1      25.711  42.343 140.608  1.00  0.00     0.000 G0
ENDBRANCH   5   6
ENDBRANCH   4   5
ENDBRANCH   2   4
BRANCH   1  10
ATOM     10  C   UNL     1      27.431  44.375 142.523  1.00  0.00     0.111 C 
BRANCH  10  11
ATOM     11  C   UNL     1      25.991  43.952 142.581  1.00  0.00     0.163 C 
ATOM     12  O   UNL     1      25.431  43.794 143.701  1.00  0.00    -0.294 OA
BRANCH  11  13
ATOM     13  C   UNL     1      25.256  43.608 141.339  1.00  0.00    -0.002 C 
ATOM     14  C   UNL     1      24.203  44.373 140.939  1.00  0.00    -0.069 C 
ATOM     15  C   UNL     1      23.784  45.585 141.743  1.00  0.00     0.039 C 
ATOM     16  C   UNL     1      23.398  44.037 139.705  1.00  0.00     0.039 C 
BRANCH  13  17
ATOM     17  C   UNL     1      25.691  42.354 140.592  1.00  0.00     0.066 CG0
ATOM     18  G   UNL     1      25.769  41.189 141.544  1.00  0.00     0.000 G0
ENDBRANCH  13  17
ENDBRANCH  11  13
ENDBRANCH  10  11
ENDBRANCH   1  10
TORSDOF 0
ENDMDL
MODEL 9
REMARK VINA RESULT:    -3.074      2.048      2.814
REMARK INTER + INTRA:          -4.043
REMARK INTER:                  -4.551
REMARK INTRA:                   0.508
REMARK UNBOUND:                 0.289
REMARK SMILES CC1=CCC(=C(C)C)C(=O)CC(C)=CCC1
REMARK SMILES IDX 12 1 14 2 13 3 15 4 16 5 2 6 1 7 3 8 11 10 9 11 10 12 5 13
REMARK SMILES IDX 6 14 7 15 8 16 4 17
REMARK H PARENT
REMARK Flexibility Score: 60.00
ROOT
ATOM      1  C   UNL     1      29.148  30.400 140.578  1.00  0.00    -0.070 C 
ATOM      2  C   UNL     1      29.739  31.600 140.337  1.00  0.00    -0.027 C 
ATOM      3  C   UNL     1      30.067  29.211 140.735  1.00  0.00     0.039 C 
ENDROOT
BRANCH   2   4
ATOM      4  C   UNL     1      29.069  32.952 140.257  1.00  0.00     0.032 C 
BRANCH   4   5
ATOM      5  C   UNL     1      29.225  33.668 138.906  1.00  0.00     0.034 C 
BRANCH   5   6
ATOM      6  C   UNL     1      28.777  32.878 137.688  1.00  0.00    -0.077 C 
ATOM      7  C   UNL     1      29.769  32.630 136.579  1.00  0.00     0.039 C 
ATOM      8  C   UNL     1      27.504  32.458 137.499  1.00  0.00    -0.023 CG0
ATOM      9  G   UNL     1      26.412  32.479 138.537  1.00  0.00     0.000 G0
ENDBRANCH   5   6
ENDBRANCH   4   5
ENDBRANCH   2   4
BRANCH   1  10
ATOM     10  C   UNL     1      27.646  30.133 140.580  1.00  0.00     0.111 C 
BRANCH  10  11
ATOM     11  C   UNL     1      26.988  30.087 139.230  1.00  0.00     0.163 C 
ATOM     12  O   UNL     1      27.397  29.265 138.364  1.00  0.00    -0.294 OA
BRANCH  11  13
ATOM     13  C   UNL     1      25.943  31.076 138.867  1.00  0.00    -0.002 C 
ATOM     14  C   UNL     1      24.640  30.688 138.788  1.00  0.00    -0.069 C 
ATOM     15  C   UNL     1      24.244  29.258 139.084  1.00  0.00     0.039 C 
ATOM     16  C   UNL     1      23.548  31.649 138.381  1.00  0.00     0.039 C 
BRANCH  13  17
ATOM     17  C   UNL     1      26.401  32.490 138.537  1.00  0.00     0.066 CG0
ATOM     18  G   UNL     1      27.499  32.448 137.506  1.00  0.00     0.000 G0
ENDBRANCH  13  17
ENDBRANCH  11  13
ENDBRANCH  10  11
ENDBRANCH   1  10
TORSDOF 0
ENDMDL
