MODEL 1
REMARK VINA RESULT:    13.251      0.000      0.000
REMARK INTER + INTRA:          16.179
REMARK INTER:                  16.737
REMARK INTRA:                  -0.558
REMARK UNBOUND:                -0.558
REMARK SMILES O=C(C=Cc1ccc(O)cc1)c1ccc(O)cc1O
REMARK SMILES IDX 4 1 3 2 5 3 6 4 7 5 8 6 11 7 10 8 9 9 2 11 1 12 12 13 18 14
REMARK SMILES IDX 13 15 17 16 14 17 15 18 19 19 16 21
REMARK H PARENT 9 10 19 20 16 22
REMARK Flexibility Score: inf
ROOT
ATOM      1  C   UNL     1      88.637   8.017 109.475  1.00  0.00     0.012 C 
ATOM      2  C   UNL     1      89.943   7.772 109.296  1.00  0.00     0.053 C 
ENDROOT
BRANCH   1   3
ATOM      3  C   UNL     1      87.905   7.702 110.727  1.00  0.00    -0.025 A 
ATOM      4  C   UNL     1      86.536   8.009 110.802  1.00  0.00     0.012 A 
ATOM      5  C   UNL     1      85.809   7.739 111.965  1.00  0.00     0.047 A 
ATOM      6  C   UNL     1      86.444   7.169 113.076  1.00  0.00     0.115 A 
ATOM      7  C   UNL     1      88.540   7.143 111.855  1.00  0.00     0.012 A 
ATOM      8  C   UNL     1      87.809   6.875 113.017  1.00  0.00     0.047 A 
BRANCH   6   9
ATOM      9  O   UNL     1      85.729   6.896 114.240  1.00  0.00    -0.508 OA
ATOM     10  H   UNL     1      85.479   7.630 114.892  1.00  0.00     0.293 HD
ENDBRANCH   6   9
ENDBRANCH   1   3
BRANCH   2  11
ATOM     11  C   UNL     1      90.636   8.084 108.027  1.00  0.00     0.189 C 
ATOM     12  O   UNL     1      91.668   7.435 107.699  1.00  0.00    -0.289 OA
BRANCH  11  13
ATOM     13  C   UNL     1      90.169   9.183 107.151  1.00  0.00     0.064 A 
ATOM     14  C   UNL     1      89.946   8.992 105.769  1.00  0.00     0.130 A 
ATOM     15  C   UNL     1      89.965  10.459 107.706  1.00  0.00     0.020 A 
ATOM     16  C   UNL     1      89.490  10.059 104.980  1.00  0.00     0.093 A 
ATOM     17  C   UNL     1      89.517  11.516 106.910  1.00  0.00     0.047 A 
ATOM     18  C   UNL     1      89.273  11.320 105.550  1.00  0.00     0.119 A 
BRANCH  14  19
ATOM     19  O   UNL     1      90.203   7.757 105.173  1.00  0.00    -0.507 OA
ATOM     20  H   UNL     1      90.252   6.904 105.719  1.00  0.00     0.293 HD
ENDBRANCH  14  19
BRANCH  18  21
ATOM     21  O   UNL     1      88.821  12.383 104.772  1.00  0.00    -0.508 OA
ATOM     22  H   UNL     1      88.474  12.240 103.831  1.00  0.00     0.293 HD
ENDBRANCH  18  21
ENDBRANCH  11  13
ENDBRANCH   2  11
TORSDOF 6
ENDMDL
