MODEL 1
REMARK VINA RESULT:    -3.829      0.000      0.000
REMARK INTER + INTRA:          -8.813
REMARK INTER:                  -6.739
REMARK INTRA:                  -2.074
REMARK UNBOUND:                -2.074
REMARK SMILES CCCCCCC=CCCCCCCCC(=O)[O-]
REMARK SMILES IDX 10 1 11 2 12 3 13 4 14 5 15 6 16 7 17 8 18 9 9 10 8 11 7 12
REMARK SMILES IDX 6 13 5 14 4 15 3 16 2 17 1 18
REMARK H PARENT
REMARK Flexibility Score: inf
ROOT
ATOM      1  C   UNL     1       9.476  28.114   7.465  1.00  0.00     0.004 C 
ENDROOT
BRANCH   1   2
ATOM      2  C   UNL     1      10.478  28.754   8.441  1.00  0.00     0.000 C 
BRANCH   2   3
ATOM      3  C   UNL     1      11.475  27.772   9.089  1.00  0.00     0.000 C 
BRANCH   3   4
ATOM      4  C   UNL     1      11.045  27.207  10.455  1.00  0.00     0.000 C 
BRANCH   4   5
ATOM      5  C   UNL     1      10.405  25.812  10.349  1.00  0.00     0.006 C 
BRANCH   5   6
ATOM      6  C   UNL     1      10.331  25.104  11.708  1.00  0.00     0.053 C 
BRANCH   6   7
ATOM      7  C   UNL     1      11.065  23.798  11.698  1.00  0.00     0.041 C 
ATOM      8  O   UNL     1      11.459  23.285  12.779  1.00  0.00    -0.550 OA
ATOM      9  O   UNL     1      11.289  23.134  10.499  1.00  0.00    -0.550 OA
ENDBRANCH   6   7
ENDBRANCH   5   6
ENDBRANCH   4   5
ENDBRANCH   3   4
ENDBRANCH   2   3
ENDBRANCH   1   2
BRANCH   1  10
ATOM     10  C   UNL     1       8.109  27.837   8.109  1.00  0.00     0.027 C 
BRANCH  10  11
ATOM     11  C   UNL     1       7.989  28.544   9.430  1.00  0.00    -0.031 C 
ATOM     12  C   UNL     1       7.411  27.954  10.488  1.00  0.00    -0.031 C 
BRANCH  12  13
ATOM     13  C   UNL     1       7.235  28.674  11.797  1.00  0.00     0.027 C 
BRANCH  13  14
ATOM     14  C   UNL     1       8.332  28.293  12.799  1.00  0.00     0.004 C 
BRANCH  14  15
ATOM     15  C   UNL     1       9.094  29.524  13.319  1.00  0.00     0.000 C 
BRANCH  15  16
ATOM     16  C   UNL     1       9.956  30.187  12.233  1.00  0.00    -0.000 C 
BRANCH  16  17
ATOM     17  C   UNL     1      11.456  30.134  12.553  1.00  0.00    -0.003 C 
ATOM     18  C   UNL     1      11.732  30.614  13.976  1.00  0.00     0.004 C 
ENDBRANCH  16  17
ENDBRANCH  15  16
ENDBRANCH  14  15
ENDBRANCH  13  14
ENDBRANCH  12  13
ENDBRANCH  10  11
ENDBRANCH   1  10
TORSDOF 13
ENDMDL
MODEL 2
REMARK VINA RESULT:    -3.691      7.068     10.022
REMARK INTER + INTRA:          -8.570
REMARK INTER:                  -6.126
REMARK INTRA:                  -2.444
REMARK UNBOUND:                -2.074
REMARK SMILES CCCCCCC=CCCCCCCCC(=O)[O-]
REMARK SMILES IDX 10 1 11 2 12 3 13 4 14 5 15 6 16 7 17 8 18 9 9 10 8 11 7 12
REMARK SMILES IDX 6 13 5 14 4 15 3 16 2 17 1 18
REMARK H PARENT
REMARK Flexibility Score: inf
ROOT
ATOM      1  C   UNL     1       4.308  31.968  20.487  1.00  0.00     0.004 C 
ENDROOT
BRANCH   1   2
ATOM      2  C   UNL     1       3.238  30.968  20.011  1.00  0.00     0.000 C 
BRANCH   2   3
ATOM      3  C   UNL     1       3.063  30.879  18.482  1.00  0.00     0.000 C 
BRANCH   3   4
ATOM      4  C   UNL     1       4.064  29.960  17.760  1.00  0.00     0.000 C 
BRANCH   4   5
ATOM      5  C   UNL     1       4.191  28.578  18.422  1.00  0.00     0.006 C 
BRANCH   5   6
ATOM      6  C   UNL     1       5.654  28.160  18.616  1.00  0.00     0.053 C 
BRANCH   6   7
ATOM      7  C   UNL     1       5.828  27.280  19.816  1.00  0.00     0.041 C 
ATOM      8  O   UNL     1       6.387  26.155  19.701  1.00  0.00    -0.550 OA
ATOM      9  O   UNL     1       5.401  27.711  21.065  1.00  0.00    -0.550 OA
ENDBRANCH   6   7
ENDBRANCH   5   6
ENDBRANCH   4   5
ENDBRANCH   3   4
ENDBRANCH   2   3
ENDBRANCH   1   2
BRANCH   1  10
ATOM     10  C   UNL     1       5.609  31.282  20.930  1.00  0.00     0.027 C 
BRANCH  10  11
ATOM     11  C   UNL     1       6.701  31.509  19.924  1.00  0.00    -0.031 C 
ATOM     12  C   UNL     1       6.555  32.383  18.916  1.00  0.00    -0.031 C 
BRANCH  12  13
ATOM     13  C   UNL     1       7.620  32.574  17.872  1.00  0.00     0.027 C 
BRANCH  13  14
ATOM     14  C   UNL     1       8.276  31.240  17.490  1.00  0.00     0.004 C 
BRANCH  14  15
ATOM     15  C   UNL     1       7.498  30.509  16.382  1.00  0.00     0.000 C 
BRANCH  15  16
ATOM     16  C   UNL     1       6.950  31.469  15.315  1.00  0.00    -0.000 C 
BRANCH  16  17
ATOM     17  C   UNL     1       5.863  30.826  14.442  1.00  0.00    -0.003 C 
ATOM     18  C   UNL     1       5.864  29.307  14.592  1.00  0.00     0.004 C 
ENDBRANCH  16  17
ENDBRANCH  15  16
ENDBRANCH  14  15
ENDBRANCH  13  14
ENDBRANCH  12  13
ENDBRANCH  10  11
ENDBRANCH   1  10
TORSDOF 13
ENDMDL
MODEL 3
REMARK VINA RESULT:    -3.690      2.974      4.236
REMARK INTER + INTRA:          -8.568
REMARK INTER:                  -5.940
REMARK INTRA:                  -2.628
REMARK UNBOUND:                -2.074
REMARK SMILES CCCCCCC=CCCCCCCCC(=O)[O-]
REMARK SMILES IDX 10 1 11 2 12 3 13 4 14 5 15 6 16 7 17 8 18 9 9 10 8 11 7 12
REMARK SMILES IDX 6 13 5 14 4 15 3 16 2 17 1 18
REMARK H PARENT
REMARK Flexibility Score: inf
ROOT
ATOM      1  C   UNL     1      10.456  25.760   8.849  1.00  0.00     0.004 C 
ENDROOT
BRANCH   1   2
ATOM      2  C   UNL     1      11.371  26.985   8.679  1.00  0.00     0.000 C 
BRANCH   2   3
ATOM      3  C   UNL     1      10.688  28.233   8.085  1.00  0.00     0.000 C 
BRANCH   3   4
ATOM      4  C   UNL     1       9.254  28.013   7.571  1.00  0.00     0.000 C 
BRANCH   4   5
ATOM      5  C   UNL     1       8.196  28.732   8.424  1.00  0.00     0.006 C 
BRANCH   5   6
ATOM      6  C   UNL     1       7.073  27.788   8.872  1.00  0.00     0.053 C 
BRANCH   6   7
ATOM      7  C   UNL     1       6.125  28.459   9.819  1.00  0.00     0.041 C 
ATOM      8  O   UNL     1       5.677  27.832  10.817  1.00  0.00    -0.550 OA
ATOM      9  O   UNL     1       5.759  29.783   9.618  1.00  0.00    -0.550 OA
ENDBRANCH   6   7
ENDBRANCH   5   6
ENDBRANCH   4   5
ENDBRANCH   3   4
ENDBRANCH   2   3
ENDBRANCH   1   2
BRANCH   1  10
ATOM     10  C   UNL     1      10.545  25.139  10.250  1.00  0.00     0.027 C 
BRANCH  10  11
ATOM     11  C   UNL     1      10.367  26.187  11.312  1.00  0.00    -0.031 C 
ATOM     12  C   UNL     1       9.148  26.623  11.667  1.00  0.00    -0.031 C 
BRANCH  12  13
ATOM     13  C   UNL     1       8.963  27.713  12.687  1.00  0.00     0.027 C 
BRANCH  13  14
ATOM     14  C   UNL     1       8.928  29.098  12.028  1.00  0.00     0.004 C 
BRANCH  14  15
ATOM     15  C   UNL     1      10.168  29.938  12.381  1.00  0.00     0.000 C 
BRANCH  15  16
ATOM     16  C   UNL     1      11.116  30.122  11.186  1.00  0.00    -0.000 C 
BRANCH  16  17
ATOM     17  C   UNL     1      12.442  29.369  11.360  1.00  0.00    -0.003 C 
ATOM     18  C   UNL     1      13.414  29.698  10.230  1.00  0.00     0.004 C 
ENDBRANCH  16  17
ENDBRANCH  15  16
ENDBRANCH  14  15
ENDBRANCH  13  14
ENDBRANCH  12  13
ENDBRANCH  10  11
ENDBRANCH   1  10
TORSDOF 13
ENDMDL
MODEL 4
REMARK VINA RESULT:    -3.686      1.365      3.133
REMARK INTER + INTRA:          -8.562
REMARK INTER:                  -6.178
REMARK INTRA:                  -2.383
REMARK UNBOUND:                -2.074
REMARK SMILES CCCCCCC=CCCCCCCCC(=O)[O-]
REMARK SMILES IDX 10 1 11 2 12 3 13 4 14 5 15 6 16 7 17 8 18 9 9 10 8 11 7 12
REMARK SMILES IDX 6 13 5 14 4 15 3 16 2 17 1 18
REMARK H PARENT
REMARK Flexibility Score: inf
ROOT
ATOM      1  C   UNL     1       9.800  29.399   7.785  1.00  0.00     0.004 C 
ENDROOT
BRANCH   1   2
ATOM      2  C   UNL     1       8.952  28.174   7.397  1.00  0.00     0.000 C 
BRANCH   2   3
ATOM      3  C   UNL     1       9.177  26.923   8.271  1.00  0.00     0.000 C 
BRANCH   3   4
ATOM      4  C   UNL     1       9.328  27.195   9.778  1.00  0.00     0.000 C 
BRANCH   4   5
ATOM      5  C   UNL     1      10.579  26.534  10.381  1.00  0.00     0.006 C 
BRANCH   5   6
ATOM      6  C   UNL     1      10.231  25.555  11.510  1.00  0.00     0.053 C 
BRANCH   6   7
ATOM      7  C   UNL     1      10.842  24.205  11.285  1.00  0.00     0.041 C 
ATOM      8  O   UNL     1      11.182  23.849  10.125  1.00  0.00    -0.550 OA
ATOM      9  O   UNL     1      11.061  23.352  12.358  1.00  0.00    -0.550 OA
ENDBRANCH   6   7
ENDBRANCH   5   6
ENDBRANCH   4   5
ENDBRANCH   3   4
ENDBRANCH   2   3
ENDBRANCH   1   2
BRANCH   1  10
ATOM     10  C   UNL     1      11.214  29.358   7.188  1.00  0.00     0.027 C 
BRANCH  10  11
ATOM     11  C   UNL     1      12.244  29.174   8.267  1.00  0.00    -0.031 C 
ATOM     12  C   UNL     1      12.061  29.668   9.501  1.00  0.00    -0.031 C 
BRANCH  12  13
ATOM     13  C   UNL     1      13.111  29.539  10.569  1.00  0.00     0.027 C 
BRANCH  13  14
ATOM     14  C   UNL     1      12.497  29.637  11.973  1.00  0.00     0.004 C 
BRANCH  14  15
ATOM     15  C   UNL     1      11.072  30.214  11.942  1.00  0.00     0.000 C 
BRANCH  15  16
ATOM     16  C   UNL     1      10.083  29.390  12.781  1.00  0.00    -0.000 C 
BRANCH  16  17
ATOM     17  C   UNL     1       8.622  29.798  12.545  1.00  0.00    -0.003 C 
ATOM     18  C   UNL     1       8.448  30.456  11.179  1.00  0.00     0.004 C 
ENDBRANCH  16  17
ENDBRANCH  15  16
ENDBRANCH  14  15
ENDBRANCH  13  14
ENDBRANCH  12  13
ENDBRANCH  10  11
ENDBRANCH   1  10
TORSDOF 13
ENDMDL
MODEL 5
REMARK VINA RESULT:    -3.628      6.943      9.844
REMARK INTER + INTRA:          -8.459
REMARK INTER:                  -6.385
REMARK INTRA:                  -2.074
REMARK UNBOUND:                -2.074
REMARK SMILES CCCCCCC=CCCCCCCCC(=O)[O-]
REMARK SMILES IDX 10 1 11 2 12 3 13 4 14 5 15 6 16 7 17 8 18 9 9 10 8 11 7 12
REMARK SMILES IDX 6 13 5 14 4 15 3 16 2 17 1 18
REMARK H PARENT
REMARK Flexibility Score: inf
ROOT
ATOM      1  C   UNL     1       6.470  31.960  20.129  1.00  0.00     0.004 C 
ENDROOT
BRANCH   1   2
ATOM      2  C   UNL     1       5.270  31.208  20.733  1.00  0.00     0.000 C 
BRANCH   2   3
ATOM      3  C   UNL     1       4.306  30.583  19.705  1.00  0.00     0.000 C 
BRANCH   3   4
ATOM      4  C   UNL     1       4.381  29.051  19.582  1.00  0.00     0.000 C 
BRANCH   4   5
ATOM      5  C   UNL     1       5.812  28.509  19.739  1.00  0.00     0.006 C 
BRANCH   5   6
ATOM      6  C   UNL     1       5.953  27.080  19.197  1.00  0.00     0.053 C 
BRANCH   6   7
ATOM      7  C   UNL     1       6.003  26.067  20.299  1.00  0.00     0.041 C 
ATOM      8  O   UNL     1       6.203  24.852  20.034  1.00  0.00    -0.550 OA
ATOM      9  O   UNL     1       5.857  26.468  21.621  1.00  0.00    -0.550 OA
ENDBRANCH   6   7
ENDBRANCH   5   6
ENDBRANCH   4   5
ENDBRANCH   3   4
ENDBRANCH   2   3
ENDBRANCH   1   2
BRANCH   1  10
ATOM     10  C   UNL     1       6.184  32.505  18.722  1.00  0.00     0.027 C 
BRANCH  10  11
ATOM     11  C   UNL     1       6.926  31.715  17.681  1.00  0.00    -0.031 C 
ATOM     12  C   UNL     1       6.276  31.036  16.723  1.00  0.00    -0.031 C 
BRANCH  12  13
ATOM     13  C   UNL     1       7.008  30.196  15.713  1.00  0.00     0.027 C 
BRANCH  13  14
ATOM     14  C   UNL     1       6.524  28.740  15.737  1.00  0.00     0.004 C 
BRANCH  14  15
ATOM     15  C   UNL     1       5.002  28.640  15.939  1.00  0.00     0.000 C 
BRANCH  15  16
ATOM     16  C   UNL     1       4.222  28.774  14.622  1.00  0.00    -0.000 C 
BRANCH  16  17
ATOM     17  C   UNL     1       2.960  29.637  14.766  1.00  0.00    -0.003 C 
ATOM     18  C   UNL     1       2.740  30.051  16.218  1.00  0.00     0.004 C 
ENDBRANCH  16  17
ENDBRANCH  15  16
ENDBRANCH  14  15
ENDBRANCH  13  14
ENDBRANCH  12  13
ENDBRANCH  10  11
ENDBRANCH   1  10
TORSDOF 13
ENDMDL
MODEL 6
REMARK VINA RESULT:    -3.584      1.440      3.260
REMARK INTER + INTRA:          -8.381
REMARK INTER:                  -5.987
REMARK INTRA:                  -2.394
REMARK UNBOUND:                -2.074
REMARK SMILES CCCCCCC=CCCCCCCCC(=O)[O-]
REMARK SMILES IDX 10 1 11 2 12 3 13 4 14 5 15 6 16 7 17 8 18 9 9 10 8 11 7 12
REMARK SMILES IDX 6 13 5 14 4 15 3 16 2 17 1 18
REMARK H PARENT
REMARK Flexibility Score: inf
ROOT
ATOM      1  C   UNL     1       8.319  29.021   9.216  1.00  0.00     0.004 C 
ENDROOT
BRANCH   1   2
ATOM      2  C   UNL     1       7.798  27.573   9.181  1.00  0.00     0.000 C 
BRANCH   2   3
ATOM      3  C   UNL     1       8.877  26.497   8.948  1.00  0.00     0.000 C 
BRANCH   3   4
ATOM      4  C   UNL     1      10.327  26.967   9.156  1.00  0.00     0.000 C 
BRANCH   4   5
ATOM      5  C   UNL     1      10.821  26.760  10.598  1.00  0.00     0.006 C 
BRANCH   5   6
ATOM      6  C   UNL     1      10.049  25.649  11.321  1.00  0.00     0.053 C 
BRANCH   6   7
ATOM      7  C   UNL     1      10.809  24.357  11.331  1.00  0.00     0.041 C 
ATOM      8  O   UNL     1      11.149  23.814  10.246  1.00  0.00    -0.550 OA
ATOM      9  O   UNL     1      11.166  23.768  12.537  1.00  0.00    -0.550 OA
ENDBRANCH   6   7
ENDBRANCH   5   6
ENDBRANCH   4   5
ENDBRANCH   3   4
ENDBRANCH   2   3
ENDBRANCH   1   2
BRANCH   1  10
ATOM     10  C   UNL     1       7.785  29.818  10.415  1.00  0.00     0.027 C 
BRANCH  10  11
ATOM     11  C   UNL     1       8.720  29.710  11.587  1.00  0.00    -0.031 C 
ATOM     12  C   UNL     1      10.000  30.103  11.499  1.00  0.00    -0.031 C 
BRANCH  12  13
ATOM     13  C   UNL     1      10.957  29.945  12.648  1.00  0.00     0.027 C 
BRANCH  13  14
ATOM     14  C   UNL     1      12.391  29.706  12.156  1.00  0.00     0.004 C 
BRANCH  14  15
ATOM     15  C   UNL     1      12.665  30.404  10.813  1.00  0.00     0.000 C 
BRANCH  15  16
ATOM     16  C   UNL     1      13.421  29.504   9.824  1.00  0.00    -0.000 C 
BRANCH  16  17
ATOM     17  C   UNL     1      12.784  29.492   8.427  1.00  0.00    -0.003 C 
ATOM     18  C   UNL     1      11.693  30.553   8.311  1.00  0.00     0.004 C 
ENDBRANCH  16  17
ENDBRANCH  15  16
ENDBRANCH  14  15
ENDBRANCH  13  14
ENDBRANCH  12  13
ENDBRANCH  10  11
ENDBRANCH   1  10
TORSDOF 13
ENDMDL
MODEL 7
REMARK VINA RESULT:    -3.541      1.672      2.802
REMARK INTER + INTRA:          -8.306
REMARK INTER:                  -6.188
REMARK INTRA:                  -2.119
REMARK UNBOUND:                -2.074
REMARK SMILES CCCCCCC=CCCCCCCCC(=O)[O-]
REMARK SMILES IDX 10 1 11 2 12 3 13 4 14 5 15 6 16 7 17 8 18 9 9 10 8 11 7 12
REMARK SMILES IDX 6 13 5 14 4 15 3 16 2 17 1 18
REMARK H PARENT
REMARK Flexibility Score: inf
ROOT
ATOM      1  C   UNL     1       7.400  28.854   9.573  1.00  0.00     0.004 C 
ENDROOT
BRANCH   1   2
ATOM      2  C   UNL     1       7.515  28.018   8.285  1.00  0.00     0.000 C 
BRANCH   2   3
ATOM      3  C   UNL     1       8.954  27.651   7.872  1.00  0.00     0.000 C 
BRANCH   3   4
ATOM      4  C   UNL     1       9.530  26.394   8.548  1.00  0.00     0.000 C 
BRANCH   4   5
ATOM      5  C   UNL     1      10.929  26.623   9.144  1.00  0.00     0.006 C 
BRANCH   5   6
ATOM      6  C   UNL     1      10.871  27.000  10.630  1.00  0.00     0.053 C 
BRANCH   6   7
ATOM      7  C   UNL     1      10.058  26.021  11.422  1.00  0.00     0.041 C 
ATOM      8  O   UNL     1      10.481  24.847  11.603  1.00  0.00    -0.550 OA
ATOM      9  O   UNL     1       8.850  26.412  11.984  1.00  0.00    -0.550 OA
ENDBRANCH   6   7
ENDBRANCH   5   6
ENDBRANCH   4   5
ENDBRANCH   3   4
ENDBRANCH   2   3
ENDBRANCH   1   2
BRANCH   1  10
ATOM     10  C   UNL     1       8.392  30.026   9.613  1.00  0.00     0.027 C 
BRANCH  10  11
ATOM     11  C   UNL     1       9.107  30.076  10.934  1.00  0.00    -0.031 C 
ATOM     12  C   UNL     1       8.486  29.751  12.078  1.00  0.00    -0.031 C 
BRANCH  12  13
ATOM     13  C   UNL     1       9.176  29.853  13.411  1.00  0.00     0.027 C 
BRANCH  13  14
ATOM     14  C   UNL     1      10.210  30.987  13.420  1.00  0.00     0.004 C 
BRANCH  14  15
ATOM     15  C   UNL     1      11.578  30.517  13.944  1.00  0.00     0.000 C 
BRANCH  15  16
ATOM     16  C   UNL     1      12.725  30.840  12.974  1.00  0.00    -0.000 C 
BRANCH  16  17
ATOM     17  C   UNL     1      12.989  29.709  11.971  1.00  0.00    -0.003 C 
ATOM     18  C   UNL     1      12.840  30.201  10.534  1.00  0.00     0.004 C 
ENDBRANCH  16  17
ENDBRANCH  15  16
ENDBRANCH  14  15
ENDBRANCH  13  14
ENDBRANCH  12  13
ENDBRANCH  10  11
ENDBRANCH   1  10
TORSDOF 13
ENDMDL
MODEL 8
REMARK VINA RESULT:    -3.483      1.376      4.080
REMARK INTER + INTRA:          -8.204
REMARK INTER:                  -6.086
REMARK INTRA:                  -2.117
REMARK UNBOUND:                -2.074
REMARK SMILES CCCCCCC=CCCCCCCCC(=O)[O-]
REMARK SMILES IDX 10 1 11 2 12 3 13 4 14 5 15 6 16 7 17 8 18 9 9 10 8 11 7 12
REMARK SMILES IDX 6 13 5 14 4 15 3 16 2 17 1 18
REMARK H PARENT
REMARK Flexibility Score: inf
ROOT
ATOM      1  C   UNL     1      12.737  30.306  12.991  1.00  0.00     0.004 C 
ENDROOT
BRANCH   1   2
ATOM      2  C   UNL     1      12.220  30.237  11.543  1.00  0.00     0.000 C 
BRANCH   2   3
ATOM      3  C   UNL     1      12.620  28.966  10.767  1.00  0.00     0.000 C 
BRANCH   3   4
ATOM      4  C   UNL     1      11.451  28.050  10.362  1.00  0.00     0.000 C 
BRANCH   4   5
ATOM      5  C   UNL     1      10.550  27.670  11.550  1.00  0.00     0.006 C 
BRANCH   5   6
ATOM      6  C   UNL     1       9.648  26.471  11.233  1.00  0.00     0.053 C 
BRANCH   6   7
ATOM      7  C   UNL     1      10.442  25.221  11.005  1.00  0.00     0.041 C 
ATOM      8  O   UNL     1      10.777  24.496  11.980  1.00  0.00    -0.550 OA
ATOM      9  O   UNL     1      10.786  24.840   9.714  1.00  0.00    -0.550 OA
ENDBRANCH   6   7
ENDBRANCH   5   6
ENDBRANCH   4   5
ENDBRANCH   3   4
ENDBRANCH   2   3
ENDBRANCH   1   2
BRANCH   1  10
ATOM     10  C   UNL     1      11.613  30.515  14.016  1.00  0.00     0.027 C 
BRANCH  10  11
ATOM     11  C   UNL     1      10.298  30.749  13.327  1.00  0.00    -0.031 C 
ATOM     12  C   UNL     1       9.166  30.181  13.770  1.00  0.00    -0.031 C 
BRANCH  12  13
ATOM     13  C   UNL     1       7.856  30.363  13.054  1.00  0.00     0.027 C 
BRANCH  13  14
ATOM     14  C   UNL     1       8.059  30.489  11.538  1.00  0.00     0.004 C 
BRANCH  14  15
ATOM     15  C   UNL     1       7.334  29.374  10.764  1.00  0.00     0.000 C 
BRANCH  15  16
ATOM     16  C   UNL     1       7.256  29.659   9.255  1.00  0.00    -0.000 C 
BRANCH  16  17
ATOM     17  C   UNL     1       8.540  29.267   8.511  1.00  0.00    -0.003 C 
ATOM     18  C   UNL     1       8.466  27.830   8.004  1.00  0.00     0.004 C 
ENDBRANCH  16  17
ENDBRANCH  15  16
ENDBRANCH  14  15
ENDBRANCH  13  14
ENDBRANCH  12  13
ENDBRANCH  10  11
ENDBRANCH   1  10
TORSDOF 13
ENDMDL
MODEL 9
REMARK VINA RESULT:    -3.441      2.678      5.781
REMARK INTER + INTRA:          -8.129
REMARK INTER:                  -6.027
REMARK INTRA:                  -2.103
REMARK UNBOUND:                -2.074
REMARK SMILES CCCCCCC=CCCCCCCCC(=O)[O-]
REMARK SMILES IDX 10 1 11 2 12 3 13 4 14 5 15 6 16 7 17 8 18 9 9 10 8 11 7 12
REMARK SMILES IDX 6 13 5 14 4 15 3 16 2 17 1 18
REMARK H PARENT
REMARK Flexibility Score: inf
ROOT
ATOM      1  C   UNL     1      11.354  30.590  13.650  1.00  0.00     0.004 C 
ENDROOT
BRANCH   1   2
ATOM      2  C   UNL     1      10.170  30.805  12.690  1.00  0.00     0.000 C 
BRANCH   2   3
ATOM      3  C   UNL     1       8.894  30.013  13.040  1.00  0.00     0.000 C 
BRANCH   3   4
ATOM      4  C   UNL     1       8.969  28.499  12.772  1.00  0.00     0.000 C 
BRANCH   4   5
ATOM      5  C   UNL     1       7.917  28.018  11.760  1.00  0.00     0.006 C 
BRANCH   5   6
ATOM      6  C   UNL     1       7.954  28.826  10.456  1.00  0.00     0.053 C 
BRANCH   6   7
ATOM      7  C   UNL     1       6.913  28.365   9.483  1.00  0.00     0.041 C 
ATOM      8  O   UNL     1       7.209  27.530   8.587  1.00  0.00    -0.550 OA
ATOM      9  O   UNL     1       5.609  28.833   9.583  1.00  0.00    -0.550 OA
ENDBRANCH   6   7
ENDBRANCH   5   6
ENDBRANCH   4   5
ENDBRANCH   3   4
ENDBRANCH   2   3
ENDBRANCH   1   2
BRANCH   1  10
ATOM     10  C   UNL     1      12.624  30.113  12.932  1.00  0.00     0.027 C 
BRANCH  10  11
ATOM     11  C   UNL     1      12.288  29.496  11.604  1.00  0.00    -0.031 C 
ATOM     12  C   UNL     1      13.197  29.414  10.620  1.00  0.00    -0.031 C 
BRANCH  12  13
ATOM     13  C   UNL     1      12.852  28.850   9.269  1.00  0.00     0.027 C 
BRANCH  13  14
ATOM     14  C   UNL     1      11.361  29.026   8.952  1.00  0.00     0.004 C 
BRANCH  14  15
ATOM     15  C   UNL     1      10.787  27.823   8.183  1.00  0.00     0.000 C 
BRANCH  15  16
ATOM     16  C   UNL     1      11.222  26.477   8.785  1.00  0.00    -0.000 C 
BRANCH  16  17
ATOM     17  C   UNL     1      10.092  25.780   9.555  1.00  0.00    -0.003 C 
ATOM     18  C   UNL     1      10.484  25.543  11.011  1.00  0.00     0.004 C 
ENDBRANCH  16  17
ENDBRANCH  15  16
ENDBRANCH  14  15
ENDBRANCH  13  14
ENDBRANCH  12  13
ENDBRANCH  10  11
ENDBRANCH   1  10
TORSDOF 13
ENDMDL
