MODEL 1
REMARK VINA RESULT:    -4.071      0.000      0.000
REMARK INTER + INTRA:          -9.738
REMARK INTER:                  -7.046
REMARK INTRA:                  -2.692
REMARK UNBOUND:                -2.692
REMARK SMILES OC[C@@H]1O[C@H](O[C@@H]2[C@@H](O)[C@H](O)[C@@H](O[C@H]3[C@@H](O)[C@@H](O)[C@@H](O)O[C@@H]3CO)O[C@H]2CO)[C@@H](O)[C@H](O)[C@@H]1O
REMARK SMILES IDX 7 1 26 2 25 3 12 4 10 5 8 6 6 7 5 8 3 9 33 10 4 11 31 12
REMARK SMILES IDX 29 13 2 14 1 15 34 17 32 19 30 21 27 23 28 24 9 26 11 28
REMARK SMILES IDX 13 30 14 31 22 32 15 33 21 34 17 35 19 36 23 37 24 38 16 40
REMARK SMILES IDX 18 42 20 44
REMARK H PARENT 1 16 34 18 32 20 30 22 28 25 9 27 11 29 24 39 16 41 18 43
REMARK H PARENT 20 45
REMARK Flexibility Score: inf
ROOT
ATOM      1  C   UNL     1      37.077  -5.301  11.405  1.00  0.00     0.184 C 
ATOM      2  C   UNL     1      35.731  -5.431  10.628  1.00  0.00     0.178 C 
ATOM      3  O   UNL     1      35.235  -6.762  10.585  1.00  0.00    -0.341 OA
ATOM      4  C   UNL     1      35.016  -7.378  11.852  1.00  0.00     0.282 C 
ATOM      5  C   UNL     1      35.841  -6.799  13.027  1.00  0.00     0.202 C 
ATOM      6  C   UNL     1      37.216  -6.360  12.524  1.00  0.00     0.180 C 
ENDROOT
BRANCH   1   7
ATOM      7  O   UNL     1      38.134  -5.475  10.471  1.00  0.00    -0.341 OA
BRANCH   7   8
ATOM      8  C   UNL     1      38.893  -4.294  10.264  1.00  0.00     0.282 C 
ATOM      9  C   UNL     1      38.986  -2.415   8.867  1.00  0.00     0.178 C 
ATOM     10  C   UNL     1      39.768  -1.678  10.012  1.00  0.00     0.177 C 
ATOM     11  O   UNL     1      38.179  -3.479   9.356  1.00  0.00    -0.341 OA
ATOM     12  C   UNL     1      39.188  -2.007  11.403  1.00  0.00     0.179 C 
ATOM     13  C   UNL     1      39.041  -3.541  11.612  1.00  0.00     0.202 C 
BRANCH   9  14
ATOM     14  C   UNL     1      38.074  -1.484   8.047  1.00  0.00     0.191 C 
BRANCH  14  15
ATOM     15  O   UNL     1      37.132  -0.847   8.868  1.00  0.00    -0.394 OA
ATOM     16  H   UNL     1      37.347   0.122   8.851  1.00  0.00     0.210 HD
ENDBRANCH  14  15
ENDBRANCH   9  14
BRANCH  10  17
ATOM     17  O   UNL     1      39.798  -0.284   9.834  1.00  0.00    -0.387 OA
ATOM     18  H   UNL     1      38.859   0.034   9.870  1.00  0.00     0.211 HD
ENDBRANCH  10  17
BRANCH  12  19
ATOM     19  O   UNL     1      37.965  -1.340  11.609  1.00  0.00    -0.387 OA
ATOM     20  H   UNL     1      37.679  -1.496  12.545  1.00  0.00     0.211 HD
ENDBRANCH  12  19
BRANCH  13  21
ATOM     21  O   UNL     1      40.125  -4.056  12.347  1.00  0.00    -0.385 OA
ATOM     22  H   UNL     1      39.832  -4.915  12.756  1.00  0.00     0.211 HD
ENDBRANCH  13  21
ENDBRANCH   7   8
ENDBRANCH   1   7
BRANCH   2  23
ATOM     23  C   UNL     1      34.643  -4.416  11.049  1.00  0.00     0.191 C 
BRANCH  23  24
ATOM     24  O   UNL     1      33.420  -4.736  10.441  1.00  0.00    -0.394 OA
ATOM     25  H   UNL     1      32.765  -4.880  11.173  1.00  0.00     0.210 HD
ENDBRANCH  23  24
ENDBRANCH   2  23
BRANCH   6  26
ATOM     26  O   UNL     1      37.956  -5.827  13.594  1.00  0.00    -0.387 OA
ATOM     27  H   UNL     1      38.049  -6.547  14.272  1.00  0.00     0.211 HD
ENDBRANCH   6  26
BRANCH   5  28
ATOM     28  O   UNL     1      35.956  -7.739  14.066  1.00  0.00    -0.385 OA
ATOM     29  H   UNL     1      36.289  -7.266  14.874  1.00  0.00     0.211 HD
ENDBRANCH   5  28
BRANCH   4  30
ATOM     30  O   UNL     1      33.634  -7.323  12.180  1.00  0.00    -0.341 OA
BRANCH  30  31
ATOM     31  C   UNL     1      32.963  -8.525  11.823  1.00  0.00     0.184 C 
ATOM     32  C   UNL     1      31.433  -8.317  11.910  1.00  0.00     0.178 C 
ATOM     33  C   UNL     1      33.370  -9.670  12.777  1.00  0.00     0.180 C 
ATOM     34  O   UNL     1      30.748  -9.510  11.551  1.00  0.00    -0.342 OA
ATOM     35  C   UNL     1      32.521 -10.917  12.477  1.00  0.00     0.201 C 
ATOM     36  C   UNL     1      31.017 -10.566  12.459  1.00  0.00     0.279 C 
BRANCH  32  37
ATOM     37  C   UNL     1      30.978  -7.197  10.963  1.00  0.00     0.191 C 
BRANCH  37  38
ATOM     38  O   UNL     1      31.867  -7.077   9.883  1.00  0.00    -0.394 OA
ATOM     39  H   UNL     1      32.729  -7.469  10.182  1.00  0.00     0.210 HD
ENDBRANCH  37  38
ENDBRANCH  32  37
BRANCH  33  40
ATOM     40  O   UNL     1      33.191  -9.285  14.118  1.00  0.00    -0.387 OA
ATOM     41  H   UNL     1      32.749  -8.396  14.107  1.00  0.00     0.211 HD
ENDBRANCH  33  40
BRANCH  35  42
ATOM     42  O   UNL     1      32.769 -11.925  13.423  1.00  0.00    -0.385 OA
ATOM     43  H   UNL     1      32.681 -11.506  14.319  1.00  0.00     0.211 HD
ENDBRANCH  35  42
BRANCH  36  44
ATOM     44  O   UNL     1      30.542 -10.246  13.744  1.00  0.00    -0.366 OA
ATOM     45  H   UNL     1      30.091 -11.057  14.098  1.00  0.00     0.213 HD
ENDBRANCH  36  44
ENDBRANCH  30  31
ENDBRANCH   4  30
TORSDOF 18
ENDMDL
MODEL 2
REMARK VINA RESULT:    -4.000      1.864      9.240
REMARK INTER + INTRA:          -9.615
REMARK INTER:                  -8.227
REMARK INTRA:                  -1.388
REMARK UNBOUND:                -2.692
REMARK SMILES OC[C@@H]1O[C@H](O[C@@H]2[C@@H](O)[C@H](O)[C@@H](O[C@H]3[C@@H](O)[C@@H](O)[C@@H](O)O[C@@H]3CO)O[C@H]2CO)[C@@H](O)[C@H](O)[C@@H]1O
REMARK SMILES IDX 7 1 26 2 25 3 12 4 10 5 8 6 6 7 5 8 3 9 33 10 4 11 31 12
REMARK SMILES IDX 29 13 2 14 1 15 34 17 32 19 30 21 27 23 28 24 9 26 11 28
REMARK SMILES IDX 13 30 14 31 22 32 15 33 21 34 17 35 19 36 23 37 24 38 16 40
REMARK SMILES IDX 18 42 20 44
REMARK H PARENT 1 16 34 18 32 20 30 22 28 25 9 27 11 29 24 39 16 41 18 43
REMARK H PARENT 20 45
REMARK Flexibility Score: inf
ROOT
ATOM      1  C   UNL     1      34.324  -6.134  10.662  1.00  0.00     0.184 C 
ATOM      2  C   UNL     1      33.729  -4.706  10.454  1.00  0.00     0.178 C 
ATOM      3  O   UNL     1      34.515  -3.680  11.043  1.00  0.00    -0.341 OA
ATOM      4  C   UNL     1      35.867  -3.608  10.596  1.00  0.00     0.282 C 
ATOM      5  C   UNL     1      36.449  -4.922  10.018  1.00  0.00     0.202 C 
ATOM      6  C   UNL     1      35.867  -6.118  10.769  1.00  0.00     0.180 C 
ENDROOT
BRANCH   1   7
ATOM      7  O   UNL     1      33.782  -6.656  11.867  1.00  0.00    -0.341 OA
BRANCH   7   8
ATOM      8  C   UNL     1      32.880  -7.730  11.652  1.00  0.00     0.282 C 
ATOM      9  C   UNL     1      32.657 -10.025  12.068  1.00  0.00     0.178 C 
ATOM     10  C   UNL     1      31.104  -9.837  11.932  1.00  0.00     0.177 C 
ATOM     11  O   UNL     1      33.322  -8.822  12.433  1.00  0.00    -0.341 OA
ATOM     12  C   UNL     1      30.627  -8.531  12.598  1.00  0.00     0.179 C 
ATOM     13  C   UNL     1      31.464  -7.309  12.124  1.00  0.00     0.202 C 
BRANCH   9  14
ATOM     14  C   UNL     1      33.059 -11.103  13.091  1.00  0.00     0.191 C 
BRANCH  14  15
ATOM     15  O   UNL     1      32.869 -12.392  12.568  1.00  0.00    -0.394 OA
ATOM     16  H   UNL     1      33.102 -13.030  13.292  1.00  0.00     0.210 HD
ENDBRANCH  14  15
ENDBRANCH   9  14
BRANCH  10  17
ATOM     17  O   UNL     1      30.381 -10.923  12.456  1.00  0.00    -0.387 OA
ATOM     18  H   UNL     1      30.309 -11.599  11.733  1.00  0.00     0.211 HD
ENDBRANCH  10  17
BRANCH  12  19
ATOM     19  O   UNL     1      30.637  -8.649  14.001  1.00  0.00    -0.387 OA
ATOM     20  H   UNL     1      31.523  -8.998  14.278  1.00  0.00     0.211 HD
ENDBRANCH  12  19
BRANCH  13  21
ATOM     21  O   UNL     1      30.796  -6.603  11.107  1.00  0.00    -0.385 OA
ATOM     22  H   UNL     1      29.921  -7.050  10.953  1.00  0.00     0.211 HD
ENDBRANCH  13  21
ENDBRANCH   7   8
ENDBRANCH   1   7
BRANCH   2  23
ATOM     23  C   UNL     1      33.338  -4.378   8.994  1.00  0.00     0.191 C 
BRANCH  23  24
ATOM     24  O   UNL     1      32.310  -5.230   8.565  1.00  0.00    -0.394 OA
ATOM     25  H   UNL     1      31.538  -4.652   8.328  1.00  0.00     0.210 HD
ENDBRANCH  23  24
ENDBRANCH   2  23
BRANCH   6  26
ATOM     26  O   UNL     1      36.392  -7.307  10.233  1.00  0.00    -0.387 OA
ATOM     27  H   UNL     1      35.910  -8.060  10.667  1.00  0.00     0.211 HD
ENDBRANCH   6  26
BRANCH   5  28
ATOM     28  O   UNL     1      37.854  -4.915  10.083  1.00  0.00    -0.385 OA
ATOM     29  H   UNL     1      38.176  -4.059   9.695  1.00  0.00     0.211 HD
ENDBRANCH   5  28
BRANCH   4  30
ATOM     30  O   UNL     1      36.000  -2.574   9.631  1.00  0.00    -0.341 OA
BRANCH  30  31
ATOM     31  C   UNL     1      37.144  -1.767   9.882  1.00  0.00     0.184 C 
ATOM     32  C   UNL     1      36.716  -0.292  10.065  1.00  0.00     0.178 C 
ATOM     33  C   UNL     1      38.135  -1.860   8.699  1.00  0.00     0.180 C 
ATOM     34  O   UNL     1      37.849   0.527  10.321  1.00  0.00    -0.342 OA
ATOM     35  C   UNL     1      39.287  -0.864   8.914  1.00  0.00     0.201 C 
ATOM     36  C   UNL     1      38.743   0.549   9.220  1.00  0.00     0.279 C 
BRANCH  32  37
ATOM     37  C   UNL     1      35.742  -0.148  11.243  1.00  0.00     0.191 C 
BRANCH  37  38
ATOM     38  O   UNL     1      34.518   0.384  10.807  1.00  0.00    -0.394 OA
ATOM     39  H   UNL     1      34.494   1.327  11.119  1.00  0.00     0.210 HD
ENDBRANCH  37  38
ENDBRANCH  32  37
BRANCH  33  40
ATOM     40  O   UNL     1      37.484  -1.578   7.485  1.00  0.00    -0.387 OA
ATOM     41  H   UNL     1      36.527  -1.423   7.698  1.00  0.00     0.211 HD
ENDBRANCH  33  40
BRANCH  35  42
ATOM     42  O   UNL     1      40.125  -0.824   7.787  1.00  0.00    -0.385 OA
ATOM     43  H   UNL     1      39.778  -0.103   7.198  1.00  0.00     0.211 HD
ENDBRANCH  35  42
BRANCH  36  44
ATOM     44  O   UNL     1      38.126   1.124   8.093  1.00  0.00    -0.366 OA
ATOM     45  H   UNL     1      37.212   1.397   8.370  1.00  0.00     0.213 HD
ENDBRANCH  36  44
ENDBRANCH  30  31
ENDBRANCH   4  30
TORSDOF 18
ENDMDL
MODEL 3
REMARK VINA RESULT:    -3.715      8.742     13.273
REMARK INTER + INTRA:          -9.121
REMARK INTER:                  -7.393
REMARK INTRA:                  -1.728
REMARK UNBOUND:                -2.692
REMARK SMILES OC[C@@H]1O[C@H](O[C@@H]2[C@@H](O)[C@H](O)[C@@H](O[C@H]3[C@@H](O)[C@@H](O)[C@@H](O)O[C@@H]3CO)O[C@H]2CO)[C@@H](O)[C@H](O)[C@@H]1O
REMARK SMILES IDX 7 1 26 2 25 3 12 4 10 5 8 6 6 7 5 8 3 9 33 10 4 11 31 12
REMARK SMILES IDX 29 13 2 14 1 15 34 17 32 19 30 21 27 23 28 24 9 26 11 28
REMARK SMILES IDX 13 30 14 31 22 32 15 33 21 34 17 35 19 36 23 37 24 38 16 40
REMARK SMILES IDX 18 42 20 44
REMARK H PARENT 1 16 34 18 32 20 30 22 28 25 9 27 11 29 24 39 16 41 18 43
REMARK H PARENT 20 45
REMARK Flexibility Score: inf
ROOT
ATOM      1  C   UNL     1      34.579  -2.722   0.866  1.00  0.00     0.184 C 
ATOM      2  C   UNL     1      35.876  -3.343   1.470  1.00  0.00     0.178 C 
ATOM      3  O   UNL     1      36.907  -2.389   1.685  1.00  0.00    -0.341 OA
ATOM      4  C   UNL     1      36.565  -1.296   2.535  1.00  0.00     0.282 C 
ATOM      5  C   UNL     1      35.054  -0.976   2.634  1.00  0.00     0.202 C 
ATOM      6  C   UNL     1      34.380  -1.247   1.290  1.00  0.00     0.180 C 
ENDROOT
BRANCH   1   7
ATOM      7  O   UNL     1      34.689  -2.785  -0.550  1.00  0.00    -0.341 OA
BRANCH   7   8
ATOM      8  C   UNL     1      33.625  -3.499  -1.159  1.00  0.00     0.282 C 
ATOM      9  C   UNL     1      32.060  -3.299  -2.891  1.00  0.00     0.178 C 
ATOM     10  C   UNL     1      31.968  -4.866  -2.907  1.00  0.00     0.177 C 
ATOM     11  O   UNL     1      33.293  -2.831  -2.359  1.00  0.00    -0.341 OA
ATOM     12  C   UNL     1      33.351  -5.521  -2.724  1.00  0.00     0.179 C 
ATOM     13  C   UNL     1      34.102  -4.936  -1.494  1.00  0.00     0.202 C 
BRANCH   9  14
ATOM     14  C   UNL     1      31.884  -2.658  -4.280  1.00  0.00     0.191 C 
BRANCH  14  15
ATOM     15  O   UNL     1      32.755  -3.234  -5.217  1.00  0.00    -0.394 OA
ATOM     16  H   UNL     1      32.760  -2.634  -6.008  1.00  0.00     0.210 HD
ENDBRANCH  14  15
ENDBRANCH   9  14
BRANCH  10  17
ATOM     17  O   UNL     1      31.366  -5.359  -4.079  1.00  0.00    -0.387 OA
ATOM     18  H   UNL     1      31.900  -5.021  -4.843  1.00  0.00     0.211 HD
ENDBRANCH  10  17
BRANCH  12  19
ATOM     19  O   UNL     1      34.121  -5.408  -3.898  1.00  0.00    -0.387 OA
ATOM     20  H   UNL     1      33.614  -4.862  -4.552  1.00  0.00     0.211 HD
ENDBRANCH  12  19
BRANCH  13  21
ATOM     21  O   UNL     1      33.964  -5.775  -0.373  1.00  0.00    -0.385 OA
ATOM     22  H   UNL     1      33.823  -5.195   0.423  1.00  0.00     0.211 HD
ENDBRANCH  13  21
ENDBRANCH   7   8
ENDBRANCH   1   7
BRANCH   2  23
ATOM     23  C   UNL     1      35.645  -4.242   2.706  1.00  0.00     0.191 C 
BRANCH  23  24
ATOM     24  O   UNL     1      35.366  -5.557   2.304  1.00  0.00    -0.394 OA
ATOM     25  H   UNL     1      34.869  -5.986   3.049  1.00  0.00     0.210 HD
ENDBRANCH  23  24
ENDBRANCH   2  23
BRANCH   6  26
ATOM     26  O   UNL     1      33.007  -0.963   1.390  1.00  0.00    -0.387 OA
ATOM     27  H   UNL     1      32.785  -0.335   0.652  1.00  0.00     0.211 HD
ENDBRANCH   6  26
BRANCH   5  28
ATOM     28  O   UNL     1      34.853   0.355   3.044  1.00  0.00    -0.385 OA
ATOM     29  H   UNL     1      35.107   0.951   2.291  1.00  0.00     0.211 HD
ENDBRANCH   5  28
BRANCH   4  30
ATOM     30  O   UNL     1      37.081  -1.523   3.839  1.00  0.00    -0.341 OA
BRANCH  30  31
ATOM     31  C   UNL     1      37.692  -0.353   4.371  1.00  0.00     0.184 C 
ATOM     32  C   UNL     1      39.232  -0.482   4.291  1.00  0.00     0.178 C 
ATOM     33  C   UNL     1      37.281  -0.158   5.848  1.00  0.00     0.180 C 
ATOM     34  O   UNL     1      39.856   0.682   4.815  1.00  0.00    -0.342 OA
ATOM     35  C   UNL     1      38.070   1.016   6.451  1.00  0.00     0.201 C 
ATOM     36  C   UNL     1      39.584   0.850   6.197  1.00  0.00     0.279 C 
BRANCH  32  37
ATOM     37  C   UNL     1      39.690  -0.660   2.836  1.00  0.00     0.191 C 
BRANCH  37  38
ATOM     38  O   UNL     1      39.825  -2.023   2.527  1.00  0.00    -0.394 OA
ATOM     39  H   UNL     1      39.795  -2.512   3.392  1.00  0.00     0.210 HD
ENDBRANCH  37  38
ENDBRANCH  32  37
BRANCH  33  40
ATOM     40  O   UNL     1      37.528  -1.327   6.589  1.00  0.00    -0.387 OA
ATOM     41  H   UNL     1      38.202  -1.095   7.280  1.00  0.00     0.211 HD
ENDBRANCH  33  40
BRANCH  35  42
ATOM     42  O   UNL     1      37.822   1.124   7.829  1.00  0.00    -0.385 OA
ATOM     43  H   UNL     1      36.845   1.272   7.934  1.00  0.00     0.211 HD
ENDBRANCH  35  42
BRANCH  36  44
ATOM     44  O   UNL     1      40.122  -0.218   6.939  1.00  0.00    -0.366 OA
ATOM     45  H   UNL     1      40.312   0.128   7.850  1.00  0.00     0.213 HD
ENDBRANCH  36  44
ENDBRANCH  30  31
ENDBRANCH   4  30
TORSDOF 18
ENDMDL
MODEL 4
REMARK VINA RESULT:    -3.621      1.695      8.996
REMARK INTER + INTRA:          -8.959
REMARK INTER:                  -7.465
REMARK INTRA:                  -1.493
REMARK UNBOUND:                -2.692
REMARK SMILES OC[C@@H]1O[C@H](O[C@@H]2[C@@H](O)[C@H](O)[C@@H](O[C@H]3[C@@H](O)[C@@H](O)[C@@H](O)O[C@@H]3CO)O[C@H]2CO)[C@@H](O)[C@H](O)[C@@H]1O
REMARK SMILES IDX 7 1 26 2 25 3 12 4 10 5 8 6 6 7 5 8 3 9 33 10 4 11 31 12
REMARK SMILES IDX 29 13 2 14 1 15 34 17 32 19 30 21 27 23 28 24 9 26 11 28
REMARK SMILES IDX 13 30 14 31 22 32 15 33 21 34 17 35 19 36 23 37 24 38 16 40
REMARK SMILES IDX 18 42 20 44
REMARK H PARENT 1 16 34 18 32 20 30 22 28 25 9 27 11 29 24 39 16 41 18 43
REMARK H PARENT 20 45
REMARK Flexibility Score: inf
ROOT
ATOM      1  C   UNL     1      34.742  -6.200  10.706  1.00  0.00     0.184 C 
ATOM      2  C   UNL     1      34.250  -4.739  10.468  1.00  0.00     0.178 C 
ATOM      3  O   UNL     1      35.066  -3.762  11.100  1.00  0.00    -0.341 OA
ATOM      4  C   UNL     1      36.442  -3.776  10.726  1.00  0.00     0.282 C 
ATOM      5  C   UNL     1      36.970  -5.125  10.178  1.00  0.00     0.202 C 
ATOM      6  C   UNL     1      36.276  -6.281  10.896  1.00  0.00     0.180 C 
ENDROOT
BRANCH   1   7
ATOM      7  O   UNL     1      34.105  -6.685  11.880  1.00  0.00    -0.341 OA
BRANCH   7   8
ATOM      8  C   UNL     1      33.142  -7.692  11.615  1.00  0.00     0.282 C 
ATOM      9  C   UNL     1      32.712  -9.954  12.049  1.00  0.00     0.178 C 
ATOM     10  C   UNL     1      31.193  -9.652  11.793  1.00  0.00     0.177 C 
ATOM     11  O   UNL     1      33.439  -8.797  12.445  1.00  0.00    -0.341 OA
ATOM     12  C   UNL     1      30.769  -8.300  12.401  1.00  0.00     0.179 C 
ATOM     13  C   UNL     1      31.731  -7.155  11.972  1.00  0.00     0.202 C 
BRANCH   9  14
ATOM     14  C   UNL     1      32.953 -11.037  13.117  1.00  0.00     0.191 C 
BRANCH  14  15
ATOM     15  O   UNL     1      32.779 -12.322  12.581  1.00  0.00    -0.394 OA
ATOM     16  H   UNL     1      32.358 -12.873  13.292  1.00  0.00     0.210 HD
ENDBRANCH  14  15
ENDBRANCH   9  14
BRANCH  10  17
ATOM     17  O   UNL     1      30.351 -10.669  12.279  1.00  0.00    -0.387 OA
ATOM     18  H   UNL     1      29.695 -10.869  11.562  1.00  0.00     0.211 HD
ENDBRANCH  10  17
BRANCH  12  19
ATOM     19  O   UNL     1      30.667  -8.388  13.802  1.00  0.00    -0.387 OA
ATOM     20  H   UNL     1      30.639  -9.347  14.053  1.00  0.00     0.211 HD
ENDBRANCH  12  19
BRANCH  13  21
ATOM     21  O   UNL     1      31.197  -6.422  10.896  1.00  0.00    -0.385 OA
ATOM     22  H   UNL     1      30.556  -7.013  10.417  1.00  0.00     0.211 HD
ENDBRANCH  13  21
ENDBRANCH   7   8
ENDBRANCH   1   7
BRANCH   2  23
ATOM     23  C   UNL     1      33.958  -4.390   8.990  1.00  0.00     0.191 C 
BRANCH  23  24
ATOM     24  O   UNL     1      32.750  -4.975   8.583  1.00  0.00    -0.394 OA
ATOM     25  H   UNL     1      32.983  -5.823   8.123  1.00  0.00     0.210 HD
ENDBRANCH  23  24
ENDBRANCH   2  23
BRANCH   6  26
ATOM     26  O   UNL     1      36.753  -7.501  10.387  1.00  0.00    -0.387 OA
ATOM     27  H   UNL     1      36.667  -7.458   9.398  1.00  0.00     0.211 HD
ENDBRANCH   6  26
BRANCH   5  28
ATOM     28  O   UNL     1      38.368  -5.205  10.318  1.00  0.00    -0.385 OA
ATOM     29  H   UNL     1      38.706  -4.302  10.558  1.00  0.00     0.211 HD
ENDBRANCH   5  28
BRANCH   4  30
ATOM     30  O   UNL     1      36.690  -2.755   9.770  1.00  0.00    -0.341 OA
BRANCH  30  31
ATOM     31  C   UNL     1      36.949  -1.504  10.396  1.00  0.00     0.184 C 
ATOM     32  C   UNL     1      37.864  -0.644   9.493  1.00  0.00     0.178 C 
ATOM     33  C   UNL     1      37.648  -1.721  11.758  1.00  0.00     0.180 C 
ATOM     34  O   UNL     1      38.128   0.612  10.104  1.00  0.00    -0.342 OA
ATOM     35  C   UNL     1      38.061  -0.361  12.347  1.00  0.00     0.201 C 
ATOM     36  C   UNL     1      38.855   0.467  11.313  1.00  0.00     0.279 C 
BRANCH  32  37
ATOM     37  C   UNL     1      37.202  -0.387   8.132  1.00  0.00     0.191 C 
BRANCH  37  38
ATOM     38  O   UNL     1      37.587  -1.369   7.205  1.00  0.00    -0.394 OA
ATOM     39  H   UNL     1      38.114  -2.042   7.711  1.00  0.00     0.210 HD
ENDBRANCH  37  38
ENDBRANCH  32  37
BRANCH  33  40
ATOM     40  O   UNL     1      38.782  -2.538  11.607  1.00  0.00    -0.387 OA
ATOM     41  H   UNL     1      39.326  -2.433  12.431  1.00  0.00     0.211 HD
ENDBRANCH  33  40
BRANCH  35  42
ATOM     42  O   UNL     1      38.824  -0.537  13.512  1.00  0.00    -0.385 OA
ATOM     43  H   UNL     1      38.252  -1.031  14.158  1.00  0.00     0.211 HD
ENDBRANCH  35  42
BRANCH  36  44
ATOM     44  O   UNL     1      40.123  -0.090  11.064  1.00  0.00    -0.366 OA
ATOM     45  H   UNL     1      40.737   0.663  10.862  1.00  0.00     0.213 HD
ENDBRANCH  36  44
ENDBRANCH  30  31
ENDBRANCH   4  30
TORSDOF 18
ENDMDL
MODEL 5
REMARK VINA RESULT:    -3.474      1.481      2.754
REMARK INTER + INTRA:          -8.705
REMARK INTER:                  -7.702
REMARK INTRA:                  -1.003
REMARK UNBOUND:                -2.692
REMARK SMILES OC[C@@H]1O[C@H](O[C@@H]2[C@@H](O)[C@H](O)[C@@H](O[C@H]3[C@@H](O)[C@@H](O)[C@@H](O)O[C@@H]3CO)O[C@H]2CO)[C@@H](O)[C@H](O)[C@@H]1O
REMARK SMILES IDX 7 1 26 2 25 3 12 4 10 5 8 6 6 7 5 8 3 9 33 10 4 11 31 12
REMARK SMILES IDX 29 13 2 14 1 15 34 17 32 19 30 21 27 23 28 24 9 26 11 28
REMARK SMILES IDX 13 30 14 31 22 32 15 33 21 34 17 35 19 36 23 37 24 38 16 40
REMARK SMILES IDX 18 42 20 44
REMARK H PARENT 1 16 34 18 32 20 30 22 28 25 9 27 11 29 24 39 16 41 18 43
REMARK H PARENT 20 45
REMARK Flexibility Score: inf
ROOT
ATOM      1  C   UNL     1      37.053  -6.518  12.286  1.00  0.00     0.184 C 
ATOM      2  C   UNL     1      36.537  -6.873  13.715  1.00  0.00     0.178 C 
ATOM      3  O   UNL     1      35.228  -6.384  13.976  1.00  0.00    -0.341 OA
ATOM      4  C   UNL     1      34.216  -6.828  13.074  1.00  0.00     0.282 C 
ATOM      5  C   UNL     1      34.715  -7.266  11.676  1.00  0.00     0.202 C 
ATOM      6  C   UNL     1      35.903  -6.402  11.257  1.00  0.00     0.180 C 
ENDROOT
BRANCH   1   7
ATOM      7  O   UNL     1      37.727  -5.270  12.368  1.00  0.00    -0.341 OA
BRANCH   7   8
ATOM      8  C   UNL     1      37.354  -4.367  11.339  1.00  0.00     0.282 C 
ATOM      9  C   UNL     1      36.320  -2.287  11.035  1.00  0.00     0.178 C 
ATOM     10  C   UNL     1      37.073  -2.182   9.660  1.00  0.00     0.177 C 
ATOM     11  O   UNL     1      36.979  -3.150  11.952  1.00  0.00    -0.341 OA
ATOM     12  C   UNL     1      38.520  -2.704   9.761  1.00  0.00     0.179 C 
ATOM     13  C   UNL     1      38.573  -4.115  10.415  1.00  0.00     0.202 C 
BRANCH   9  14
ATOM     14  C   UNL     1      36.127  -0.929  11.735  1.00  0.00     0.191 C 
BRANCH  14  15
ATOM     15  O   UNL     1      37.360  -0.298  11.962  1.00  0.00    -0.394 OA
ATOM     16  H   UNL     1      37.788  -0.773  12.722  1.00  0.00     0.210 HD
ENDBRANCH  14  15
ENDBRANCH   9  14
BRANCH  10  17
ATOM     17  O   UNL     1      37.081  -0.872   9.148  1.00  0.00    -0.387 OA
ATOM     18  H   UNL     1      37.950  -0.747   8.686  1.00  0.00     0.211 HD
ENDBRANCH  10  17
BRANCH  12  19
ATOM     19  O   UNL     1      39.340  -1.788  10.446  1.00  0.00    -0.387 OA
ATOM     20  H   UNL     1      39.972  -2.299  11.013  1.00  0.00     0.211 HD
ENDBRANCH  12  19
BRANCH  13  21
ATOM     21  O   UNL     1      38.667  -5.122   9.437  1.00  0.00    -0.385 OA
ATOM     22  H   UNL     1      37.784  -5.577   9.386  1.00  0.00     0.211 HD
ENDBRANCH  13  21
ENDBRANCH   7   8
ENDBRANCH   1   7
BRANCH   2  23
ATOM     23  C   UNL     1      36.695  -8.361  14.106  1.00  0.00     0.191 C 
BRANCH  23  24
ATOM     24  O   UNL     1      38.037  -8.752  13.993  1.00  0.00    -0.394 OA
ATOM     25  H   UNL     1      38.304  -9.118  14.876  1.00  0.00     0.210 HD
ENDBRANCH  23  24
ENDBRANCH   2  23
BRANCH   6  26
ATOM     26  O   UNL     1      36.356  -6.812   9.991  1.00  0.00    -0.387 OA
ATOM     27  H   UNL     1      35.557  -7.102   9.476  1.00  0.00     0.211 HD
ENDBRANCH   6  26
BRANCH   5  28
ATOM     28  O   UNL     1      33.675  -7.193  10.731  1.00  0.00    -0.385 OA
ATOM     29  H   UNL     1      33.309  -8.108  10.604  1.00  0.00     0.211 HD
ENDBRANCH   5  28
BRANCH   4  30
ATOM     30  O   UNL     1      33.481  -7.891  13.663  1.00  0.00    -0.341 OA
BRANCH  30  31
ATOM     31  C   UNL     1      32.891  -8.729  12.677  1.00  0.00     0.184 C 
ATOM     32  C   UNL     1      31.354  -8.747  12.854  1.00  0.00     0.178 C 
ATOM     33  C   UNL     1      33.429 -10.172  12.807  1.00  0.00     0.180 C 
ATOM     34  O   UNL     1      30.749  -9.578  11.872  1.00  0.00    -0.342 OA
ATOM     35  C   UNL     1      32.667 -11.095  11.840  1.00  0.00     0.201 C 
ATOM     36  C   UNL     1      31.141 -10.933  12.013  1.00  0.00     0.279 C 
BRANCH  32  37
ATOM     37  C   UNL     1      30.771  -7.334  12.715  1.00  0.00     0.191 C 
BRANCH  37  38
ATOM     38  O   UNL     1      30.489  -7.049  11.370  1.00  0.00    -0.394 OA
ATOM     39  H   UNL     1      29.499  -7.038  11.285  1.00  0.00     0.210 HD
ENDBRANCH  37  38
ENDBRANCH  32  37
BRANCH  33  40
ATOM     40  O   UNL     1      33.280 -10.638  14.125  1.00  0.00    -0.387 OA
ATOM     41  H   UNL     1      32.951  -9.875  14.667  1.00  0.00     0.211 HD
ENDBRANCH  33  40
BRANCH  35  42
ATOM     42  O   UNL     1      33.036 -12.435  12.040  1.00  0.00    -0.385 OA
ATOM     43  H   UNL     1      32.303 -12.860  12.559  1.00  0.00     0.211 HD
ENDBRANCH  35  42
BRANCH  36  44
ATOM     44  O   UNL     1      30.701 -11.449  13.247  1.00  0.00    -0.366 OA
ATOM     45  H   UNL     1      31.264 -12.241  13.449  1.00  0.00     0.213 HD
ENDBRANCH  36  44
ENDBRANCH  30  31
ENDBRANCH   4  30
TORSDOF 18
ENDMDL
MODEL 6
REMARK VINA RESULT:    -3.240      1.581      3.201
REMARK INTER + INTRA:          -8.300
REMARK INTER:                  -5.655
REMARK INTRA:                  -2.645
REMARK UNBOUND:                -2.692
REMARK SMILES OC[C@@H]1O[C@H](O[C@@H]2[C@@H](O)[C@H](O)[C@@H](O[C@H]3[C@@H](O)[C@@H](O)[C@@H](O)O[C@@H]3CO)O[C@H]2CO)[C@@H](O)[C@H](O)[C@@H]1O
REMARK SMILES IDX 7 1 26 2 25 3 12 4 10 5 8 6 6 7 5 8 3 9 33 10 4 11 31 12
REMARK SMILES IDX 29 13 2 14 1 15 34 17 32 19 30 21 27 23 28 24 9 26 11 28
REMARK SMILES IDX 13 30 14 31 22 32 15 33 21 34 17 35 19 36 23 37 24 38 16 40
REMARK SMILES IDX 18 42 20 44
REMARK H PARENT 1 16 34 18 32 20 30 22 28 25 9 27 11 29 24 39 16 41 18 43
REMARK H PARENT 20 45
REMARK Flexibility Score: inf
ROOT
ATOM      1  C   UNL     1      36.654  -4.318  10.232  1.00  0.00     0.184 C 
ATOM      2  C   UNL     1      36.917  -5.409  11.316  1.00  0.00     0.178 C 
ATOM      3  O   UNL     1      35.822  -5.594  12.203  1.00  0.00    -0.341 OA
ATOM      4  C   UNL     1      34.585  -5.947  11.586  1.00  0.00     0.282 C 
ATOM      5  C   UNL     1      34.438  -5.532  10.102  1.00  0.00     0.202 C 
ATOM      6  C   UNL     1      35.155  -4.205   9.864  1.00  0.00     0.180 C 
ENDROOT
BRANCH   1   7
ATOM      7  O   UNL     1      37.097  -3.074  10.756  1.00  0.00    -0.341 OA
BRANCH   7   8
ATOM      8  C   UNL     1      38.109  -2.467   9.968  1.00  0.00     0.282 C 
ATOM      9  C   UNL     1      38.405  -1.387   7.910  1.00  0.00     0.178 C 
ATOM     10  C   UNL     1      39.687  -0.714   8.516  1.00  0.00     0.177 C 
ATOM     11  O   UNL     1      37.472  -1.782   8.908  1.00  0.00    -0.341 OA
ATOM     12  C   UNL     1      39.468  -0.284   9.980  1.00  0.00     0.179 C 
ATOM     13  C   UNL     1      38.888  -1.446  10.836  1.00  0.00     0.202 C 
BRANCH   9  14
ATOM     14  C   UNL     1      37.656  -0.491   6.906  1.00  0.00     0.191 C 
BRANCH  14  15
ATOM     15  O   UNL     1      37.191   0.680   7.524  1.00  0.00    -0.394 OA
ATOM     16  H   UNL     1      37.716   1.431   7.143  1.00  0.00     0.210 HD
ENDBRANCH  14  15
ENDBRANCH   9  14
BRANCH  10  17
ATOM     17  O   UNL     1      40.125   0.390   7.763  1.00  0.00    -0.387 OA
ATOM     18  H   UNL     1      39.731   0.297   6.857  1.00  0.00     0.211 HD
ENDBRANCH  10  17
BRANCH  12  19
ATOM     19  O   UNL     1      38.654   0.863  10.051  1.00  0.00    -0.387 OA
ATOM     20  H   UNL     1      38.092   0.897   9.235  1.00  0.00     0.211 HD
ENDBRANCH  12  19
BRANCH  13  21
ATOM     21  O   UNL     1      39.904  -2.093  11.564  1.00  0.00    -0.385 OA
ATOM     22  H   UNL     1      40.702  -1.500  11.561  1.00  0.00     0.211 HD
ENDBRANCH  13  21
ENDBRANCH   7   8
ENDBRANCH   1   7
BRANCH   2  23
ATOM     23  C   UNL     1      37.455  -6.749  10.764  1.00  0.00     0.191 C 
BRANCH  23  24
ATOM     24  O   UNL     1      37.654  -7.660  11.811  1.00  0.00    -0.394 OA
ATOM     25  H   UNL     1      36.884  -8.287  11.797  1.00  0.00     0.210 HD
ENDBRANCH  23  24
ENDBRANCH   2  23
BRANCH   6  26
ATOM     26  O   UNL     1      35.026  -3.839   8.512  1.00  0.00    -0.387 OA
ATOM     27  H   UNL     1      35.361  -2.907   8.429  1.00  0.00     0.211 HD
ENDBRANCH   6  26
BRANCH   5  28
ATOM     28  O   UNL     1      33.081  -5.449   9.740  1.00  0.00    -0.385 OA
ATOM     29  H   UNL     1      32.955  -5.959   8.897  1.00  0.00     0.211 HD
ENDBRANCH   5  28
BRANCH   4  30
ATOM     30  O   UNL     1      34.372  -7.347  11.704  1.00  0.00    -0.341 OA
BRANCH  30  31
ATOM     31  C   UNL     1      33.385  -7.646  12.682  1.00  0.00     0.184 C 
ATOM     32  C   UNL     1      33.529  -9.116  13.143  1.00  0.00     0.178 C 
ATOM     33  C   UNL     1      31.969  -7.440  12.096  1.00  0.00     0.180 C 
ATOM     34  O   UNL     1      32.550  -9.428  14.125  1.00  0.00    -0.342 OA
ATOM     35  C   UNL     1      30.917  -7.917  13.111  1.00  0.00     0.201 C 
ATOM     36  C   UNL     1      31.235  -9.346  13.602  1.00  0.00     0.279 C 
BRANCH  32  37
ATOM     37  C   UNL     1      34.917  -9.363  13.750  1.00  0.00     0.191 C 
BRANCH  37  38
ATOM     38  O   UNL     1      35.566  -8.145  14.007  1.00  0.00    -0.394 OA
ATOM     39  H   UNL     1      34.965  -7.429  13.670  1.00  0.00     0.210 HD
ENDBRANCH  37  38
ENDBRANCH  32  37
BRANCH  33  40
ATOM     40  O   UNL     1      31.824  -8.152  10.892  1.00  0.00    -0.387 OA
ATOM     41  H   UNL     1      32.006  -7.514  10.154  1.00  0.00     0.211 HD
ENDBRANCH  33  40
BRANCH  35  42
ATOM     42  O   UNL     1      29.631  -7.875  12.549  1.00  0.00    -0.385 OA
ATOM     43  H   UNL     1      29.496  -8.740  12.077  1.00  0.00     0.211 HD
ENDBRANCH  35  42
BRANCH  36  44
ATOM     44  O   UNL     1      31.046 -10.300  12.585  1.00  0.00    -0.366 OA
ATOM     45  H   UNL     1      30.616 -11.091  13.004  1.00  0.00     0.213 HD
ENDBRANCH  36  44
ENDBRANCH  30  31
ENDBRANCH   4  30
TORSDOF 18
ENDMDL
MODEL 7
REMARK VINA RESULT:    -3.167      1.812      8.714
REMARK INTER + INTRA:          -8.174
REMARK INTER:                  -6.196
REMARK INTRA:                  -1.978
REMARK UNBOUND:                -2.692
REMARK SMILES OC[C@@H]1O[C@H](O[C@@H]2[C@@H](O)[C@H](O)[C@@H](O[C@H]3[C@@H](O)[C@@H](O)[C@@H](O)O[C@@H]3CO)O[C@H]2CO)[C@@H](O)[C@H](O)[C@@H]1O
REMARK SMILES IDX 7 1 26 2 25 3 12 4 10 5 8 6 6 7 5 8 3 9 33 10 4 11 31 12
REMARK SMILES IDX 29 13 2 14 1 15 34 17 32 19 30 21 27 23 28 24 9 26 11 28
REMARK SMILES IDX 13 30 14 31 22 32 15 33 21 34 17 35 19 36 23 37 24 38 16 40
REMARK SMILES IDX 18 42 20 44
REMARK H PARENT 1 16 34 18 32 20 30 22 28 25 9 27 11 29 24 39 16 41 18 43
REMARK H PARENT 20 45
REMARK Flexibility Score: inf
ROOT
ATOM      1  C   UNL     1      35.125  -6.464  11.329  1.00  0.00     0.184 C 
ATOM      2  C   UNL     1      34.601  -4.995  11.292  1.00  0.00     0.178 C 
ATOM      3  O   UNL     1      35.627  -4.029  11.478  1.00  0.00    -0.341 OA
ATOM      4  C   UNL     1      36.700  -4.085  10.540  1.00  0.00     0.282 C 
ATOM      5  C   UNL     1      36.914  -5.455   9.852  1.00  0.00     0.202 C 
ATOM      6  C   UNL     1      36.585  -6.581  10.831  1.00  0.00     0.180 C 
ENDROOT
BRANCH   1   7
ATOM      7  O   UNL     1      35.059  -6.913  12.676  1.00  0.00    -0.341 OA
BRANCH   7   8
ATOM      8  C   UNL     1      33.819  -7.523  12.999  1.00  0.00     0.282 C 
ATOM      9  C   UNL     1      31.547  -7.426  12.436  1.00  0.00     0.178 C 
ATOM     10  C   UNL     1      31.418  -8.903  12.954  1.00  0.00     0.177 C 
ATOM     11  O   UNL     1      32.872  -7.102  12.037  1.00  0.00    -0.341 OA
ATOM     12  C   UNL     1      32.632  -9.759  12.544  1.00  0.00     0.179 C 
ATOM     13  C   UNL     1      33.973  -9.064  12.917  1.00  0.00     0.202 C 
BRANCH   9  14
ATOM     14  C   UNL     1      30.616  -7.106  11.252  1.00  0.00     0.191 C 
BRANCH  14  15
ATOM     15  O   UNL     1      31.089  -7.688  10.066  1.00  0.00    -0.394 OA
ATOM     16  H   UNL     1      31.922  -7.205   9.823  1.00  0.00     0.210 HD
ENDBRANCH  14  15
ENDBRANCH   9  14
BRANCH  10  17
ATOM     17  O   UNL     1      30.235  -9.526  12.518  1.00  0.00    -0.387 OA
ATOM     18  H   UNL     1      30.477 -10.451  12.251  1.00  0.00     0.211 HD
ENDBRANCH  10  17
BRANCH  12  19
ATOM     19  O   UNL     1      32.583 -10.080  11.174  1.00  0.00    -0.387 OA
ATOM     20  H   UNL     1      32.123  -9.342  10.698  1.00  0.00     0.211 HD
ENDBRANCH  12  19
BRANCH  13  21
ATOM     21  O   UNL     1      34.486  -9.572  14.125  1.00  0.00    -0.385 OA
ATOM     22  H   UNL     1      33.738 -10.010  14.611  1.00  0.00     0.211 HD
ENDBRANCH  13  21
ENDBRANCH   7   8
ENDBRANCH   1   7
BRANCH   2  23
ATOM     23  C   UNL     1      33.698  -4.664  10.082  1.00  0.00     0.191 C 
BRANCH  23  24
ATOM     24  O   UNL     1      33.253  -5.845   9.471  1.00  0.00    -0.394 OA
ATOM     25  H   UNL     1      32.466  -6.158   9.989  1.00  0.00     0.210 HD
ENDBRANCH  23  24
ENDBRANCH   2  23
BRANCH   6  26
ATOM     26  O   UNL     1      36.773  -7.822  10.197  1.00  0.00    -0.387 OA
ATOM     27  H   UNL     1      35.877  -8.243  10.110  1.00  0.00     0.211 HD
ENDBRANCH   6  26
BRANCH   5  28
ATOM     28  O   UNL     1      38.230  -5.570   9.369  1.00  0.00    -0.385 OA
ATOM     29  H   UNL     1      38.663  -6.334   9.833  1.00  0.00     0.211 HD
ENDBRANCH   5  28
BRANCH   4  30
ATOM     30  O   UNL     1      36.520  -3.086   9.545  1.00  0.00    -0.341 OA
BRANCH  30  31
ATOM     31  C   UNL     1      37.390  -1.980   9.752  1.00  0.00     0.184 C 
ATOM     32  C   UNL     1      36.559  -0.707  10.044  1.00  0.00     0.178 C 
ATOM     33  C   UNL     1      38.257  -1.737   8.496  1.00  0.00     0.180 C 
ATOM     34  O   UNL     1      37.416   0.408  10.257  1.00  0.00    -0.342 OA
ATOM     35  C   UNL     1      39.074  -0.446   8.677  1.00  0.00     0.201 C 
ATOM     36  C   UNL     1      38.163   0.728   9.096  1.00  0.00     0.279 C 
BRANCH  32  37
ATOM     37  C   UNL     1      35.693  -0.896  11.297  1.00  0.00     0.191 C 
BRANCH  37  38
ATOM     38  O   UNL     1      34.416  -1.363  10.946  1.00  0.00    -0.394 OA
ATOM     39  H   UNL     1      34.269  -2.197  11.465  1.00  0.00     0.210 HD
ENDBRANCH  37  38
ENDBRANCH  32  37
BRANCH  33  40
ATOM     40  O   UNL     1      37.449  -1.631   7.350  1.00  0.00    -0.387 OA
ATOM     41  H   UNL     1      37.826  -2.250   6.672  1.00  0.00     0.211 HD
ENDBRANCH  33  40
BRANCH  35  42
ATOM     42  O   UNL     1      39.761  -0.125   7.495  1.00  0.00    -0.385 OA
ATOM     43  H   UNL     1      40.596  -0.665   7.492  1.00  0.00     0.211 HD
ENDBRANCH  35  42
BRANCH  36  44
ATOM     44  O   UNL     1      37.308   1.121   8.050  1.00  0.00    -0.366 OA
ATOM     45  H   UNL     1      37.466   0.497   7.294  1.00  0.00     0.213 HD
ENDBRANCH  36  44
ENDBRANCH  30  31
ENDBRANCH   4  30
TORSDOF 18
ENDMDL
MODEL 8
REMARK VINA RESULT:    -2.956      1.992      8.638
REMARK INTER + INTRA:          -7.808
REMARK INTER:                  -7.243
REMARK INTRA:                  -0.565
REMARK UNBOUND:                -2.692
REMARK SMILES OC[C@@H]1O[C@H](O[C@@H]2[C@@H](O)[C@H](O)[C@@H](O[C@H]3[C@@H](O)[C@@H](O)[C@@H](O)O[C@@H]3CO)O[C@H]2CO)[C@@H](O)[C@H](O)[C@@H]1O
REMARK SMILES IDX 7 1 26 2 25 3 12 4 10 5 8 6 6 7 5 8 3 9 33 10 4 11 31 12
REMARK SMILES IDX 29 13 2 14 1 15 34 17 32 19 30 21 27 23 28 24 9 26 11 28
REMARK SMILES IDX 13 30 14 31 22 32 15 33 21 34 17 35 19 36 23 37 24 38 16 40
REMARK SMILES IDX 18 42 20 44
REMARK H PARENT 1 16 34 18 32 20 30 22 28 25 9 27 11 29 24 39 16 41 18 43
REMARK H PARENT 20 45
REMARK Flexibility Score: inf
ROOT
ATOM      1  C   UNL     1      35.296  -6.541  10.993  1.00  0.00     0.184 C 
ATOM      2  C   UNL     1      34.742  -5.109  10.715  1.00  0.00     0.178 C 
ATOM      3  O   UNL     1      35.494  -4.084  11.349  1.00  0.00    -0.341 OA
ATOM      4  C   UNL     1      36.879  -4.039  11.011  1.00  0.00     0.282 C 
ATOM      5  C   UNL     1      37.484  -5.370  10.504  1.00  0.00     0.202 C 
ATOM      6  C   UNL     1      36.826  -6.545  11.225  1.00  0.00     0.180 C 
ENDROOT
BRANCH   1   7
ATOM      7  O   UNL     1      34.651  -7.034  12.160  1.00  0.00    -0.341 OA
BRANCH   7   8
ATOM      8  C   UNL     1      33.577  -7.915  11.870  1.00  0.00     0.282 C 
ATOM      9  C   UNL     1      32.900 -10.131  12.221  1.00  0.00     0.178 C 
ATOM     10  C   UNL     1      31.421  -9.650  12.003  1.00  0.00     0.177 C 
ATOM     11  O   UNL     1      33.757  -9.080  12.650  1.00  0.00    -0.341 OA
ATOM     12  C   UNL     1      31.161  -8.285  12.670  1.00  0.00     0.179 C 
ATOM     13  C   UNL     1      32.240  -7.238  12.271  1.00  0.00     0.202 C 
BRANCH   9  14
ATOM     14  C   UNL     1      33.030 -11.277  13.241  1.00  0.00     0.191 C 
BRANCH  14  15
ATOM     15  O   UNL     1      32.765 -12.518  12.642  1.00  0.00    -0.394 OA
ATOM     16  H   UNL     1      32.074 -12.962  13.200  1.00  0.00     0.210 HD
ENDBRANCH  14  15
ENDBRANCH   9  14
BRANCH  10  17
ATOM     17  O   UNL     1      30.476 -10.585  12.461  1.00  0.00    -0.387 OA
ATOM     18  H   UNL     1      30.145 -11.076  11.666  1.00  0.00     0.211 HD
ENDBRANCH  10  17
BRANCH  12  19
ATOM     19  O   UNL     1      31.065  -8.419  14.069  1.00  0.00    -0.387 OA
ATOM     20  H   UNL     1      30.514  -7.671  14.416  1.00  0.00     0.211 HD
ENDBRANCH  12  19
BRANCH  13  21
ATOM     21  O   UNL     1      31.779  -6.407  11.235  1.00  0.00    -0.385 OA
ATOM     22  H   UNL     1      32.363  -5.602  11.210  1.00  0.00     0.211 HD
ENDBRANCH  13  21
ENDBRANCH   7   8
ENDBRANCH   1   7
BRANCH   2  23
ATOM     23  C   UNL     1      34.474  -4.801   9.223  1.00  0.00     0.191 C 
BRANCH  23  24
ATOM     24  O   UNL     1      33.193  -5.239   8.860  1.00  0.00    -0.394 OA
ATOM     25  H   UNL     1      32.564  -4.503   9.081  1.00  0.00     0.210 HD
ENDBRANCH  23  24
ENDBRANCH   2  23
BRANCH   6  26
ATOM     26  O   UNL     1      37.374  -7.750  10.752  1.00  0.00    -0.387 OA
ATOM     27  H   UNL     1      37.993  -8.083  11.454  1.00  0.00     0.211 HD
ENDBRANCH   6  26
BRANCH   5  28
ATOM     28  O   UNL     1      38.880  -5.382  10.682  1.00  0.00    -0.385 OA
ATOM     29  H   UNL     1      39.268  -6.018  10.025  1.00  0.00     0.211 HD
ENDBRANCH   5  28
BRANCH   4  30
ATOM     30  O   UNL     1      37.104  -3.024  10.043  1.00  0.00    -0.341 OA
BRANCH  30  31
ATOM     31  C   UNL     1      37.234  -1.743  10.649  1.00  0.00     0.184 C 
ATOM     32  C   UNL     1      37.456  -1.902  12.172  1.00  0.00     0.178 C 
ATOM     33  C   UNL     1      35.957  -0.906  10.412  1.00  0.00     0.180 C 
ATOM     34  O   UNL     1      37.592  -0.630  12.790  1.00  0.00    -0.342 OA
ATOM     35  C   UNL     1      36.050   0.410  11.203  1.00  0.00     0.201 C 
ATOM     36  C   UNL     1      36.405   0.139  12.681  1.00  0.00     0.279 C 
BRANCH  32  37
ATOM     37  C   UNL     1      38.727  -2.715  12.457  1.00  0.00     0.191 C 
BRANCH  37  38
ATOM     38  O   UNL     1      39.709  -2.445  11.491  1.00  0.00    -0.394 OA
ATOM     39  H   UNL     1      39.500  -3.019  10.707  1.00  0.00     0.210 HD
ENDBRANCH  37  38
ENDBRANCH  32  37
BRANCH  33  40
ATOM     40  O   UNL     1      34.814  -1.621  10.813  1.00  0.00    -0.387 OA
ATOM     41  H   UNL     1      34.725  -1.499  11.794  1.00  0.00     0.211 HD
ENDBRANCH  33  40
BRANCH  35  42
ATOM     42  O   UNL     1      34.844   1.125  11.120  1.00  0.00    -0.385 OA
ATOM     43  H   UNL     1      34.815   1.731  11.907  1.00  0.00     0.211 HD
ENDBRANCH  35  42
BRANCH  36  44
ATOM     44  O   UNL     1      35.346  -0.486  13.364  1.00  0.00    -0.366 OA
ATOM     45  H   UNL     1      35.752  -1.073  14.055  1.00  0.00     0.213 HD
ENDBRANCH  36  44
ENDBRANCH  30  31
ENDBRANCH   4  30
TORSDOF 18
ENDMDL
MODEL 9
REMARK VINA RESULT:    -2.943      1.452      8.831
REMARK INTER + INTRA:          -7.785
REMARK INTER:                  -6.659
REMARK INTRA:                  -1.126
REMARK UNBOUND:                -2.692
REMARK SMILES OC[C@@H]1O[C@H](O[C@@H]2[C@@H](O)[C@H](O)[C@@H](O[C@H]3[C@@H](O)[C@@H](O)[C@@H](O)O[C@@H]3CO)O[C@H]2CO)[C@@H](O)[C@H](O)[C@@H]1O
REMARK SMILES IDX 7 1 26 2 25 3 12 4 10 5 8 6 6 7 5 8 3 9 33 10 4 11 31 12
REMARK SMILES IDX 29 13 2 14 1 15 34 17 32 19 30 21 27 23 28 24 9 26 11 28
REMARK SMILES IDX 13 30 14 31 22 32 15 33 21 34 17 35 19 36 23 37 24 38 16 40
REMARK SMILES IDX 18 42 20 44
REMARK H PARENT 1 16 34 18 32 20 30 22 28 25 9 27 11 29 24 39 16 41 18 43
REMARK H PARENT 20 45
REMARK Flexibility Score: inf
ROOT
ATOM      1  C   UNL     1      35.981  -5.525  11.638  1.00  0.00     0.184 C 
ATOM      2  C   UNL     1      37.523  -5.511  11.877  1.00  0.00     0.178 C 
ATOM      3  O   UNL     1      38.276  -5.430  10.675  1.00  0.00    -0.341 OA
ATOM      4  C   UNL     1      37.997  -4.300   9.850  1.00  0.00     0.282 C 
ATOM      5  C   UNL     1      36.600  -3.663  10.042  1.00  0.00     0.202 C 
ATOM      6  C   UNL     1      35.576  -4.751  10.361  1.00  0.00     0.180 C 
ENDROOT
BRANCH   1   7
ATOM      7  O   UNL     1      35.578  -6.881  11.504  1.00  0.00    -0.341 OA
BRANCH   7   8
ATOM      8  C   UNL     1      34.387  -7.181  12.215  1.00  0.00     0.282 C 
ATOM      9  C   UNL     1      32.058  -7.110  11.968  1.00  0.00     0.178 C 
ATOM     10  C   UNL     1      31.968  -8.217  13.078  1.00  0.00     0.177 C 
ATOM     11  O   UNL     1      33.313  -7.111  11.299  1.00  0.00    -0.341 OA
ATOM     12  C   UNL     1      33.075  -9.278  12.918  1.00  0.00     0.179 C 
ATOM     13  C   UNL     1      34.479  -8.622  12.780  1.00  0.00     0.202 C 
BRANCH   9  14
ATOM     14  C   UNL     1      30.962  -7.227  10.893  1.00  0.00     0.191 C 
BRANCH  14  15
ATOM     15  O   UNL     1      31.517  -7.491   9.631  1.00  0.00    -0.394 OA
ATOM     16  H   UNL     1      31.072  -8.311   9.290  1.00  0.00     0.210 HD
ENDBRANCH  14  15
ENDBRANCH   9  14
BRANCH  10  17
ATOM     17  O   UNL     1      30.712  -8.850  13.108  1.00  0.00    -0.387 OA
ATOM     18  H   UNL     1      30.605  -9.238  14.015  1.00  0.00     0.211 HD
ENDBRANCH  10  17
BRANCH  12  19
ATOM     19  O   UNL     1      32.798 -10.135  11.835  1.00  0.00    -0.387 OA
ATOM     20  H   UNL     1      33.469  -9.965  11.125  1.00  0.00     0.211 HD
ENDBRANCH  12  19
BRANCH  13  21
ATOM     21  O   UNL     1      35.161  -8.626  14.010  1.00  0.00    -0.385 OA
ATOM     22  H   UNL     1      35.858  -7.917  13.972  1.00  0.00     0.211 HD
ENDBRANCH  13  21
ENDBRANCH   7   8
ENDBRANCH   1   7
BRANCH   2  23
ATOM     23  C   UNL     1      38.001  -4.490  12.936  1.00  0.00     0.191 C 
BRANCH  23  24
ATOM     24  O   UNL     1      39.402  -4.455  12.978  1.00  0.00    -0.394 OA
ATOM     25  H   UNL     1      39.668  -4.700  13.903  1.00  0.00     0.210 HD
ENDBRANCH  23  24
ENDBRANCH   2  23
BRANCH   6  26
ATOM     26  O   UNL     1      34.311  -4.165  10.543  1.00  0.00    -0.387 OA
ATOM     27  H   UNL     1      33.833  -4.710  11.222  1.00  0.00     0.211 HD
ENDBRANCH   6  26
BRANCH   5  28
ATOM     28  O   UNL     1      36.225  -2.932   8.900  1.00  0.00    -0.385 OA
ATOM     29  H   UNL     1      35.336  -3.261   8.602  1.00  0.00     0.211 HD
ENDBRANCH   5  28
BRANCH   4  30
ATOM     30  O   UNL     1      38.994  -3.307  10.045  1.00  0.00    -0.341 OA
BRANCH  30  31
ATOM     31  C   UNL     1      38.425  -2.009  10.159  1.00  0.00     0.184 C 
ATOM     32  C   UNL     1      39.191  -1.017   9.252  1.00  0.00     0.178 C 
ATOM     33  C   UNL     1      38.503  -1.515  11.622  1.00  0.00     0.180 C 
ATOM     34  O   UNL     1      38.630   0.285   9.353  1.00  0.00    -0.342 OA
ATOM     35  C   UNL     1      38.029  -0.054  11.699  1.00  0.00     0.201 C 
ATOM     36  C   UNL     1      38.766   0.818  10.660  1.00  0.00     0.279 C 
BRANCH  32  37
ATOM     37  C   UNL     1      39.125  -1.458   7.783  1.00  0.00     0.191 C 
BRANCH  37  38
ATOM     38  O   UNL     1      37.882  -1.121   7.224  1.00  0.00    -0.394 OA
ATOM     39  H   UNL     1      37.833  -0.129   7.225  1.00  0.00     0.210 HD
ENDBRANCH  37  38
ENDBRANCH  32  37
BRANCH  33  40
ATOM     40  O   UNL     1      39.819  -1.614  12.108  1.00  0.00    -0.387 OA
ATOM     41  H   UNL     1      39.783  -2.160  12.936  1.00  0.00     0.211 HD
ENDBRANCH  33  40
BRANCH  35  42
ATOM     42  O   UNL     1      38.225   0.464  12.990  1.00  0.00    -0.385 OA
ATOM     43  H   UNL     1      39.205   0.585  13.104  1.00  0.00     0.211 HD
ENDBRANCH  35  42
BRANCH  36  44
ATOM     44  O   UNL     1      40.125   0.982  10.988  1.00  0.00    -0.366 OA
ATOM     45  H   UNL     1      40.610   1.156  10.139  1.00  0.00     0.213 HD
ENDBRANCH  36  44
ENDBRANCH  30  31
ENDBRANCH   4  30
TORSDOF 18
ENDMDL
