MODEL 1
REMARK VINA RESULT:    -3.013      0.000      0.000
REMARK INTER + INTRA:          -8.104
REMARK INTER:                  -5.479
REMARK INTRA:                  -2.625
REMARK UNBOUND:                -2.625
REMARK SMILES CCCCCCCCCCCCCCCC(=O)[O-]
REMARK SMILES IDX 9 1 10 2 11 3 12 4 13 5 14 6 15 7 16 8 17 9 18 10 8 11 7 12
REMARK SMILES IDX 6 13 5 14 4 15 3 16 2 17 1 18
REMARK H PARENT
REMARK Flexibility Score: inf
ROOT
ATOM      1  C   UNL     1      62.711  31.469  58.260  1.00  0.00     0.000 C 
ENDROOT
BRANCH   1   2
ATOM      2  C   UNL     1      61.578  32.485  58.468  1.00  0.00     0.000 C 
BRANCH   2   3
ATOM      3  C   UNL     1      60.495  31.917  59.393  1.00  0.00     0.000 C 
BRANCH   3   4
ATOM      4  C   UNL     1      60.771  32.290  60.858  1.00  0.00     0.000 C 
BRANCH   4   5
ATOM      5  C   UNL     1      60.908  31.060  61.774  1.00  0.00     0.000 C 
BRANCH   5   6
ATOM      6  C   UNL     1      62.314  30.429  61.814  1.00  0.00     0.006 C 
BRANCH   6   7
ATOM      7  C   UNL     1      62.390  29.004  61.242  1.00  0.00     0.053 C 
BRANCH   7   8
ATOM      8  C   UNL     1      63.708  28.733  60.584  1.00  0.00     0.041 C 
ATOM      9  O   UNL     1      63.758  28.060  59.522  1.00  0.00    -0.550 OA
ATOM     10  O   UNL     1      64.876  29.256  61.124  1.00  0.00    -0.550 OA
ENDBRANCH   7   8
ENDBRANCH   6   7
ENDBRANCH   5   6
ENDBRANCH   4   5
ENDBRANCH   3   4
ENDBRANCH   2   3
ENDBRANCH   1   2
BRANCH   1  11
ATOM     11  C   UNL     1      64.080  32.012  58.697  1.00  0.00     0.000 C 
BRANCH  11  12
ATOM     12  C   UNL     1      63.999  33.435  59.270  1.00  0.00    -0.000 C 
BRANCH  12  13
ATOM     13  C   UNL     1      64.259  33.433  60.781  1.00  0.00    -0.000 C 
BRANCH  13  14
ATOM     14  C   UNL     1      64.091  34.841  61.373  1.00  0.00    -0.000 C 
BRANCH  14  15
ATOM     15  C   UNL     1      63.205  35.745  60.491  1.00  0.00    -0.000 C 
BRANCH  15  16
ATOM     16  C   UNL     1      61.750  35.856  60.986  1.00  0.00    -0.000 C 
BRANCH  16  17
ATOM     17  C   UNL     1      60.707  36.058  59.874  1.00  0.00    -0.003 C 
ATOM     18  C   UNL     1      61.324  36.064  58.475  1.00  0.00     0.004 C 
ENDBRANCH  16  17
ENDBRANCH  15  16
ENDBRANCH  14  15
ENDBRANCH  13  14
ENDBRANCH  12  13
ENDBRANCH  11  12
ENDBRANCH   1  11
TORSDOF 14
ENDMDL
MODEL 2
REMARK VINA RESULT:    -2.991      1.192      1.830
REMARK INTER + INTRA:          -8.064
REMARK INTER:                  -6.032
REMARK INTRA:                  -2.032
REMARK UNBOUND:                -2.625
REMARK SMILES CCCCCCCCCCCCCCCC(=O)[O-]
REMARK SMILES IDX 9 1 10 2 11 3 12 4 13 5 14 6 15 7 16 8 17 9 18 10 8 11 7 12
REMARK SMILES IDX 6 13 5 14 4 15 3 16 2 17 1 18
REMARK H PARENT
REMARK Flexibility Score: inf
ROOT
ATOM      1  C   UNL     1      62.637  32.543  60.974  1.00  0.00     0.000 C 
ENDROOT
BRANCH   1   2
ATOM      2  C   UNL     1      61.131  32.286  60.815  1.00  0.00     0.000 C 
BRANCH   2   3
ATOM      3  C   UNL     1      60.721  30.981  61.508  1.00  0.00     0.000 C 
BRANCH   3   4
ATOM      4  C   UNL     1      61.953  30.146  61.885  1.00  0.00     0.000 C 
BRANCH   4   5
ATOM      5  C   UNL     1      61.813  28.661  61.501  1.00  0.00     0.000 C 
BRANCH   5   6
ATOM      6  C   UNL     1      62.440  28.274  60.147  1.00  0.00     0.006 C 
BRANCH   6   7
ATOM      7  C   UNL     1      63.720  29.047  59.791  1.00  0.00     0.053 C 
BRANCH   7   8
ATOM      8  C   UNL     1      64.933  28.451  60.435  1.00  0.00     0.041 C 
ATOM      9  O   UNL     1      65.159  27.217  60.336  1.00  0.00    -0.550 OA
ATOM     10  O   UNL     1      65.833  29.264  61.112  1.00  0.00    -0.550 OA
ENDBRANCH   7   8
ENDBRANCH   6   7
ENDBRANCH   5   6
ENDBRANCH   4   5
ENDBRANCH   3   4
ENDBRANCH   2   3
ENDBRANCH   1   2
BRANCH   1  11
ATOM     11  C   UNL     1      63.300  33.004  59.667  1.00  0.00     0.000 C 
BRANCH  11  12
ATOM     12  C   UNL     1      64.294  34.156  59.881  1.00  0.00    -0.000 C 
BRANCH  12  13
ATOM     13  C   UNL     1      64.330  34.584  61.353  1.00  0.00    -0.000 C 
BRANCH  13  14
ATOM     14  C   UNL     1      64.344  36.114  61.484  1.00  0.00    -0.000 C 
BRANCH  14  15
ATOM     15  C   UNL     1      63.279  36.788  60.594  1.00  0.00    -0.000 C 
BRANCH  15  16
ATOM     16  C   UNL     1      61.873  36.815  61.224  1.00  0.00    -0.000 C 
BRANCH  16  17
ATOM     17  C   UNL     1      60.825  35.961  60.493  1.00  0.00    -0.003 C 
ATOM     18  C   UNL     1      61.064  35.887  58.985  1.00  0.00     0.004 C 
ENDBRANCH  16  17
ENDBRANCH  15  16
ENDBRANCH  14  15
ENDBRANCH  13  14
ENDBRANCH  12  13
ENDBRANCH  11  12
ENDBRANCH   1  11
TORSDOF 14
ENDMDL
MODEL 3
REMARK VINA RESULT:    -2.917      1.297      2.708
REMARK INTER + INTRA:          -7.930
REMARK INTER:                  -5.916
REMARK INTRA:                  -2.014
REMARK UNBOUND:                -2.625
REMARK SMILES CCCCCCCCCCCCCCCC(=O)[O-]
REMARK SMILES IDX 9 1 10 2 11 3 12 4 13 5 14 6 15 7 16 8 17 9 18 10 8 11 7 12
REMARK SMILES IDX 6 13 5 14 4 15 3 16 2 17 1 18
REMARK H PARENT
REMARK Flexibility Score: inf
ROOT
ATOM      1  C   UNL     1      61.635  32.595  58.610  1.00  0.00     0.000 C 
ENDROOT
BRANCH   1   2
ATOM      2  C   UNL     1      60.562  32.092  59.588  1.00  0.00     0.000 C 
BRANCH   2   3
ATOM      3  C   UNL     1      60.996  32.312  61.042  1.00  0.00     0.000 C 
BRANCH   3   4
ATOM      4  C   UNL     1      60.713  31.068  61.896  1.00  0.00     0.000 C 
BRANCH   4   5
ATOM      5  C   UNL     1      60.970  29.750  61.141  1.00  0.00     0.000 C 
BRANCH   5   6
ATOM      6  C   UNL     1      62.364  29.131  61.363  1.00  0.00     0.006 C 
BRANCH   6   7
ATOM      7  C   UNL     1      63.376  29.416  60.241  1.00  0.00     0.053 C 
BRANCH   7   8
ATOM      8  C   UNL     1      64.507  30.277  60.710  1.00  0.00     0.041 C 
ATOM      9  O   UNL     1      64.288  31.455  61.095  1.00  0.00    -0.550 OA
ATOM     10  O   UNL     1      65.798  29.765  60.759  1.00  0.00    -0.550 OA
ENDBRANCH   7   8
ENDBRANCH   6   7
ENDBRANCH   5   6
ENDBRANCH   4   5
ENDBRANCH   3   4
ENDBRANCH   2   3
ENDBRANCH   1   2
BRANCH   1  11
ATOM     11  C   UNL     1      61.124  33.721  57.698  1.00  0.00     0.000 C 
BRANCH  11  12
ATOM     12  C   UNL     1      60.041  34.580  58.367  1.00  0.00    -0.000 C 
BRANCH  12  13
ATOM     13  C   UNL     1      60.637  35.877  58.928  1.00  0.00    -0.000 C 
BRANCH  13  14
ATOM     14  C   UNL     1      60.664  35.855  60.463  1.00  0.00    -0.000 C 
BRANCH  14  15
ATOM     15  C   UNL     1      61.535  36.986  61.050  1.00  0.00    -0.000 C 
BRANCH  15  16
ATOM     16  C   UNL     1      63.017  36.600  61.220  1.00  0.00    -0.000 C 
BRANCH  16  17
ATOM     17  C   UNL     1      63.298  35.090  61.157  1.00  0.00    -0.003 C 
ATOM     18  C   UNL     1      64.372  34.727  60.132  1.00  0.00     0.004 C 
ENDBRANCH  16  17
ENDBRANCH  15  16
ENDBRANCH  14  15
ENDBRANCH  13  14
ENDBRANCH  12  13
ENDBRANCH  11  12
ENDBRANCH   1  11
TORSDOF 14
ENDMDL
MODEL 4
REMARK VINA RESULT:    -2.858      2.973      5.182
REMARK INTER + INTRA:          -7.822
REMARK INTER:                  -5.419
REMARK INTRA:                  -2.403
REMARK UNBOUND:                -2.625
REMARK SMILES CCCCCCCCCCCCCCCC(=O)[O-]
REMARK SMILES IDX 9 1 10 2 11 3 12 4 13 5 14 6 15 7 16 8 17 9 18 10 8 11 7 12
REMARK SMILES IDX 6 13 5 14 4 15 3 16 2 17 1 18
REMARK H PARENT
REMARK Flexibility Score: inf
ROOT
ATOM      1  C   UNL     1      63.532  30.782  57.834  1.00  0.00     0.000 C 
ENDROOT
BRANCH   1   2
ATOM      2  C   UNL     1      62.255  31.626  57.955  1.00  0.00     0.000 C 
BRANCH   2   3
ATOM      3  C   UNL     1      62.583  33.061  58.384  1.00  0.00     0.000 C 
BRANCH   3   4
ATOM      4  C   UNL     1      61.410  33.688  59.152  1.00  0.00     0.000 C 
BRANCH   4   5
ATOM      5  C   UNL     1      61.744  33.974  60.628  1.00  0.00     0.000 C 
BRANCH   5   6
ATOM      6  C   UNL     1      62.686  35.171  60.865  1.00  0.00     0.006 C 
BRANCH   6   7
ATOM      7  C   UNL     1      64.091  34.790  61.359  1.00  0.00     0.053 C 
BRANCH   7   8
ATOM      8  C   UNL     1      64.993  35.981  61.460  1.00  0.00     0.041 C 
ATOM      9  O   UNL     1      65.778  36.262  60.517  1.00  0.00    -0.550 OA
ATOM     10  O   UNL     1      64.940  36.803  62.579  1.00  0.00    -0.550 OA
ENDBRANCH   7   8
ENDBRANCH   6   7
ENDBRANCH   5   6
ENDBRANCH   4   5
ENDBRANCH   3   4
ENDBRANCH   2   3
ENDBRANCH   1   2
BRANCH   1  11
ATOM     11  C   UNL     1      63.832  29.975  59.106  1.00  0.00     0.000 C 
BRANCH  11  12
ATOM     12  C   UNL     1      64.693  30.753  60.112  1.00  0.00    -0.000 C 
BRANCH  12  13
ATOM     13  C   UNL     1      63.900  31.067  61.387  1.00  0.00    -0.000 C 
BRANCH  13  14
ATOM     14  C   UNL     1      62.777  30.043  61.606  1.00  0.00    -0.000 C 
BRANCH  14  15
ATOM     15  C   UNL     1      61.425  30.715  61.927  1.00  0.00    -0.000 C 
BRANCH  15  16
ATOM     16  C   UNL     1      60.349  30.486  60.849  1.00  0.00    -0.000 C 
BRANCH  16  17
ATOM     17  C   UNL     1      60.060  29.009  60.534  1.00  0.00    -0.003 C 
ATOM     18  C   UNL     1      60.298  28.656  59.066  1.00  0.00     0.004 C 
ENDBRANCH  16  17
ENDBRANCH  15  16
ENDBRANCH  14  15
ENDBRANCH  13  14
ENDBRANCH  12  13
ENDBRANCH  11  12
ENDBRANCH   1  11
TORSDOF 14
ENDMDL
MODEL 5
REMARK VINA RESULT:    -2.855      9.818     12.030
REMARK INTER + INTRA:          -7.816
REMARK INTER:                  -5.472
REMARK INTRA:                  -2.345
REMARK UNBOUND:                -2.625
REMARK SMILES CCCCCCCCCCCCCCCC(=O)[O-]
REMARK SMILES IDX 9 1 10 2 11 3 12 4 13 5 14 6 15 7 16 8 17 9 18 10 8 11 7 12
REMARK SMILES IDX 6 13 5 14 4 15 3 16 2 17 1 18
REMARK H PARENT
REMARK Flexibility Score: inf
ROOT
ATOM      1  C   UNL     1      58.921  27.070  53.493  1.00  0.00     0.000 C 
ENDROOT
BRANCH   1   2
ATOM      2  C   UNL     1      59.438  26.206  52.333  1.00  0.00     0.000 C 
BRANCH   2   3
ATOM      3  C   UNL     1      58.277  25.671  51.486  1.00  0.00     0.000 C 
BRANCH   3   4
ATOM      4  C   UNL     1      58.477  26.010  50.002  1.00  0.00     0.000 C 
BRANCH   4   5
ATOM      5  C   UNL     1      59.886  26.549  49.693  1.00  0.00     0.000 C 
BRANCH   5   6
ATOM      6  C   UNL     1      59.937  28.017  49.224  1.00  0.00     0.006 C 
BRANCH   6   7
ATOM      7  C   UNL     1      60.944  28.895  49.985  1.00  0.00     0.053 C 
BRANCH   7   8
ATOM      8  C   UNL     1      62.329  28.330  49.938  1.00  0.00     0.041 C 
ATOM      9  O   UNL     1      62.888  27.935  50.995  1.00  0.00    -0.550 OA
ATOM     10  O   UNL     1      62.990  28.206  48.723  1.00  0.00    -0.550 OA
ENDBRANCH   7   8
ENDBRANCH   6   7
ENDBRANCH   5   6
ENDBRANCH   4   5
ENDBRANCH   3   4
ENDBRANCH   2   3
ENDBRANCH   1   2
BRANCH   1  11
ATOM     11  C   UNL     1      58.985  28.574  53.186  1.00  0.00     0.000 C 
BRANCH  11  12
ATOM     12  C   UNL     1      57.606  29.174  52.870  1.00  0.00    -0.000 C 
BRANCH  12  13
ATOM     13  C   UNL     1      57.630  29.934  51.539  1.00  0.00    -0.000 C 
BRANCH  13  14
ATOM     14  C   UNL     1      56.853  29.174  50.453  1.00  0.00    -0.000 C 
BRANCH  14  15
ATOM     15  C   UNL     1      55.682  28.356  51.036  1.00  0.00    -0.000 C 
BRANCH  15  16
ATOM     16  C   UNL     1      54.336  28.614  50.331  1.00  0.00    -0.000 C 
BRANCH  16  17
ATOM     17  C   UNL     1      53.665  27.360  49.750  1.00  0.00    -0.003 C 
ATOM     18  C   UNL     1      54.647  26.211  49.522  1.00  0.00     0.004 C 
ENDBRANCH  16  17
ENDBRANCH  15  16
ENDBRANCH  14  15
ENDBRANCH  13  14
ENDBRANCH  12  13
ENDBRANCH  11  12
ENDBRANCH   1  11
TORSDOF 14
ENDMDL
MODEL 6
REMARK VINA RESULT:    -2.784     10.602     12.622
REMARK INTER + INTRA:          -7.688
REMARK INTER:                  -5.639
REMARK INTRA:                  -2.049
REMARK UNBOUND:                -2.625
REMARK SMILES CCCCCCCCCCCCCCCC(=O)[O-]
REMARK SMILES IDX 9 1 10 2 11 3 12 4 13 5 14 6 15 7 16 8 17 9 18 10 8 11 7 12
REMARK SMILES IDX 6 13 5 14 4 15 3 16 2 17 1 18
REMARK H PARENT
REMARK Flexibility Score: inf
ROOT
ATOM      1  C   UNL     1      57.302  29.681  51.371  1.00  0.00     0.000 C 
ENDROOT
BRANCH   1   2
ATOM      2  C   UNL     1      57.556  28.980  50.028  1.00  0.00     0.000 C 
BRANCH   2   3
ATOM      3  C   UNL     1      58.862  29.469  49.391  1.00  0.00     0.000 C 
BRANCH   3   4
ATOM      4  C   UNL     1      60.045  28.585  49.811  1.00  0.00     0.000 C 
BRANCH   4   5
ATOM      5  C   UNL     1      59.887  27.120  49.365  1.00  0.00     0.000 C 
BRANCH   5   6
ATOM      6  C   UNL     1      60.469  26.074  50.337  1.00  0.00     0.006 C 
BRANCH   6   7
ATOM      7  C   UNL     1      59.610  24.810  50.504  1.00  0.00     0.053 C 
BRANCH   7   8
ATOM      8  C   UNL     1      60.443  23.567  50.544  1.00  0.00     0.041 C 
ATOM      9  O   UNL     1      61.170  23.323  51.542  1.00  0.00    -0.550 OA
ATOM     10  O   UNL     1      60.388  22.658  49.495  1.00  0.00    -0.550 OA
ENDBRANCH   7   8
ENDBRANCH   6   7
ENDBRANCH   5   6
ENDBRANCH   4   5
ENDBRANCH   3   4
ENDBRANCH   2   3
ENDBRANCH   1   2
BRANCH   1  11
ATOM     11  C   UNL     1      57.078  28.690  52.523  1.00  0.00     0.000 C 
BRANCH  11  12
ATOM     12  C   UNL     1      57.355  27.234  52.116  1.00  0.00    -0.000 C 
BRANCH  12  13
ATOM     13  C   UNL     1      56.094  26.374  52.261  1.00  0.00    -0.000 C 
BRANCH  13  14
ATOM     14  C   UNL     1      55.496  26.034  50.887  1.00  0.00    -0.000 C 
BRANCH  14  15
ATOM     15  C   UNL     1      54.090  26.637  50.694  1.00  0.00    -0.000 C 
BRANCH  15  16
ATOM     16  C   UNL     1      54.063  27.853  49.748  1.00  0.00    -0.000 C 
BRANCH  16  17
ATOM     17  C   UNL     1      53.075  28.960  50.152  1.00  0.00    -0.003 C 
ATOM     18  C   UNL     1      53.759  30.151  50.823  1.00  0.00     0.004 C 
ENDBRANCH  16  17
ENDBRANCH  15  16
ENDBRANCH  14  15
ENDBRANCH  13  14
ENDBRANCH  12  13
ENDBRANCH  11  12
ENDBRANCH   1  11
TORSDOF 14
ENDMDL
MODEL 7
REMARK VINA RESULT:    -2.734     10.333     12.367
REMARK INTER + INTRA:          -7.597
REMARK INTER:                  -5.259
REMARK INTRA:                  -2.338
REMARK UNBOUND:                -2.625
REMARK SMILES CCCCCCCCCCCCCCCC(=O)[O-]
REMARK SMILES IDX 9 1 10 2 11 3 12 4 13 5 14 6 15 7 16 8 17 9 18 10 8 11 7 12
REMARK SMILES IDX 6 13 5 14 4 15 3 16 2 17 1 18
REMARK H PARENT
REMARK Flexibility Score: inf
ROOT
ATOM      1  C   UNL     1      59.276  28.600  49.010  1.00  0.00     0.000 C 
ENDROOT
BRANCH   1   2
ATOM      2  C   UNL     1      58.407  29.634  49.742  1.00  0.00     0.000 C 
BRANCH   2   3
ATOM      3  C   UNL     1      58.940  29.898  51.155  1.00  0.00     0.000 C 
BRANCH   3   4
ATOM      4  C   UNL     1      57.937  29.428  52.219  1.00  0.00     0.000 C 
BRANCH   4   5
ATOM      5  C   UNL     1      56.471  29.607  51.782  1.00  0.00     0.000 C 
BRANCH   5   6
ATOM      6  C   UNL     1      55.560  30.294  52.819  1.00  0.00     0.006 C 
BRANCH   6   7
ATOM      7  C   UNL     1      55.035  29.364  53.923  1.00  0.00     0.053 C 
BRANCH   7   8
ATOM      8  C   UNL     1      54.264  28.209  53.364  1.00  0.00     0.041 C 
ATOM      9  O   UNL     1      53.268  28.412  52.621  1.00  0.00    -0.550 OA
ATOM     10  O   UNL     1      54.666  26.907  53.634  1.00  0.00    -0.550 OA
ENDBRANCH   7   8
ENDBRANCH   6   7
ENDBRANCH   5   6
ENDBRANCH   4   5
ENDBRANCH   3   4
ENDBRANCH   2   3
ENDBRANCH   1   2
BRANCH   1  11
ATOM     11  C   UNL     1      60.545  28.231  49.794  1.00  0.00     0.000 C 
BRANCH  11  12
ATOM     12  C   UNL     1      60.651  26.724  50.075  1.00  0.00    -0.000 C 
BRANCH  12  13
ATOM     13  C   UNL     1      59.276  26.051  49.985  1.00  0.00    -0.000 C 
BRANCH  13  14
ATOM     14  C   UNL     1      58.656  25.872  51.378  1.00  0.00    -0.000 C 
BRANCH  14  15
ATOM     15  C   UNL     1      57.114  25.847  51.333  1.00  0.00    -0.000 C 
BRANCH  15  16
ATOM     16  C   UNL     1      56.527  26.271  49.973  1.00  0.00    -0.000 C 
BRANCH  16  17
ATOM     17  C   UNL     1      55.081  26.788  50.031  1.00  0.00    -0.003 C 
ATOM     18  C   UNL     1      54.109  25.928  49.223  1.00  0.00     0.004 C 
ENDBRANCH  16  17
ENDBRANCH  15  16
ENDBRANCH  14  15
ENDBRANCH  13  14
ENDBRANCH  12  13
ENDBRANCH  11  12
ENDBRANCH   1  11
TORSDOF 14
ENDMDL
MODEL 8
REMARK VINA RESULT:    -2.724      2.999      5.685
REMARK INTER + INTRA:          -7.578
REMARK INTER:                  -4.997
REMARK INTRA:                  -2.582
REMARK UNBOUND:                -2.625
REMARK SMILES CCCCCCCCCCCCCCCC(=O)[O-]
REMARK SMILES IDX 9 1 10 2 11 3 12 4 13 5 14 6 15 7 16 8 17 9 18 10 8 11 7 12
REMARK SMILES IDX 6 13 5 14 4 15 3 16 2 17 1 18
REMARK H PARENT
REMARK Flexibility Score: inf
ROOT
ATOM      1  C   UNL     1      60.732  31.375  61.212  1.00  0.00     0.000 C 
ENDROOT
BRANCH   1   2
ATOM      2  C   UNL     1      61.496  32.660  60.860  1.00  0.00     0.000 C 
BRANCH   2   3
ATOM      3  C   UNL     1      61.083  33.184  59.479  1.00  0.00     0.000 C 
BRANCH   3   4
ATOM      4  C   UNL     1      62.279  33.810  58.747  1.00  0.00     0.000 C 
BRANCH   4   5
ATOM      5  C   UNL     1      63.634  33.270  59.241  1.00  0.00     0.000 C 
BRANCH   5   6
ATOM      6  C   UNL     1      64.560  34.320  59.888  1.00  0.00     0.006 C 
BRANCH   6   7
ATOM      7  C   UNL     1      64.156  34.735  61.312  1.00  0.00     0.053 C 
BRANCH   7   8
ATOM      8  C   UNL     1      63.526  36.092  61.343  1.00  0.00     0.041 C 
ATOM      9  O   UNL     1      64.246  37.125  61.317  1.00  0.00    -0.550 OA
ATOM     10  O   UNL     1      62.143  36.219  61.364  1.00  0.00    -0.550 OA
ENDBRANCH   7   8
ENDBRANCH   6   7
ENDBRANCH   5   6
ENDBRANCH   4   5
ENDBRANCH   3   4
ENDBRANCH   2   3
ENDBRANCH   1   2
BRANCH   1  11
ATOM     11  C   UNL     1      61.649  30.273  61.765  1.00  0.00     0.000 C 
BRANCH  11  12
ATOM     12  C   UNL     1      63.140  30.605  61.600  1.00  0.00    -0.000 C 
BRANCH  12  13
ATOM     13  C   UNL     1      63.902  29.421  60.993  1.00  0.00    -0.000 C 
BRANCH  13  14
ATOM     14  C   UNL     1      64.464  29.777  59.609  1.00  0.00    -0.000 C 
BRANCH  14  15
ATOM     15  C   UNL     1      63.635  29.160  58.463  1.00  0.00    -0.000 C 
BRANCH  15  16
ATOM     16  C   UNL     1      62.521  30.086  57.938  1.00  0.00    -0.000 C 
BRANCH  16  17
ATOM     17  C   UNL     1      61.096  29.532  58.104  1.00  0.00    -0.003 C 
ATOM     18  C   UNL     1      61.069  28.134  58.721  1.00  0.00     0.004 C 
ENDBRANCH  16  17
ENDBRANCH  15  16
ENDBRANCH  14  15
ENDBRANCH  13  14
ENDBRANCH  12  13
ENDBRANCH  11  12
ENDBRANCH   1  11
TORSDOF 14
ENDMDL
MODEL 9
REMARK VINA RESULT:    -2.719      1.868      3.532
REMARK INTER + INTRA:          -7.570
REMARK INTER:                  -6.202
REMARK INTRA:                  -1.368
REMARK UNBOUND:                -2.625
REMARK SMILES CCCCCCCCCCCCCCCC(=O)[O-]
REMARK SMILES IDX 9 1 10 2 11 3 12 4 13 5 14 6 15 7 16 8 17 9 18 10 8 11 7 12
REMARK SMILES IDX 6 13 5 14 4 15 3 16 2 17 1 18
REMARK H PARENT
REMARK Flexibility Score: inf
ROOT
ATOM      1  C   UNL     1      60.748  31.978  60.608  1.00  0.00     0.000 C 
ENDROOT
BRANCH   1   2
ATOM      2  C   UNL     1      60.988  31.118  61.857  1.00  0.00     0.000 C 
BRANCH   2   3
ATOM      3  C   UNL     1      61.753  29.837  61.504  1.00  0.00     0.000 C 
BRANCH   3   4
ATOM      4  C   UNL     1      63.263  30.104  61.414  1.00  0.00     0.000 C 
BRANCH   4   5
ATOM      5  C   UNL     1      64.071  28.855  61.017  1.00  0.00     0.000 C 
BRANCH   5   6
ATOM      6  C   UNL     1      64.897  28.994  59.723  1.00  0.00     0.006 C 
BRANCH   6   7
ATOM      7  C   UNL     1      66.052  30.005  59.809  1.00  0.00     0.053 C 
BRANCH   7   8
ATOM      8  C   UNL     1      65.845  31.172  58.893  1.00  0.00     0.041 C 
ATOM      9  O   UNL     1      66.468  31.237  57.801  1.00  0.00    -0.550 OA
ATOM     10  O   UNL     1      64.937  32.168  59.228  1.00  0.00    -0.550 OA
ENDBRANCH   7   8
ENDBRANCH   6   7
ENDBRANCH   5   6
ENDBRANCH   4   5
ENDBRANCH   3   4
ENDBRANCH   2   3
ENDBRANCH   1   2
BRANCH   1  11
ATOM     11  C   UNL     1      61.541  33.293  60.633  1.00  0.00     0.000 C 
BRANCH  11  12
ATOM     12  C   UNL     1      61.764  33.878  59.230  1.00  0.00    -0.000 C 
BRANCH  12  13
ATOM     13  C   UNL     1      61.366  35.358  59.183  1.00  0.00    -0.000 C 
BRANCH  13  14
ATOM     14  C   UNL     1      60.908  35.852  60.563  1.00  0.00    -0.000 C 
BRANCH  14  15
ATOM     15  C   UNL     1      61.669  37.115  61.016  1.00  0.00    -0.000 C 
BRANCH  15  16
ATOM     16  C   UNL     1      63.156  37.120  60.610  1.00  0.00    -0.000 C 
BRANCH  16  17
ATOM     17  C   UNL     1      64.131  36.744  61.737  1.00  0.00    -0.003 C 
ATOM     18  C   UNL     1      64.519  35.266  61.719  1.00  0.00     0.004 C 
ENDBRANCH  16  17
ENDBRANCH  15  16
ENDBRANCH  14  15
ENDBRANCH  13  14
ENDBRANCH  12  13
ENDBRANCH  11  12
ENDBRANCH   1  11
TORSDOF 14
ENDMDL
