MODEL 1
REMARK VINA RESULT:    -2.130      0.000      0.000
REMARK INTER + INTRA:          -2.317
REMARK INTER:                  -2.317
REMARK INTRA:                   0.000
REMARK UNBOUND:                 0.000
REMARK SMILES Cc1cc(O)c2c(c1)C(=O)c1cc(O)cc(O)c1C2=O
REMARK SMILES IDX 1 1 2 2 8 3 7 4 6 5 4 6 3 7 19 8 20 9 18 10 11 11 9 12 10 13
REMARK SMILES IDX 12 14 13 15 15 16 16 17 5 18 17 20 14 22
REMARK H PARENT 5 19 17 21 14 23
REMARK Flexibility Score: inf
ROOT
ATOM      1  C   UNL     1     -10.394 -20.171  13.868  1.00  0.00     0.044 C 
ATOM      2  C   UNL     1      -9.518 -20.687  14.972  1.00  0.00    -0.047 A 
ATOM      3  C   UNL     1     -10.079 -21.078  16.192  1.00  0.00     0.016 A 
ATOM      4  C   UNL     1      -9.272 -21.603  17.216  1.00  0.00     0.038 A 
ATOM      5  C   UNL     1      -7.885 -21.765  17.005  1.00  0.00     0.076 A 
ATOM      6  C   UNL     1      -7.315 -21.325  15.783  1.00  0.00     0.127 A 
ATOM      7  C   UNL     1      -8.140 -20.825  14.771  1.00  0.00     0.050 A 
ATOM      8  C   UNL     1      -7.093 -22.460  18.053  1.00  0.00     0.201 C 
ATOM      9  O   UNL     1      -6.073 -23.125  17.731  1.00  0.00    -0.288 OA
ATOM     10  C   UNL     1      -7.608 -22.524  19.446  1.00  0.00     0.076 A 
ATOM     11  C   UNL     1      -8.996 -22.361  19.652  1.00  0.00     0.041 A 
ATOM     12  C   UNL     1      -9.872 -21.984  18.517  1.00  0.00     0.194 C 
ATOM     13  O   UNL     1     -11.125 -21.963  18.667  1.00  0.00    -0.289 OA
ATOM     14  C   UNL     1      -9.540 -22.552  20.934  1.00  0.00     0.059 A 
ATOM     15  C   UNL     1      -8.716 -22.888  22.011  1.00  0.00     0.120 A 
ATOM     16  C   UNL     1      -7.339 -23.010  21.819  1.00  0.00     0.093 A 
ATOM     17  C   UNL     1      -6.771 -22.805  20.558  1.00  0.00     0.131 A 
ENDROOT
BRANCH   6  18
ATOM     18  O   UNL     1      -5.938 -21.337  15.544  1.00  0.00    -0.507 OA
ATOM     19  H   UNL     1      -5.508 -21.850  14.787  1.00  0.00     0.293 HD
ENDBRANCH   6  18
BRANCH  17  20
ATOM     20  O   UNL     1      -5.378 -22.854  20.463  1.00  0.00    -0.507 OA
ATOM     21  H   UNL     1      -4.780 -23.195  21.201  1.00  0.00     0.293 HD
ENDBRANCH  17  20
BRANCH  15  22
ATOM     22  O   UNL     1      -9.252 -23.091  23.281  1.00  0.00    -0.508 OA
ATOM     23  H   UNL     1      -9.823 -22.387  23.734  1.00  0.00     0.293 HD
ENDBRANCH  15  22
TORSDOF 3
ENDMDL
MODEL 2
REMARK VINA RESULT:    -1.897     13.238     15.114
REMARK INTER + INTRA:          -2.064
REMARK INTER:                  -2.064
REMARK INTRA:                   0.000
REMARK UNBOUND:                 0.000
REMARK SMILES Cc1cc(O)c2c(c1)C(=O)c1cc(O)cc(O)c1C2=O
REMARK SMILES IDX 1 1 2 2 8 3 7 4 6 5 4 6 3 7 19 8 20 9 18 10 11 11 9 12 10 13
REMARK SMILES IDX 12 14 13 15 15 16 16 17 5 18 17 20 14 22
REMARK H PARENT 5 19 17 21 14 23
REMARK Flexibility Score: inf
ROOT
ATOM      1  C   UNL     1       9.125 -21.760   9.877  1.00  0.00     0.044 C 
ATOM      2  C   UNL     1       8.401 -21.840  11.189  1.00  0.00    -0.047 A 
ATOM      3  C   UNL     1       7.063 -22.245  11.232  1.00  0.00     0.016 A 
ATOM      4  C   UNL     1       6.389 -22.365  12.459  1.00  0.00     0.038 A 
ATOM      5  C   UNL     1       7.075 -22.102  13.666  1.00  0.00     0.076 A 
ATOM      6  C   UNL     1       8.417 -21.648  13.614  1.00  0.00     0.127 A 
ATOM      7  C   UNL     1       9.073 -21.555  12.382  1.00  0.00     0.050 A 
ATOM      8  C   UNL     1       6.374 -22.384  14.946  1.00  0.00     0.201 C 
ATOM      9  O   UNL     1       7.036 -22.723  15.962  1.00  0.00    -0.288 OA
ATOM     10  C   UNL     1       4.889 -22.447  14.976  1.00  0.00     0.076 A 
ATOM     11  C   UNL     1       4.208 -22.711  13.766  1.00  0.00     0.041 A 
ATOM     12  C   UNL     1       4.962 -22.765  12.491  1.00  0.00     0.194 C 
ATOM     13  O   UNL     1       4.382 -23.125  11.430  1.00  0.00    -0.289 OA
ATOM     14  C   UNL     1       2.818 -22.916  13.777  1.00  0.00     0.059 A 
ATOM     15  C   UNL     1       2.100 -22.846  14.974  1.00  0.00     0.120 A 
ATOM     16  C   UNL     1       2.763 -22.547  16.164  1.00  0.00     0.093 A 
ATOM     17  C   UNL     1       4.143 -22.319  16.177  1.00  0.00     0.131 A 
ENDROOT
BRANCH   6  18
ATOM     18  O   UNL     1       9.125 -21.250  14.751  1.00  0.00    -0.507 OA
ATOM     19  H   UNL     1       9.926 -20.634  14.724  1.00  0.00     0.293 HD
ENDBRANCH   6  18
BRANCH  17  20
ATOM     20  O   UNL     1       4.722 -21.933  17.389  1.00  0.00    -0.507 OA
ATOM     21  H   UNL     1       4.355 -21.196  17.973  1.00  0.00     0.293 HD
ENDBRANCH  17  20
BRANCH  15  22
ATOM     22  O   UNL     1       0.724 -23.061  14.991  1.00  0.00    -0.508 OA
ATOM     23  H   UNL     1       0.088 -22.470  14.468  1.00  0.00     0.293 HD
ENDBRANCH  15  22
TORSDOF 3
ENDMDL
MODEL 3
REMARK VINA RESULT:    -1.739      1.941      3.862
REMARK INTER + INTRA:          -1.891
REMARK INTER:                  -1.891
REMARK INTRA:                   0.000
REMARK UNBOUND:                 0.000
REMARK SMILES Cc1cc(O)c2c(c1)C(=O)c1cc(O)cc(O)c1C2=O
REMARK SMILES IDX 1 1 2 2 8 3 7 4 6 5 4 6 3 7 19 8 20 9 18 10 11 11 9 12 10 13
REMARK SMILES IDX 12 14 13 15 15 16 16 17 5 18 17 20 14 22
REMARK H PARENT 5 19 17 21 14 23
REMARK Flexibility Score: inf
ROOT
ATOM      1  C   UNL     1      -3.246 -23.124  16.069  1.00  0.00     0.044 C 
ATOM      2  C   UNL     1      -4.600 -22.872  16.665  1.00  0.00    -0.047 A 
ATOM      3  C   UNL     1      -4.785 -22.945  18.050  1.00  0.00     0.016 A 
ATOM      4  C   UNL     1      -6.039 -22.668  18.621  1.00  0.00     0.038 A 
ATOM      5  C   UNL     1      -7.119 -22.284  17.794  1.00  0.00     0.076 A 
ATOM      6  C   UNL     1      -6.937 -22.256  16.388  1.00  0.00     0.127 A 
ATOM      7  C   UNL     1      -5.675 -22.516  15.844  1.00  0.00     0.050 A 
ATOM      8  C   UNL     1      -8.383 -21.856  18.447  1.00  0.00     0.201 C 
ATOM      9  O   UNL     1      -9.124 -21.008  17.883  1.00  0.00    -0.288 OA
ATOM     10  C   UNL     1      -8.677 -22.285  19.839  1.00  0.00     0.076 A 
ATOM     11  C   UNL     1      -7.594 -22.668  20.662  1.00  0.00     0.041 A 
ATOM     12  C   UNL     1      -6.233 -22.779  20.086  1.00  0.00     0.194 C 
ATOM     13  O   UNL     1      -5.244 -22.995  20.840  1.00  0.00    -0.289 OA
ATOM     14  C   UNL     1      -7.813 -22.947  22.022  1.00  0.00     0.059 A 
ATOM     15  C   UNL     1      -9.098 -22.862  22.565  1.00  0.00     0.120 A 
ATOM     16  C   UNL     1     -10.176 -22.523  21.747  1.00  0.00     0.093 A 
ATOM     17  C   UNL     1      -9.987 -22.261  20.386  1.00  0.00     0.131 A 
ENDROOT
BRANCH   6  18
ATOM     18  O   UNL     1      -7.983 -22.007  15.496  1.00  0.00    -0.507 OA
ATOM     19  H   UNL     1      -8.457 -22.731  14.975  1.00  0.00     0.293 HD
ENDBRANCH   6  18
BRANCH  17  20
ATOM     20  O   UNL     1     -11.125 -22.020  19.612  1.00  0.00    -0.507 OA
ATOM     21  H   UNL     1     -11.231 -22.341  18.660  1.00  0.00     0.293 HD
ENDBRANCH  17  20
BRANCH  15  22
ATOM     22  O   UNL     1      -9.318 -23.125  23.915  1.00  0.00    -0.508 OA
ATOM     23  H   UNL     1     -10.227 -23.412  24.258  1.00  0.00     0.293 HD
ENDBRANCH  15  22
TORSDOF 3
ENDMDL
