MODEL 1
REMARK VINA RESULT:    -4.268      0.000      0.000
REMARK INTER + INTRA:          -5.260
REMARK INTER:                  -5.016
REMARK INTRA:                  -0.243
REMARK UNBOUND:                -0.243
REMARK SMILES C=CC(C)=CCC=C(C)C
REMARK SMILES IDX 5 1 3 2 4 3 6 4 7 5 9 6 8 7 10 8 2 9 1 10
REMARK H PARENT
REMARK Flexibility Score: inf
ROOT
ATOM      1  C   UNL     1      32.307  11.042  31.440  1.00  0.00    -0.020 C 
ATOM      2  C   UNL     1      32.601  10.407  32.594  1.00  0.00    -0.055 C 
ATOM      3  C   UNL     1      32.873  11.236  33.825  1.00  0.00     0.044 C 
ENDROOT
BRANCH   1   4
ATOM      4  C   UNL     1      31.967  10.360  30.141  1.00  0.00     0.055 C 
BRANCH   4   5
ATOM      5  C   UNL     1      32.203  11.263  28.954  1.00  0.00    -0.024 C 
ATOM      6  C   UNL     1      32.461  11.863  26.584  1.00  0.00     0.039 C 
ATOM      7  C   UNL     1      32.216  10.845  27.668  1.00  0.00    -0.080 C 
ATOM      8  C   UNL     1      31.983   9.400  27.295  1.00  0.00     0.039 C 
ENDBRANCH   4   5
ENDBRANCH   1   4
BRANCH   2   9
ATOM      9  C   UNL     1      32.631   8.920  32.681  1.00  0.00    -0.005 C 
ATOM     10  C   UNL     1      31.644   8.200  33.213  1.00  0.00     0.009 C 
ENDBRANCH   2   9
TORSDOF 3
ENDMDL
MODEL 2
REMARK VINA RESULT:    -4.265      2.865      4.650
REMARK INTER + INTRA:          -5.257
REMARK INTER:                  -4.799
REMARK INTRA:                  -0.458
REMARK UNBOUND:                -0.243
REMARK SMILES C=CC(C)=CCC=C(C)C
REMARK SMILES IDX 5 1 3 2 4 3 6 4 7 5 9 6 8 7 10 8 2 9 1 10
REMARK H PARENT
REMARK Flexibility Score: inf
ROOT
ATOM      1  C   UNL     1      31.318   7.501  32.918  1.00  0.00    -0.020 C 
ATOM      2  C   UNL     1      30.631   7.147  34.023  1.00  0.00    -0.055 C 
ATOM      3  C   UNL     1      29.443   6.228  33.872  1.00  0.00     0.044 C 
ENDROOT
BRANCH   1   4
ATOM      4  C   UNL     1      32.549   8.369  32.906  1.00  0.00     0.055 C 
BRANCH   4   5
ATOM      5  C   UNL     1      32.339   9.631  32.104  1.00  0.00    -0.024 C 
ATOM      6  C   UNL     1      32.208  12.050  31.685  1.00  0.00     0.039 C 
ATOM      7  C   UNL     1      32.442  10.881  32.608  1.00  0.00    -0.080 C 
ATOM      8  C   UNL     1      32.793  11.134  34.056  1.00  0.00     0.039 C 
ENDBRANCH   4   5
ENDBRANCH   1   4
BRANCH   2   9
ATOM      9  C   UNL     1      31.038   7.615  35.378  1.00  0.00    -0.005 C 
ATOM     10  C   UNL     1      31.688   6.846  36.252  1.00  0.00     0.009 C 
ENDBRANCH   2   9
TORSDOF 3
ENDMDL
MODEL 3
REMARK VINA RESULT:    -4.126      1.279      2.500
REMARK INTER + INTRA:          -5.092
REMARK INTER:                  -4.507
REMARK INTRA:                  -0.586
REMARK UNBOUND:                -0.243
REMARK SMILES C=CC(C)=CCC=C(C)C
REMARK SMILES IDX 5 1 3 2 4 3 6 4 7 5 9 6 8 7 10 8 2 9 1 10
REMARK H PARENT
REMARK Flexibility Score: inf
ROOT
ATOM      1  C   UNL     1      30.636   8.608  31.825  1.00  0.00    -0.020 C 
ATOM      2  C   UNL     1      31.739   8.607  32.603  1.00  0.00    -0.055 C 
ATOM      3  C   UNL     1      31.937   7.467  33.572  1.00  0.00     0.044 C 
ENDROOT
BRANCH   1   4
ATOM      4  C   UNL     1      30.317   9.646  30.781  1.00  0.00     0.055 C 
BRANCH   4   5
ATOM      5  C   UNL     1      30.748   9.206  29.402  1.00  0.00    -0.024 C 
ATOM      6  C   UNL     1      31.980   9.308  27.277  1.00  0.00     0.039 C 
ATOM      7  C   UNL     1      31.642   9.868  28.635  1.00  0.00    -0.080 C 
ATOM      8  C   UNL     1      32.313  11.138  29.104  1.00  0.00     0.039 C 
ENDBRANCH   4   5
ENDBRANCH   1   4
BRANCH   2   9
ATOM      9  C   UNL     1      32.767   9.681  32.502  1.00  0.00    -0.005 C 
ATOM     10  C   UNL     1      32.797  10.741  33.310  1.00  0.00     0.009 C 
ENDBRANCH   2   9
TORSDOF 3
ENDMDL
MODEL 4
REMARK VINA RESULT:    -4.095      1.473      1.604
REMARK INTER + INTRA:          -5.057
REMARK INTER:                  -4.365
REMARK INTRA:                  -0.692
REMARK UNBOUND:                -0.243
REMARK SMILES C=CC(C)=CCC=C(C)C
REMARK SMILES IDX 5 1 3 2 4 3 6 4 7 5 9 6 8 7 10 8 2 9 1 10
REMARK H PARENT
REMARK Flexibility Score: inf
ROOT
ATOM      1  C   UNL     1      32.888  11.768  31.629  1.00  0.00    -0.020 C 
ATOM      2  C   UNL     1      32.757  10.854  32.612  1.00  0.00    -0.055 C 
ATOM      3  C   UNL     1      32.799  11.325  34.045  1.00  0.00     0.044 C 
ENDROOT
BRANCH   1   4
ATOM      4  C   UNL     1      32.823  11.466  30.154  1.00  0.00     0.055 C 
BRANCH   4   5
ATOM      5  C   UNL     1      31.423  11.623  29.610  1.00  0.00    -0.024 C 
ATOM      6  C   UNL     1      29.356  10.958  28.458  1.00  0.00     0.039 C 
ATOM      7  C   UNL     1      30.753  10.660  28.940  1.00  0.00    -0.080 C 
ATOM      8  C   UNL     1      31.358   9.302  28.674  1.00  0.00     0.039 C 
ENDBRANCH   4   5
ENDBRANCH   1   4
BRANCH   2   9
ATOM      9  C   UNL     1      32.545   9.410  32.313  1.00  0.00    -0.005 C 
ATOM     10  C   UNL     1      31.372   8.796  32.474  1.00  0.00     0.009 C 
ENDBRANCH   2   9
TORSDOF 3
ENDMDL
MODEL 5
REMARK VINA RESULT:    -4.023      3.520      7.177
REMARK INTER + INTRA:          -4.972
REMARK INTER:                  -4.401
REMARK INTRA:                  -0.571
REMARK UNBOUND:                -0.243
REMARK SMILES C=CC(C)=CCC=C(C)C
REMARK SMILES IDX 5 1 3 2 4 3 6 4 7 5 9 6 8 7 10 8 2 9 1 10
REMARK H PARENT
REMARK Flexibility Score: inf
ROOT
ATOM      1  C   UNL     1      30.770   7.000  34.425  1.00  0.00    -0.020 C 
ATOM      2  C   UNL     1      31.069   7.550  33.230  1.00  0.00    -0.055 C 
ATOM      3  C   UNL     1      30.065   7.434  32.110  1.00  0.00     0.044 C 
ENDROOT
BRANCH   1   4
ATOM      4  C   UNL     1      31.642   7.070  35.651  1.00  0.00     0.055 C 
BRANCH   4   5
ATOM      5  C   UNL     1      30.906   7.654  36.833  1.00  0.00    -0.024 C 
ATOM      6  C   UNL     1      30.149   9.400  38.388  1.00  0.00     0.039 C 
ATOM      7  C   UNL     1      30.939   8.958  37.183  1.00  0.00    -0.080 C 
ATOM      8  C   UNL     1      31.732   9.978  36.399  1.00  0.00     0.039 C 
ENDBRANCH   4   5
ENDBRANCH   1   4
BRANCH   2   9
ATOM      9  C   UNL     1      32.345   8.286  33.007  1.00  0.00    -0.005 C 
ATOM     10  C   UNL     1      32.401   9.500  32.459  1.00  0.00     0.009 C 
ENDBRANCH   2   9
TORSDOF 3
ENDMDL
MODEL 6
REMARK VINA RESULT:    -3.993      2.154      4.548
REMARK INTER + INTRA:          -4.936
REMARK INTER:                  -4.379
REMARK INTRA:                  -0.557
REMARK UNBOUND:                -0.243
REMARK SMILES C=CC(C)=CCC=C(C)C
REMARK SMILES IDX 5 1 3 2 4 3 6 4 7 5 9 6 8 7 10 8 2 9 1 10
REMARK H PARENT
REMARK Flexibility Score: inf
ROOT
ATOM      1  C   UNL     1      31.675  10.484  30.523  1.00  0.00    -0.020 C 
ATOM      2  C   UNL     1      32.506  11.221  31.288  1.00  0.00    -0.055 C 
ATOM      3  C   UNL     1      32.783  12.648  30.885  1.00  0.00     0.044 C 
ENDROOT
BRANCH   1   4
ATOM      4  C   UNL     1      31.263   9.064  30.814  1.00  0.00     0.055 C 
BRANCH   4   5
ATOM      5  C   UNL     1      30.286   8.987  31.963  1.00  0.00    -0.024 C 
ATOM      6  C   UNL     1      29.403   8.250  34.135  1.00  0.00     0.039 C 
ATOM      7  C   UNL     1      30.463   8.224  33.065  1.00  0.00    -0.080 C 
ATOM      8  C   UNL     1      31.690   7.363  33.252  1.00  0.00     0.039 C 
ENDBRANCH   4   5
ENDBRANCH   1   4
BRANCH   2   9
ATOM      9  C   UNL     1      33.125  10.667  32.526  1.00  0.00    -0.005 C 
ATOM     10  C   UNL     1      32.831  11.109  33.749  1.00  0.00     0.009 C 
ENDBRANCH   2   9
TORSDOF 3
ENDMDL
MODEL 7
REMARK VINA RESULT:    -3.973      1.338      4.826
REMARK INTER + INTRA:          -4.913
REMARK INTER:                  -4.238
REMARK INTRA:                  -0.675
REMARK UNBOUND:                -0.243
REMARK SMILES C=CC(C)=CCC=C(C)C
REMARK SMILES IDX 5 1 3 2 4 3 6 4 7 5 9 6 8 7 10 8 2 9 1 10
REMARK H PARENT
REMARK Flexibility Score: inf
ROOT
ATOM      1  C   UNL     1      32.887  11.411  30.897  1.00  0.00    -0.020 C 
ATOM      2  C   UNL     1      31.941  11.348  29.937  1.00  0.00    -0.055 C 
ATOM      3  C   UNL     1      32.328  11.689  28.519  1.00  0.00     0.044 C 
ENDROOT
BRANCH   1   4
ATOM      4  C   UNL     1      32.673  11.058  32.345  1.00  0.00     0.055 C 
BRANCH   4   5
ATOM      5  C   UNL     1      32.798   9.573  32.587  1.00  0.00    -0.024 C 
ATOM      6  C   UNL     1      32.102   7.335  33.329  1.00  0.00     0.039 C 
ATOM      7  C   UNL     1      31.838   8.809  33.155  1.00  0.00    -0.080 C 
ATOM      8  C   UNL     1      30.518   9.388  33.606  1.00  0.00     0.039 C 
ENDBRANCH   4   5
ENDBRANCH   1   4
BRANCH   2   9
ATOM      9  C   UNL     1      30.546  10.924  30.242  1.00  0.00    -0.005 C 
ATOM     10  C   UNL     1      30.047   9.741  29.883  1.00  0.00     0.009 C 
ENDBRANCH   2   9
TORSDOF 3
ENDMDL
