MODEL 1
REMARK VINA RESULT:    -6.028      0.000      0.000
REMARK INTER + INTRA:          -8.216
REMARK INTER:                  -7.790
REMARK INTRA:                  -0.426
REMARK UNBOUND:                -0.426
REMARK SMILES CCO[C@@H]1O[C@H](CO)[C@H](O)[C@@H](O)[C@H]1O
REMARK SMILES IDX 4 1 13 2 11 3 9 4 6 5 5 6 3 7 2 8 1 9 14 10 12 12 7 14 8 15
REMARK SMILES IDX 10 17
REMARK H PARENT 14 11 12 13 8 16 10 18
REMARK Flexibility Score: inf
ROOT
ATOM      1  C   UNL     1      20.690   0.443 -12.490  1.00  0.00     0.281 C 
ATOM      2  C   UNL     1      21.133  -0.913 -11.895  1.00  0.00     0.202 C 
ATOM      3  C   UNL     1      20.167  -1.377 -10.797  1.00  0.00     0.179 C 
ATOM      4  C   UNL     1      18.716  -1.331 -11.298  1.00  0.00     0.177 C 
ATOM      5  C   UNL     1      18.384   0.013 -12.006  1.00  0.00     0.178 C 
ATOM      6  O   UNL     1      19.355   0.406 -12.973  1.00  0.00    -0.341 OA
ENDROOT
BRANCH   1   7
ATOM      7  O   UNL     1      20.836   1.485 -11.536  1.00  0.00    -0.350 OA
BRANCH   7   8
ATOM      8  C   UNL     1      21.215   2.697 -12.154  1.00  0.00     0.160 C 
ATOM      9  C   UNL     1      22.445   2.452 -13.014  1.00  0.00     0.035 C 
ENDBRANCH   7   8
ENDBRANCH   1   7
BRANCH   2  10
ATOM     10  O   UNL     1      21.277  -1.890 -12.900  1.00  0.00    -0.385 OA
ATOM     11  H   UNL     1      20.648  -2.632 -12.706  1.00  0.00     0.211 HD
ENDBRANCH   2  10
BRANCH   3  12
ATOM     12  O   UNL     1      20.502  -2.684 -10.404  1.00  0.00    -0.387 OA
ATOM     13  H   UNL     1      19.669  -3.110 -10.073  1.00  0.00     0.211 HD
ENDBRANCH   3  12
BRANCH   5  14
ATOM     14  C   UNL     1      17.956   1.177 -11.079  1.00  0.00     0.191 C 
BRANCH  14  15
ATOM     15  O   UNL     1      17.768   2.371 -11.785  1.00  0.00    -0.394 OA
ATOM     16  H   UNL     1      17.496   2.112 -12.702  1.00  0.00     0.210 HD
ENDBRANCH  14  15
ENDBRANCH   5  14
BRANCH   4  17
ATOM     17  O   UNL     1      17.839  -1.555 -10.222  1.00  0.00    -0.387 OA
ATOM     18  H   UNL     1      16.972  -1.839 -10.613  1.00  0.00     0.211 HD
ENDBRANCH   4  17
TORSDOF 7
ENDMDL
MODEL 2
REMARK VINA RESULT:    -6.022      2.857      5.825
REMARK INTER + INTRA:          -8.209
REMARK INTER:                  -7.794
REMARK INTRA:                  -0.414
REMARK UNBOUND:                -0.426
REMARK SMILES CCO[C@@H]1O[C@H](CO)[C@H](O)[C@@H](O)[C@H]1O
REMARK SMILES IDX 4 1 13 2 11 3 9 4 6 5 5 6 3 7 2 8 1 9 14 10 12 12 7 14 8 15
REMARK SMILES IDX 10 17
REMARK H PARENT 14 11 12 13 8 16 10 18
REMARK Flexibility Score: inf
ROOT
ATOM      1  C   UNL     1      15.352  -0.468 -12.433  1.00  0.00     0.281 C 
ATOM      2  C   UNL     1      14.917   0.890 -11.839  1.00  0.00     0.202 C 
ATOM      3  C   UNL     1      15.887   1.350 -10.742  1.00  0.00     0.179 C 
ATOM      4  C   UNL     1      17.337   1.295 -11.244  1.00  0.00     0.177 C 
ATOM      5  C   UNL     1      17.660  -0.051 -11.951  1.00  0.00     0.178 C 
ATOM      6  O   UNL     1      16.687  -0.440 -12.917  1.00  0.00    -0.341 OA
ENDROOT
BRANCH   1   7
ATOM      7  O   UNL     1      15.200  -1.509 -11.479  1.00  0.00    -0.350 OA
BRANCH   7   8
ATOM      8  C   UNL     1      14.822  -2.721 -12.095  1.00  0.00     0.160 C 
ATOM      9  C   UNL     1      13.617  -2.469 -12.988  1.00  0.00     0.035 C 
ENDBRANCH   7   8
ENDBRANCH   1   7
BRANCH   2  10
ATOM     10  O   UNL     1      14.778   1.867 -12.845  1.00  0.00    -0.385 OA
ATOM     11  H   UNL     1      14.843   1.418 -13.727  1.00  0.00     0.211 HD
ENDBRANCH   2  10
BRANCH   3  12
ATOM     12  O   UNL     1      15.559   2.659 -10.351  1.00  0.00    -0.387 OA
ATOM     13  H   UNL     1      15.629   2.692  -9.361  1.00  0.00     0.211 HD
ENDBRANCH   3  12
BRANCH   5  14
ATOM     14  C   UNL     1      18.083  -1.217 -11.024  1.00  0.00     0.191 C 
BRANCH  14  15
ATOM     15  O   UNL     1      18.313  -2.400 -11.735  1.00  0.00    -0.394 OA
ATOM     16  H   UNL     1      18.065  -3.142 -11.126  1.00  0.00     0.210 HD
ENDBRANCH  14  15
ENDBRANCH   5  14
BRANCH   4  17
ATOM     17  O   UNL     1      18.216   1.515 -10.169  1.00  0.00    -0.387 OA
ATOM     18  H   UNL     1      18.213   0.686  -9.623  1.00  0.00     0.211 HD
ENDBRANCH   4  17
TORSDOF 7
ENDMDL
MODEL 3
REMARK VINA RESULT:    -5.707      3.224      5.512
REMARK INTER + INTRA:          -7.801
REMARK INTER:                  -7.357
REMARK INTRA:                  -0.444
REMARK UNBOUND:                -0.426
REMARK SMILES CCO[C@@H]1O[C@H](CO)[C@H](O)[C@@H](O)[C@H]1O
REMARK SMILES IDX 4 1 13 2 11 3 9 4 6 5 5 6 3 7 2 8 1 9 14 10 12 12 7 14 8 15
REMARK SMILES IDX 10 17
REMARK H PARENT 14 11 12 13 8 16 10 18
REMARK Flexibility Score: inf
ROOT
ATOM      1  C   UNL     1      15.408  -1.468 -11.782  1.00  0.00     0.281 C 
ATOM      2  C   UNL     1      16.891  -1.466 -12.218  1.00  0.00     0.202 C 
ATOM      3  C   UNL     1      17.338  -0.063 -12.651  1.00  0.00     0.179 C 
ATOM      4  C   UNL     1      16.974   0.975 -11.579  1.00  0.00     0.177 C 
ATOM      5  C   UNL     1      15.506   0.823 -11.092  1.00  0.00     0.178 C 
ATOM      6  O   UNL     1      15.148  -0.517 -10.760  1.00  0.00    -0.341 OA
ENDROOT
BRANCH   1   7
ATOM      7  O   UNL     1      14.554  -1.239 -12.893  1.00  0.00    -0.350 OA
BRANCH   7   8
ATOM      8  C   UNL     1      13.407  -2.059 -12.838  1.00  0.00     0.160 C 
ATOM      9  C   UNL     1      13.359  -2.929 -14.085  1.00  0.00     0.035 C 
ENDBRANCH   7   8
ENDBRANCH   1   7
BRANCH   2  10
ATOM     10  O   UNL     1      17.723  -1.981 -11.204  1.00  0.00    -0.385 OA
ATOM     11  H   UNL     1      18.557  -2.314 -11.624  1.00  0.00     0.211 HD
ENDBRANCH   2  10
BRANCH   3  12
ATOM     12  O   UNL     1      18.725  -0.065 -12.873  1.00  0.00    -0.387 OA
ATOM     13  H   UNL     1      19.136  -0.589 -12.136  1.00  0.00     0.211 HD
ENDBRANCH   3  12
BRANCH   5  14
ATOM     14  C   UNL     1      14.432   1.535 -11.950  1.00  0.00     0.191 C 
BRANCH  14  15
ATOM     15  O   UNL     1      14.843   1.703 -13.277  1.00  0.00    -0.394 OA
ATOM     16  H   UNL     1      15.701   2.198 -13.241  1.00  0.00     0.210 HD
ENDBRANCH  14  15
ENDBRANCH   5  14
BRANCH   4  17
ATOM     17  O   UNL     1      17.199   2.269 -12.082  1.00  0.00    -0.387 OA
ATOM     18  H   UNL     1      17.468   2.833 -11.311  1.00  0.00     0.211 HD
ENDBRANCH   4  17
TORSDOF 7
ENDMDL
MODEL 4
REMARK VINA RESULT:    -5.658      2.500      4.888
REMARK INTER + INTRA:          -7.739
REMARK INTER:                  -7.340
REMARK INTRA:                  -0.399
REMARK UNBOUND:                -0.426
REMARK SMILES CCO[C@@H]1O[C@H](CO)[C@H](O)[C@@H](O)[C@H]1O
REMARK SMILES IDX 4 1 13 2 11 3 9 4 6 5 5 6 3 7 2 8 1 9 14 10 12 12 7 14 8 15
REMARK SMILES IDX 10 17
REMARK H PARENT 14 11 12 13 8 16 10 18
REMARK Flexibility Score: inf
ROOT
ATOM      1  C   UNL     1      17.577   0.421 -10.723  1.00  0.00     0.281 C 
ATOM      2  C   UNL     1      16.822   1.546 -11.466  1.00  0.00     0.202 C 
ATOM      3  C   UNL     1      15.874   0.969 -12.527  1.00  0.00     0.179 C 
ATOM      4  C   UNL     1      14.981  -0.122 -11.917  1.00  0.00     0.177 C 
ATOM      5  C   UNL     1      15.795  -1.140 -11.071  1.00  0.00     0.178 C 
ATOM      6  O   UNL     1      16.693  -0.529 -10.147  1.00  0.00    -0.341 OA
ENDROOT
BRANCH   1   7
ATOM      7  O   UNL     1      18.497  -0.227 -11.589  1.00  0.00    -0.350 OA
BRANCH   7   8
ATOM      8  C   UNL     1      19.805  -0.207 -11.058  1.00  0.00     0.160 C 
ATOM      9  C   UNL     1      20.226  -1.628 -10.721  1.00  0.00     0.035 C 
ENDBRANCH   7   8
ENDBRANCH   1   7
BRANCH   2  10
ATOM     10  O   UNL     1      16.135   2.383 -10.564  1.00  0.00    -0.385 OA
ATOM     11  H   UNL     1      16.453   2.181  -9.647  1.00  0.00     0.211 HD
ENDBRANCH   2  10
BRANCH   3  12
ATOM     12  O   UNL     1      15.083   2.003 -13.056  1.00  0.00    -0.387 OA
ATOM     13  H   UNL     1      15.211   2.794 -12.470  1.00  0.00     0.211 HD
ENDBRANCH   3  12
BRANCH   5  14
ATOM     14  C   UNL     1      16.445  -2.305 -11.857  1.00  0.00     0.191 C 
BRANCH  14  15
ATOM     15  O   UNL     1      15.603  -3.421 -11.939  1.00  0.00    -0.394 OA
ATOM     16  H   UNL     1      14.686  -3.067 -12.069  1.00  0.00     0.210 HD
ENDBRANCH  14  15
ENDBRANCH   5  14
BRANCH   4  17
ATOM     17  O   UNL     1      14.275  -0.779 -12.941  1.00  0.00    -0.387 OA
ATOM     18  H   UNL     1      13.635  -1.395 -12.498  1.00  0.00     0.211 HD
ENDBRANCH   4  17
TORSDOF 7
ENDMDL
MODEL 5
REMARK VINA RESULT:    -5.653      1.336      3.228
REMARK INTER + INTRA:          -7.731
REMARK INTER:                  -7.313
REMARK INTRA:                  -0.419
REMARK UNBOUND:                -0.426
REMARK SMILES CCO[C@@H]1O[C@H](CO)[C@H](O)[C@@H](O)[C@H]1O
REMARK SMILES IDX 4 1 13 2 11 3 9 4 6 5 5 6 3 7 2 8 1 9 14 10 12 12 7 14 8 15
REMARK SMILES IDX 10 17
REMARK H PARENT 14 11 12 13 8 16 10 18
REMARK Flexibility Score: inf
ROOT
ATOM      1  C   UNL     1      19.676   1.553 -11.592  1.00  0.00     0.281 C 
ATOM      2  C   UNL     1      18.297   1.440 -12.282  1.00  0.00     0.202 C 
ATOM      3  C   UNL     1      18.044   0.010 -12.780  1.00  0.00     0.179 C 
ATOM      4  C   UNL     1      18.294  -1.006 -11.655  1.00  0.00     0.177 C 
ATOM      5  C   UNL     1      19.637  -0.745 -10.918  1.00  0.00     0.178 C 
ATOM      6  O   UNL     1      19.826   0.616 -10.536  1.00  0.00    -0.341 OA
ENDROOT
BRANCH   1   7
ATOM      7  O   UNL     1      20.727   1.400 -12.535  1.00  0.00    -0.350 OA
BRANCH   7   8
ATOM      8  C   UNL     1      21.549   2.547 -12.579  1.00  0.00     0.160 C 
ATOM      9  C   UNL     1      22.922   2.153 -13.102  1.00  0.00     0.035 C 
ENDBRANCH   7   8
ENDBRANCH   1   7
BRANCH   2  10
ATOM     10  O   UNL     1      17.263   1.879 -11.433  1.00  0.00    -0.385 OA
ATOM     11  H   UNL     1      16.922   1.098 -10.925  1.00  0.00     0.211 HD
ENDBRANCH   2  10
BRANCH   3  12
ATOM     12  O   UNL     1      16.721  -0.094 -13.241  1.00  0.00    -0.387 OA
ATOM     13  H   UNL     1      16.235  -0.677 -12.601  1.00  0.00     0.211 HD
ENDBRANCH   3  12
BRANCH   5  14
ATOM     14  C   UNL     1      20.897  -1.364 -11.570  1.00  0.00     0.191 C 
BRANCH  14  15
ATOM     15  O   UNL     1      20.735  -1.563 -12.947  1.00  0.00    -0.394 OA
ATOM     16  H   UNL     1      21.631  -1.438 -13.352  1.00  0.00     0.210 HD
ENDBRANCH  14  15
ENDBRANCH   5  14
BRANCH   4  17
ATOM     17  O   UNL     1      18.263  -2.309 -12.183  1.00  0.00    -0.387 OA
ATOM     18  H   UNL     1      17.998  -2.913 -11.441  1.00  0.00     0.211 HD
ENDBRANCH   4  17
TORSDOF 7
ENDMDL
MODEL 6
REMARK VINA RESULT:    -5.605      2.695      4.389
REMARK INTER + INTRA:          -7.669
REMARK INTER:                  -7.237
REMARK INTRA:                  -0.432
REMARK UNBOUND:                -0.426
REMARK SMILES CCO[C@@H]1O[C@H](CO)[C@H](O)[C@@H](O)[C@H]1O
REMARK SMILES IDX 4 1 13 2 11 3 9 4 6 5 5 6 3 7 2 8 1 9 14 10 12 12 7 14 8 15
REMARK SMILES IDX 10 17
REMARK H PARENT 14 11 12 13 8 16 10 18
REMARK Flexibility Score: inf
ROOT
ATOM      1  C   UNL     1      17.884  -1.102  -9.442  1.00  0.00     0.281 C 
ATOM      2  C   UNL     1      19.120  -0.995 -10.364  1.00  0.00     0.202 C 
ATOM      3  C   UNL     1      20.156  -0.019  -9.788  1.00  0.00     0.179 C 
ATOM      4  C   UNL     1      20.465  -0.361  -8.323  1.00  0.00     0.177 C 
ATOM      5  C   UNL     1      19.173  -0.589  -7.490  1.00  0.00     0.178 C 
ATOM      6  O   UNL     1      18.235  -1.462  -8.114  1.00  0.00    -0.341 OA
ENDROOT
BRANCH   1   7
ATOM      7  O   UNL     1      17.147   0.112  -9.441  1.00  0.00    -0.350 OA
BRANCH   7   8
ATOM      8  C   UNL     1      16.336   0.222 -10.592  1.00  0.00     0.160 C 
ATOM      9  C   UNL     1      15.718   1.611 -10.632  1.00  0.00     0.035 C 
ENDBRANCH   7   8
ENDBRANCH   1   7
BRANCH   2  10
ATOM     10  O   UNL     1      19.686  -2.261 -10.609  1.00  0.00    -0.385 OA
ATOM     11  H   UNL     1      19.993  -2.289 -11.551  1.00  0.00     0.211 HD
ENDBRANCH   2  10
BRANCH   3  12
ATOM     12  O   UNL     1      21.329  -0.080 -10.558  1.00  0.00    -0.387 OA
ATOM     13  H   UNL     1      22.005  -0.568 -10.019  1.00  0.00     0.211 HD
ENDBRANCH   3  12
BRANCH   5  14
ATOM     14  C   UNL     1      18.511   0.685  -6.909  1.00  0.00     0.191 C 
BRANCH  14  15
ATOM     15  O   UNL     1      18.815   1.827  -7.660  1.00  0.00    -0.394 OA
ATOM     16  H   UNL     1      19.715   2.120  -7.366  1.00  0.00     0.210 HD
ENDBRANCH  14  15
ENDBRANCH   5  14
BRANCH   4  17
ATOM     17  O   UNL     1      21.248   0.660  -7.757  1.00  0.00    -0.387 OA
ATOM     18  H   UNL     1      20.717   1.497  -7.821  1.00  0.00     0.211 HD
ENDBRANCH   4  17
TORSDOF 7
ENDMDL
MODEL 7
REMARK VINA RESULT:    -5.592      1.609      3.652
REMARK INTER + INTRA:          -7.653
REMARK INTER:                  -7.280
REMARK INTRA:                  -0.373
REMARK UNBOUND:                -0.426
REMARK SMILES CCO[C@@H]1O[C@H](CO)[C@H](O)[C@@H](O)[C@H]1O
REMARK SMILES IDX 4 1 13 2 11 3 9 4 6 5 5 6 3 7 2 8 1 9 14 10 12 12 7 14 8 15
REMARK SMILES IDX 10 17
REMARK H PARENT 14 11 12 13 8 16 10 18
REMARK Flexibility Score: inf
ROOT
ATOM      1  C   UNL     1      20.106   1.351 -11.248  1.00  0.00     0.281 C 
ATOM      2  C   UNL     1      19.487   0.884  -9.911  1.00  0.00     0.202 C 
ATOM      3  C   UNL     1      19.383  -0.646  -9.854  1.00  0.00     0.179 C 
ATOM      4  C   UNL     1      20.730  -1.294 -10.209  1.00  0.00     0.177 C 
ATOM      5  C   UNL     1      21.356  -0.677 -11.491  1.00  0.00     0.178 C 
ATOM      6  O   UNL     1      21.368   0.748 -11.495  1.00  0.00    -0.341 OA
ENDROOT
BRANCH   1   7
ATOM      7  O   UNL     1      19.221   1.095 -12.330  1.00  0.00    -0.350 OA
BRANCH   7   8
ATOM      8  C   UNL     1      18.037   1.856 -12.217  1.00  0.00     0.160 C 
ATOM      9  C   UNL     1      16.845   0.970 -12.542  1.00  0.00     0.035 C 
ENDBRANCH   7   8
ENDBRANCH   1   7
BRANCH   2  10
ATOM     10  O   UNL     1      20.206   1.391  -8.811  1.00  0.00    -0.385 OA
ATOM     11  H   UNL     1      19.621   2.023  -8.319  1.00  0.00     0.211 HD
ENDBRANCH   2  10
BRANCH   3  12
ATOM     12  O   UNL     1      18.982  -1.037  -8.566  1.00  0.00    -0.387 OA
ATOM     13  H   UNL     1      19.800  -1.324  -8.082  1.00  0.00     0.211 HD
ENDBRANCH   3  12
BRANCH   5  14
ATOM     14  C   UNL     1      20.871  -1.276 -12.834  1.00  0.00     0.191 C 
BRANCH  14  15
ATOM     15  O   UNL     1      21.713  -2.297 -13.291  1.00  0.00    -0.394 OA
ATOM     16  H   UNL     1      21.401  -3.130 -12.855  1.00  0.00     0.210 HD
ENDBRANCH  14  15
ENDBRANCH   5  14
BRANCH   4  17
ATOM     17  O   UNL     1      20.561  -2.682 -10.356  1.00  0.00    -0.387 OA
ATOM     18  H   UNL     1      20.935  -2.923 -11.244  1.00  0.00     0.211 HD
ENDBRANCH   4  17
TORSDOF 7
ENDMDL
MODEL 8
REMARK VINA RESULT:    -5.563      1.680      3.747
REMARK INTER + INTRA:          -7.615
REMARK INTER:                  -7.217
REMARK INTRA:                  -0.398
REMARK UNBOUND:                -0.426
REMARK SMILES CCO[C@@H]1O[C@H](CO)[C@H](O)[C@@H](O)[C@H]1O
REMARK SMILES IDX 4 1 13 2 11 3 9 4 6 5 5 6 3 7 2 8 1 9 14 10 12 12 7 14 8 15
REMARK SMILES IDX 10 17
REMARK H PARENT 14 11 12 13 8 16 10 18
REMARK Flexibility Score: inf
ROOT
ATOM      1  C   UNL     1      18.684  -0.563 -10.469  1.00  0.00     0.281 C 
ATOM      2  C   UNL     1      19.384  -1.638 -11.331  1.00  0.00     0.202 C 
ATOM      3  C   UNL     1      20.087  -1.005 -12.540  1.00  0.00     0.179 C 
ATOM      4  C   UNL     1      20.986   0.158 -12.094  1.00  0.00     0.177 C 
ATOM      5  C   UNL     1      20.254   1.123 -11.121  1.00  0.00     0.178 C 
ATOM      6  O   UNL     1      19.578   0.460 -10.055  1.00  0.00    -0.341 OA
ENDROOT
BRANCH   1   7
ATOM      7  O   UNL     1      17.582   0.003 -11.164  1.00  0.00    -0.350 OA
BRANCH   7   8
ATOM      8  C   UNL     1      16.471  -0.869 -11.162  1.00  0.00     0.160 C 
ATOM      9  C   UNL     1      15.692  -0.682 -12.454  1.00  0.00     0.035 C 
ENDBRANCH   7   8
ENDBRANCH   1   7
BRANCH   2  10
ATOM     10  O   UNL     1      20.278  -2.408 -10.561  1.00  0.00    -0.385 OA
ATOM     11  H   UNL     1      19.793  -2.744  -9.764  1.00  0.00     0.211 HD
ENDBRANCH   2  10
BRANCH   3  12
ATOM     12  O   UNL     1      20.852  -1.984 -13.197  1.00  0.00    -0.387 OA
ATOM     13  H   UNL     1      20.215  -2.650 -13.565  1.00  0.00     0.211 HD
ENDBRANCH   3  12
BRANCH   5  14
ATOM     14  C   UNL     1      19.392   2.225 -11.783  1.00  0.00     0.191 C 
BRANCH  14  15
ATOM     15  O   UNL     1      20.146   3.356 -12.119  1.00  0.00    -0.394 OA
ATOM     16  H   UNL     1      20.904   3.030 -12.668  1.00  0.00     0.210 HD
ENDBRANCH  14  15
ENDBRANCH   5  14
BRANCH   4  17
ATOM     17  O   UNL     1      21.452   0.852 -13.225  1.00  0.00    -0.387 OA
ATOM     18  H   UNL     1      22.442   0.772 -13.222  1.00  0.00     0.211 HD
ENDBRANCH   4  17
TORSDOF 7
ENDMDL
MODEL 9
REMARK VINA RESULT:    -5.521      3.457      5.494
REMARK INTER + INTRA:          -7.561
REMARK INTER:                  -7.116
REMARK INTRA:                  -0.445
REMARK UNBOUND:                -0.426
REMARK SMILES CCO[C@@H]1O[C@H](CO)[C@H](O)[C@@H](O)[C@H]1O
REMARK SMILES IDX 4 1 13 2 11 3 9 4 6 5 5 6 3 7 2 8 1 9 14 10 12 12 7 14 8 15
REMARK SMILES IDX 10 17
REMARK H PARENT 14 11 12 13 8 16 10 18
REMARK Flexibility Score: inf
ROOT
ATOM      1  C   UNL     1      16.628  -1.458 -11.509  1.00  0.00     0.281 C 
ATOM      2  C   UNL     1      16.670   0.044 -11.870  1.00  0.00     0.202 C 
ATOM      3  C   UNL     1      16.412   0.917 -10.634  1.00  0.00     0.179 C 
ATOM      4  C   UNL     1      17.333   0.501  -9.477  1.00  0.00     0.177 C 
ATOM      5  C   UNL     1      17.344  -1.038  -9.262  1.00  0.00     0.178 C 
ATOM      6  O   UNL     1      17.532  -1.783 -10.463  1.00  0.00    -0.341 OA
ENDROOT
BRANCH   1   7
ATOM      7  O   UNL     1      15.311  -1.858 -11.159  1.00  0.00    -0.350 OA
BRANCH   7   8
ATOM      8  C   UNL     1      14.906  -2.993 -11.895  1.00  0.00     0.160 C 
ATOM      9  C   UNL     1      13.856  -2.575 -12.913  1.00  0.00     0.035 C 
ENDBRANCH   7   8
ENDBRANCH   1   7
BRANCH   2  10
ATOM     10  O   UNL     1      17.884   0.386 -12.497  1.00  0.00    -0.385 OA
ATOM     11  H   UNL     1      17.699   1.088 -13.173  1.00  0.00     0.211 HD
ENDBRANCH   2  10
BRANCH   3  12
ATOM     12  O   UNL     1      16.628   2.266 -10.965  1.00  0.00    -0.387 OA
ATOM     13  H   UNL     1      17.327   2.283 -11.670  1.00  0.00     0.211 HD
ENDBRANCH   3  12
BRANCH   5  14
ATOM     14  C   UNL     1      16.206  -1.604  -8.378  1.00  0.00     0.191 C 
BRANCH  14  15
ATOM     15  O   UNL     1      15.070  -0.786  -8.392  1.00  0.00    -0.394 OA
ATOM     16  H   UNL     1      15.376   0.117  -8.122  1.00  0.00     0.210 HD
ENDBRANCH  14  15
ENDBRANCH   5  14
BRANCH   4  17
ATOM     17  O   UNL     1      16.940   1.164  -8.301  1.00  0.00    -0.387 OA
ATOM     18  H   UNL     1      17.713   1.128  -7.680  1.00  0.00     0.211 HD
ENDBRANCH   4  17
TORSDOF 7
ENDMDL
