MODEL 1
REMARK VINA RESULT:    -4.436      0.000      0.000
REMARK INTER + INTRA:         -10.143
REMARK INTER:                  -7.808
REMARK INTRA:                  -2.334
REMARK UNBOUND:                -2.334
REMARK SMILES CCCCCCCCCCCCCCC(=O)[O-]
REMARK SMILES IDX 9 1 10 2 11 3 12 4 13 5 14 6 15 7 16 8 17 9 8 10 7 11 6 12
REMARK SMILES IDX 5 13 4 14 3 15 2 16 1 17
REMARK H PARENT
REMARK Flexibility Score: inf
ROOT
ATOM      1  C   UNL     1      18.709   2.133 -23.109  1.00  0.00     0.000 C 
ENDROOT
BRANCH   1   2
ATOM      2  C   UNL     1      19.263   2.435 -24.512  1.00  0.00     0.000 C 
BRANCH   2   3
ATOM      3  C   UNL     1      20.320   1.410 -24.962  1.00  0.00     0.000 C 
BRANCH   3   4
ATOM      4  C   UNL     1      20.278   0.115 -24.132  1.00  0.00     0.000 C 
BRANCH   4   5
ATOM      5  C   UNL     1      20.579  -1.138 -24.973  1.00  0.00     0.006 C 
BRANCH   5   6
ATOM      6  C   UNL     1      19.389  -2.107 -25.012  1.00  0.00     0.053 C 
BRANCH   6   7
ATOM      7  C   UNL     1      19.749  -3.406 -25.666  1.00  0.00     0.041 C 
ATOM      8  O   UNL     1      20.261  -4.336 -24.990  1.00  0.00    -0.550 OA
ATOM      9  O   UNL     1      19.547  -3.579 -27.030  1.00  0.00    -0.550 OA
ENDBRANCH   6   7
ENDBRANCH   5   6
ENDBRANCH   4   5
ENDBRANCH   3   4
ENDBRANCH   2   3
ENDBRANCH   1   2
BRANCH   1  10
ATOM     10  C   UNL     1      17.183   1.932 -23.109  1.00  0.00     0.000 C 
BRANCH  10  11
ATOM     11  C   UNL     1      16.780   0.471 -22.854  1.00  0.00    -0.000 C 
BRANCH  11  12
ATOM     12  C   UNL     1      16.358  -0.262 -24.136  1.00  0.00    -0.000 C 
BRANCH  12  13
ATOM     13  C   UNL     1      15.976   0.738 -25.238  1.00  0.00    -0.000 C 
BRANCH  13  14
ATOM     14  C   UNL     1      16.276   0.210 -26.649  1.00  0.00    -0.000 C 
BRANCH  14  15
ATOM     15  C   UNL     1      17.724   0.476 -27.086  1.00  0.00    -0.000 C 
BRANCH  15  16
ATOM     16  C   UNL     1      18.183  -0.556 -28.122  1.00  0.00    -0.003 C 
ATOM     17  C   UNL     1      19.625  -0.306 -28.549  1.00  0.00     0.004 C 
ENDBRANCH  15  16
ENDBRANCH  14  15
ENDBRANCH  13  14
ENDBRANCH  12  13
ENDBRANCH  11  12
ENDBRANCH  10  11
ENDBRANCH   1  10
TORSDOF 13
ENDMDL
MODEL 2
REMARK VINA RESULT:    -4.424      5.787      7.002
REMARK INTER + INTRA:         -10.120
REMARK INTER:                  -8.827
REMARK INTRA:                  -1.293
REMARK UNBOUND:                -2.334
REMARK SMILES CCCCCCCCCCCCCCC(=O)[O-]
REMARK SMILES IDX 9 1 10 2 11 3 12 4 13 5 14 6 15 7 16 8 17 9 8 10 7 11 6 12
REMARK SMILES IDX 5 13 4 14 3 15 2 16 1 17
REMARK H PARENT
REMARK Flexibility Score: inf
ROOT
ATOM      1  C   UNL     1      20.959   0.657 -19.714  1.00  0.00     0.000 C 
ENDROOT
BRANCH   1   2
ATOM      2  C   UNL     1      21.195  -0.632 -18.907  1.00  0.00     0.000 C 
BRANCH   2   3
ATOM      3  C   UNL     1      19.939  -1.517 -18.828  1.00  0.00     0.000 C 
BRANCH   3   4
ATOM      4  C   UNL     1      19.786  -2.205 -17.461  1.00  0.00     0.000 C 
BRANCH   4   5
ATOM      5  C   UNL     1      20.659  -1.561 -16.371  1.00  0.00     0.006 C 
BRANCH   5   6
ATOM      6  C   UNL     1      19.821  -1.004 -15.212  1.00  0.00     0.053 C 
BRANCH   6   7
ATOM      7  C   UNL     1      19.151   0.285 -15.578  1.00  0.00     0.041 C 
ATOM      8  O   UNL     1      19.763   1.144 -16.267  1.00  0.00    -0.550 OA
ATOM      9  O   UNL     1      17.862   0.552 -15.133  1.00  0.00    -0.550 OA
ENDBRANCH   6   7
ENDBRANCH   5   6
ENDBRANCH   4   5
ENDBRANCH   3   4
ENDBRANCH   2   3
ENDBRANCH   1   2
BRANCH   1  10
ATOM     10  C   UNL     1      19.890   0.481 -20.808  1.00  0.00     0.000 C 
BRANCH  10  11
ATOM     11  C   UNL     1      20.468   0.627 -22.225  1.00  0.00    -0.000 C 
BRANCH  11  12
ATOM     12  C   UNL     1      19.646  -0.126 -23.282  1.00  0.00    -0.000 C 
BRANCH  12  13
ATOM     13  C   UNL     1      18.360  -0.701 -22.669  1.00  0.00    -0.000 C 
BRANCH  13  14
ATOM     14  C   UNL     1      17.091  -0.201 -23.376  1.00  0.00    -0.000 C 
BRANCH  14  15
ATOM     15  C   UNL     1      16.940   1.326 -23.314  1.00  0.00    -0.000 C 
BRANCH  15  16
ATOM     16  C   UNL     1      16.464   1.885 -24.660  1.00  0.00    -0.003 C 
ATOM     17  C   UNL     1      17.162   1.189 -25.824  1.00  0.00     0.004 C 
ENDBRANCH  15  16
ENDBRANCH  14  15
ENDBRANCH  13  14
ENDBRANCH  12  13
ENDBRANCH  11  12
ENDBRANCH  10  11
ENDBRANCH   1  10
TORSDOF 13
ENDMDL
MODEL 3
REMARK VINA RESULT:    -4.422      6.164      7.618
REMARK INTER + INTRA:         -10.117
REMARK INTER:                  -9.039
REMARK INTRA:                  -1.078
REMARK UNBOUND:                -2.334
REMARK SMILES CCCCCCCCCCCCCCC(=O)[O-]
REMARK SMILES IDX 9 1 10 2 11 3 12 4 13 5 14 6 15 7 16 8 17 9 8 10 7 11 6 12
REMARK SMILES IDX 5 13 4 14 3 15 2 16 1 17
REMARK H PARENT
REMARK Flexibility Score: inf
ROOT
ATOM      1  C   UNL     1      19.958  -0.782 -19.447  1.00  0.00     0.000 C 
ENDROOT
BRANCH   1   2
ATOM      2  C   UNL     1      20.637  -1.887 -18.620  1.00  0.00     0.000 C 
BRANCH   2   3
ATOM      3  C   UNL     1      19.939  -2.127 -17.271  1.00  0.00     0.000 C 
BRANCH   3   4
ATOM      4  C   UNL     1      20.670  -1.452 -16.098  1.00  0.00     0.000 C 
BRANCH   4   5
ATOM      5  C   UNL     1      19.749  -0.540 -15.270  1.00  0.00     0.006 C 
BRANCH   5   6
ATOM      6  C   UNL     1      19.554   0.834 -15.926  1.00  0.00     0.053 C 
BRANCH   6   7
ATOM      7  C   UNL     1      18.184   1.384 -15.673  1.00  0.00     0.041 C 
ATOM      8  O   UNL     1      17.398   0.792 -14.887  1.00  0.00    -0.550 OA
ATOM      9  O   UNL     1      17.764   2.535 -16.327  1.00  0.00    -0.550 OA
ENDBRANCH   6   7
ENDBRANCH   5   6
ENDBRANCH   4   5
ENDBRANCH   3   4
ENDBRANCH   2   3
ENDBRANCH   1   2
BRANCH   1  10
ATOM     10  C   UNL     1      20.874   0.436 -19.669  1.00  0.00     0.000 C 
BRANCH  10  11
ATOM     11  C   UNL     1      20.479   1.254 -20.910  1.00  0.00    -0.000 C 
BRANCH  11  12
ATOM     12  C   UNL     1      20.140   0.371 -22.120  1.00  0.00    -0.000 C 
BRANCH  12  13
ATOM     13  C   UNL     1      19.211   1.111 -23.094  1.00  0.00    -0.000 C 
BRANCH  13  14
ATOM     14  C   UNL     1      17.887   1.539 -22.443  1.00  0.00    -0.000 C 
BRANCH  14  15
ATOM     15  C   UNL     1      16.740   0.560 -22.734  1.00  0.00    -0.000 C 
BRANCH  15  16
ATOM     16  C   UNL     1      16.971  -0.179 -24.057  1.00  0.00    -0.003 C 
ATOM     17  C   UNL     1      15.945   0.236 -25.107  1.00  0.00     0.004 C 
ENDBRANCH  15  16
ENDBRANCH  14  15
ENDBRANCH  13  14
ENDBRANCH  12  13
ENDBRANCH  11  12
ENDBRANCH  10  11
ENDBRANCH   1  10
TORSDOF 13
ENDMDL
MODEL 4
REMARK VINA RESULT:    -4.401      1.724      3.667
REMARK INTER + INTRA:         -10.079
REMARK INTER:                  -8.259
REMARK INTRA:                  -1.821
REMARK UNBOUND:                -2.334
REMARK SMILES CCCCCCCCCCCCCCC(=O)[O-]
REMARK SMILES IDX 9 1 10 2 11 3 12 4 13 5 14 6 15 7 16 8 17 9 8 10 7 11 6 12
REMARK SMILES IDX 5 13 4 14 3 15 2 16 1 17
REMARK H PARENT
REMARK Flexibility Score: inf
ROOT
ATOM      1  C   UNL     1      17.645  -0.133 -27.110  1.00  0.00     0.000 C 
ENDROOT
BRANCH   1   2
ATOM      2  C   UNL     1      19.169  -0.248 -27.288  1.00  0.00     0.000 C 
BRANCH   2   3
ATOM      3  C   UNL     1      19.677  -1.688 -27.098  1.00  0.00     0.000 C 
BRANCH   3   4
ATOM      4  C   UNL     1      19.758  -2.096 -25.617  1.00  0.00     0.000 C 
BRANCH   4   5
ATOM      5  C   UNL     1      19.582  -3.610 -25.408  1.00  0.00     0.006 C 
BRANCH   5   6
ATOM      6  C   UNL     1      18.684  -3.927 -24.204  1.00  0.00     0.053 C 
BRANCH   6   7
ATOM      7  C   UNL     1      17.803  -5.110 -24.462  1.00  0.00     0.041 C 
ATOM      8  O   UNL     1      18.278  -6.153 -24.984  1.00  0.00    -0.550 OA
ATOM      9  O   UNL     1      16.450  -5.052 -24.153  1.00  0.00    -0.550 OA
ENDBRANCH   6   7
ENDBRANCH   5   6
ENDBRANCH   4   5
ENDBRANCH   3   4
ENDBRANCH   2   3
ENDBRANCH   1   2
BRANCH   1  10
ATOM     10  C   UNL     1      17.214   1.255 -26.603  1.00  0.00     0.000 C 
BRANCH  10  11
ATOM     11  C   UNL     1      16.147   1.175 -25.498  1.00  0.00    -0.000 C 
BRANCH  11  12
ATOM     12  C   UNL     1      16.038  -0.226 -24.879  1.00  0.00    -0.000 C 
BRANCH  12  13
ATOM     13  C   UNL     1      16.797  -0.295 -23.544  1.00  0.00    -0.000 C 
BRANCH  13  14
ATOM     14  C   UNL     1      16.985   1.085 -22.896  1.00  0.00    -0.000 C 
BRANCH  14  15
ATOM     15  C   UNL     1      18.269   1.177 -22.059  1.00  0.00    -0.000 C 
BRANCH  15  16
ATOM     16  C   UNL     1      19.438   0.485 -22.770  1.00  0.00    -0.003 C 
ATOM     17  C   UNL     1      19.932   1.313 -23.953  1.00  0.00     0.004 C 
ENDBRANCH  15  16
ENDBRANCH  14  15
ENDBRANCH  13  14
ENDBRANCH  12  13
ENDBRANCH  11  12
ENDBRANCH  10  11
ENDBRANCH   1  10
TORSDOF 13
ENDMDL
MODEL 5
REMARK VINA RESULT:    -4.378      4.751      5.764
REMARK INTER + INTRA:         -10.039
REMARK INTER:                  -8.588
REMARK INTRA:                  -1.451
REMARK UNBOUND:                -2.334
REMARK SMILES CCCCCCCCCCCCCCC(=O)[O-]
REMARK SMILES IDX 9 1 10 2 11 3 12 4 13 5 14 6 15 7 16 8 17 9 8 10 7 11 6 12
REMARK SMILES IDX 5 13 4 14 3 15 2 16 1 17
REMARK H PARENT
REMARK Flexibility Score: inf
ROOT
ATOM      1  C   UNL     1      18.642   1.710 -22.342  1.00  0.00     0.000 C 
ENDROOT
BRANCH   1   2
ATOM      2  C   UNL     1      19.244   0.337 -21.997  1.00  0.00     0.000 C 
BRANCH   2   3
ATOM      3  C   UNL     1      20.398   0.437 -20.984  1.00  0.00     0.000 C 
BRANCH   3   4
ATOM      4  C   UNL     1      20.018  -0.111 -19.598  1.00  0.00     0.000 C 
BRANCH   4   5
ATOM      5  C   UNL     1      19.407   0.964 -18.682  1.00  0.00     0.006 C 
BRANCH   5   6
ATOM      6  C   UNL     1      19.138   0.433 -17.267  1.00  0.00     0.053 C 
BRANCH   6   7
ATOM      7  C   UNL     1      18.116   1.258 -16.547  1.00  0.00     0.041 C 
ATOM      8  O   UNL     1      17.694   2.330 -17.055  1.00  0.00    -0.550 OA
ATOM      9  O   UNL     1      17.651   0.858 -15.300  1.00  0.00    -0.550 OA
ENDBRANCH   6   7
ENDBRANCH   5   6
ENDBRANCH   4   5
ENDBRANCH   3   4
ENDBRANCH   2   3
ENDBRANCH   1   2
BRANCH   1  10
ATOM     10  C   UNL     1      17.169   1.615 -22.778  1.00  0.00     0.000 C 
BRANCH  10  11
ATOM     11  C   UNL     1      16.745   0.177 -23.119  1.00  0.00    -0.000 C 
BRANCH  11  12
ATOM     12  C   UNL     1      16.133   0.054 -24.522  1.00  0.00    -0.000 C 
BRANCH  12  13
ATOM     13  C   UNL     1      16.080   1.423 -25.218  1.00  0.00    -0.000 C 
BRANCH  13  14
ATOM     14  C   UNL     1      16.941   1.478 -26.488  1.00  0.00    -0.000 C 
BRANCH  14  15
ATOM     15  C   UNL     1      18.057   0.422 -26.494  1.00  0.00    -0.000 C 
BRANCH  15  16
ATOM     16  C   UNL     1      19.346   0.983 -25.883  1.00  0.00    -0.003 C 
ATOM     17  C   UNL     1      20.355  -0.127 -25.608  1.00  0.00     0.004 C 
ENDBRANCH  15  16
ENDBRANCH  14  15
ENDBRANCH  13  14
ENDBRANCH  12  13
ENDBRANCH  11  12
ENDBRANCH  10  11
ENDBRANCH   1  10
TORSDOF 13
ENDMDL
MODEL 6
REMARK VINA RESULT:    -4.304      5.456      7.559
REMARK INTER + INTRA:          -9.909
REMARK INTER:                  -8.270
REMARK INTRA:                  -1.639
REMARK UNBOUND:                -2.334
REMARK SMILES CCCCCCCCCCCCCCC(=O)[O-]
REMARK SMILES IDX 9 1 10 2 11 3 12 4 13 5 14 6 15 7 16 8 17 9 8 10 7 11 6 12
REMARK SMILES IDX 5 13 4 14 3 15 2 16 1 17
REMARK H PARENT
REMARK Flexibility Score: inf
ROOT
ATOM      1  C   UNL     1      21.142  -0.344 -18.756  1.00  0.00     0.000 C 
ENDROOT
BRANCH   1   2
ATOM      2  C   UNL     1      20.752   0.676 -19.840  1.00  0.00     0.000 C 
BRANCH   2   3
ATOM      3  C   UNL     1      19.746   0.103 -20.854  1.00  0.00     0.000 C 
BRANCH   3   4
ATOM      4  C   UNL     1      19.968   0.643 -22.277  1.00  0.00     0.000 C 
BRANCH   4   5
ATOM      5  C   UNL     1      19.376  -0.276 -23.360  1.00  0.00     0.006 C 
BRANCH   5   6
ATOM      6  C   UNL     1      17.878  -0.531 -23.146  1.00  0.00     0.053 C 
BRANCH   6   7
ATOM      7  C   UNL     1      17.274  -1.298 -24.282  1.00  0.00     0.041 C 
ATOM      8  O   UNL     1      17.094  -2.540 -24.184  1.00  0.00    -0.550 OA
ATOM      9  O   UNL     1      16.938  -0.645 -25.462  1.00  0.00    -0.550 OA
ENDBRANCH   6   7
ENDBRANCH   5   6
ENDBRANCH   4   5
ENDBRANCH   3   4
ENDBRANCH   2   3
ENDBRANCH   1   2
BRANCH   1  10
ATOM     10  C   UNL     1      20.174  -1.539 -18.694  1.00  0.00     0.000 C 
BRANCH  10  11
ATOM     11  C   UNL     1      19.700  -1.841 -17.263  1.00  0.00    -0.000 C 
BRANCH  11  12
ATOM     12  C   UNL     1      20.805  -1.641 -16.216  1.00  0.00    -0.000 C 
BRANCH  12  13
ATOM     13  C   UNL     1      20.285  -0.830 -15.019  1.00  0.00    -0.000 C 
BRANCH  13  14
ATOM     14  C   UNL     1      19.194   0.177 -15.413  1.00  0.00    -0.000 C 
BRANCH  14  15
ATOM     15  C   UNL     1      19.743   1.597 -15.618  1.00  0.00    -0.000 C 
BRANCH  15  16
ATOM     16  C   UNL     1      19.174   2.226 -16.895  1.00  0.00    -0.003 C 
ATOM     17  C   UNL     1      17.922   1.491 -17.362  1.00  0.00     0.004 C 
ENDBRANCH  15  16
ENDBRANCH  14  15
ENDBRANCH  13  14
ENDBRANCH  12  13
ENDBRANCH  11  12
ENDBRANCH  10  11
ENDBRANCH   1  10
TORSDOF 13
ENDMDL
MODEL 7
REMARK VINA RESULT:    -4.303      3.230      4.541
REMARK INTER + INTRA:          -9.908
REMARK INTER:                  -7.943
REMARK INTRA:                  -1.965
REMARK UNBOUND:                -2.334
REMARK SMILES CCCCCCCCCCCCCCC(=O)[O-]
REMARK SMILES IDX 9 1 10 2 11 3 12 4 13 5 14 6 15 7 16 8 17 9 8 10 7 11 6 12
REMARK SMILES IDX 5 13 4 14 3 15 2 16 1 17
REMARK H PARENT
REMARK Flexibility Score: inf
ROOT
ATOM      1  C   UNL     1      16.696   0.144 -23.257  1.00  0.00     0.000 C 
ENDROOT
BRANCH   1   2
ATOM      2  C   UNL     1      17.132   1.538 -22.775  1.00  0.00     0.000 C 
BRANCH   2   3
ATOM      3  C   UNL     1      18.613   1.582 -22.360  1.00  0.00     0.000 C 
BRANCH   3   4
ATOM      4  C   UNL     1      19.047   0.329 -21.582  1.00  0.00     0.000 C 
BRANCH   4   5
ATOM      5  C   UNL     1      20.432   0.484 -20.931  1.00  0.00     0.006 C 
BRANCH   5   6
ATOM      6  C   UNL     1      20.355   0.474 -19.397  1.00  0.00     0.053 C 
BRANCH   6   7
ATOM      7  C   UNL     1      20.708  -0.867 -18.830  1.00  0.00     0.041 C 
ATOM      8  O   UNL     1      19.867  -1.805 -18.849  1.00  0.00    -0.550 OA
ATOM      9  O   UNL     1      21.955  -1.073 -18.254  1.00  0.00    -0.550 OA
ENDBRANCH   6   7
ENDBRANCH   5   6
ENDBRANCH   4   5
ENDBRANCH   3   4
ENDBRANCH   2   3
ENDBRANCH   1   2
BRANCH   1  10
ATOM     10  C   UNL     1      16.027   0.181 -24.643  1.00  0.00     0.000 C 
BRANCH  10  11
ATOM     11  C   UNL     1      16.009   1.592 -25.252  1.00  0.00    -0.000 C 
BRANCH  11  12
ATOM     12  C   UNL     1      16.901   1.714 -26.496  1.00  0.00    -0.000 C 
BRANCH  12  13
ATOM     13  C   UNL     1      17.353   0.329 -26.984  1.00  0.00    -0.000 C 
BRANCH  13  14
ATOM     14  C   UNL     1      18.882   0.190 -27.041  1.00  0.00    -0.000 C 
BRANCH  14  15
ATOM     15  C   UNL     1      19.577   0.772 -25.802  1.00  0.00    -0.000 C 
BRANCH  15  16
ATOM     16  C   UNL     1      20.362  -0.311 -25.053  1.00  0.00    -0.003 C 
ATOM     17  C   UNL     1      19.519  -1.568 -24.858  1.00  0.00     0.004 C 
ENDBRANCH  15  16
ENDBRANCH  14  15
ENDBRANCH  13  14
ENDBRANCH  12  13
ENDBRANCH  11  12
ENDBRANCH  10  11
ENDBRANCH   1  10
TORSDOF 13
ENDMDL
MODEL 8
REMARK VINA RESULT:    -4.302      5.052      7.438
REMARK INTER + INTRA:          -9.906
REMARK INTER:                  -8.800
REMARK INTRA:                  -1.106
REMARK UNBOUND:                -2.334
REMARK SMILES CCCCCCCCCCCCCCC(=O)[O-]
REMARK SMILES IDX 9 1 10 2 11 3 12 4 13 5 14 6 15 7 16 8 17 9 8 10 7 11 6 12
REMARK SMILES IDX 5 13 4 14 3 15 2 16 1 17
REMARK H PARENT
REMARK Flexibility Score: inf
ROOT
ATOM      1  C   UNL     1      19.895   0.116 -21.796  1.00  0.00     0.000 C 
ENDROOT
BRANCH   1   2
ATOM      2  C   UNL     1      19.298   0.819 -23.028  1.00  0.00     0.000 C 
BRANCH   2   3
ATOM      3  C   UNL     1      18.047   1.646 -22.686  1.00  0.00     0.000 C 
BRANCH   3   4
ATOM      4  C   UNL     1      16.740   0.877 -22.944  1.00  0.00     0.000 C 
BRANCH   4   5
ATOM      5  C   UNL     1      16.887  -0.189 -24.044  1.00  0.00     0.006 C 
BRANCH   5   6
ATOM      6  C   UNL     1      15.915   0.043 -25.208  1.00  0.00     0.053 C 
BRANCH   6   7
ATOM      7  C   UNL     1      16.119   1.382 -25.847  1.00  0.00     0.041 C 
ATOM      8  O   UNL     1      17.154   1.609 -26.528  1.00  0.00    -0.550 OA
ATOM      9  O   UNL     1      15.180   2.390 -25.668  1.00  0.00    -0.550 OA
ENDBRANCH   6   7
ENDBRANCH   5   6
ENDBRANCH   4   5
ENDBRANCH   3   4
ENDBRANCH   2   3
ENDBRANCH   1   2
BRANCH   1  10
ATOM     10  C   UNL     1      20.227   1.100 -20.659  1.00  0.00     0.000 C 
BRANCH  10  11
ATOM     11  C   UNL     1      19.907   0.525 -19.269  1.00  0.00    -0.000 C 
BRANCH  11  12
ATOM     12  C   UNL     1      20.769  -0.697 -18.919  1.00  0.00    -0.000 C 
BRANCH  12  13
ATOM     13  C   UNL     1      19.889  -1.928 -18.650  1.00  0.00    -0.000 C 
BRANCH  13  14
ATOM     14  C   UNL     1      20.080  -2.497 -17.237  1.00  0.00    -0.000 C 
BRANCH  14  15
ATOM     15  C   UNL     1      20.855  -1.546 -16.314  1.00  0.00    -0.000 C 
BRANCH  15  16
ATOM     16  C   UNL     1      19.970  -1.056 -15.162  1.00  0.00    -0.003 C 
ATOM     17  C   UNL     1      19.127   0.143 -15.584  1.00  0.00     0.004 C 
ENDBRANCH  15  16
ENDBRANCH  14  15
ENDBRANCH  13  14
ENDBRANCH  12  13
ENDBRANCH  11  12
ENDBRANCH  10  11
ENDBRANCH   1  10
TORSDOF 13
ENDMDL
