MODEL 1
REMARK VINA RESULT:    -3.799      0.000      0.000
REMARK INTER + INTRA:          -5.094
REMARK INTER:                  -4.909
REMARK INTRA:                  -0.185
REMARK UNBOUND:                -0.185
REMARK SMILES C=CC(=O)CCCCC
REMARK SMILES IDX 6 1 7 2 8 3 9 4 5 5 3 6 4 7 2 8 1 9
REMARK H PARENT
REMARK Flexibility Score: inf
ROOT
ATOM      1  C   UNL     1      -1.749  14.110  -0.588  1.00  0.00     0.008 C 
ENDROOT
BRANCH   1   2
ATOM      2  C   UNL     1      -2.292  14.714  -1.888  1.00  0.00     0.000 C 
BRANCH   2   3
ATOM      3  C   UNL     1      -1.319  15.749  -2.463  1.00  0.00    -0.003 C 
ATOM      4  C   UNL     1      -1.173  15.591  -3.973  1.00  0.00     0.004 C 
ENDBRANCH   2   3
ENDBRANCH   1   2
BRANCH   1   5
ATOM      5  C   UNL     1      -1.943  12.591  -0.563  1.00  0.00     0.080 C 
BRANCH   5   6
ATOM      6  C   UNL     1      -1.979  12.088   0.849  1.00  0.00     0.155 C 
ATOM      7  O   UNL     1      -2.050  10.846   1.061  1.00  0.00    -0.295 OA
BRANCH   6   8
ATOM      8  C   UNL     1      -1.977  13.042   1.975  1.00  0.00     0.039 C 
ATOM      9  C   UNL     1      -0.994  13.088   2.872  1.00  0.00     0.012 C 
ENDBRANCH   6   8
ENDBRANCH   5   6
ENDBRANCH   1   5
TORSDOF 5
ENDMDL
MODEL 2
REMARK VINA RESULT:    -3.548      1.415      2.050
REMARK INTER + INTRA:          -4.769
REMARK INTER:                  -4.598
REMARK INTRA:                  -0.171
REMARK UNBOUND:                -0.185
REMARK SMILES C=CC(=O)CCCCC
REMARK SMILES IDX 6 1 7 2 8 3 9 4 5 5 3 6 4 7 2 8 1 9
REMARK H PARENT
REMARK Flexibility Score: inf
ROOT
ATOM      1  C   UNL     1      -1.848  14.809  -0.011  1.00  0.00     0.008 C 
ENDROOT
BRANCH   1   2
ATOM      2  C   UNL     1      -2.194  14.454  -1.461  1.00  0.00     0.000 C 
BRANCH   2   3
ATOM      3  C   UNL     1      -1.610  15.482  -2.435  1.00  0.00    -0.003 C 
ATOM      4  C   UNL     1      -0.484  16.280  -1.785  1.00  0.00     0.004 C 
ENDBRANCH   2   3
ENDBRANCH   1   2
BRANCH   1   5
ATOM      5  C   UNL     1      -2.390  13.756   0.960  1.00  0.00     0.080 C 
BRANCH   5   6
ATOM      6  C   UNL     1      -1.583  12.494   0.871  1.00  0.00     0.155 C 
ATOM      7  O   UNL     1      -0.430  12.461   1.381  1.00  0.00    -0.295 OA
BRANCH   6   8
ATOM      8  C   UNL     1      -2.121  11.321   0.155  1.00  0.00     0.039 C 
ATOM      9  C   UNL     1      -2.672  10.287   0.788  1.00  0.00     0.012 C 
ENDBRANCH   6   8
ENDBRANCH   5   6
ENDBRANCH   1   5
TORSDOF 5
ENDMDL
MODEL 3
REMARK VINA RESULT:    -3.495      1.734      3.698
REMARK INTER + INTRA:          -4.701
REMARK INTER:                  -4.219
REMARK INTRA:                  -0.482
REMARK UNBOUND:                -0.185
REMARK SMILES C=CC(=O)CCCCC
REMARK SMILES IDX 6 1 7 2 8 3 9 4 5 5 3 6 4 7 2 8 1 9
REMARK H PARENT
REMARK Flexibility Score: inf
ROOT
ATOM      1  C   UNL     1      -2.295  13.225   2.828  1.00  0.00     0.008 C 
ENDROOT
BRANCH   1   2
ATOM      2  C   UNL     1      -2.114  14.734   3.031  1.00  0.00     0.000 C 
BRANCH   2   3
ATOM      3  C   UNL     1      -0.723  15.188   2.577  1.00  0.00    -0.003 C 
ATOM      4  C   UNL     1      -0.816  16.350   1.593  1.00  0.00     0.004 C 
ENDBRANCH   2   3
ENDBRANCH   1   2
BRANCH   1   5
ATOM      5  C   UNL     1      -1.237  12.668   1.870  1.00  0.00     0.080 C 
BRANCH   5   6
ATOM      6  C   UNL     1      -1.879  11.818   0.814  1.00  0.00     0.155 C 
ATOM      7  O   UNL     1      -2.183  10.623   1.083  1.00  0.00    -0.295 OA
BRANCH   6   8
ATOM      8  C   UNL     1      -2.107  12.364  -0.538  1.00  0.00     0.039 C 
ATOM      9  C   UNL     1      -2.064  13.669  -0.799  1.00  0.00     0.012 C 
ENDBRANCH   6   8
ENDBRANCH   5   6
ENDBRANCH   1   5
TORSDOF 5
ENDMDL
MODEL 4
REMARK VINA RESULT:    -3.481      1.653      5.293
REMARK INTER + INTRA:          -4.684
REMARK INTER:                  -4.439
REMARK INTRA:                  -0.244
REMARK UNBOUND:                -0.185
REMARK SMILES C=CC(=O)CCCCC
REMARK SMILES IDX 6 1 7 2 8 3 9 4 5 5 3 6 4 7 2 8 1 9
REMARK H PARENT
REMARK Flexibility Score: inf
ROOT
ATOM      1  C   UNL     1      -1.012  12.988   2.931  1.00  0.00     0.008 C 
ENDROOT
BRANCH   1   2
ATOM      2  C   UNL     1      -1.409  13.233   4.392  1.00  0.00     0.000 C 
BRANCH   2   3
ATOM      3  C   UNL     1      -2.928  13.146   4.572  1.00  0.00    -0.003 C 
ATOM      4  C   UNL     1      -3.306  12.032   5.544  1.00  0.00     0.004 C 
ENDBRANCH   2   3
ENDBRANCH   1   2
BRANCH   1   5
ATOM      5  C   UNL     1      -2.237  13.032   2.013  1.00  0.00     0.080 C 
BRANCH   5   6
ATOM      6  C   UNL     1      -2.134  11.981   0.947  1.00  0.00     0.155 C 
ATOM      7  O   UNL     1      -2.211  10.764   1.270  1.00  0.00    -0.295 OA
BRANCH   6   8
ATOM      8  C   UNL     1      -1.900  12.372  -0.456  1.00  0.00     0.039 C 
ATOM      9  C   UNL     1      -2.035  13.626  -0.882  1.00  0.00     0.012 C 
ENDBRANCH   6   8
ENDBRANCH   5   6
ENDBRANCH   1   5
TORSDOF 5
ENDMDL
MODEL 5
REMARK VINA RESULT:    -3.353      1.635      2.627
REMARK INTER + INTRA:          -4.518
REMARK INTER:                  -3.977
REMARK INTRA:                  -0.541
REMARK UNBOUND:                -0.185
REMARK SMILES C=CC(=O)CCCCC
REMARK SMILES IDX 6 1 7 2 8 3 9 4 5 5 3 6 4 7 2 8 1 9
REMARK H PARENT
REMARK Flexibility Score: inf
ROOT
ATOM      1  C   UNL     1      -2.066  11.745   0.793  1.00  0.00     0.008 C 
ENDROOT
BRANCH   1   2
ATOM      2  C   UNL     1      -2.878  12.695  -0.096  1.00  0.00     0.000 C 
BRANCH   2   3
ATOM      3  C   UNL     1      -2.071  13.123  -1.326  1.00  0.00    -0.003 C 
ATOM      4  C   UNL     1      -2.166  14.628  -1.552  1.00  0.00     0.004 C 
ENDBRANCH   2   3
ENDBRANCH   1   2
BRANCH   1   5
ATOM      5  C   UNL     1      -1.065  12.519   1.656  1.00  0.00     0.080 C 
BRANCH   5   6
ATOM      6  C   UNL     1      -1.768  13.214   2.783  1.00  0.00     0.155 C 
ATOM      7  O   UNL     1      -2.382  12.528   3.646  1.00  0.00    -0.295 OA
BRANCH   6   8
ATOM      8  C   UNL     1      -1.777  14.689   2.852  1.00  0.00     0.039 C 
ATOM      9  C   UNL     1      -1.141  15.451   1.965  1.00  0.00     0.012 C 
ENDBRANCH   6   8
ENDBRANCH   5   6
ENDBRANCH   1   5
TORSDOF 5
ENDMDL
MODEL 6
REMARK VINA RESULT:    -3.319      1.674      4.994
REMARK INTER + INTRA:          -4.474
REMARK INTER:                  -4.286
REMARK INTRA:                  -0.189
REMARK UNBOUND:                -0.185
REMARK SMILES C=CC(=O)CCCCC
REMARK SMILES IDX 6 1 7 2 8 3 9 4 5 5 3 6 4 7 2 8 1 9
REMARK H PARENT
REMARK Flexibility Score: inf
ROOT
ATOM      1  C   UNL     1      -2.460  13.572   2.698  1.00  0.00     0.008 C 
ENDROOT
BRANCH   1   2
ATOM      2  C   UNL     1      -1.937  14.170   4.009  1.00  0.00     0.000 C 
BRANCH   2   3
ATOM      3  C   UNL     1      -1.080  13.156   4.774  1.00  0.00    -0.003 C 
ATOM      4  C   UNL     1       0.231  13.783   5.241  1.00  0.00     0.004 C 
ENDBRANCH   2   3
ENDBRANCH   1   2
BRANCH   1   5
ATOM      5  C   UNL     1      -1.338  12.870   1.927  1.00  0.00     0.080 C 
BRANCH   5   6
ATOM      6  C   UNL     1      -1.909  11.952   0.887  1.00  0.00     0.155 C 
ATOM      7  O   UNL     1      -2.204  10.767   1.203  1.00  0.00    -0.295 OA
BRANCH   6   8
ATOM      8  C   UNL     1      -2.078  12.423  -0.502  1.00  0.00     0.039 C 
ATOM      9  C   UNL     1      -1.930  13.699  -0.849  1.00  0.00     0.012 C 
ENDBRANCH   6   8
ENDBRANCH   5   6
ENDBRANCH   1   5
TORSDOF 5
ENDMDL
MODEL 7
REMARK VINA RESULT:    -3.310     10.417     12.282
REMARK INTER + INTRA:          -4.463
REMARK INTER:                  -4.028
REMARK INTRA:                  -0.435
REMARK UNBOUND:                -0.185
REMARK SMILES C=CC(=O)CCCCC
REMARK SMILES IDX 6 1 7 2 8 3 9 4 5 5 3 6 4 7 2 8 1 9
REMARK H PARENT
REMARK Flexibility Score: inf
ROOT
ATOM      1  C   UNL     1      -9.891   7.667   5.366  1.00  0.00     0.008 C 
ENDROOT
BRANCH   1   2
ATOM      2  C   UNL     1      -9.655   7.872   6.867  1.00  0.00     0.000 C 
BRANCH   2   3
ATOM      3  C   UNL     1      -8.158   7.872   7.195  1.00  0.00    -0.003 C 
ATOM      4  C   UNL     1      -7.409   8.896   6.348  1.00  0.00     0.004 C 
ENDBRANCH   2   3
ENDBRANCH   1   2
BRANCH   1   5
ATOM      5  C   UNL     1     -10.498   6.290   5.087  1.00  0.00     0.080 C 
BRANCH   5   6
ATOM      6  C   UNL     1      -9.424   5.299   4.747  1.00  0.00     0.155 C 
ATOM      7  O   UNL     1      -8.785   5.428   3.666  1.00  0.00    -0.295 OA
BRANCH   6   8
ATOM      8  C   UNL     1      -9.152   4.163   5.649  1.00  0.00     0.039 C 
ATOM      9  C   UNL     1      -8.980   4.316   6.960  1.00  0.00     0.012 C 
ENDBRANCH   6   8
ENDBRANCH   5   6
ENDBRANCH   1   5
TORSDOF 5
ENDMDL
MODEL 8
REMARK VINA RESULT:    -3.215      2.511      3.459
REMARK INTER + INTRA:          -4.339
REMARK INTER:                  -4.039
REMARK INTRA:                  -0.300
REMARK UNBOUND:                -0.185
REMARK SMILES C=CC(=O)CCCCC
REMARK SMILES IDX 6 1 7 2 8 3 9 4 5 5 3 6 4 7 2 8 1 9
REMARK H PARENT
REMARK Flexibility Score: inf
ROOT
ATOM      1  C   UNL     1      -1.739  14.218   1.473  1.00  0.00     0.008 C 
ENDROOT
BRANCH   1   2
ATOM      2  C   UNL     1      -2.625  13.938   0.253  1.00  0.00     0.000 C 
BRANCH   2   3
ATOM      3  C   UNL     1      -2.085  12.757  -0.560  1.00  0.00    -0.003 C 
ATOM      4  C   UNL     1      -2.033  11.486   0.281  1.00  0.00     0.004 C 
ENDBRANCH   2   3
ENDBRANCH   1   2
BRANCH   1   5
ATOM      5  C   UNL     1      -2.547  14.136   2.771  1.00  0.00     0.080 C 
BRANCH   5   6
ATOM      6  C   UNL     1      -1.918  13.162   3.722  1.00  0.00     0.155 C 
ATOM      7  O   UNL     1      -2.645  12.315   4.310  1.00  0.00    -0.295 OA
BRANCH   6   8
ATOM      8  C   UNL     1      -0.470  13.227   3.998  1.00  0.00     0.039 C 
ATOM      9  C   UNL     1       0.023  13.742   5.122  1.00  0.00     0.012 C 
ENDBRANCH   6   8
ENDBRANCH   5   6
ENDBRANCH   1   5
TORSDOF 5
ENDMDL
MODEL 9
REMARK VINA RESULT:    -3.187      2.195      3.209
REMARK INTER + INTRA:          -4.303
REMARK INTER:                  -4.152
REMARK INTRA:                  -0.151
REMARK UNBOUND:                -0.185
REMARK SMILES C=CC(=O)CCCCC
REMARK SMILES IDX 6 1 7 2 8 3 9 4 5 5 3 6 4 7 2 8 1 9
REMARK H PARENT
REMARK Flexibility Score: inf
ROOT
ATOM      1  C   UNL     1      -1.112  15.549  -2.920  1.00  0.00     0.008 C 
ENDROOT
BRANCH   1   2
ATOM      2  C   UNL     1      -1.770  16.737  -3.632  1.00  0.00     0.000 C 
BRANCH   2   3
ATOM      3  C   UNL     1      -1.362  16.789  -5.108  1.00  0.00    -0.003 C 
ATOM      4  C   UNL     1      -1.743  18.125  -5.738  1.00  0.00     0.004 C 
ENDBRANCH   2   3
ENDBRANCH   1   2
BRANCH   1   5
ATOM      5  C   UNL     1      -2.130  14.784  -2.069  1.00  0.00     0.080 C 
BRANCH   5   6
ATOM      6  C   UNL     1      -1.716  14.784  -0.627  1.00  0.00     0.155 C 
ATOM      7  O   UNL     1      -1.369  15.868  -0.083  1.00  0.00    -0.295 OA
BRANCH   6   8
ATOM      8  C   UNL     1      -1.672  13.517   0.130  1.00  0.00     0.039 C 
ATOM      9  C   UNL     1      -2.319  12.423  -0.267  1.00  0.00     0.012 C 
ENDBRANCH   6   8
ENDBRANCH   5   6
ENDBRANCH   1   5
TORSDOF 5
ENDMDL
