MODEL 1
REMARK VINA RESULT:    -2.250      0.000      0.000
REMARK INTER + INTRA:          -0.571
REMARK INTER:                  -2.777
REMARK INTRA:                   2.205
REMARK UNBOUND:                 2.205
REMARK SMILES C=C1CC[C@@H]2[C@H]([C@H]3[C@H](C)CC[C@H]13)C2(C)C
REMARK SMILES IDX 3 1 2 2 1 3 12 4 9 5 8 6 10 7 7 8 11 9 4 11 5 12 6 13 13 14
REMARK SMILES IDX 14 16 15 17
REMARK H PARENT
REMARK Flexibility Score: 80.00
ROOT
ATOM      1  C   UNL     1     143.282 146.494 131.754  1.00  0.00     0.031 C 
ENDROOT
BRANCH   1   2
ATOM      2  C   UNL     1     143.491 145.582 132.961  1.00  0.00    -0.074 C 
ATOM      3  C   UNL     1     142.436 145.480 133.795  1.00  0.00     0.008 C 
BRANCH   2   4
ATOM      4  C   UNL     1     144.850 145.033 133.426  1.00  0.00     0.018 C 
ATOM      5  C   UNL     1     147.639 142.947 131.983  1.00  0.00     0.008 C 
ATOM      6  C   UNL     1     146.915 143.851 132.994  1.00  0.00    -0.010 C 
ATOM      7  C   UNL     1     146.121 143.028 134.015  1.00  0.00     0.004 C 
ATOM      8  C   UNL     1     145.899 144.802 132.336  1.00  0.00     0.003 CG0
ATOM      9  C   UNL     1     144.734 143.653 134.085  1.00  0.00     0.008 C 
ATOM     10  G   UNL     1     146.633 146.026 131.708  1.00  0.00     0.000 G0
ENDBRANCH   2   4
ENDBRANCH   1   2
BRANCH   1  11
ATOM     11  C   UNL     1     144.287 146.447 130.603  1.00  0.00     0.009 C 
BRANCH  11  12
ATOM     12  C   UNL     1     145.758 146.903 130.781  1.00  0.00    -0.001 C 
ATOM     13  C   UNL     1     146.632 146.027 131.705  1.00  0.00     0.002 CG0
ATOM     14  C   UNL     1     146.465 147.536 131.997  1.00  0.00    -0.029 C 
ATOM     15  G   UNL     1     145.901 144.807 132.344  1.00  0.00     0.000 G0
ATOM     16  C   UNL     1     147.715 148.354 131.629  1.00  0.00     0.011 C 
ATOM     17  C   UNL     1     145.761 148.065 133.256  1.00  0.00     0.011 C 
ENDBRANCH  11  12
ENDBRANCH   1  11
TORSDOF 0
ENDMDL
MODEL 2
REMARK VINA RESULT:    -2.241      1.839      4.344
REMARK INTER + INTRA:          -0.559
REMARK INTER:                  -2.800
REMARK INTRA:                   2.241
REMARK UNBOUND:                 2.205
REMARK SMILES C=C1CC[C@@H]2[C@H]([C@H]3[C@H](C)CC[C@H]13)C2(C)C
REMARK SMILES IDX 3 1 2 2 1 3 12 4 9 5 8 6 10 7 7 8 11 9 4 11 5 12 6 13 13 14
REMARK SMILES IDX 14 16 15 17
REMARK H PARENT
REMARK Flexibility Score: 80.00
ROOT
ATOM      1  C   UNL     1     147.433 144.453 131.671  1.00  0.00     0.031 C 
ENDROOT
BRANCH   1   2
ATOM      2  C   UNL     1     147.146 145.267 132.931  1.00  0.00    -0.074 C 
ATOM      3  C   UNL     1     148.169 145.354 133.805  1.00  0.00     0.008 C 
BRANCH   2   4
ATOM      4  C   UNL     1     145.751 145.724 133.388  1.00  0.00     0.018 C 
ATOM      5  C   UNL     1     142.901 147.754 131.985  1.00  0.00     0.008 C 
ATOM      6  C   UNL     1     143.642 146.830 132.964  1.00  0.00    -0.010 C 
ATOM      7  C   UNL     1     144.369 147.630 134.050  1.00  0.00     0.004 C 
ATOM      8  C   UNL     1     144.720 145.966 132.283  1.00  0.00     0.003 CG0
ATOM      9  C   UNL     1     145.782 147.068 134.125  1.00  0.00     0.008 C 
ATOM     10  G   UNL     1     144.062 144.746 131.569  1.00  0.00     0.000 G0
ENDBRANCH   2   4
ENDBRANCH   1   2
BRANCH   1  11
ATOM     11  C   UNL     1     146.450 144.522 130.502  1.00  0.00     0.009 C 
BRANCH  11  12
ATOM     12  C   UNL     1     145.003 143.977 130.615  1.00  0.00    -0.001 C 
ATOM     13  C   UNL     1     144.060 144.748 131.565  1.00  0.00     0.002 CG0
ATOM     14  C   UNL     1     144.305 143.235 131.772  1.00  0.00    -0.029 C 
ATOM     15  G   UNL     1     144.708 145.965 132.293  1.00  0.00     0.000 G0
ATOM     16  C   UNL     1     143.111 142.373 131.324  1.00  0.00     0.011 C 
ATOM     17  C   UNL     1     145.008 142.671 133.017  1.00  0.00     0.011 C 
ENDBRANCH  11  12
ENDBRANCH   1  11
TORSDOF 0
ENDMDL
MODEL 3
REMARK VINA RESULT:    -1.506      1.397      3.128
REMARK INTER + INTRA:           0.348
REMARK INTER:                  -1.883
REMARK INTRA:                   2.230
REMARK UNBOUND:                 2.205
REMARK SMILES C=C1CC[C@@H]2[C@H]([C@H]3[C@H](C)CC[C@H]13)C2(C)C
REMARK SMILES IDX 3 1 2 2 1 3 12 4 9 5 8 6 10 7 7 8 11 9 4 11 5 12 6 13 13 14
REMARK SMILES IDX 14 16 15 17
REMARK H PARENT
REMARK Flexibility Score: 80.00
ROOT
ATOM      1  C   UNL     1     144.344 143.327 131.624  1.00  0.00     0.031 C 
ENDROOT
BRANCH   1   2
ATOM      2  C   UNL     1     145.273 143.538 132.818  1.00  0.00    -0.074 C 
ATOM      3  C   UNL     1     145.418 142.471 133.630  1.00  0.00     0.008 C 
BRANCH   2   4
ATOM      4  C   UNL     1     145.795 144.901 133.299  1.00  0.00     0.018 C 
ATOM      5  C   UNL     1     147.780 147.771 131.870  1.00  0.00     0.008 C 
ATOM      6  C   UNL     1     146.915 147.004 132.884  1.00  0.00    -0.010 C 
ATOM      7  C   UNL     1     147.778 146.213 133.873  1.00  0.00     0.004 C 
ATOM      8  C   UNL     1     145.978 145.976 132.225  1.00  0.00     0.003 CG0
ATOM      9  C   UNL     1     147.191 144.809 133.929  1.00  0.00     0.008 C 
ATOM     10  G   UNL     1     144.723 146.690 131.635  1.00  0.00     0.000 G0
ENDBRANCH   2   4
ENDBRANCH   1   2
BRANCH   1  11
ATOM     11  C   UNL     1     144.343 144.355 130.493  1.00  0.00     0.009 C 
BRANCH  11  12
ATOM     12  C   UNL     1     143.852 145.809 130.709  1.00  0.00    -0.001 C 
ATOM     13  C   UNL     1     144.724 146.690 131.630  1.00  0.00     0.002 CG0
ATOM     14  C   UNL     1     143.227 146.476 131.951  1.00  0.00    -0.029 C 
ATOM     15  G   UNL     1     145.977 145.980 132.229  1.00  0.00     0.000 G0
ATOM     16  C   UNL     1     142.367 147.710 131.624  1.00  0.00     0.011 C 
ATOM     17  C   UNL     1     142.744 145.735 133.207  1.00  0.00     0.011 C 
ENDBRANCH  11  12
ENDBRANCH   1  11
TORSDOF 0
ENDMDL
MODEL 4
REMARK VINA RESULT:    -1.473      1.427      3.071
REMARK INTER + INTRA:           0.388
REMARK INTER:                  -1.743
REMARK INTRA:                   2.130
REMARK UNBOUND:                 2.205
REMARK SMILES C=C1CC[C@@H]2[C@H]([C@H]3[C@H](C)CC[C@H]13)C2(C)C
REMARK SMILES IDX 3 1 2 2 1 3 12 4 9 5 8 6 10 7 7 8 11 9 4 11 5 12 6 13 13 14
REMARK SMILES IDX 14 16 15 17
REMARK H PARENT
REMARK Flexibility Score: 80.00
ROOT
ATOM      1  C   UNL     1     146.466 147.547 131.769  1.00  0.00     0.031 C 
ENDROOT
BRANCH   1   2
ATOM      2  C   UNL     1     145.510 147.326 132.940  1.00  0.00    -0.074 C 
ATOM      3  C   UNL     1     145.364 148.380 133.769  1.00  0.00     0.008 C 
BRANCH   2   4
ATOM      4  C   UNL     1     144.960 145.962 133.384  1.00  0.00     0.018 C 
ATOM      5  C   UNL     1     142.944 143.159 131.869  1.00  0.00     0.008 C 
ATOM      6  C   UNL     1     143.810 143.887 132.909  1.00  0.00    -0.010 C 
ATOM      7  C   UNL     1     142.950 144.670 133.907  1.00  0.00     0.004 C 
ATOM      8  C   UNL     1     144.771 144.914 132.284  1.00  0.00     0.003 CG0
ATOM      9  C   UNL     1     143.560 146.062 134.001  1.00  0.00     0.008 C 
ATOM     10  G   UNL     1     146.021 144.193 131.691  1.00  0.00     0.000 G0
ENDBRANCH   2   4
ENDBRANCH   1   2
BRANCH   1  11
ATOM     11  C   UNL     1     146.460 146.553 130.607  1.00  0.00     0.009 C 
BRANCH  11  12
ATOM     12  C   UNL     1     146.922 145.084 130.784  1.00  0.00    -0.001 C 
ATOM     13  C   UNL     1     146.027 144.194 131.674  1.00  0.00     0.002 CG0
ATOM     14  C   UNL     1     147.526 144.370 132.010  1.00  0.00    -0.029 C 
ATOM     15  G   UNL     1     144.785 144.911 132.287  1.00  0.00     0.000 G0
ATOM     16  C   UNL     1     148.364 143.129 131.652  1.00  0.00     0.011 C 
ATOM     17  C   UNL     1     148.015 145.065 133.290  1.00  0.00     0.011 C 
ENDBRANCH  11  12
ENDBRANCH   1  11
TORSDOF 0
ENDMDL
MODEL 5
REMARK VINA RESULT:    -0.449      1.409      2.547
REMARK INTER + INTRA:           1.652
REMARK INTER:                  -0.613
REMARK INTRA:                   2.265
REMARK UNBOUND:                 2.205
REMARK SMILES C=C1CC[C@@H]2[C@H]([C@H]3[C@H](C)CC[C@H]13)C2(C)C
REMARK SMILES IDX 3 1 2 2 1 3 12 4 9 5 8 6 10 7 7 8 11 9 4 11 5 12 6 13 13 14
REMARK SMILES IDX 14 16 15 17
REMARK H PARENT
REMARK Flexibility Score: 80.00
ROOT
ATOM      1  C   UNL     1     144.019 147.467 132.635  1.00  0.00     0.031 C 
ENDROOT
BRANCH   1   2
ATOM      2  C   UNL     1     145.373 147.270 133.314  1.00  0.00    -0.074 C 
ATOM      3  C   UNL     1     145.766 148.278 134.118  1.00  0.00     0.008 C 
BRANCH   2   4
ATOM      4  C   UNL     1     146.402 146.193 132.934  1.00  0.00     0.018 C 
ATOM      5  C   UNL     1     146.548 142.428 132.784  1.00  0.00     0.008 C 
ATOM      6  C   UNL     1     147.008 143.879 132.571  1.00  0.00    -0.010 C 
ATOM      7  C   UNL     1     147.832 144.388 133.759  1.00  0.00     0.004 C 
ATOM      8  C   UNL     1     145.838 144.868 132.414  1.00  0.00     0.003 CG0
ATOM      9  C   UNL     1     147.262 145.752 134.124  1.00  0.00     0.008 C 
ATOM     10  G   UNL     1     145.261 144.797 130.967  1.00  0.00     0.000 G0
ENDBRANCH   2   4
ENDBRANCH   1   2
BRANCH   1  11
ATOM     11  C   UNL     1     143.345 146.273 131.960  1.00  0.00     0.009 C 
BRANCH  11  12
ATOM     12  C   UNL     1     143.960 145.581 130.716  1.00  0.00    -0.001 C 
ATOM     13  C   UNL     1     145.282 144.817 130.948  1.00  0.00     0.002 CG0
ATOM     14  C   UNL     1     145.212 145.943 129.892  1.00  0.00    -0.029 C 
ATOM     15  G   UNL     1     145.822 144.862 132.411  1.00  0.00     0.000 G0
ATOM     16  C   UNL     1     145.182 145.404 128.450  1.00  0.00     0.011 C 
ATOM     17  C   UNL     1     146.010 147.250 130.018  1.00  0.00     0.011 C 
ENDBRANCH  11  12
ENDBRANCH   1  11
TORSDOF 0
ENDMDL
MODEL 6
REMARK VINA RESULT:    -0.322      1.540      3.611
REMARK INTER + INTRA:           1.808
REMARK INTER:                  -0.382
REMARK INTRA:                   2.190
REMARK UNBOUND:                 2.205
REMARK SMILES C=C1CC[C@@H]2[C@H]([C@H]3[C@H](C)CC[C@H]13)C2(C)C
REMARK SMILES IDX 3 1 2 2 1 3 12 4 9 5 8 6 10 7 7 8 11 9 4 11 5 12 6 13 13 14
REMARK SMILES IDX 14 16 15 17
REMARK H PARENT
REMARK Flexibility Score: 80.00
ROOT
ATOM      1  C   UNL     1     146.733 143.205 132.371  1.00  0.00     0.031 C 
ENDROOT
BRANCH   1   2
ATOM      2  C   UNL     1     145.421 143.423 133.121  1.00  0.00    -0.074 C 
ATOM      3  C   UNL     1     145.003 142.378 133.864  1.00  0.00     0.008 C 
BRANCH   2   4
ATOM      4  C   UNL     1     144.442 144.581 132.869  1.00  0.00     0.018 C 
ATOM      5  C   UNL     1     144.504 148.347 133.024  1.00  0.00     0.008 C 
ATOM      6  C   UNL     1     143.955 146.945 132.716  1.00  0.00    -0.010 C 
ATOM      7  C   UNL     1     143.147 146.387 133.892  1.00  0.00     0.004 C 
ATOM      8  C   UNL     1     145.061 145.911 132.434  1.00  0.00     0.003 CG0
ATOM      9  C   UNL     1     143.651 144.969 134.125  1.00  0.00     0.008 C 
ATOM     10  G   UNL     1     145.588 146.068 130.974  1.00  0.00     0.000 G0
ENDBRANCH   2   4
ENDBRANCH   1   2
BRANCH   1  11
ATOM     11  C   UNL     1     147.461 144.414 131.781  1.00  0.00     0.009 C 
BRANCH  11  12
ATOM     12  C   UNL     1     146.857 145.248 130.622  1.00  0.00    -0.001 C 
ATOM     13  C   UNL     1     145.588 146.061 130.961  1.00  0.00     0.002 CG0
ATOM     14  C   UNL     1     145.567 145.033 129.806  1.00  0.00    -0.029 C 
ATOM     15  G   UNL     1     145.082 145.913 132.428  1.00  0.00     0.000 G0
ATOM     16  C   UNL     1     145.594 145.697 128.418  1.00  0.00     0.011 C 
ATOM     17  C   UNL     1     144.698 143.766 129.838  1.00  0.00     0.011 C 
ENDBRANCH  11  12
ENDBRANCH   1  11
TORSDOF 0
ENDMDL
MODEL 7
REMARK VINA RESULT:    -0.267      1.047      3.562
REMARK INTER + INTRA:           1.876
REMARK INTER:                  -0.172
REMARK INTRA:                   2.047
REMARK UNBOUND:                 2.205
REMARK SMILES C=C1CC[C@@H]2[C@H]([C@H]3[C@H](C)CC[C@H]13)C2(C)C
REMARK SMILES IDX 3 1 2 2 1 3 12 4 9 5 8 6 10 7 7 8 11 9 4 11 5 12 6 13 13 14
REMARK SMILES IDX 14 16 15 17
REMARK H PARENT
REMARK Flexibility Score: 80.00
ROOT
ATOM      1  C   UNL     1     145.973 148.206 132.527  1.00  0.00     0.031 C 
ENDROOT
BRANCH   1   2
ATOM      2  C   UNL     1     146.434 147.329 131.364  1.00  0.00    -0.074 C 
ATOM      3  C   UNL     1     146.916 147.997 130.297  1.00  0.00     0.008 C 
BRANCH   2   4
ATOM      4  C   UNL     1     146.128 145.830 131.215  1.00  0.00     0.018 C 
ATOM      5  C   UNL     1     146.773 142.662 133.155  1.00  0.00     0.008 C 
ATOM      6  C   UNL     1     146.177 143.566 132.063  1.00  0.00    -0.010 C 
ATOM      7  C   UNL     1     147.072 143.608 130.820  1.00  0.00     0.004 C 
ATOM      8  C   UNL     1     146.009 145.028 132.513  1.00  0.00     0.003 CG0
ATOM      9  C   UNL     1     147.224 145.078 130.450  1.00  0.00     0.008 C 
ATOM     10  G   UNL     1     144.728 145.180 133.391  1.00  0.00     0.000 G0
ENDBRANCH   2   4
ENDBRANCH   1   2
BRANCH   1  11
ATOM     11  C   UNL     1     145.727 147.562 133.892  1.00  0.00     0.009 C 
BRANCH  11  12
ATOM     12  C   UNL     1     144.577 146.550 134.124  1.00  0.00    -0.001 C 
ATOM     13  C   UNL     1     144.708 145.194 133.395  1.00  0.00     0.002 CG0
ATOM     14  C   UNL     1     143.458 146.077 133.174  1.00  0.00    -0.029 C 
ATOM     15  G   UNL     1     145.982 145.042 132.509  1.00  0.00     0.000 G0
ATOM     16  C   UNL     1     142.213 145.539 133.902  1.00  0.00     0.011 C 
ATOM     17  C   UNL     1     143.120 146.713 131.816  1.00  0.00     0.011 C 
ENDBRANCH  11  12
ENDBRANCH   1  11
TORSDOF 0
ENDMDL
MODEL 8
REMARK VINA RESULT:    -0.185      1.654      3.955
REMARK INTER + INTRA:           1.978
REMARK INTER:                  -0.180
REMARK INTRA:                   2.157
REMARK UNBOUND:                 2.205
REMARK SMILES C=C1CC[C@@H]2[C@H]([C@H]3[C@H](C)CC[C@H]13)C2(C)C
REMARK SMILES IDX 3 1 2 2 1 3 12 4 9 5 8 6 10 7 7 8 11 9 4 11 5 12 6 13 13 14
REMARK SMILES IDX 14 16 15 17
REMARK H PARENT
REMARK Flexibility Score: 80.00
ROOT
ATOM      1  C   UNL     1     144.712 142.564 132.366  1.00  0.00     0.031 C 
ENDROOT
BRANCH   1   2
ATOM      2  C   UNL     1     144.349 143.545 131.253  1.00  0.00    -0.074 C 
ATOM      3  C   UNL     1     143.891 142.982 130.116  1.00  0.00     0.008 C 
BRANCH   2   4
ATOM      4  C   UNL     1     144.728 145.035 131.231  1.00  0.00     0.018 C 
ATOM      5  C   UNL     1     144.168 148.069 133.397  1.00  0.00     0.008 C 
ATOM      6  C   UNL     1     144.756 147.226 132.255  1.00  0.00    -0.010 C 
ATOM      7  C   UNL     1     143.901 147.324 130.987  1.00  0.00     0.004 C 
ATOM      8  C   UNL     1     144.842 145.726 132.592  1.00  0.00     0.003 CG0
ATOM      9  C   UNL     1     143.693 145.897 130.498  1.00  0.00     0.008 C 
ATOM     10  G   UNL     1     146.085 145.445 133.491  1.00  0.00     0.000 G0
ENDBRANCH   2   4
ENDBRANCH   1   2
BRANCH   1  11
ATOM     11  C   UNL     1     144.938 143.097 133.781  1.00  0.00     0.009 C 
BRANCH  11  12
ATOM     12  C   UNL     1     146.128 144.028 134.125  1.00  0.00    -0.001 C 
ATOM     13  C   UNL     1     146.090 145.439 133.498  1.00  0.00     0.002 CG0
ATOM     14  C   UNL     1     147.301 144.511 133.248  1.00  0.00    -0.029 C 
ATOM     15  G   UNL     1     144.856 145.723 132.588  1.00  0.00     0.000 G0
ATOM     16  C   UNL     1     148.545 144.929 134.053  1.00  0.00     0.011 C 
ATOM     17  C   UNL     1     147.654 143.962 131.857  1.00  0.00     0.011 C 
ENDBRANCH  11  12
ENDBRANCH   1  11
TORSDOF 0
ENDMDL
MODEL 9
REMARK VINA RESULT:     0.027      1.546      2.158
REMARK INTER + INTRA:           2.239
REMARK INTER:                   0.092
REMARK INTRA:                   2.147
REMARK UNBOUND:                 2.205
REMARK SMILES C=C1CC[C@@H]2[C@H]([C@H]3[C@H](C)CC[C@H]13)C2(C)C
REMARK SMILES IDX 3 1 2 2 1 3 12 4 9 5 8 6 10 7 7 8 11 9 4 11 5 12 6 13 13 14
REMARK SMILES IDX 14 16 15 17
REMARK H PARENT
REMARK Flexibility Score: 80.00
ROOT
ATOM      1  C   UNL     1     144.243 144.813 129.968  1.00  0.00     0.031 C 
ENDROOT
BRANCH   1   2
ATOM      2  C   UNL     1     144.244 143.693 131.007  1.00  0.00    -0.074 C 
ATOM      3  C   UNL     1     143.468 142.631 130.708  1.00  0.00     0.008 C 
BRANCH   2   4
ATOM      4  C   UNL     1     144.805 143.813 132.432  1.00  0.00     0.018 C 
ATOM      5  C   UNL     1     148.126 144.570 134.050  1.00  0.00     0.008 C 
ATOM      6  C   UNL     1     146.614 144.312 133.960  1.00  0.00    -0.010 C 
ATOM      7  C   UNL     1     146.288 142.821 134.107  1.00  0.00     0.004 C 
ATOM      8  C   UNL     1     146.004 144.747 132.614  1.00  0.00     0.003 CG0
ATOM      9  C   UNL     1     145.330 142.477 132.974  1.00  0.00     0.008 C 
ATOM     10  G   UNL     1     145.782 146.290 132.596  1.00  0.00     0.000 G0
ENDBRANCH   2   4
ENDBRANCH   1   2
BRANCH   1  11
ATOM     11  C   UNL     1     145.329 145.887 130.033  1.00  0.00     0.009 C 
BRANCH  11  12
ATOM     12  C   UNL     1     145.420 146.889 131.212  1.00  0.00    -0.001 C 
ATOM     13  C   UNL     1     145.781 146.286 132.588  1.00  0.00     0.002 CG0
ATOM     14  C   UNL     1     144.478 147.102 132.415  1.00  0.00    -0.029 C 
ATOM     15  G   UNL     1     145.988 144.741 132.597  1.00  0.00     0.000 G0
ATOM     16  C   UNL     1     144.571 148.508 133.033  1.00  0.00     0.011 C 
ATOM     17  C   UNL     1     143.082 146.479 132.569  1.00  0.00     0.011 C 
ENDBRANCH  11  12
ENDBRANCH   1  11
TORSDOF 0
ENDMDL
