MODEL 1
REMARK VINA RESULT:    -3.339      0.000      0.000
REMARK INTER + INTRA:          -3.649
REMARK INTER:                  -3.632
REMARK INTRA:                  -0.018
REMARK UNBOUND:                -0.018
REMARK SMILES OCc1ccco1
REMARK SMILES IDX 2 1 3 2 5 3 6 4 4 5 7 6 1 7
REMARK H PARENT 1 8
REMARK Flexibility Score: inf
ROOT
ATOM      1  C   UNL     1     -27.674 -16.707  10.861  1.00  0.00     0.231 C 
ENDROOT
BRANCH   1   2
ATOM      2  C   UNL     1     -27.290 -17.431  12.112  1.00  0.00     0.129 A 
ATOM      3  C   UNL     1     -27.224 -18.871  13.768  1.00  0.00     0.042 A 
ATOM      4  C   UNL     1     -26.293 -17.868  13.944  1.00  0.00     0.195 A 
ATOM      5  C   UNL     1     -27.873 -18.589  12.586  1.00  0.00     0.048 A 
ATOM      6  O   UNL     1     -26.359 -17.022  12.941  1.00  0.00    -0.467 OA
ENDBRANCH   1   2
BRANCH   1   7
ATOM      7  O   UNL     1     -26.524 -16.313  10.162  1.00  0.00    -0.388 OA
ATOM      8  H   UNL     1     -25.747 -16.657  10.676  1.00  0.00     0.211 HD
ENDBRANCH   1   7
TORSDOF 2
ENDMDL
MODEL 2
REMARK VINA RESULT:    -3.022      1.076      3.016
REMARK INTER + INTRA:          -3.305
REMARK INTER:                  -3.286
REMARK INTRA:                  -0.019
REMARK UNBOUND:                -0.018
REMARK SMILES OCc1ccco1
REMARK SMILES IDX 2 1 3 2 5 3 6 4 4 5 7 6 1 7
REMARK H PARENT 1 8
REMARK Flexibility Score: inf
ROOT
ATOM      1  C   UNL     1     -26.529 -18.201  13.495  1.00  0.00     0.231 C 
ENDROOT
BRANCH   1   2
ATOM      2  C   UNL     1     -26.984 -17.432  12.296  1.00  0.00     0.129 A 
ATOM      3  C   UNL     1     -28.122 -16.752  10.545  1.00  0.00     0.042 A 
ATOM      4  C   UNL     1     -26.979 -15.997  10.719  1.00  0.00     0.195 A 
ATOM      5  C   UNL     1     -28.125 -17.683  11.560  1.00  0.00     0.048 A 
ATOM      6  O   UNL     1     -26.320 -16.429  11.771  1.00  0.00    -0.467 OA
ENDBRANCH   1   2
BRANCH   1   7
ATOM      7  O   UNL     1     -25.864 -17.350  14.387  1.00  0.00    -0.388 OA
ATOM      8  H   UNL     1     -25.938 -16.433  14.015  1.00  0.00     0.211 HD
ENDBRANCH   1   7
TORSDOF 2
ENDMDL
MODEL 3
REMARK VINA RESULT:    -2.954      1.608      1.744
REMARK INTER + INTRA:          -3.231
REMARK INTER:                  -3.210
REMARK INTRA:                  -0.020
REMARK UNBOUND:                -0.018
REMARK SMILES OCc1ccco1
REMARK SMILES IDX 2 1 3 2 5 3 6 4 4 5 7 6 1 7
REMARK H PARENT 1 8
REMARK Flexibility Score: inf
ROOT
ATOM      1  C   UNL     1     -26.340 -16.757  12.259  1.00  0.00     0.231 C 
ENDROOT
BRANCH   1   2
ATOM      2  C   UNL     1     -26.829 -17.829  13.181  1.00  0.00     0.129 A 
ATOM      3  C   UNL     1     -27.827 -19.610  13.987  1.00  0.00     0.042 A 
ATOM      4  C   UNL     1     -27.194 -18.900  14.987  1.00  0.00     0.195 A 
ATOM      5  C   UNL     1     -27.595 -18.918  12.819  1.00  0.00     0.048 A 
ATOM      6  O   UNL     1     -26.610 -17.841  14.475  1.00  0.00    -0.467 OA
ENDBRANCH   1   2
BRANCH   1   7
ATOM      7  O   UNL     1     -25.250 -16.090  12.833  1.00  0.00    -0.388 OA
ATOM      8  H   UNL     1     -24.702 -16.781  13.289  1.00  0.00     0.211 HD
ENDBRANCH   1   7
TORSDOF 2
ENDMDL
MODEL 4
REMARK VINA RESULT:    -2.861      1.849      3.326
REMARK INTER + INTRA:          -3.129
REMARK INTER:                  -3.112
REMARK INTRA:                  -0.017
REMARK UNBOUND:                -0.018
REMARK SMILES OCc1ccco1
REMARK SMILES IDX 2 1 3 2 5 3 6 4 4 5 7 6 1 7
REMARK H PARENT 1 8
REMARK Flexibility Score: inf
ROOT
ATOM      1  C   UNL     1     -26.999 -16.603  15.823  1.00  0.00     0.231 C 
ENDROOT
BRANCH   1   2
ATOM      2  C   UNL     1     -27.257 -17.138  14.451  1.00  0.00     0.129 A 
ATOM      3  C   UNL     1     -27.147 -18.317  12.602  1.00  0.00     0.042 A 
ATOM      4  C   UNL     1     -28.085 -17.310  12.494  1.00  0.00     0.195 A 
ATOM      5  C   UNL     1     -26.608 -18.205  13.865  1.00  0.00     0.048 A 
ATOM      6  O   UNL     1     -28.125 -16.622  13.612  1.00  0.00    -0.467 OA
ENDBRANCH   1   2
BRANCH   1   7
ATOM      7  O   UNL     1     -26.626 -15.254  15.751  1.00  0.00    -0.388 OA
ATOM      8  H   UNL     1     -26.167 -15.132  14.879  1.00  0.00     0.211 HD
ENDBRANCH   1   7
TORSDOF 2
ENDMDL
MODEL 5
REMARK VINA RESULT:    -2.761     22.341     23.060
REMARK INTER + INTRA:          -3.020
REMARK INTER:                  -3.000
REMARK INTRA:                  -0.021
REMARK UNBOUND:                -0.018
REMARK SMILES OCc1ccco1
REMARK SMILES IDX 2 1 3 2 5 3 6 4 4 5 7 6 1 7
REMARK H PARENT 1 8
REMARK Flexibility Score: inf
ROOT
ATOM      1  C   UNL     1      -9.704 -17.900  -1.555  1.00  0.00     0.231 C 
ENDROOT
BRANCH   1   2
ATOM      2  C   UNL     1      -9.739 -19.156  -2.367  1.00  0.00     0.129 A 
ATOM      3  C   UNL     1      -9.794 -21.267  -2.966  1.00  0.00     0.042 A 
ATOM      4  C   UNL     1      -9.697 -20.440  -4.067  1.00  0.00     0.195 A 
ATOM      5  C   UNL     1      -9.818 -20.439  -1.865  1.00  0.00     0.048 A 
ATOM      6  O   UNL     1      -9.664 -19.186  -3.677  1.00  0.00    -0.467 OA
ENDBRANCH   1   2
BRANCH   1   7
ATOM      7  O   UNL     1     -10.023 -16.798  -2.361  1.00  0.00    -0.388 OA
ATOM      8  H   UNL     1      -9.209 -16.231  -2.403  1.00  0.00     0.211 HD
ENDBRANCH   1   7
TORSDOF 2
ENDMDL
MODEL 6
REMARK VINA RESULT:    -2.621     15.554     16.513
REMARK INTER + INTRA:          -2.868
REMARK INTER:                  -2.853
REMARK INTRA:                  -0.015
REMARK UNBOUND:                -0.018
REMARK SMILES OCc1ccco1
REMARK SMILES IDX 2 1 3 2 5 3 6 4 4 5 7 6 1 7
REMARK H PARENT 1 8
REMARK Flexibility Score: inf
ROOT
ATOM      1  C   UNL     1     -12.037 -16.832  16.048  1.00  0.00     0.231 C 
ENDROOT
BRANCH   1   2
ATOM      2  C   UNL     1     -11.090 -17.255  14.970  1.00  0.00     0.129 A 
ATOM      3  C   UNL     1      -9.991 -17.387  13.074  1.00  0.00     0.042 A 
ATOM      4  C   UNL     1      -9.620 -18.400  13.936  1.00  0.00     0.195 A 
ATOM      5  C   UNL     1     -10.944 -16.647  13.740  1.00  0.00     0.048 A 
ATOM      6  O   UNL     1     -10.296 -18.296  15.057  1.00  0.00    -0.467 OA
ENDBRANCH   1   2
BRANCH   1   7
ATOM      7  O   UNL     1     -12.397 -15.489  15.871  1.00  0.00    -0.388 OA
ATOM      8  H   UNL     1     -13.318 -15.392  16.229  1.00  0.00     0.211 HD
ENDBRANCH   1   7
TORSDOF 2
ENDMDL
MODEL 7
REMARK VINA RESULT:    -2.580     22.570     23.359
REMARK INTER + INTRA:          -2.824
REMARK INTER:                  -2.806
REMARK INTRA:                  -0.018
REMARK UNBOUND:                -0.018
REMARK SMILES OCc1ccco1
REMARK SMILES IDX 2 1 3 2 5 3 6 4 4 5 7 6 1 7
REMARK H PARENT 1 8
REMARK Flexibility Score: inf
ROOT
ATOM      1  C   UNL     1      -8.311 -17.521  -0.230  1.00  0.00     0.231 C 
ENDROOT
BRANCH   1   2
ATOM      2  C   UNL     1      -8.708 -17.728  -1.657  1.00  0.00     0.129 A 
ATOM      3  C   UNL     1      -9.626 -18.523  -3.486  1.00  0.00     0.042 A 
ATOM      4  C   UNL     1      -8.762 -17.484  -3.774  1.00  0.00     0.195 A 
ATOM      5  C   UNL     1      -9.590 -18.684  -2.119  1.00  0.00     0.048 A 
ATOM      6  O   UNL     1      -8.228 -17.033  -2.662  1.00  0.00    -0.467 OA
ENDBRANCH   1   2
BRANCH   1   7
ATOM      7  O   UNL     1      -8.294 -16.152   0.070  1.00  0.00    -0.388 OA
ATOM      8  H   UNL     1      -8.271 -16.078   1.060  1.00  0.00     0.211 HD
ENDBRANCH   1   7
TORSDOF 2
ENDMDL
MODEL 8
REMARK VINA RESULT:    -2.553     22.770     23.349
REMARK INTER + INTRA:          -2.794
REMARK INTER:                  -2.780
REMARK INTRA:                  -0.014
REMARK UNBOUND:                -0.018
REMARK SMILES OCc1ccco1
REMARK SMILES IDX 2 1 3 2 5 3 6 4 4 5 7 6 1 7
REMARK H PARENT 1 8
REMARK Flexibility Score: inf
ROOT
ATOM      1  C   UNL     1      -9.935 -22.185  -3.747  1.00  0.00     0.231 C 
ENDROOT
BRANCH   1   2
ATOM      2  C   UNL     1      -9.820 -20.787  -3.229  1.00  0.00     0.129 A 
ATOM      3  C   UNL     1      -9.750 -19.038  -1.904  1.00  0.00     0.042 A 
ATOM      4  C   UNL     1      -9.647 -18.662  -3.228  1.00  0.00     0.195 A 
ATOM      5  C   UNL     1      -9.866 -20.411  -1.903  1.00  0.00     0.048 A 
ATOM      6  O   UNL     1      -9.695 -19.728  -3.995  1.00  0.00    -0.467 OA
ENDBRANCH   1   2
BRANCH   1   7
ATOM      7  O   UNL     1     -11.267 -22.469  -4.074  1.00  0.00    -0.388 OA
ATOM      8  H   UNL     1     -11.380 -23.451  -3.983  1.00  0.00     0.211 HD
ENDBRANCH   1   7
TORSDOF 2
ENDMDL
MODEL 9
REMARK VINA RESULT:    -2.552      1.872      3.576
REMARK INTER + INTRA:          -2.794
REMARK INTER:                  -2.778
REMARK INTRA:                  -0.016
REMARK UNBOUND:                -0.018
REMARK SMILES OCc1ccco1
REMARK SMILES IDX 2 1 3 2 5 3 6 4 4 5 7 6 1 7
REMARK H PARENT 1 8
REMARK Flexibility Score: inf
ROOT
ATOM      1  C   UNL     1     -26.392 -18.609  15.756  1.00  0.00     0.231 C 
ENDROOT
BRANCH   1   2
ATOM      2  C   UNL     1     -26.604 -18.212  14.330  1.00  0.00     0.129 A 
ATOM      3  C   UNL     1     -27.183 -18.220  12.212  1.00  0.00     0.042 A 
ATOM      4  C   UNL     1     -26.491 -17.069  12.534  1.00  0.00     0.195 A 
ATOM      5  C   UNL     1     -27.253 -18.962  13.371  1.00  0.00     0.048 A 
ATOM      6  O   UNL     1     -26.157 -17.095  13.805  1.00  0.00    -0.467 OA
ENDBRANCH   1   2
BRANCH   1   7
ATOM      7  O   UNL     1     -26.990 -19.852  16.003  1.00  0.00    -0.388 OA
ATOM      8  H   UNL     1     -27.941 -19.671  16.224  1.00  0.00     0.211 HD
ENDBRANCH   1   7
TORSDOF 2
ENDMDL
