MODEL 1
REMARK VINA RESULT:    -4.664      0.000      0.000
REMARK INTER + INTRA:          -7.544
REMARK INTER:                  -7.118
REMARK INTRA:                  -0.426
REMARK UNBOUND:                -0.426
REMARK SMILES CCCCCCCCCCC(=O)[O-]
REMARK SMILES IDX 7 1 8 2 9 3 10 4 11 5 12 6 13 7 6 8 5 9 4 10 3 11 2 12 1 13
REMARK H PARENT
REMARK Flexibility Score: inf
ROOT
ATOM      1  C   UNL     1      36.406 106.507 263.584  1.00  0.00     0.000 C 
ENDROOT
BRANCH   1   2
ATOM      2  C   UNL     1      35.040 107.090 263.978  1.00  0.00     0.000 C 
BRANCH   2   3
ATOM      3  C   UNL     1      35.004 107.443 265.473  1.00  0.00     0.006 C 
BRANCH   3   4
ATOM      4  C   UNL     1      35.137 106.204 266.367  1.00  0.00     0.053 C 
BRANCH   4   5
ATOM      5  C   UNL     1      35.072 106.556 267.822  1.00  0.00     0.041 C 
ATOM      6  O   UNL     1      34.886 105.657 268.683  1.00  0.00    -0.550 OA
ATOM      7  O   UNL     1      35.181 107.881 268.222  1.00  0.00    -0.550 OA
ENDBRANCH   4   5
ENDBRANCH   3   4
ENDBRANCH   2   3
ENDBRANCH   1   2
BRANCH   1   8
ATOM      8  C   UNL     1      36.625 106.480 262.063  1.00  0.00     0.000 C 
BRANCH   8   9
ATOM      9  C   UNL     1      38.066 106.847 261.668  1.00  0.00    -0.000 C 
BRANCH   9  10
ATOM     10  C   UNL     1      38.551 106.078 260.428  1.00  0.00    -0.000 C 
BRANCH  10  11
ATOM     11  C   UNL     1      37.396 105.476 259.613  1.00  0.00    -0.000 C 
BRANCH  11  12
ATOM     12  C   UNL     1      37.248 106.190 258.263  1.00  0.00    -0.003 C 
ATOM     13  C   UNL     1      36.143 107.241 258.313  1.00  0.00     0.004 C 
ENDBRANCH  11  12
ENDBRANCH  10  11
ENDBRANCH   9  10
ENDBRANCH   8   9
ENDBRANCH   1   8
TORSDOF 9
ENDMDL
MODEL 2
REMARK VINA RESULT:    -4.637      1.014      1.290
REMARK INTER + INTRA:          -7.503
REMARK INTER:                  -7.152
REMARK INTRA:                  -0.351
REMARK UNBOUND:                -0.426
REMARK SMILES CCCCCCCCCCC(=O)[O-]
REMARK SMILES IDX 7 1 8 2 9 3 10 4 11 5 12 6 13 7 6 8 5 9 4 10 3 11 2 12 1 13
REMARK H PARENT
REMARK Flexibility Score: inf
ROOT
ATOM      1  C   UNL     1      35.973 105.362 264.138  1.00  0.00     0.000 C 
ENDROOT
BRANCH   1   2
ATOM      2  C   UNL     1      34.875 105.444 265.209  1.00  0.00     0.000 C 
BRANCH   2   3
ATOM      3  C   UNL     1      35.126 106.621 266.164  1.00  0.00     0.006 C 
BRANCH   3   4
ATOM      4  C   UNL     1      35.124 106.186 267.635  1.00  0.00     0.053 C 
BRANCH   4   5
ATOM      5  C   UNL     1      35.210 107.359 268.564  1.00  0.00     0.041 C 
ATOM      6  O   UNL     1      35.494 107.185 269.778  1.00  0.00    -0.550 OA
ATOM      7  O   UNL     1      34.941 108.638 268.096  1.00  0.00    -0.550 OA
ENDBRANCH   4   5
ENDBRANCH   3   4
ENDBRANCH   2   3
ENDBRANCH   1   2
BRANCH   1   8
ATOM      8  C   UNL     1      36.108 106.659 263.323  1.00  0.00     0.000 C 
BRANCH   8   9
ATOM      9  C   UNL     1      37.466 106.768 262.608  1.00  0.00    -0.000 C 
BRANCH   9  10
ATOM     10  C   UNL     1      37.320 106.957 261.090  1.00  0.00    -0.000 C 
BRANCH  10  11
ATOM     11  C   UNL     1      37.155 105.626 260.340  1.00  0.00    -0.000 C 
BRANCH  11  12
ATOM     12  C   UNL     1      37.258 105.836 258.823  1.00  0.00    -0.003 C 
ATOM     13  C   UNL     1      36.385 107.000 258.367  1.00  0.00     0.004 C 
ENDBRANCH  11  12
ENDBRANCH  10  11
ENDBRANCH   9  10
ENDBRANCH   8   9
ENDBRANCH   1   8
TORSDOF 9
ENDMDL
MODEL 3
REMARK VINA RESULT:    -4.518      4.079      7.652
REMARK INTER + INTRA:          -7.320
REMARK INTER:                  -6.939
REMARK INTRA:                  -0.382
REMARK UNBOUND:                -0.426
REMARK SMILES CCCCCCCCCCC(=O)[O-]
REMARK SMILES IDX 7 1 8 2 9 3 10 4 11 5 12 6 13 7 6 8 5 9 4 10 3 11 2 12 1 13
REMARK H PARENT
REMARK Flexibility Score: inf
ROOT
ATOM      1  C   UNL     1      35.503 106.876 263.465  1.00  0.00     0.000 C 
ENDROOT
BRANCH   1   2
ATOM      2  C   UNL     1      36.859 106.499 262.852  1.00  0.00     0.000 C 
BRANCH   2   3
ATOM      3  C   UNL     1      36.684 105.941 261.431  1.00  0.00     0.006 C 
BRANCH   3   4
ATOM      4  C   UNL     1      37.528 106.702 260.400  1.00  0.00     0.053 C 
BRANCH   4   5
ATOM      5  C   UNL     1      36.930 106.629 259.028  1.00  0.00     0.041 C 
ATOM      6  O   UNL     1      37.163 105.637 258.288  1.00  0.00    -0.550 OA
ATOM      7  O   UNL     1      36.145 107.673 258.554  1.00  0.00    -0.550 OA
ENDBRANCH   4   5
ENDBRANCH   3   4
ENDBRANCH   2   3
ENDBRANCH   1   2
BRANCH   1   8
ATOM      8  C   UNL     1      34.958 105.797 264.415  1.00  0.00     0.000 C 
BRANCH   8   9
ATOM      9  C   UNL     1      35.150 106.164 265.897  1.00  0.00    -0.000 C 
BRANCH   9  10
ATOM     10  C   UNL     1      35.084 107.680 266.143  1.00  0.00    -0.000 C 
BRANCH  10  11
ATOM     11  C   UNL     1      35.008 108.036 267.635  1.00  0.00    -0.000 C 
BRANCH  11  12
ATOM     12  C   UNL     1      34.936 106.769 268.497  1.00  0.00    -0.003 C 
ATOM     13  C   UNL     1      35.558 107.000 269.871  1.00  0.00     0.004 C 
ENDBRANCH  11  12
ENDBRANCH  10  11
ENDBRANCH   9  10
ENDBRANCH   8   9
ENDBRANCH   1   8
TORSDOF 9
ENDMDL
MODEL 4
REMARK VINA RESULT:    -3.897      3.382      7.071
REMARK INTER + INTRA:          -6.373
REMARK INTER:                  -5.924
REMARK INTRA:                  -0.449
REMARK UNBOUND:                -0.426
REMARK SMILES CCCCCCCCCCC(=O)[O-]
REMARK SMILES IDX 7 1 8 2 9 3 10 4 11 5 12 6 13 7 6 8 5 9 4 10 3 11 2 12 1 13
REMARK H PARENT
REMARK Flexibility Score: inf
ROOT
ATOM      1  C   UNL     1      35.992 105.090 264.212  1.00  0.00     0.000 C 
ENDROOT
BRANCH   1   2
ATOM      2  C   UNL     1      35.473 104.583 262.858  1.00  0.00     0.000 C 
BRANCH   2   3
ATOM      3  C   UNL     1      36.087 105.384 261.700  1.00  0.00     0.006 C 
BRANCH   3   4
ATOM      4  C   UNL     1      36.679 106.720 262.166  1.00  0.00     0.053 C 
BRANCH   4   5
ATOM      5  C   UNL     1      38.148 106.808 261.885  1.00  0.00     0.041 C 
ATOM      6  O   UNL     1      38.941 107.208 262.777  1.00  0.00    -0.550 OA
ATOM      7  O   UNL     1      38.636 106.481 260.626  1.00  0.00    -0.550 OA
ENDBRANCH   4   5
ENDBRANCH   3   4
ENDBRANCH   2   3
ENDBRANCH   1   2
BRANCH   1   8
ATOM      8  C   UNL     1      34.875 105.245 265.257  1.00  0.00     0.000 C 
BRANCH   8   9
ATOM      9  C   UNL     1      35.297 104.747 266.650  1.00  0.00    -0.000 C 
BRANCH   9  10
ATOM     10  C   UNL     1      34.939 105.741 267.766  1.00  0.00    -0.000 C 
BRANCH  10  11
ATOM     11  C   UNL     1      34.957 107.201 267.288  1.00  0.00    -0.000 C 
BRANCH  11  12
ATOM     12  C   UNL     1      35.275 108.153 268.448  1.00  0.00    -0.003 C 
ATOM     13  C   UNL     1      35.417 107.392 269.763  1.00  0.00     0.004 C 
ENDBRANCH  11  12
ENDBRANCH  10  11
ENDBRANCH   9  10
ENDBRANCH   8   9
ENDBRANCH   1   8
TORSDOF 9
ENDMDL
MODEL 5
REMARK VINA RESULT:    -3.894      1.046      1.758
REMARK INTER + INTRA:          -6.368
REMARK INTER:                  -6.269
REMARK INTRA:                  -0.099
REMARK UNBOUND:                -0.426
REMARK SMILES CCCCCCCCCCC(=O)[O-]
REMARK SMILES IDX 7 1 8 2 9 3 10 4 11 5 12 6 13 7 6 8 5 9 4 10 3 11 2 12 1 13
REMARK H PARENT
REMARK Flexibility Score: inf
ROOT
ATOM      1  C   UNL     1      36.058 106.592 264.220  1.00  0.00     0.000 C 
ENDROOT
BRANCH   1   2
ATOM      2  C   UNL     1      35.025 107.095 265.239  1.00  0.00     0.000 C 
BRANCH   2   3
ATOM      3  C   UNL     1      35.687 107.995 266.293  1.00  0.00     0.006 C 
BRANCH   3   4
ATOM      4  C   UNL     1      34.875 108.061 267.594  1.00  0.00     0.053 C 
BRANCH   4   5
ATOM      5  C   UNL     1      35.229 106.946 268.529  1.00  0.00     0.041 C 
ATOM      6  O   UNL     1      35.135 105.749 268.151  1.00  0.00    -0.550 OA
ATOM      7  O   UNL     1      35.627 107.228 269.830  1.00  0.00    -0.550 OA
ENDBRANCH   4   5
ENDBRANCH   3   4
ENDBRANCH   2   3
ENDBRANCH   1   2
BRANCH   1   8
ATOM      8  C   UNL     1      35.615 105.301 263.512  1.00  0.00     0.000 C 
BRANCH   8   9
ATOM      9  C   UNL     1      35.928 105.316 262.006  1.00  0.00    -0.000 C 
BRANCH   9  10
ATOM     10  C   UNL     1      36.663 106.594 261.570  1.00  0.00    -0.000 C 
BRANCH  10  11
ATOM     11  C   UNL     1      38.161 106.362 261.323  1.00  0.00    -0.000 C 
BRANCH  11  12
ATOM     12  C   UNL     1      38.441 106.127 259.833  1.00  0.00    -0.003 C 
ATOM     13  C   UNL     1      37.169 106.268 259.003  1.00  0.00     0.004 C 
ENDBRANCH  11  12
ENDBRANCH  10  11
ENDBRANCH   9  10
ENDBRANCH   8   9
ENDBRANCH   1   8
TORSDOF 9
ENDMDL
MODEL 6
REMARK VINA RESULT:    -3.884      3.640      6.889
REMARK INTER + INTRA:          -6.353
REMARK INTER:                  -5.738
REMARK INTRA:                  -0.615
REMARK UNBOUND:                -0.426
REMARK SMILES CCCCCCCCCCC(=O)[O-]
REMARK SMILES IDX 7 1 8 2 9 3 10 4 11 5 12 6 13 7 6 8 5 9 4 10 3 11 2 12 1 13
REMARK H PARENT
REMARK Flexibility Score: inf
ROOT
ATOM      1  C   UNL     1      36.149 105.003 264.505  1.00  0.00     0.000 C 
ENDROOT
BRANCH   1   2
ATOM      2  C   UNL     1      35.464 106.160 263.763  1.00  0.00     0.000 C 
BRANCH   2   3
ATOM      3  C   UNL     1      36.428 106.819 262.764  1.00  0.00     0.006 C 
BRANCH   3   4
ATOM      4  C   UNL     1      36.545 106.022 261.458  1.00  0.00     0.053 C 
BRANCH   4   5
ATOM      5  C   UNL     1      37.911 106.140 260.854  1.00  0.00     0.041 C 
ATOM      6  O   UNL     1      38.889 106.492 261.565  1.00  0.00    -0.550 OA
ATOM      7  O   UNL     1      38.097 105.894 259.500  1.00  0.00    -0.550 OA
ENDBRANCH   4   5
ENDBRANCH   3   4
ENDBRANCH   2   3
ENDBRANCH   1   2
BRANCH   1   8
ATOM      8  C   UNL     1      35.735 104.916 265.984  1.00  0.00     0.000 C 
BRANCH   8   9
ATOM      9  C   UNL     1      34.875 106.112 266.427  1.00  0.00    -0.000 C 
BRANCH   9  10
ATOM     10  C   UNL     1      35.207 106.582 267.853  1.00  0.00    -0.000 C 
BRANCH  10  11
ATOM     11  C   UNL     1      35.212 108.112 267.987  1.00  0.00    -0.000 C 
BRANCH  11  12
ATOM     12  C   UNL     1      35.030 108.783 266.619  1.00  0.00    -0.003 C 
ATOM     13  C   UNL     1      34.875 110.294 266.762  1.00  0.00     0.004 C 
ENDBRANCH  11  12
ENDBRANCH  10  11
ENDBRANCH   9  10
ENDBRANCH   8   9
ENDBRANCH   1   8
TORSDOF 9
ENDMDL
MODEL 7
REMARK VINA RESULT:    -1.913      3.323      7.083
REMARK INTER + INTRA:          -3.345
REMARK INTER:                  -4.185
REMARK INTRA:                   0.840
REMARK UNBOUND:                -0.426
REMARK SMILES CCCCCCCCCCC(=O)[O-]
REMARK SMILES IDX 7 1 8 2 9 3 10 4 11 5 12 6 13 7 6 8 5 9 4 10 3 11 2 12 1 13
REMARK H PARENT
REMARK Flexibility Score: inf
ROOT
ATOM      1  C   UNL     1      35.101 106.393 266.822  1.00  0.00     0.000 C 
ENDROOT
BRANCH   1   2
ATOM      2  C   UNL     1      35.100 105.541 265.544  1.00  0.00     0.000 C 
BRANCH   2   3
ATOM      3  C   UNL     1      35.662 106.335 264.354  1.00  0.00     0.006 C 
BRANCH   3   4
ATOM      4  C   UNL     1      35.437 105.617 263.017  1.00  0.00     0.053 C 
BRANCH   4   5
ATOM      5  C   UNL     1      36.478 105.985 262.004  1.00  0.00     0.041 C 
ATOM      6  O   UNL     1      36.257 105.808 260.778  1.00  0.00    -0.550 OA
ATOM      7  O   UNL     1      37.704 106.490 262.418  1.00  0.00    -0.550 OA
ENDBRANCH   4   5
ENDBRANCH   3   4
ENDBRANCH   2   3
ENDBRANCH   1   2
BRANCH   1   8
ATOM      8  C   UNL     1      35.211 105.547 268.101  1.00  0.00     0.000 C 
BRANCH   8   9
ATOM      9  C   UNL     1      34.875 106.349 269.369  1.00  0.00    -0.000 C 
BRANCH   9  10
ATOM     10  C   UNL     1      35.746 107.607 269.520  1.00  0.00    -0.000 C 
BRANCH  10  11
ATOM     11  C   UNL     1      35.943 108.354 268.192  1.00  0.00    -0.000 C 
BRANCH  11  12
ATOM     12  C   UNL     1      34.970 109.535 268.078  1.00  0.00    -0.003 C 
ATOM     13  C   UNL     1      34.968 110.114 266.667  1.00  0.00     0.004 C 
ENDBRANCH  11  12
ENDBRANCH  10  11
ENDBRANCH   9  10
ENDBRANCH   8   9
ENDBRANCH   1   8
TORSDOF 9
ENDMDL
MODEL 8
REMARK VINA RESULT:    -1.877      3.307      3.701
REMARK INTER + INTRA:          -3.290
REMARK INTER:                  -3.081
REMARK INTRA:                  -0.209
REMARK UNBOUND:                -0.426
REMARK SMILES CCCCCCCCCCC(=O)[O-]
REMARK SMILES IDX 7 1 8 2 9 3 10 4 11 5 12 6 13 7 6 8 5 9 4 10 3 11 2 12 1 13
REMARK H PARENT
REMARK Flexibility Score: inf
ROOT
ATOM      1  C   UNL     1      35.533 104.979 263.580  1.00  0.00     0.000 C 
ENDROOT
BRANCH   1   2
ATOM      2  C   UNL     1      35.149 106.466 263.602  1.00  0.00     0.000 C 
BRANCH   2   3
ATOM      3  C   UNL     1      36.342 107.335 264.029  1.00  0.00     0.006 C 
BRANCH   3   4
ATOM      4  C   UNL     1      37.661 106.550 264.033  1.00  0.00     0.053 C 
BRANCH   4   5
ATOM      5  C   UNL     1      38.610 107.050 262.987  1.00  0.00     0.041 C 
ATOM      6  O   UNL     1      39.852 106.908 263.140  1.00  0.00    -0.550 OA
ATOM      7  O   UNL     1      38.126 107.704 261.862  1.00  0.00    -0.550 OA
ENDBRANCH   4   5
ENDBRANCH   3   4
ENDBRANCH   2   3
ENDBRANCH   1   2
BRANCH   1   8
ATOM      8  C   UNL     1      35.567 104.394 262.159  1.00  0.00     0.000 C 
BRANCH   8   9
ATOM      9  C   UNL     1      36.016 105.423 261.108  1.00  0.00    -0.000 C 
BRANCH   9  10
ATOM     10  C   UNL     1      37.094 104.869 260.161  1.00  0.00    -0.000 C 
BRANCH  10  11
ATOM     11  C   UNL     1      37.781 105.967 259.336  1.00  0.00    -0.000 C 
BRANCH  11  12
ATOM     12  C   UNL     1      37.122 106.110 257.958  1.00  0.00    -0.003 C 
ATOM     13  C   UNL     1      36.062 107.208 257.964  1.00  0.00     0.004 C 
ENDBRANCH  11  12
ENDBRANCH  10  11
ENDBRANCH   9  10
ENDBRANCH   8   9
ENDBRANCH   1   8
TORSDOF 9
ENDMDL
