MODEL 1
REMARK VINA RESULT:    -6.884      0.000      0.000
REMARK INTER + INTRA:          -8.324
REMARK INTER:                  -8.091
REMARK INTRA:                  -0.233
REMARK UNBOUND:                -0.233
REMARK SMILES Oc1ccc(-c2[o+]c3cc(O)cc(O)c3cc2O)cc1.[Cl-]
REMARK SMILES IDX 6 1 7 2 8 3 9 4 10 5 12 6 13 7 15 8 16 9 17 10 5 11 4 12
REMARK SMILES IDX 3 13 2 14 19 15 20 16 1 17 18 19 11 21 14 23
REMARK H PARENT 1 18 18 20 11 22 14 24
REMARK Flexibility Score: inf
ROOT
ATOM      1  C   UNL     1      -7.036 -21.942 -20.060  1.00  0.00     0.401 A 
ATOM      2  O   UNL     1      -7.690 -22.798 -19.278  1.00  0.00    -0.202 OA
ATOM      3  C   UNL     1      -7.438 -22.941 -17.981  1.00  0.00     0.368 A 
ATOM      4  C   UNL     1      -8.182 -23.864 -17.242  1.00  0.00     0.162 A 
ATOM      5  C   UNL     1      -7.940 -24.032 -15.876  1.00  0.00     0.128 A 
ATOM      6  C   UNL     1      -6.951 -23.272 -15.246  1.00  0.00     0.093 A 
ATOM      7  C   UNL     1      -6.193 -22.339 -15.964  1.00  0.00     0.136 A 
ATOM      8  C   UNL     1      -6.432 -22.167 -17.353  1.00  0.00     0.125 A 
ATOM      9  C   UNL     1      -5.713 -21.267 -18.154  1.00  0.00     0.078 A 
ATOM     10  C   UNL     1      -6.003 -21.156 -19.518  1.00  0.00     0.223 A 
ENDROOT
BRANCH   1  11
ATOM     11  C   UNL     1      -7.416 -21.869 -21.489  1.00  0.00     0.084 A 
ATOM     12  C   UNL     1      -6.584 -22.388 -22.498  1.00  0.00     0.022 A 
ATOM     13  C   UNL     1      -6.954 -22.287 -23.842  1.00  0.00     0.047 A 
ATOM     14  C   UNL     1      -8.149 -21.654 -24.197  1.00  0.00     0.115 A 
ATOM     15  C   UNL     1      -8.606 -21.216 -21.856  1.00  0.00     0.022 A 
ATOM     16  C   UNL     1      -8.974 -21.117 -23.201  1.00  0.00     0.047 A 
BRANCH  14  17
ATOM     17  O   UNL     1      -8.506 -21.560 -25.541  1.00  0.00    -0.508 OA
ATOM     18  H   UNL     1      -9.161 -22.209 -25.961  1.00  0.00     0.293 HD
ENDBRANCH  14  17
ENDBRANCH   1  11
BRANCH  10  19
ATOM     19  O   UNL     1      -5.256 -20.297 -20.325  1.00  0.00    -0.500 OA
ATOM     20  H   UNL     1      -4.456 -20.626 -20.854  1.00  0.00     0.294 HD
ENDBRANCH  10  19
BRANCH   5  21
ATOM     21  O   UNL     1      -8.676 -24.951 -15.132  1.00  0.00    -0.507 OA
ATOM     22  H   UNL     1      -8.224 -25.634 -14.535  1.00  0.00     0.293 HD
ENDBRANCH   5  21
BRANCH   7  23
ATOM     23  O   UNL     1      -5.225 -21.617 -15.260  1.00  0.00    -0.507 OA
ATOM     24  H   UNL     1      -4.402 -22.025 -14.840  1.00  0.00     0.293 HD
ENDBRANCH   7  23
TORSDOF 5
ENDMDL
MODEL 2
REMARK VINA RESULT:    -6.754      1.028      2.683
REMARK INTER + INTRA:          -8.172
REMARK INTER:                  -7.862
REMARK INTRA:                  -0.310
REMARK UNBOUND:                -0.233
REMARK SMILES Oc1ccc(-c2[o+]c3cc(O)cc(O)c3cc2O)cc1.[Cl-]
REMARK SMILES IDX 6 1 7 2 8 3 9 4 10 5 12 6 13 7 15 8 16 9 17 10 5 11 4 12
REMARK SMILES IDX 3 13 2 14 19 15 20 16 1 17 18 19 11 21 14 23
REMARK H PARENT 1 18 18 20 11 22 14 24
REMARK Flexibility Score: inf
ROOT
ATOM      1  C   UNL     1      -7.942 -22.772 -20.154  1.00  0.00     0.401 A 
ATOM      2  O   UNL     1      -7.110 -22.163 -19.312  1.00  0.00    -0.202 OA
ATOM      3  C   UNL     1      -6.983 -22.508 -18.035  1.00  0.00     0.368 A 
ATOM      4  C   UNL     1      -6.078 -21.810 -17.231  1.00  0.00     0.162 A 
ATOM      5  C   UNL     1      -5.922 -22.153 -15.884  1.00  0.00     0.128 A 
ATOM      6  C   UNL     1      -6.672 -23.200 -15.341  1.00  0.00     0.093 A 
ATOM      7  C   UNL     1      -7.584 -23.915 -16.127  1.00  0.00     0.136 A 
ATOM      8  C   UNL     1      -7.749 -23.568 -17.494  1.00  0.00     0.125 A 
ATOM      9  C   UNL     1      -8.648 -24.219 -18.352  1.00  0.00     0.078 A 
ATOM     10  C   UNL     1      -8.759 -23.819 -19.687  1.00  0.00     0.223 A 
ENDROOT
BRANCH   1  11
ATOM     11  C   UNL     1      -7.987 -22.303 -21.557  1.00  0.00     0.084 A 
ATOM     12  C   UNL     1      -7.069 -22.769 -22.517  1.00  0.00     0.022 A 
ATOM     13  C   UNL     1      -7.117 -22.293 -23.830  1.00  0.00     0.047 A 
ATOM     14  C   UNL     1      -8.069 -21.338 -24.199  1.00  0.00     0.115 A 
ATOM     15  C   UNL     1      -8.928 -21.328 -21.931  1.00  0.00     0.022 A 
ATOM     16  C   UNL     1      -8.973 -20.854 -23.245  1.00  0.00     0.047 A 
BRANCH  14  17
ATOM     17  O   UNL     1      -8.105 -20.873 -25.512  1.00  0.00    -0.508 OA
ATOM     18  H   UNL     1      -7.695 -21.403 -26.272  1.00  0.00     0.293 HD
ENDBRANCH  14  17
ENDBRANCH   1  11
BRANCH  10  19
ATOM     19  O   UNL     1      -9.688 -24.433 -20.528  1.00  0.00    -0.500 OA
ATOM     20  H   UNL     1     -10.683 -24.402 -20.335  1.00  0.00     0.294 HD
ENDBRANCH  10  19
BRANCH   5  21
ATOM     21  O   UNL     1      -5.022 -21.462 -15.076  1.00  0.00    -0.507 OA
ATOM     22  H   UNL     1      -4.185 -21.038 -15.457  1.00  0.00     0.293 HD
ENDBRANCH   5  21
BRANCH   7  23
ATOM     23  O   UNL     1      -8.293 -24.949 -15.509  1.00  0.00    -0.507 OA
ATOM     24  H   UNL     1      -9.283 -24.922 -15.311  1.00  0.00     0.293 HD
ENDBRANCH   7  23
TORSDOF 5
ENDMDL
MODEL 3
REMARK VINA RESULT:    -6.301      1.544      2.965
REMARK INTER + INTRA:          -7.639
REMARK INTER:                  -7.352
REMARK INTRA:                  -0.287
REMARK UNBOUND:                -0.233
REMARK SMILES Oc1ccc(-c2[o+]c3cc(O)cc(O)c3cc2O)cc1.[Cl-]
REMARK SMILES IDX 6 1 7 2 8 3 9 4 10 5 12 6 13 7 15 8 16 9 17 10 5 11 4 12
REMARK SMILES IDX 3 13 2 14 19 15 20 16 1 17 18 19 11 21 14 23
REMARK H PARENT 1 18 18 20 11 22 14 24
REMARK Flexibility Score: inf
ROOT
ATOM      1  C   UNL     1      -6.847 -23.247 -20.484  1.00  0.00     0.401 A 
ATOM      2  O   UNL     1      -6.225 -22.582 -19.512  1.00  0.00    -0.202 OA
ATOM      3  C   UNL     1      -6.515 -22.731 -18.224  1.00  0.00     0.368 A 
ATOM      4  C   UNL     1      -5.803 -21.991 -17.278  1.00  0.00     0.162 A 
ATOM      5  C   UNL     1      -6.086 -22.129 -15.915  1.00  0.00     0.128 A 
ATOM      6  C   UNL     1      -7.085 -23.013 -15.499  1.00  0.00     0.093 A 
ATOM      7  C   UNL     1      -7.813 -23.767 -16.428  1.00  0.00     0.136 A 
ATOM      8  C   UNL     1      -7.531 -23.627 -17.813  1.00  0.00     0.125 A 
ATOM      9  C   UNL     1      -8.218 -24.330 -18.815  1.00  0.00     0.078 A 
ATOM     10  C   UNL     1      -7.887 -24.137 -20.160  1.00  0.00     0.223 A 
ENDROOT
BRANCH   1  11
ATOM     11  C   UNL     1      -6.425 -23.002 -21.881  1.00  0.00     0.084 A 
ATOM     12  C   UNL     1      -5.265 -23.595 -22.413  1.00  0.00     0.022 A 
ATOM     13  C   UNL     1      -4.875 -23.330 -23.729  1.00  0.00     0.047 A 
ATOM     14  C   UNL     1      -5.627 -22.460 -24.525  1.00  0.00     0.115 A 
ATOM     15  C   UNL     1      -7.164 -22.113 -22.681  1.00  0.00     0.022 A 
ATOM     16  C   UNL     1      -6.772 -21.850 -23.997  1.00  0.00     0.047 A 
BRANCH  14  17
ATOM     17  O   UNL     1      -5.226 -22.206 -25.835  1.00  0.00    -0.508 OA
ATOM     18  H   UNL     1      -5.494 -22.816 -26.598  1.00  0.00     0.293 HD
ENDBRANCH  14  17
ENDBRANCH   1  11
BRANCH  10  19
ATOM     19  O   UNL     1      -8.603 -24.798 -21.159  1.00  0.00    -0.500 OA
ATOM     20  H   UNL     1      -8.689 -25.808 -21.172  1.00  0.00     0.294 HD
ENDBRANCH  10  19
BRANCH   5  21
ATOM     21  O   UNL     1      -5.380 -21.394 -14.965  1.00  0.00    -0.507 OA
ATOM     22  H   UNL     1      -5.774 -20.565 -14.538  1.00  0.00     0.293 HD
ENDBRANCH   5  21
BRANCH   7  23
ATOM     23  O   UNL     1      -8.793 -24.630 -15.931  1.00  0.00    -0.507 OA
ATOM     24  H   UNL     1      -9.177 -25.412 -16.441  1.00  0.00     0.293 HD
ENDBRANCH   7  23
TORSDOF 5
ENDMDL
MODEL 4
REMARK VINA RESULT:    -5.920      1.502      6.906
REMARK INTER + INTRA:          -7.192
REMARK INTER:                  -6.928
REMARK INTRA:                  -0.263
REMARK UNBOUND:                -0.233
REMARK SMILES Oc1ccc(-c2[o+]c3cc(O)cc(O)c3cc2O)cc1.[Cl-]
REMARK SMILES IDX 6 1 7 2 8 3 9 4 10 5 12 6 13 7 15 8 16 9 17 10 5 11 4 12
REMARK SMILES IDX 3 13 2 14 19 15 20 16 1 17 18 19 11 21 14 23
REMARK H PARENT 1 18 18 20 11 22 14 24
REMARK Flexibility Score: inf
ROOT
ATOM      1  C   UNL     1      -7.128 -22.598 -20.163  1.00  0.00     0.401 A 
ATOM      2  O   UNL     1      -8.045 -21.870 -20.797  1.00  0.00    -0.202 OA
ATOM      3  C   UNL     1      -8.027 -21.658 -22.109  1.00  0.00     0.368 A 
ATOM      4  C   UNL     1      -9.037 -20.882 -22.684  1.00  0.00     0.162 A 
ATOM      5  C   UNL     1      -9.045 -20.645 -24.062  1.00  0.00     0.128 A 
ATOM      6  C   UNL     1      -8.040 -21.187 -24.867  1.00  0.00     0.093 A 
ATOM      7  C   UNL     1      -7.017 -21.968 -24.315  1.00  0.00     0.136 A 
ATOM      8  C   UNL     1      -7.003 -22.209 -22.915  1.00  0.00     0.125 A 
ATOM      9  C   UNL     1      -6.012 -22.967 -22.273  1.00  0.00     0.078 A 
ATOM     10  C   UNL     1      -6.062 -23.158 -20.889  1.00  0.00     0.223 A 
ENDROOT
BRANCH   1  11
ATOM     11  C   UNL     1      -7.262 -22.770 -18.699  1.00  0.00     0.084 A 
ATOM     12  C   UNL     1      -8.223 -23.638 -18.146  1.00  0.00     0.022 A 
ATOM     13  C   UNL     1      -8.345 -23.766 -16.760  1.00  0.00     0.047 A 
ATOM     14  C   UNL     1      -7.523 -23.022 -15.908  1.00  0.00     0.115 A 
ATOM     15  C   UNL     1      -6.453 -22.011 -17.835  1.00  0.00     0.022 A 
ATOM     16  C   UNL     1      -6.578 -22.142 -16.449  1.00  0.00     0.047 A 
BRANCH  14  17
ATOM     17  O   UNL     1      -7.656 -23.162 -14.528  1.00  0.00    -0.508 OA
ATOM     18  H   UNL     1      -6.885 -22.969 -13.900  1.00  0.00     0.293 HD
ENDBRANCH  14  17
ENDBRANCH   1  11
BRANCH  10  19
ATOM     19  O   UNL     1      -5.050 -23.870 -20.243  1.00  0.00    -0.500 OA
ATOM     20  H   UNL     1      -5.249 -24.693 -19.687  1.00  0.00     0.294 HD
ENDBRANCH  10  19
BRANCH   5  21
ATOM     21  O   UNL     1     -10.048 -19.872 -24.644  1.00  0.00    -0.507 OA
ATOM     22  H   UNL     1      -9.834 -19.024 -25.155  1.00  0.00     0.293 HD
ENDBRANCH   5  21
BRANCH   7  23
ATOM     23  O   UNL     1      -6.051 -22.475 -25.188  1.00  0.00    -0.507 OA
ATOM     24  H   UNL     1      -6.093 -23.389 -25.617  1.00  0.00     0.293 HD
ENDBRANCH   7  23
TORSDOF 5
ENDMDL
MODEL 5
REMARK VINA RESULT:    -5.126      2.810      6.599
REMARK INTER + INTRA:          -6.258
REMARK INTER:                  -6.189
REMARK INTRA:                  -0.069
REMARK UNBOUND:                -0.233
REMARK SMILES Oc1ccc(-c2[o+]c3cc(O)cc(O)c3cc2O)cc1.[Cl-]
REMARK SMILES IDX 6 1 7 2 8 3 9 4 10 5 12 6 13 7 15 8 16 9 17 10 5 11 4 12
REMARK SMILES IDX 3 13 2 14 19 15 20 16 1 17 18 19 11 21 14 23
REMARK H PARENT 1 18 18 20 11 22 14 24
REMARK Flexibility Score: inf
ROOT
ATOM      1  C   UNL     1      -6.303 -23.270 -19.495  1.00  0.00     0.401 A 
ATOM      2  O   UNL     1      -6.083 -24.523 -19.886  1.00  0.00    -0.202 OA
ATOM      3  C   UNL     1      -5.702 -24.847 -21.117  1.00  0.00     0.368 A 
ATOM      4  C   UNL     1      -5.491 -26.192 -21.431  1.00  0.00     0.162 A 
ATOM      5  C   UNL     1      -5.087 -26.561 -22.718  1.00  0.00     0.128 A 
ATOM      6  C   UNL     1      -4.891 -25.580 -23.693  1.00  0.00     0.093 A 
ATOM      7  C   UNL     1      -5.095 -24.225 -23.404  1.00  0.00     0.136 A 
ATOM      8  C   UNL     1      -5.509 -23.846 -22.099  1.00  0.00     0.125 A 
ATOM      9  C   UNL     1      -5.749 -22.515 -21.722  1.00  0.00     0.078 A 
ATOM     10  C   UNL     1      -6.159 -22.219 -20.419  1.00  0.00     0.223 A 
ENDROOT
BRANCH   1  11
ATOM     11  C   UNL     1      -6.715 -23.037 -18.093  1.00  0.00     0.084 A 
ATOM     12  C   UNL     1      -6.033 -22.121 -17.270  1.00  0.00     0.022 A 
ATOM     13  C   UNL     1      -6.427 -21.935 -15.941  1.00  0.00     0.047 A 
ATOM     14  C   UNL     1      -7.494 -22.668 -15.413  1.00  0.00     0.115 A 
ATOM     15  C   UNL     1      -7.774 -23.784 -17.549  1.00  0.00     0.022 A 
ATOM     16  C   UNL     1      -8.166 -23.595 -16.220  1.00  0.00     0.047 A 
BRANCH  14  17
ATOM     17  O   UNL     1      -7.876 -22.471 -14.088  1.00  0.00    -0.508 OA
ATOM     18  H   UNL     1      -7.823 -23.218 -13.406  1.00  0.00     0.293 HD
ENDBRANCH  14  17
ENDBRANCH   1  11
BRANCH  10  19
ATOM     19  O   UNL     1      -6.447 -20.902 -20.058  1.00  0.00    -0.500 OA
ATOM     20  H   UNL     1      -7.092 -20.684 -19.307  1.00  0.00     0.294 HD
ENDBRANCH  10  19
BRANCH   5  21
ATOM     21  O   UNL     1      -4.876 -27.900 -23.039  1.00  0.00    -0.507 OA
ATOM     22  H   UNL     1      -5.061 -28.257 -23.969  1.00  0.00     0.293 HD
ENDBRANCH   5  21
BRANCH   7  23
ATOM     23  O   UNL     1      -4.875 -23.307 -24.433  1.00  0.00    -0.507 OA
ATOM     24  H   UNL     1      -5.170 -22.341 -24.409  1.00  0.00     0.293 HD
ENDBRANCH   7  23
TORSDOF 5
ENDMDL
