MODEL 1
REMARK VINA RESULT:    24.516      0.000      0.000
REMARK INTER + INTRA:          33.512
REMARK INTER:                  33.115
REMARK INTRA:                   0.397
REMARK UNBOUND:                 0.397
REMARK SMILES O=c1c(-c2ccc(O)cc2)coc2c([C@@H]3O[C@@H](CO)[C@H](O)[C@H](O)[C@@H]3O)c(O)ccc12
REMARK SMILES IDX 3 1 11 2 12 3 13 4 30 5 2 6 1 7 29 8 28 9 26 10 14 11 4 12
REMARK SMILES IDX 5 13 6 14 7 15 10 16 9 17 8 18 15 20 24 21 16 22 22 23 17 24
REMARK SMILES IDX 20 25 25 26 23 28 18 30 19 31 21 33 27 35
REMARK H PARENT 8 19 25 27 23 29 19 32 21 34 27 36
REMARK Flexibility Score: inf
ROOT
ATOM      1  C   UNL     1      11.103   4.645  -3.561  1.00  0.00     0.065 A 
ATOM      2  C   UNL     1      10.977   3.481  -2.790  1.00  0.00     0.208 A 
ATOM      3  O   UNL     1      10.714   3.549  -1.491  1.00  0.00    -0.463 OA
ATOM      4  C   UNL     1      10.554   4.696  -0.837  1.00  0.00     0.147 A 
ATOM      5  C   UNL     1      10.663   5.921  -1.539  1.00  0.00     0.066 A 
ATOM      6  C   UNL     1      10.950   5.886  -2.916  1.00  0.00     0.200 A 
ATOM      7  O   UNL     1      11.088   6.960  -3.565  1.00  0.00    -0.288 OA
ATOM      8  C   UNL     1      10.482   7.132  -0.854  1.00  0.00     0.020 A 
ATOM      9  C   UNL     1      10.179   7.130   0.505  1.00  0.00     0.047 A 
ATOM     10  C   UNL     1      10.063   5.926   1.209  1.00  0.00     0.125 A 
ATOM     11  C   UNL     1      10.274   4.693   0.552  1.00  0.00     0.069 A 
ENDROOT
BRANCH   1  12
ATOM     12  C   UNL     1      11.392   4.543  -5.013  1.00  0.00    -0.011 A 
ATOM     13  C   UNL     1      11.773   3.313  -5.576  1.00  0.00     0.013 A 
ATOM     14  C   UNL     1      12.038   3.211  -6.945  1.00  0.00     0.047 A 
ATOM     15  C   UNL     1      11.919   4.335  -7.769  1.00  0.00     0.115 A 
ATOM     16  C   UNL     1      11.268   5.668  -5.850  1.00  0.00     0.013 A 
ATOM     17  C   UNL     1      11.532   5.564  -7.218  1.00  0.00     0.047 A 
BRANCH  15  18
ATOM     18  O   UNL     1      12.186   4.219  -9.132  1.00  0.00    -0.508 OA
ATOM     19  H   UNL     1      11.969   4.969  -9.780  1.00  0.00     0.293 HD
ENDBRANCH  15  18
ENDBRANCH   1  12
BRANCH  11  20
ATOM     20  C   UNL     1      10.122   3.388   1.326  1.00  0.00     0.188 C 
ATOM     21  C   UNL     1       8.644   2.946   1.347  1.00  0.00     0.179 C 
ATOM     22  O   UNL     1      10.961   2.387   0.765  1.00  0.00    -0.362 OA
ATOM     23  C   UNL     1       8.516   1.635   2.144  1.00  0.00     0.177 C 
ATOM     24  C   UNL     1      10.935   1.167   1.497  1.00  0.00     0.176 C 
ATOM     25  C   UNL     1       9.502   0.582   1.614  1.00  0.00     0.177 C 
BRANCH  21  26
ATOM     26  O   UNL     1       8.172   2.772   0.033  1.00  0.00    -0.387 OA
ATOM     27  H   UNL     1       8.912   3.028  -0.577  1.00  0.00     0.211 HD
ENDBRANCH  21  26
BRANCH  23  28
ATOM     28  O   UNL     1       7.205   1.136   2.071  1.00  0.00    -0.387 OA
ATOM     29  H   UNL     1       6.719   1.490   2.861  1.00  0.00     0.211 HD
ENDBRANCH  23  28
BRANCH  24  30
ATOM     30  C   UNL     1      11.677   1.280   2.848  1.00  0.00     0.191 C 
BRANCH  30  31
ATOM     31  O   UNL     1      12.834   0.486   2.841  1.00  0.00    -0.394 OA
ATOM     32  H   UNL     1      13.037   0.277   1.892  1.00  0.00     0.210 HD
ENDBRANCH  30  31
ENDBRANCH  24  30
BRANCH  25  33
ATOM     33  O   UNL     1       9.074   0.130   0.354  1.00  0.00    -0.388 OA
ATOM     34  H   UNL     1       9.010  -0.859   0.407  1.00  0.00     0.211 HD
ENDBRANCH  25  33
ENDBRANCH  11  20
BRANCH  10  35
ATOM     35  O   UNL     1       9.735   5.955   2.566  1.00  0.00    -0.507 OA
ATOM     36  H   UNL     1       9.029   6.585   2.930  1.00  0.00     0.293 HD
ENDBRANCH  10  35
TORSDOF 9
ENDMDL
