MODEL 1
REMARK VINA RESULT:    -5.196      0.000      0.000
REMARK INTER + INTRA:          -7.101
REMARK INTER:                  -6.715
REMARK INTRA:                  -0.386
REMARK UNBOUND:                -0.386
REMARK SMILES CCO[C@@H]1O[C@@H](CO)[C@H](O)[C@H](O)[C@H]1O
REMARK SMILES IDX 4 1 13 2 11 3 9 4 6 5 5 6 3 7 2 8 1 9 14 10 12 12 7 14 8 15
REMARK SMILES IDX 10 17
REMARK H PARENT 14 11 12 13 8 16 10 18
REMARK Flexibility Score: inf
ROOT
ATOM      1  C   UNL     1      40.946  39.419  22.406  1.00  0.00     0.281 C 
ATOM      2  C   UNL     1      42.140  38.448  22.556  1.00  0.00     0.202 C 
ATOM      3  C   UNL     1      41.868  37.375  23.628  1.00  0.00     0.179 C 
ATOM      4  C   UNL     1      40.467  36.756  23.437  1.00  0.00     0.177 C 
ATOM      5  C   UNL     1      39.396  37.866  23.263  1.00  0.00     0.178 C 
ATOM      6  O   UNL     1      39.735  38.710  22.173  1.00  0.00    -0.341 OA
ENDROOT
BRANCH   1   7
ATOM      7  O   UNL     1      40.852  40.251  23.552  1.00  0.00    -0.350 OA
BRANCH   7   8
ATOM      8  C   UNL     1      41.184  41.582  23.219  1.00  0.00     0.160 C 
ATOM      9  C   UNL     1      39.906  42.393  23.074  1.00  0.00     0.035 C 
ENDBRANCH   7   8
ENDBRANCH   1   7
BRANCH   2  10
ATOM     10  O   UNL     1      42.470  37.854  21.323  1.00  0.00    -0.385 OA
ATOM     11  H   UNL     1      41.966  38.321  20.608  1.00  0.00     0.211 HD
ENDBRANCH   2  10
BRANCH   3  12
ATOM     12  O   UNL     1      41.976  37.964  24.901  1.00  0.00    -0.387 OA
ATOM     13  H   UNL     1      42.210  37.242  25.541  1.00  0.00     0.211 HD
ENDBRANCH   3  12
BRANCH   5  14
ATOM     14  C   UNL     1      38.008  37.267  22.974  1.00  0.00     0.191 C 
BRANCH  14  15
ATOM     15  O   UNL     1      37.384  36.832  24.152  1.00  0.00    -0.394 OA
ATOM     16  H   UNL     1      37.804  35.964  24.393  1.00  0.00     0.210 HD
ENDBRANCH  14  15
ENDBRANCH   5  14
BRANCH   4  17
ATOM     17  O   UNL     1      40.159  35.885  24.500  1.00  0.00    -0.387 OA
ATOM     18  H   UNL     1      40.431  34.968  24.233  1.00  0.00     0.211 HD
ENDBRANCH   4  17
TORSDOF 7
ENDMDL
MODEL 2
REMARK VINA RESULT:    -5.049      2.341      4.392
REMARK INTER + INTRA:          -6.911
REMARK INTER:                  -6.487
REMARK INTRA:                  -0.424
REMARK UNBOUND:                -0.386
REMARK SMILES CCO[C@@H]1O[C@@H](CO)[C@H](O)[C@H](O)[C@H]1O
REMARK SMILES IDX 4 1 13 2 11 3 9 4 6 5 5 6 3 7 2 8 1 9 14 10 12 12 7 14 8 15
REMARK SMILES IDX 10 17
REMARK H PARENT 14 11 12 13 8 16 10 18
REMARK Flexibility Score: inf
ROOT
ATOM      1  C   UNL     1      39.183  39.629  22.060  1.00  0.00     0.281 C 
ATOM      2  C   UNL     1      40.193  38.542  21.623  1.00  0.00     0.202 C 
ATOM      3  C   UNL     1      41.598  39.134  21.392  1.00  0.00     0.179 C 
ATOM      4  C   UNL     1      42.002  40.052  22.566  1.00  0.00     0.177 C 
ATOM      5  C   UNL     1      40.862  41.051  22.899  1.00  0.00     0.178 C 
ATOM      6  O   UNL     1      39.661  40.350  23.188  1.00  0.00    -0.341 OA
ENDROOT
BRANCH   1   7
ATOM      7  O   UNL     1      38.898  40.492  20.970  1.00  0.00    -0.350 OA
BRANCH   7   8
ATOM      8  C   UNL     1      37.754  40.043  20.274  1.00  0.00     0.160 C 
ATOM      9  C   UNL     1      38.108  39.850  18.808  1.00  0.00     0.035 C 
ENDBRANCH   7   8
ENDBRANCH   1   7
BRANCH   2  10
ATOM     10  O   UNL     1      40.239  37.487  22.553  1.00  0.00    -0.385 OA
ATOM     11  H   UNL     1      40.249  36.631  22.051  1.00  0.00     0.211 HD
ENDBRANCH   2  10
BRANCH   3  12
ATOM     12  O   UNL     1      41.597  39.854  20.183  1.00  0.00    -0.387 OA
ATOM     13  H   UNL     1      41.079  40.686  20.337  1.00  0.00     0.211 HD
ENDBRANCH   3  12
BRANCH   5  14
ATOM     14  C   UNL     1      41.208  41.908  24.129  1.00  0.00     0.191 C 
BRANCH  14  15
ATOM     15  O   UNL     1      42.256  42.798  23.853  1.00  0.00    -0.394 OA
ATOM     16  H   UNL     1      42.176  43.045  22.894  1.00  0.00     0.210 HD
ENDBRANCH  14  15
ENDBRANCH   5  14
BRANCH   4  17
ATOM     17  O   UNL     1      43.217  40.707  22.289  1.00  0.00    -0.387 OA
ATOM     18  H   UNL     1      43.297  40.800  21.303  1.00  0.00     0.211 HD
ENDBRANCH   4  17
TORSDOF 7
ENDMDL
MODEL 3
REMARK VINA RESULT:    -5.002      1.935      3.770
REMARK INTER + INTRA:          -6.850
REMARK INTER:                  -6.676
REMARK INTRA:                  -0.174
REMARK UNBOUND:                -0.386
REMARK SMILES CCO[C@@H]1O[C@@H](CO)[C@H](O)[C@H](O)[C@H]1O
REMARK SMILES IDX 4 1 13 2 11 3 9 4 6 5 5 6 3 7 2 8 1 9 14 10 12 12 7 14 8 15
REMARK SMILES IDX 10 17
REMARK H PARENT 14 11 12 13 8 16 10 18
REMARK Flexibility Score: inf
ROOT
ATOM      1  C   UNL     1      39.241  39.406  22.429  1.00  0.00     0.281 C 
ATOM      2  C   UNL     1      38.352  39.109  23.659  1.00  0.00     0.202 C 
ATOM      3  C   UNL     1      38.347  37.607  24.006  1.00  0.00     0.179 C 
ATOM      4  C   UNL     1      39.785  37.045  24.015  1.00  0.00     0.177 C 
ATOM      5  C   UNL     1      40.547  37.469  22.731  1.00  0.00     0.178 C 
ATOM      6  O   UNL     1      40.552  38.883  22.606  1.00  0.00    -0.341 OA
ENDROOT
BRANCH   1   7
ATOM      7  O   UNL     1      38.630  38.896  21.255  1.00  0.00    -0.350 OA
BRANCH   7   8
ATOM      8  C   UNL     1      37.868  39.902  20.622  1.00  0.00     0.160 C 
ATOM      9  C   UNL     1      38.079  39.814  19.119  1.00  0.00     0.035 C 
ENDBRANCH   7   8
ENDBRANCH   1   7
BRANCH   2  10
ATOM     10  O   UNL     1      38.745  39.880  24.769  1.00  0.00    -0.385 OA
ATOM     11  H   UNL     1      39.387  40.569  24.457  1.00  0.00     0.211 HD
ENDBRANCH   2  10
BRANCH   3  12
ATOM     12  O   UNL     1      37.557  36.924  23.064  1.00  0.00    -0.387 OA
ATOM     13  H   UNL     1      38.124  36.213  22.665  1.00  0.00     0.211 HD
ENDBRANCH   3  12
BRANCH   5  14
ATOM     14  C   UNL     1      42.012  37.000  22.768  1.00  0.00     0.191 C 
BRANCH  14  15
ATOM     15  O   UNL     1      42.797  37.699  21.839  1.00  0.00    -0.394 OA
ATOM     16  H   UNL     1      43.564  38.079  22.344  1.00  0.00     0.210 HD
ENDBRANCH  14  15
ENDBRANCH   5  14
BRANCH   4  17
ATOM     17  O   UNL     1      39.770  35.647  24.185  1.00  0.00    -0.387 OA
ATOM     18  H   UNL     1      39.972  35.229  23.307  1.00  0.00     0.211 HD
ENDBRANCH   4  17
TORSDOF 7
ENDMDL
MODEL 4
REMARK VINA RESULT:    -4.996      1.861      3.650
REMARK INTER + INTRA:          -6.842
REMARK INTER:                  -6.433
REMARK INTRA:                  -0.409
REMARK UNBOUND:                -0.386
REMARK SMILES CCO[C@@H]1O[C@@H](CO)[C@H](O)[C@H](O)[C@H]1O
REMARK SMILES IDX 4 1 13 2 11 3 9 4 6 5 5 6 3 7 2 8 1 9 14 10 12 12 7 14 8 15
REMARK SMILES IDX 10 17
REMARK H PARENT 14 11 12 13 8 16 10 18
REMARK Flexibility Score: inf
ROOT
ATOM      1  C   UNL     1      39.228  40.007  24.533  1.00  0.00     0.281 C 
ATOM      2  C   UNL     1      37.708  39.824  24.753  1.00  0.00     0.202 C 
ATOM      3  C   UNL     1      37.126  38.744  23.821  1.00  0.00     0.179 C 
ATOM      4  C   UNL     1      38.005  37.475  23.841  1.00  0.00     0.177 C 
ATOM      5  C   UNL     1      39.501  37.842  23.647  1.00  0.00     0.178 C 
ATOM      6  O   UNL     1      39.915  38.766  24.642  1.00  0.00    -0.341 OA
ENDROOT
BRANCH   1   7
ATOM      7  O   UNL     1      39.466  40.626  23.279  1.00  0.00    -0.350 OA
BRANCH   7   8
ATOM      8  C   UNL     1      40.526  41.552  23.382  1.00  0.00     0.160 C 
ATOM      9  C   UNL     1      41.722  41.027  22.604  1.00  0.00     0.035 C 
ENDBRANCH   7   8
ENDBRANCH   1   7
BRANCH   2  10
ATOM     10  O   UNL     1      37.421  39.535  26.100  1.00  0.00    -0.385 OA
ATOM     11  H   UNL     1      38.265  39.591  26.617  1.00  0.00     0.211 HD
ENDBRANCH   2  10
BRANCH   3  12
ATOM     12  O   UNL     1      37.041  39.264  22.516  1.00  0.00    -0.387 OA
ATOM     13  H   UNL     1      37.649  38.724  21.946  1.00  0.00     0.211 HD
ENDBRANCH   3  12
BRANCH   5  14
ATOM     14  C   UNL     1      40.402  36.600  23.762  1.00  0.00     0.191 C 
BRANCH  14  15
ATOM     15  O   UNL     1      39.786  35.589  24.513  1.00  0.00    -0.394 OA
ATOM     16  H   UNL     1      38.807  35.736  24.440  1.00  0.00     0.210 HD
ENDBRANCH  14  15
ENDBRANCH   5  14
BRANCH   4  17
ATOM     17  O   UNL     1      37.558  36.546  22.882  1.00  0.00    -0.387 OA
ATOM     18  H   UNL     1      36.997  35.872  23.347  1.00  0.00     0.211 HD
ENDBRANCH   4  17
TORSDOF 7
ENDMDL
MODEL 5
REMARK VINA RESULT:    -4.944      1.869      3.840
REMARK INTER + INTRA:          -6.775
REMARK INTER:                  -6.756
REMARK INTRA:                  -0.019
REMARK UNBOUND:                -0.386
REMARK SMILES CCO[C@@H]1O[C@@H](CO)[C@H](O)[C@H](O)[C@H]1O
REMARK SMILES IDX 4 1 13 2 11 3 9 4 6 5 5 6 3 7 2 8 1 9 14 10 12 12 7 14 8 15
REMARK SMILES IDX 10 17
REMARK H PARENT 14 11 12 13 8 16 10 18
REMARK Flexibility Score: inf
ROOT
ATOM      1  C   UNL     1      40.323  38.511  23.589  1.00  0.00     0.281 C 
ATOM      2  C   UNL     1      41.761  39.080  23.603  1.00  0.00     0.202 C 
ATOM      3  C   UNL     1      42.346  39.178  22.181  1.00  0.00     0.179 C 
ATOM      4  C   UNL     1      41.332  39.832  21.218  1.00  0.00     0.177 C 
ATOM      5  C   UNL     1      39.934  39.171  21.361  1.00  0.00     0.178 C 
ATOM      6  O   UNL     1      39.488  39.251  22.707  1.00  0.00    -0.341 OA
ENDROOT
BRANCH   1   7
ATOM      7  O   UNL     1      40.349  37.134  23.250  1.00  0.00    -0.350 OA
BRANCH   7   8
ATOM      8  C   UNL     1      39.340  36.437  23.950  1.00  0.00     0.160 C 
ATOM      9  C   UNL     1      38.041  36.523  23.164  1.00  0.00     0.035 C 
ENDBRANCH   7   8
ENDBRANCH   1   7
BRANCH   2  10
ATOM     10  O   UNL     1      41.809  40.327  24.254  1.00  0.00    -0.385 OA
ATOM     11  H   UNL     1      41.624  41.034  23.583  1.00  0.00     0.211 HD
ENDBRANCH   2  10
BRANCH   3  12
ATOM     12  O   UNL     1      42.685  37.887  21.736  1.00  0.00    -0.387 OA
ATOM     13  H   UNL     1      43.261  37.478  22.433  1.00  0.00     0.211 HD
ENDBRANCH   3  12
BRANCH   5  14
ATOM     14  C   UNL     1      38.888  39.874  20.480  1.00  0.00     0.191 C 
BRANCH  14  15
ATOM     15  O   UNL     1      37.586  39.470  20.811  1.00  0.00    -0.394 OA
ATOM     16  H   UNL     1      36.983  40.217  20.558  1.00  0.00     0.210 HD
ENDBRANCH  14  15
ENDBRANCH   5  14
BRANCH   4  17
ATOM     17  O   UNL     1      41.805  39.788  19.893  1.00  0.00    -0.387 OA
ATOM     18  H   UNL     1      42.793  39.892  19.917  1.00  0.00     0.211 HD
ENDBRANCH   4  17
TORSDOF 7
ENDMDL
MODEL 6
REMARK VINA RESULT:    -4.874      1.422      1.835
REMARK INTER + INTRA:          -6.684
REMARK INTER:                  -6.237
REMARK INTRA:                  -0.447
REMARK UNBOUND:                -0.386
REMARK SMILES CCO[C@@H]1O[C@@H](CO)[C@H](O)[C@H](O)[C@H]1O
REMARK SMILES IDX 4 1 13 2 11 3 9 4 6 5 5 6 3 7 2 8 1 9 14 10 12 12 7 14 8 15
REMARK SMILES IDX 10 17
REMARK H PARENT 14 11 12 13 8 16 10 18
REMARK Flexibility Score: inf
ROOT
ATOM      1  C   UNL     1      40.317  40.115  22.723  1.00  0.00     0.281 C 
ATOM      2  C   UNL     1      41.395  39.930  21.631  1.00  0.00     0.202 C 
ATOM      3  C   UNL     1      42.254  38.676  21.888  1.00  0.00     0.179 C 
ATOM      4  C   UNL     1      41.360  37.462  22.220  1.00  0.00     0.177 C 
ATOM      5  C   UNL     1      40.311  37.832  23.303  1.00  0.00     0.178 C 
ATOM      6  O   UNL     1      39.532  38.939  22.874  1.00  0.00    -0.341 OA
ENDROOT
BRANCH   1   7
ATOM      7  O   UNL     1      40.927  40.496  23.947  1.00  0.00    -0.350 OA
BRANCH   7   8
ATOM      8  C   UNL     1      41.069  41.900  24.008  1.00  0.00     0.160 C 
ATOM      9  C   UNL     1      39.704  42.546  23.837  1.00  0.00     0.035 C 
ENDBRANCH   7   8
ENDBRANCH   1   7
BRANCH   2  10
ATOM     10  O   UNL     1      40.818  39.889  20.348  1.00  0.00    -0.385 OA
ATOM     11  H   UNL     1      40.308  40.728  20.209  1.00  0.00     0.211 HD
ENDBRANCH   2  10
BRANCH   3  12
ATOM     12  O   UNL     1      43.140  38.940  22.950  1.00  0.00    -0.387 OA
ATOM     13  H   UNL     1      42.638  38.795  23.794  1.00  0.00     0.211 HD
ENDBRANCH   3  12
BRANCH   5  14
ATOM     14  C   UNL     1      39.349  36.663  23.575  1.00  0.00     0.191 C 
BRANCH  14  15
ATOM     15  O   UNL     1      39.904  35.743  24.476  1.00  0.00    -0.394 OA
ATOM     16  H   UNL     1      39.392  35.829  25.323  1.00  0.00     0.210 HD
ENDBRANCH  14  15
ENDBRANCH   5  14
BRANCH   4  17
ATOM     17  O   UNL     1      42.145  36.356  22.599  1.00  0.00    -0.387 OA
ATOM     18  H   UNL     1      42.600  36.010  21.787  1.00  0.00     0.211 HD
ENDBRANCH   4  17
TORSDOF 7
ENDMDL
MODEL 7
REMARK VINA RESULT:    -4.869      1.856      4.205
REMARK INTER + INTRA:          -6.678
REMARK INTER:                  -6.334
REMARK INTRA:                  -0.344
REMARK UNBOUND:                -0.386
REMARK SMILES CCO[C@@H]1O[C@@H](CO)[C@H](O)[C@H](O)[C@H]1O
REMARK SMILES IDX 4 1 13 2 11 3 9 4 6 5 5 6 3 7 2 8 1 9 14 10 12 12 7 14 8 15
REMARK SMILES IDX 10 17
REMARK H PARENT 14 11 12 13 8 16 10 18
REMARK Flexibility Score: inf
ROOT
ATOM      1  C   UNL     1      39.470  38.519  22.883  1.00  0.00     0.281 C 
ATOM      2  C   UNL     1      39.294  39.822  22.069  1.00  0.00     0.202 C 
ATOM      3  C   UNL     1      40.529  40.737  22.188  1.00  0.00     0.179 C 
ATOM      4  C   UNL     1      41.828  39.930  21.971  1.00  0.00     0.177 C 
ATOM      5  C   UNL     1      41.822  38.638  22.831  1.00  0.00     0.178 C 
ATOM      6  O   UNL     1      40.677  37.853  22.532  1.00  0.00    -0.341 OA
ENDROOT
BRANCH   1   7
ATOM      7  O   UNL     1      39.417  38.805  24.272  1.00  0.00    -0.350 OA
BRANCH   7   8
ATOM      8  C   UNL     1      38.080  39.008  24.680  1.00  0.00     0.160 C 
ATOM      9  C   UNL     1      37.221  37.871  24.149  1.00  0.00     0.035 C 
ENDBRANCH   7   8
ENDBRANCH   1   7
BRANCH   2  10
ATOM     10  O   UNL     1      39.004  39.543  20.720  1.00  0.00    -0.385 OA
ATOM     11  H   UNL     1      39.666  40.019  20.155  1.00  0.00     0.211 HD
ENDBRANCH   2  10
BRANCH   3  12
ATOM     12  O   UNL     1      40.531  41.338  23.461  1.00  0.00    -0.387 OA
ATOM     13  H   UNL     1      41.163  40.823  24.028  1.00  0.00     0.211 HD
ENDBRANCH   3  12
BRANCH   5  14
ATOM     14  C   UNL     1      43.064  37.773  22.554  1.00  0.00     0.191 C 
BRANCH  14  15
ATOM     15  O   UNL     1      44.245  38.455  22.883  1.00  0.00    -0.394 OA
ATOM     16  H   UNL     1      44.543  38.923  22.059  1.00  0.00     0.210 HD
ENDBRANCH  14  15
ENDBRANCH   5  14
BRANCH   4  17
ATOM     17  O   UNL     1      42.958  40.731  22.225  1.00  0.00    -0.387 OA
ATOM     18  H   UNL     1      43.716  40.129  22.450  1.00  0.00     0.211 HD
ENDBRANCH   4  17
TORSDOF 7
ENDMDL
MODEL 8
REMARK VINA RESULT:    -4.853      1.667      2.512
REMARK INTER + INTRA:          -6.658
REMARK INTER:                  -6.490
REMARK INTRA:                  -0.168
REMARK UNBOUND:                -0.386
REMARK SMILES CCO[C@@H]1O[C@@H](CO)[C@H](O)[C@H](O)[C@H]1O
REMARK SMILES IDX 4 1 13 2 11 3 9 4 6 5 5 6 3 7 2 8 1 9 14 10 12 12 7 14 8 15
REMARK SMILES IDX 10 17
REMARK H PARENT 14 11 12 13 8 16 10 18
REMARK Flexibility Score: inf
ROOT
ATOM      1  C   UNL     1      39.864  39.382  21.569  1.00  0.00     0.281 C 
ATOM      2  C   UNL     1      41.239  40.004  21.232  1.00  0.00     0.202 C 
ATOM      3  C   UNL     1      42.236  39.842  22.396  1.00  0.00     0.179 C 
ATOM      4  C   UNL     1      42.221  38.392  22.929  1.00  0.00     0.177 C 
ATOM      5  C   UNL     1      40.765  37.913  23.175  1.00  0.00     0.178 C 
ATOM      6  O   UNL     1      40.001  38.028  21.984  1.00  0.00    -0.341 OA
ENDROOT
BRANCH   1   7
ATOM      7  O   UNL     1      39.206  40.165  22.553  1.00  0.00    -0.350 OA
BRANCH   7   8
ATOM      8  C   UNL     1      37.921  40.540  22.102  1.00  0.00     0.160 C 
ATOM      9  C   UNL     1      37.982  41.956  21.551  1.00  0.00     0.035 C 
ENDBRANCH   7   8
ENDBRANCH   1   7
BRANCH   2  10
ATOM     10  O   UNL     1      41.763  39.465  20.043  1.00  0.00    -0.385 OA
ATOM     11  H   UNL     1      41.049  38.939  19.598  1.00  0.00     0.211 HD
ENDBRANCH   2  10
BRANCH   3  12
ATOM     12  O   UNL     1      41.894  40.745  23.420  1.00  0.00    -0.387 OA
ATOM     13  H   UNL     1      40.932  40.609  23.622  1.00  0.00     0.211 HD
ENDBRANCH   3  12
BRANCH   5  14
ATOM     14  C   UNL     1      40.727  36.439  23.612  1.00  0.00     0.191 C 
BRANCH  14  15
ATOM     15  O   UNL     1      39.534  36.136  24.284  1.00  0.00    -0.394 OA
ATOM     16  H   UNL     1      39.506  36.716  25.090  1.00  0.00     0.210 HD
ENDBRANCH  14  15
ENDBRANCH   5  14
BRANCH   4  17
ATOM     17  O   UNL     1      43.020  38.279  24.083  1.00  0.00    -0.387 OA
ATOM     18  H   UNL     1      43.481  37.400  24.052  1.00  0.00     0.211 HD
ENDBRANCH   4  17
TORSDOF 7
ENDMDL
MODEL 9
REMARK VINA RESULT:    -4.762      1.964      4.045
REMARK INTER + INTRA:          -6.540
REMARK INTER:                  -6.124
REMARK INTRA:                  -0.416
REMARK UNBOUND:                -0.386
REMARK SMILES CCO[C@@H]1O[C@@H](CO)[C@H](O)[C@H](O)[C@H]1O
REMARK SMILES IDX 4 1 13 2 11 3 9 4 6 5 5 6 3 7 2 8 1 9 14 10 12 12 7 14 8 15
REMARK SMILES IDX 10 17
REMARK H PARENT 14 11 12 13 8 16 10 18
REMARK Flexibility Score: inf
ROOT
ATOM      1  C   UNL     1      39.499  38.361  23.887  1.00  0.00     0.281 C 
ATOM      2  C   UNL     1      38.831  38.952  22.623  1.00  0.00     0.202 C 
ATOM      3  C   UNL     1      39.808  39.839  21.827  1.00  0.00     0.179 C 
ATOM      4  C   UNL     1      41.166  39.127  21.647  1.00  0.00     0.177 C 
ATOM      5  C   UNL     1      41.672  38.559  23.001  1.00  0.00     0.178 C 
ATOM      6  O   UNL     1      40.705  37.682  23.559  1.00  0.00    -0.341 OA
ENDROOT
BRANCH   1   7
ATOM      7  O   UNL     1      39.720  39.385  24.843  1.00  0.00    -0.350 OA
BRANCH   7   8
ATOM      8  C   UNL     1      38.508  39.732  25.480  1.00  0.00     0.160 C 
ATOM      9  C   UNL     1      38.786  40.785  26.540  1.00  0.00     0.035 C 
ENDBRANCH   7   8
ENDBRANCH   1   7
BRANCH   2  10
ATOM     10  O   UNL     1      38.295  37.937  21.809  1.00  0.00    -0.385 OA
ATOM     11  H   UNL     1      38.381  38.220  20.862  1.00  0.00     0.211 HD
ENDBRANCH   2  10
BRANCH   3  12
ATOM     12  O   UNL     1      39.978  41.058  22.508  1.00  0.00    -0.387 OA
ATOM     13  H   UNL     1      40.672  41.573  22.020  1.00  0.00     0.211 HD
ENDBRANCH   3  12
BRANCH   5  14
ATOM     14  C   UNL     1      42.976  37.762  22.823  1.00  0.00     0.191 C 
BRANCH  14  15
ATOM     15  O   UNL     1      44.079  38.614  22.670  1.00  0.00    -0.394 OA
ATOM     16  H   UNL     1      44.553  38.627  23.543  1.00  0.00     0.210 HD
ENDBRANCH  14  15
ENDBRANCH   5  14
BRANCH   4  17
ATOM     17  O   UNL     1      42.105  39.990  21.050  1.00  0.00    -0.387 OA
ATOM     18  H   UNL     1      42.918  39.461  20.838  1.00  0.00     0.211 HD
ENDBRANCH   4  17
TORSDOF 7
ENDMDL
