MODEL 1
REMARK VINA RESULT:    -5.393      0.000      0.000
REMARK INTER + INTRA:          -8.548
REMARK INTER:                  -7.285
REMARK INTRA:                  -1.264
REMARK UNBOUND:                -1.264
REMARK SMILES CC(=O)CCC=C(C)CCC=C(C)C
REMARK SMILES IDX 7 1 6 2 8 3 9 4 10 5 11 6 13 7 12 8 14 9 5 10 4 11 2 12 3 13
REMARK SMILES IDX 1 14
REMARK H PARENT
REMARK Flexibility Score: inf
ROOT
ATOM      1  C   UNL     1     119.572 175.597 130.043  1.00  0.00    -0.077 C 
ATOM      2  C   UNL     1     118.287 175.740 130.441  1.00  0.00    -0.028 C 
ATOM      3  C   UNL     1     119.965 174.641 128.942  1.00  0.00     0.039 C 
ENDROOT
BRANCH   1   4
ATOM      4  C   UNL     1     120.643 176.432 130.708  1.00  0.00     0.034 C 
BRANCH   4   5
ATOM      5  C   UNL     1     120.605 177.876 130.194  1.00  0.00     0.032 C 
BRANCH   5   6
ATOM      6  C   UNL     1     121.562 178.059 129.043  1.00  0.00    -0.028 C 
ATOM      7  C   UNL     1     122.264 178.289 126.699  1.00  0.00     0.039 C 
ATOM      8  C   UNL     1     121.190 178.147 127.747  1.00  0.00    -0.080 C 
ATOM      9  C   UNL     1     119.739 178.123 127.328  1.00  0.00     0.039 C 
ENDBRANCH   5   6
ENDBRANCH   4   5
ENDBRANCH   1   4
BRANCH   2  10
ATOM     10  C   UNL     1     117.127 174.941 129.899  1.00  0.00     0.035 C 
BRANCH  10  11
ATOM     11  C   UNL     1     116.037 175.847 129.313  1.00  0.00     0.079 C 
BRANCH  11  12
ATOM     12  C   UNL     1     116.357 176.259 127.899  1.00  0.00     0.130 C 
ATOM     13  O   UNL     1     116.233 177.428 127.569  1.00  0.00    -0.300 OA
ATOM     14  C   UNL     1     116.828 175.259 126.884  1.00  0.00     0.087 C 
ENDBRANCH  11  12
ENDBRANCH  10  11
ENDBRANCH   2  10
TORSDOF 6
ENDMDL
MODEL 2
REMARK VINA RESULT:    -5.282      2.073      3.768
REMARK INTER + INTRA:          -8.398
REMARK INTER:                  -7.136
REMARK INTRA:                  -1.262
REMARK UNBOUND:                -1.264
REMARK SMILES CC(=O)CCC=C(C)CCC=C(C)C
REMARK SMILES IDX 7 1 6 2 8 3 9 4 10 5 11 6 13 7 12 8 14 9 5 10 4 11 2 12 3 13
REMARK SMILES IDX 1 14
REMARK H PARENT
REMARK Flexibility Score: inf
ROOT
ATOM      1  C   UNL     1     121.126 177.084 125.706  1.00  0.00    -0.077 C 
ATOM      2  C   UNL     1     120.085 177.777 125.192  1.00  0.00    -0.028 C 
ATOM      3  C   UNL     1     121.191 175.576 125.640  1.00  0.00     0.039 C 
ENDROOT
BRANCH   1   4
ATOM      4  C   UNL     1     122.267 177.842 126.347  1.00  0.00     0.034 C 
BRANCH   4   5
ATOM      5  C   UNL     1     121.745 178.809 127.415  1.00  0.00     0.032 C 
BRANCH   5   6
ATOM      6  C   UNL     1     121.748 178.157 128.775  1.00  0.00    -0.028 C 
ATOM      7  C   UNL     1     120.792 177.136 130.796  1.00  0.00     0.039 C 
ATOM      8  C   UNL     1     120.639 177.734 129.422  1.00  0.00    -0.080 C 
ATOM      9  C   UNL     1     119.264 177.832 128.801  1.00  0.00     0.039 C 
ENDBRANCH   5   6
ENDBRANCH   4   5
ENDBRANCH   1   4
BRANCH   2  10
ATOM     10  C   UNL     1     118.861 177.151 124.567  1.00  0.00     0.035 C 
BRANCH  10  11
ATOM     11  C   UNL     1     117.573 177.591 125.276  1.00  0.00     0.079 C 
BRANCH  11  12
ATOM     12  C   UNL     1     116.835 176.416 125.864  1.00  0.00     0.130 C 
ATOM     13  O   UNL     1     115.613 176.411 125.865  1.00  0.00    -0.300 OA
ATOM     14  C   UNL     1     117.570 175.247 126.451  1.00  0.00     0.087 C 
ENDBRANCH  11  12
ENDBRANCH  10  11
ENDBRANCH   2  10
TORSDOF 6
ENDMDL
MODEL 3
REMARK VINA RESULT:    -5.235      1.966      3.725
REMARK INTER + INTRA:          -8.335
REMARK INTER:                  -7.167
REMARK INTRA:                  -1.168
REMARK UNBOUND:                -1.264
REMARK SMILES CC(=O)CCC=C(C)CCC=C(C)C
REMARK SMILES IDX 7 1 6 2 8 3 9 4 10 5 11 6 13 7 12 8 14 9 5 10 4 11 2 12 3 13
REMARK SMILES IDX 1 14
REMARK H PARENT
REMARK Flexibility Score: inf
ROOT
ATOM      1  C   UNL     1     116.739 175.427 127.950  1.00  0.00    -0.077 C 
ATOM      2  C   UNL     1     115.980 176.533 128.123  1.00  0.00    -0.028 C 
ATOM      3  C   UNL     1     117.138 174.940 126.577  1.00  0.00     0.039 C 
ENDROOT
BRANCH   1   4
ATOM      4  C   UNL     1     117.217 174.667 129.167  1.00  0.00     0.034 C 
BRANCH   4   5
ATOM      5  C   UNL     1     117.366 175.605 130.370  1.00  0.00     0.032 C 
BRANCH   5   6
ATOM      6  C   UNL     1     118.813 175.720 130.781  1.00  0.00    -0.028 C 
ATOM      7  C   UNL     1     121.086 176.653 130.822  1.00  0.00     0.039 C 
ATOM      8  C   UNL     1     119.654 176.690 130.357  1.00  0.00    -0.080 C 
ATOM      9  C   UNL     1     119.194 177.806 129.448  1.00  0.00     0.039 C 
ENDBRANCH   5   6
ENDBRANCH   4   5
ENDBRANCH   1   4
BRANCH   2  10
ATOM     10  C   UNL     1     115.397 177.359 127.001  1.00  0.00     0.035 C 
BRANCH  10  11
ATOM     11  C   UNL     1     116.172 178.668 126.797  1.00  0.00     0.079 C 
BRANCH  11  12
ATOM     12  C   UNL     1     117.194 178.542 125.697  1.00  0.00     0.130 C 
ATOM     13  O   UNL     1     116.905 177.946 124.671  1.00  0.00    -0.300 OA
ATOM     14  C   UNL     1     118.564 179.137 125.835  1.00  0.00     0.087 C 
ENDBRANCH  11  12
ENDBRANCH  10  11
ENDBRANCH   2  10
TORSDOF 6
ENDMDL
MODEL 4
REMARK VINA RESULT:    -5.232      2.351      4.401
REMARK INTER + INTRA:          -8.330
REMARK INTER:                  -7.208
REMARK INTRA:                  -1.122
REMARK UNBOUND:                -1.264
REMARK SMILES CC(=O)CCC=C(C)CCC=C(C)C
REMARK SMILES IDX 7 1 6 2 8 3 9 4 10 5 11 6 13 7 12 8 14 9 5 10 4 11 2 12 3 13
REMARK SMILES IDX 1 14
REMARK H PARENT
REMARK Flexibility Score: inf
ROOT
ATOM      1  C   UNL     1     118.603 178.452 126.816  1.00  0.00    -0.077 C 
ATOM      2  C   UNL     1     117.442 178.982 127.265  1.00  0.00    -0.028 C 
ATOM      3  C   UNL     1     118.973 178.463 125.352  1.00  0.00     0.039 C 
ENDROOT
BRANCH   1   4
ATOM      4  C   UNL     1     119.567 177.847 127.813  1.00  0.00     0.034 C 
BRANCH   4   5
ATOM      5  C   UNL     1     118.900 177.684 129.184  1.00  0.00     0.032 C 
BRANCH   5   6
ATOM      6  C   UNL     1     118.869 176.232 129.593  1.00  0.00    -0.028 C 
ATOM      7  C   UNL     1     117.878 174.026 130.030  1.00  0.00     0.039 C 
ATOM      8  C   UNL     1     117.768 175.450 129.550  1.00  0.00    -0.080 C 
ATOM      9  C   UNL     1     116.446 175.958 129.023  1.00  0.00     0.039 C 
ENDBRANCH   5   6
ENDBRANCH   4   5
ENDBRANCH   1   4
BRANCH   2  10
ATOM     10  C   UNL     1     116.370 179.573 126.381  1.00  0.00     0.035 C 
BRANCH  10  11
ATOM     11  C   UNL     1     115.144 178.656 126.283  1.00  0.00     0.079 C 
BRANCH  11  12
ATOM     12  C   UNL     1     115.338 177.578 125.248  1.00  0.00     0.130 C 
ATOM     13  O   UNL     1     115.590 176.437 125.606  1.00  0.00    -0.300 OA
ATOM     14  C   UNL     1     115.228 177.876 123.782  1.00  0.00     0.087 C 
ENDBRANCH  11  12
ENDBRANCH  10  11
ENDBRANCH   2  10
TORSDOF 6
ENDMDL
MODEL 5
REMARK VINA RESULT:    -5.221      1.998      3.694
REMARK INTER + INTRA:          -8.316
REMARK INTER:                  -7.224
REMARK INTRA:                  -1.092
REMARK UNBOUND:                -1.264
REMARK SMILES CC(=O)CCC=C(C)CCC=C(C)C
REMARK SMILES IDX 7 1 6 2 8 3 9 4 10 5 11 6 13 7 12 8 14 9 5 10 4 11 2 12 3 13
REMARK SMILES IDX 1 14
REMARK H PARENT
REMARK Flexibility Score: inf
ROOT
ATOM      1  C   UNL     1     119.977 177.807 125.768  1.00  0.00    -0.077 C 
ATOM      2  C   UNL     1     119.118 178.822 126.015  1.00  0.00    -0.028 C 
ATOM      3  C   UNL     1     119.558 176.577 124.998  1.00  0.00     0.039 C 
ENDROOT
BRANCH   1   4
ATOM      4  C   UNL     1     121.403 177.916 126.261  1.00  0.00     0.034 C 
BRANCH   4   5
ATOM      5  C   UNL     1     121.478 178.786 127.521  1.00  0.00     0.032 C 
BRANCH   5   6
ATOM      6  C   UNL     1     121.747 177.939 128.740  1.00  0.00    -0.028 C 
ATOM      7  C   UNL     1     121.228 176.739 130.821  1.00  0.00     0.039 C 
ATOM      8  C   UNL     1     120.803 177.551 129.625  1.00  0.00    -0.080 C 
ATOM      9  C   UNL     1     119.343 177.895 129.439  1.00  0.00     0.039 C 
ENDBRANCH   5   6
ENDBRANCH   4   5
ENDBRANCH   1   4
BRANCH   2  10
ATOM     10  C   UNL     1     117.660 178.827 125.624  1.00  0.00     0.035 C 
BRANCH  10  11
ATOM     11  C   UNL     1     116.742 178.792 126.853  1.00  0.00     0.079 C 
BRANCH  11  12
ATOM     12  C   UNL     1     115.721 177.687 126.752  1.00  0.00     0.130 C 
ATOM     13  O   UNL     1     114.539 177.942 126.920  1.00  0.00    -0.300 OA
ATOM     14  C   UNL     1     116.128 176.276 126.449  1.00  0.00     0.087 C 
ENDBRANCH  11  12
ENDBRANCH  10  11
ENDBRANCH   2  10
TORSDOF 6
ENDMDL
MODEL 6
REMARK VINA RESULT:    -5.157      2.424      4.002
REMARK INTER + INTRA:          -8.229
REMARK INTER:                  -6.981
REMARK INTRA:                  -1.248
REMARK UNBOUND:                -1.264
REMARK SMILES CC(=O)CCC=C(C)CCC=C(C)C
REMARK SMILES IDX 7 1 6 2 8 3 9 4 10 5 11 6 13 7 12 8 14 9 5 10 4 11 2 12 3 13
REMARK SMILES IDX 1 14
REMARK H PARENT
REMARK Flexibility Score: inf
ROOT
ATOM      1  C   UNL     1     120.035 178.494 127.011  1.00  0.00    -0.077 C 
ATOM      2  C   UNL     1     119.301 178.944 125.967  1.00  0.00    -0.028 C 
ATOM      3  C   UNL     1     119.397 177.828 128.207  1.00  0.00     0.039 C 
ENDROOT
BRANCH   1   4
ATOM      4  C   UNL     1     121.539 178.646 126.970  1.00  0.00     0.034 C 
BRANCH   4   5
ATOM      5  C   UNL     1     122.212 177.313 126.623  1.00  0.00     0.032 C 
BRANCH   5   6
ATOM      6  C   UNL     1     122.517 177.236 125.148  1.00  0.00    -0.028 C 
ATOM      7  C   UNL     1     122.276 176.469 122.826  1.00  0.00     0.039 C 
ATOM      8  C   UNL     1     121.830 176.477 124.265  1.00  0.00    -0.080 C 
ATOM      9  C   UNL     1     120.630 175.657 124.678  1.00  0.00     0.039 C 
ENDBRANCH   5   6
ENDBRANCH   4   5
ENDBRANCH   1   4
BRANCH   2  10
ATOM     10  C   UNL     1     117.794 178.900 125.896  1.00  0.00     0.035 C 
BRANCH  10  11
ATOM     11  C   UNL     1     117.300 177.746 125.014  1.00  0.00     0.079 C 
BRANCH  11  12
ATOM     12  C   UNL     1     116.485 176.754 125.802  1.00  0.00     0.130 C 
ATOM     13  O   UNL     1     115.299 176.971 126.002  1.00  0.00    -0.300 OA
ATOM     14  C   UNL     1     117.100 175.500 126.350  1.00  0.00     0.087 C 
ENDBRANCH  11  12
ENDBRANCH  10  11
ENDBRANCH   2  10
TORSDOF 6
ENDMDL
MODEL 7
REMARK VINA RESULT:    -5.132      2.476      4.614
REMARK INTER + INTRA:          -8.195
REMARK INTER:                  -6.922
REMARK INTRA:                  -1.274
REMARK UNBOUND:                -1.264
REMARK SMILES CC(=O)CCC=C(C)CCC=C(C)C
REMARK SMILES IDX 7 1 6 2 8 3 9 4 10 5 11 6 13 7 12 8 14 9 5 10 4 11 2 12 3 13
REMARK SMILES IDX 1 14
REMARK H PARENT
REMARK Flexibility Score: inf
ROOT
ATOM      1  C   UNL     1     116.752 176.004 126.861  1.00  0.00    -0.077 C 
ATOM      2  C   UNL     1     117.033 176.787 127.927  1.00  0.00    -0.028 C 
ATOM      3  C   UNL     1     117.434 174.673 126.646  1.00  0.00     0.039 C 
ENDROOT
BRANCH   1   4
ATOM      4  C   UNL     1     115.711 176.467 125.865  1.00  0.00     0.034 C 
BRANCH   4   5
ATOM      5  C   UNL     1     116.095 177.825 125.268  1.00  0.00     0.032 C 
BRANCH   5   6
ATOM      6  C   UNL     1     117.286 177.689 124.352  1.00  0.00    -0.028 C 
ATOM      7  C   UNL     1     119.534 178.162 123.479  1.00  0.00     0.039 C 
ATOM      8  C   UNL     1     118.444 178.372 124.498  1.00  0.00    -0.080 C 
ATOM      9  C   UNL     1     118.675 179.318 125.653  1.00  0.00     0.039 C 
ENDBRANCH   5   6
ENDBRANCH   4   5
ENDBRANCH   1   4
BRANCH   2  10
ATOM     10  C   UNL     1     118.079 176.474 128.970  1.00  0.00     0.035 C 
BRANCH  10  11
ATOM     11  C   UNL     1     119.154 177.566 129.043  1.00  0.00     0.079 C 
BRANCH  11  12
ATOM     12  C   UNL     1     120.368 177.205 128.225  1.00  0.00     0.130 C 
ATOM     13  O   UNL     1     120.478 176.075 127.775  1.00  0.00    -0.300 OA
ATOM     14  C   UNL     1     121.448 178.209 127.949  1.00  0.00     0.087 C 
ENDBRANCH  11  12
ENDBRANCH  10  11
ENDBRANCH   2  10
TORSDOF 6
ENDMDL
MODEL 8
REMARK VINA RESULT:    -5.109      1.814      2.674
REMARK INTER + INTRA:          -8.165
REMARK INTER:                  -7.145
REMARK INTRA:                  -1.020
REMARK UNBOUND:                -1.264
REMARK SMILES CC(=O)CCC=C(C)CCC=C(C)C
REMARK SMILES IDX 7 1 6 2 8 3 9 4 10 5 11 6 13 7 12 8 14 9 5 10 4 11 2 12 3 13
REMARK SMILES IDX 1 14
REMARK H PARENT
REMARK Flexibility Score: inf
ROOT
ATOM      1  C   UNL     1     117.512 176.038 128.784  1.00  0.00    -0.077 C 
ATOM      2  C   UNL     1     117.481 176.083 127.432  1.00  0.00    -0.028 C 
ATOM      3  C   UNL     1     116.315 175.605 129.596  1.00  0.00     0.039 C 
ENDROOT
BRANCH   1   4
ATOM      4  C   UNL     1     118.789 176.416 129.501  1.00  0.00     0.034 C 
BRANCH   4   5
ATOM      5  C   UNL     1     119.205 177.850 129.152  1.00  0.00     0.032 C 
BRANCH   5   6
ATOM      6  C   UNL     1     120.582 177.872 128.538  1.00  0.00    -0.028 C 
ATOM      7  C   UNL     1     122.269 178.178 126.778  1.00  0.00     0.039 C 
ATOM      8  C   UNL     1     120.846 178.245 127.266  1.00  0.00    -0.080 C 
ATOM      9  C   UNL     1     119.761 178.736 126.336  1.00  0.00     0.039 C 
ENDBRANCH   5   6
ENDBRANCH   4   5
ENDBRANCH   1   4
BRANCH   2  10
ATOM     10  C   UNL     1     116.264 175.779 126.591  1.00  0.00     0.035 C 
BRANCH  10  11
ATOM     11  C   UNL     1     115.368 177.013 126.423  1.00  0.00     0.079 C 
BRANCH  11  12
ATOM     12  C   UNL     1     116.085 178.128 125.706  1.00  0.00     0.130 C 
ATOM     13  O   UNL     1     116.556 177.926 124.597  1.00  0.00    -0.300 OA
ATOM     14  C   UNL     1     116.235 179.485 126.327  1.00  0.00     0.087 C 
ENDBRANCH  11  12
ENDBRANCH  10  11
ENDBRANCH   2  10
TORSDOF 6
ENDMDL
MODEL 9
REMARK VINA RESULT:    -5.081      2.926      3.911
REMARK INTER + INTRA:          -8.127
REMARK INTER:                  -7.030
REMARK INTRA:                  -1.096
REMARK UNBOUND:                -1.264
REMARK SMILES CC(=O)CCC=C(C)CCC=C(C)C
REMARK SMILES IDX 7 1 6 2 8 3 9 4 10 5 11 6 13 7 12 8 14 9 5 10 4 11 2 12 3 13
REMARK SMILES IDX 1 14
REMARK H PARENT
REMARK Flexibility Score: inf
ROOT
ATOM      1  C   UNL     1     119.159 177.933 125.837  1.00  0.00    -0.077 C 
ATOM      2  C   UNL     1     118.273 177.168 126.514  1.00  0.00    -0.028 C 
ATOM      3  C   UNL     1     119.141 178.032 124.330  1.00  0.00     0.039 C 
ENDROOT
BRANCH   1   4
ATOM      4  C   UNL     1     120.187 178.727 126.613  1.00  0.00     0.034 C 
BRANCH   4   5
ATOM      5  C   UNL     1     121.286 177.809 127.157  1.00  0.00     0.032 C 
BRANCH   5   6
ATOM      6  C   UNL     1     122.532 177.909 126.313  1.00  0.00    -0.028 C 
ATOM      7  C   UNL     1     124.221 177.191 124.677  1.00  0.00     0.039 C 
ATOM      8  C   UNL     1     122.929 176.973 125.422  1.00  0.00    -0.080 C 
ATOM      9  C   UNL     1     122.110 175.734 125.145  1.00  0.00     0.039 C 
ENDBRANCH   5   6
ENDBRANCH   4   5
ENDBRANCH   1   4
BRANCH   2  10
ATOM     10  C   UNL     1     117.228 176.290 125.869  1.00  0.00     0.035 C 
BRANCH  10  11
ATOM     11  C   UNL     1     115.807 176.790 126.161  1.00  0.00     0.079 C 
BRANCH  11  12
ATOM     12  C   UNL     1     115.451 177.981 125.310  1.00  0.00     0.130 C 
ATOM     13  O   UNL     1     115.324 179.079 125.831  1.00  0.00    -0.300 OA
ATOM     14  C   UNL     1     115.248 177.848 123.830  1.00  0.00     0.087 C 
ENDBRANCH  11  12
ENDBRANCH  10  11
ENDBRANCH   2  10
TORSDOF 6
ENDMDL
