MODEL 1
REMARK VINA RESULT:    -4.228      0.000      0.000
REMARK INTER + INTRA:          -7.520
REMARK INTER:                  -6.206
REMARK INTRA:                  -1.315
REMARK UNBOUND:                -1.315
REMARK SMILES CCCOC(=O)c1ccccc1C(=O)OCCC
REMARK SMILES IDX 7 1 8 2 9 3 10 4 11 5 12 6 5 7 6 8 4 9 3 10 2 11 1 12 13 13
REMARK SMILES IDX 14 14 15 15 16 16 17 17 18 18
REMARK H PARENT
REMARK Flexibility Score: inf
ROOT
ATOM      1  C   UNL     1      -5.449  -1.704   0.642  1.00  0.00     0.074 A 
ATOM      2  C   UNL     1      -4.633  -0.591   0.374  1.00  0.00     0.016 A 
ATOM      3  C   UNL     1      -3.453  -0.382   1.087  1.00  0.00     0.001 A 
ATOM      4  C   UNL     1      -3.068  -1.279   2.080  1.00  0.00     0.001 A 
ATOM      5  C   UNL     1      -3.851  -2.403   2.349  1.00  0.00     0.016 A 
ATOM      6  C   UNL     1      -5.033  -2.646   1.625  1.00  0.00     0.074 A 
ENDROOT
BRANCH   1   7
ATOM      7  C   UNL     1      -6.742  -1.804  -0.072  1.00  0.00     0.339 C 
ATOM      8  O   UNL     1      -7.756  -1.184   0.352  1.00  0.00    -0.246 OA
BRANCH   7   9
ATOM      9  O   UNL     1      -6.818  -2.543  -1.256  1.00  0.00    -0.462 OA
BRANCH   9  10
ATOM     10  C   UNL     1      -7.612  -3.719  -1.383  1.00  0.00     0.233 C 
BRANCH  10  11
ATOM     11  C   UNL     1      -6.726  -4.913  -1.739  1.00  0.00     0.038 C 
ATOM     12  C   UNL     1      -6.242  -4.848  -3.186  1.00  0.00     0.007 C 
ENDBRANCH  10  11
ENDBRANCH   9  10
ENDBRANCH   7   9
ENDBRANCH   1   7
BRANCH   6  13
ATOM     13  C   UNL     1      -5.754  -3.912   1.883  1.00  0.00     0.339 C 
ATOM     14  O   UNL     1      -5.262  -5.011   1.508  1.00  0.00    -0.246 OA
BRANCH  13  15
ATOM     15  O   UNL     1      -6.955  -3.886   2.603  1.00  0.00    -0.462 OA
BRANCH  15  16
ATOM     16  C   UNL     1      -7.097  -3.253   3.873  1.00  0.00     0.233 C 
BRANCH  16  17
ATOM     17  C   UNL     1      -7.962  -1.995   3.751  1.00  0.00     0.038 C 
ATOM     18  C   UNL     1      -7.114  -0.730   3.851  1.00  0.00     0.007 C 
ENDBRANCH  16  17
ENDBRANCH  15  16
ENDBRANCH  13  15
ENDBRANCH   6  13
TORSDOF 8
ENDMDL
MODEL 2
REMARK VINA RESULT:    -4.209      1.654      4.830
REMARK INTER + INTRA:          -7.493
REMARK INTER:                  -6.307
REMARK INTRA:                  -1.185
REMARK UNBOUND:                -1.315
REMARK SMILES CCCOC(=O)c1ccccc1C(=O)OCCC
REMARK SMILES IDX 7 1 8 2 9 3 10 4 11 5 12 6 5 7 6 8 4 9 3 10 2 11 1 12 13 13
REMARK SMILES IDX 14 14 15 15 16 16 17 17 18 18
REMARK H PARENT
REMARK Flexibility Score: inf
ROOT
ATOM      1  C   UNL     1      -6.582  -4.216   0.278  1.00  0.00     0.074 A 
ATOM      2  C   UNL     1      -6.302  -5.536  -0.121  1.00  0.00     0.016 A 
ATOM      3  C   UNL     1      -6.273  -5.882  -1.472  1.00  0.00     0.001 A 
ATOM      4  C   UNL     1      -6.524  -4.918  -2.446  1.00  0.00     0.001 A 
ATOM      5  C   UNL     1      -6.781  -3.598  -2.074  1.00  0.00     0.016 A 
ATOM      6  C   UNL     1      -6.792  -3.222  -0.718  1.00  0.00     0.074 A 
ENDROOT
BRANCH   1   7
ATOM      7  C   UNL     1      -6.709  -3.943   1.728  1.00  0.00     0.339 C 
ATOM      8  O   UNL     1      -7.815  -4.100   2.313  1.00  0.00    -0.246 OA
BRANCH   7   9
ATOM      9  O   UNL     1      -5.577  -3.567   2.458  1.00  0.00    -0.462 OA
BRANCH   9  10
ATOM     10  C   UNL     1      -4.793  -4.496   3.200  1.00  0.00     0.233 C 
BRANCH  10  11
ATOM     11  C   UNL     1      -3.499  -4.808   2.449  1.00  0.00     0.038 C 
ATOM     12  C   UNL     1      -3.434  -6.272   2.018  1.00  0.00     0.007 C 
ENDBRANCH  10  11
ENDBRANCH   9  10
ENDBRANCH   7   9
ENDBRANCH   1   7
BRANCH   6  13
ATOM     13  C   UNL     1      -6.961  -1.786  -0.400  1.00  0.00     0.339 C 
ATOM     14  O   UNL     1      -8.093  -1.339  -0.068  1.00  0.00    -0.246 OA
BRANCH  13  15
ATOM     15  O   UNL     1      -5.843  -0.942  -0.410  1.00  0.00    -0.462 OA
BRANCH  15  16
ATOM     16  C   UNL     1      -5.163  -0.526   0.773  1.00  0.00     0.233 C 
BRANCH  16  17
ATOM     17  C   UNL     1      -3.659  -0.779   0.643  1.00  0.00     0.038 C 
ATOM     18  C   UNL     1      -3.036  -1.112   1.996  1.00  0.00     0.007 C 
ENDBRANCH  16  17
ENDBRANCH  15  16
ENDBRANCH  13  15
ENDBRANCH   6  13
TORSDOF 8
ENDMDL
MODEL 3
REMARK VINA RESULT:    -4.208      1.670      4.365
REMARK INTER + INTRA:          -7.490
REMARK INTER:                  -6.314
REMARK INTRA:                  -1.176
REMARK UNBOUND:                -1.315
REMARK SMILES CCCOC(=O)c1ccccc1C(=O)OCCC
REMARK SMILES IDX 7 1 8 2 9 3 10 4 11 5 12 6 5 7 6 8 4 9 3 10 2 11 1 12 13 13
REMARK SMILES IDX 14 14 15 15 16 16 17 17 18 18
REMARK H PARENT
REMARK Flexibility Score: inf
ROOT
ATOM      1  C   UNL     1      -6.789  -3.216  -0.724  1.00  0.00     0.074 A 
ATOM      2  C   UNL     1      -6.793  -3.593  -2.079  1.00  0.00     0.016 A 
ATOM      3  C   UNL     1      -6.543  -4.912  -2.454  1.00  0.00     0.001 A 
ATOM      4  C   UNL     1      -6.283  -5.877  -1.484  1.00  0.00     0.001 A 
ATOM      5  C   UNL     1      -6.296  -5.532  -0.132  1.00  0.00     0.016 A 
ATOM      6  C   UNL     1      -6.569  -4.211   0.270  1.00  0.00     0.074 A 
ENDROOT
BRANCH   1   7
ATOM      7  C   UNL     1      -6.949  -1.779  -0.403  1.00  0.00     0.339 C 
ATOM      8  O   UNL     1      -8.065  -1.330  -0.023  1.00  0.00    -0.246 OA
BRANCH   7   9
ATOM      9  O   UNL     1      -5.838  -0.933  -0.467  1.00  0.00    -0.462 OA
BRANCH   9  10
ATOM     10  C   UNL     1      -5.161  -0.458   0.693  1.00  0.00     0.233 C 
BRANCH  10  11
ATOM     11  C   UNL     1      -3.663  -0.733   0.573  1.00  0.00     0.038 C 
ATOM     12  C   UNL     1      -3.032  -1.034   1.931  1.00  0.00     0.007 C 
ENDBRANCH  10  11
ENDBRANCH   9  10
ENDBRANCH   7   9
ENDBRANCH   1   7
BRANCH   6  13
ATOM     13  C   UNL     1      -6.676  -3.938   1.721  1.00  0.00     0.339 C 
ATOM     14  O   UNL     1      -7.754  -4.173   2.333  1.00  0.00    -0.246 OA
BRANCH  13  15
ATOM     15  O   UNL     1      -5.554  -3.476   2.420  1.00  0.00    -0.462 OA
BRANCH  15  16
ATOM     16  C   UNL     1      -4.732  -4.316   3.229  1.00  0.00     0.233 C 
BRANCH  16  17
ATOM     17  C   UNL     1      -3.462  -4.711   2.471  1.00  0.00     0.038 C 
ATOM     18  C   UNL     1      -3.467  -6.197   2.122  1.00  0.00     0.007 C 
ENDBRANCH  16  17
ENDBRANCH  15  16
ENDBRANCH  13  15
ENDBRANCH   6  13
TORSDOF 8
ENDMDL
MODEL 4
REMARK VINA RESULT:    -4.173      1.412      2.587
REMARK INTER + INTRA:          -7.440
REMARK INTER:                  -6.530
REMARK INTRA:                  -0.910
REMARK UNBOUND:                -1.315
REMARK SMILES CCCOC(=O)c1ccccc1C(=O)OCCC
REMARK SMILES IDX 7 1 8 2 9 3 10 4 11 5 12 6 5 7 6 8 4 9 3 10 2 11 1 12 13 13
REMARK SMILES IDX 14 14 15 15 16 16 17 17 18 18
REMARK H PARENT
REMARK Flexibility Score: inf
ROOT
ATOM      1  C   UNL     1      -5.397  -1.760   0.691  1.00  0.00     0.074 A 
ATOM      2  C   UNL     1      -4.613  -0.639   0.366  1.00  0.00     0.016 A 
ATOM      3  C   UNL     1      -3.438  -0.363   1.065  1.00  0.00     0.001 A 
ATOM      4  C   UNL     1      -3.027  -1.199   2.100  1.00  0.00     0.001 A 
ATOM      5  C   UNL     1      -3.778  -2.330   2.426  1.00  0.00     0.016 A 
ATOM      6  C   UNL     1      -4.954  -2.640   1.718  1.00  0.00     0.074 A 
ENDROOT
BRANCH   1   7
ATOM      7  C   UNL     1      -6.688  -1.931  -0.014  1.00  0.00     0.339 C 
ATOM      8  O   UNL     1      -7.753  -1.473   0.483  1.00  0.00    -0.246 OA
BRANCH   7   9
ATOM      9  O   UNL     1      -6.710  -2.552  -1.266  1.00  0.00    -0.462 OA
BRANCH   9  10
ATOM     10  C   UNL     1      -6.984  -3.939  -1.435  1.00  0.00     0.233 C 
BRANCH  10  11
ATOM     11  C   UNL     1      -6.445  -4.419  -2.782  1.00  0.00     0.038 C 
ATOM     12  C   UNL     1      -6.200  -5.927  -2.789  1.00  0.00     0.007 C 
ENDBRANCH  10  11
ENDBRANCH   9  10
ENDBRANCH   7   9
ENDBRANCH   1   7
BRANCH   6  13
ATOM     13  C   UNL     1      -5.639  -3.912   2.040  1.00  0.00     0.339 C 
ATOM     14  O   UNL     1      -6.601  -3.925   2.857  1.00  0.00    -0.246 OA
BRANCH  13  15
ATOM     15  O   UNL     1      -5.254  -5.088   1.386  1.00  0.00    -0.462 OA
BRANCH  15  16
ATOM     16  C   UNL     1      -4.600  -6.174   2.041  1.00  0.00     0.233 C 
BRANCH  16  17
ATOM     17  C   UNL     1      -3.104  -5.884   2.193  1.00  0.00     0.038 C 
ATOM     18  C   UNL     1      -2.671  -5.968   3.654  1.00  0.00     0.007 C 
ENDBRANCH  16  17
ENDBRANCH  15  16
ENDBRANCH  13  15
ENDBRANCH   6  13
TORSDOF 8
ENDMDL
MODEL 5
REMARK VINA RESULT:    -4.119      1.400      4.397
REMARK INTER + INTRA:          -7.360
REMARK INTER:                  -6.469
REMARK INTRA:                  -0.891
REMARK UNBOUND:                -1.315
REMARK SMILES CCCOC(=O)c1ccccc1C(=O)OCCC
REMARK SMILES IDX 7 1 8 2 9 3 10 4 11 5 12 6 5 7 6 8 4 9 3 10 2 11 1 12 13 13
REMARK SMILES IDX 14 14 15 15 16 16 17 17 18 18
REMARK H PARENT
REMARK Flexibility Score: inf
ROOT
ATOM      1  C   UNL     1      -5.125  -2.676   1.675  1.00  0.00     0.074 A 
ATOM      2  C   UNL     1      -3.944  -2.418   2.393  1.00  0.00     0.016 A 
ATOM      3  C   UNL     1      -3.138  -1.326   2.073  1.00  0.00     0.001 A 
ATOM      4  C   UNL     1      -3.496  -0.475   1.031  1.00  0.00     0.001 A 
ATOM      5  C   UNL     1      -4.675  -0.698   0.319  1.00  0.00     0.016 A 
ATOM      6  C   UNL     1      -5.516  -1.780   0.641  1.00  0.00     0.074 A 
ENDROOT
BRANCH   1   7
ATOM      7  C   UNL     1      -5.873  -3.914   1.992  1.00  0.00     0.339 C 
ATOM      8  O   UNL     1      -6.848  -3.884   2.793  1.00  0.00    -0.246 OA
BRANCH   7   9
ATOM      9  O   UNL     1      -5.530  -5.108   1.351  1.00  0.00    -0.462 OA
BRANCH   9  10
ATOM     10  C   UNL     1      -5.137  -6.280   2.060  1.00  0.00     0.233 C 
BRANCH  10  11
ATOM     11  C   UNL     1      -3.817  -6.810   1.503  1.00  0.00     0.038 C 
ATOM     12  C   UNL     1      -2.619  -6.034   2.048  1.00  0.00     0.007 C 
ENDBRANCH  10  11
ENDBRANCH   9  10
ENDBRANCH   7   9
ENDBRANCH   1   7
BRANCH   6  13
ATOM     13  C   UNL     1      -6.804  -1.893  -0.079  1.00  0.00     0.339 C 
ATOM     14  O   UNL     1      -7.845  -1.363   0.396  1.00  0.00    -0.246 OA
BRANCH  13  15
ATOM     15  O   UNL     1      -6.845  -2.538  -1.321  1.00  0.00    -0.462 OA
BRANCH  15  16
ATOM     16  C   UNL     1      -7.144  -3.924  -1.478  1.00  0.00     0.233 C 
BRANCH  16  17
ATOM     17  C   UNL     1      -6.460  -4.481  -2.729  1.00  0.00     0.038 C 
ATOM     18  C   UNL     1      -6.185  -5.976  -2.589  1.00  0.00     0.007 C 
ENDBRANCH  16  17
ENDBRANCH  15  16
ENDBRANCH  13  15
ENDBRANCH   6  13
TORSDOF 8
ENDMDL
MODEL 6
REMARK VINA RESULT:    -4.079      0.538      4.770
REMARK INTER + INTRA:          -7.302
REMARK INTER:                  -6.128
REMARK INTRA:                  -1.174
REMARK UNBOUND:                -1.315
REMARK SMILES CCCOC(=O)c1ccccc1C(=O)OCCC
REMARK SMILES IDX 7 1 8 2 9 3 10 4 11 5 12 6 5 7 6 8 4 9 3 10 2 11 1 12 13 13
REMARK SMILES IDX 14 14 15 15 16 16 17 17 18 18
REMARK H PARENT
REMARK Flexibility Score: inf
ROOT
ATOM      1  C   UNL     1      -4.942  -2.623   1.751  1.00  0.00     0.074 A 
ATOM      2  C   UNL     1      -3.767  -2.326   2.464  1.00  0.00     0.016 A 
ATOM      3  C   UNL     1      -3.003  -1.204   2.144  1.00  0.00     0.001 A 
ATOM      4  C   UNL     1      -3.397  -0.362   1.108  1.00  0.00     0.001 A 
ATOM      5  C   UNL     1      -4.572  -0.624   0.401  1.00  0.00     0.016 A 
ATOM      6  C   UNL     1      -5.371  -1.737   0.723  1.00  0.00     0.074 A 
ENDROOT
BRANCH   1   7
ATOM      7  C   UNL     1      -5.644  -3.888   2.067  1.00  0.00     0.339 C 
ATOM      8  O   UNL     1      -5.528  -4.890   1.309  1.00  0.00    -0.246 OA
BRANCH   7   9
ATOM      9  O   UNL     1      -6.389  -3.985   3.246  1.00  0.00    -0.462 OA
BRANCH   9  10
ATOM     10  C   UNL     1      -7.468  -3.107   3.552  1.00  0.00     0.233 C 
BRANCH  10  11
ATOM     11  C   UNL     1      -7.007  -2.033   4.536  1.00  0.00     0.038 C 
ATOM     12  C   UNL     1      -7.091  -0.634   3.929  1.00  0.00     0.007 C 
ENDBRANCH  10  11
ENDBRANCH   9  10
ENDBRANCH   7   9
ENDBRANCH   1   7
BRANCH   6  13
ATOM     13  C   UNL     1      -6.658  -1.893   0.009  1.00  0.00     0.339 C 
ATOM     14  O   UNL     1      -7.725  -1.458   0.523  1.00  0.00    -0.246 OA
BRANCH  13  15
ATOM     15  O   UNL     1      -6.673  -2.471  -1.266  1.00  0.00    -0.462 OA
BRANCH  15  16
ATOM     16  C   UNL     1      -7.214  -3.763  -1.536  1.00  0.00     0.233 C 
BRANCH  16  17
ATOM     17  C   UNL     1      -6.493  -4.407  -2.723  1.00  0.00     0.038 C 
ATOM     18  C   UNL     1      -6.269  -5.899  -2.490  1.00  0.00     0.007 C 
ENDBRANCH  16  17
ENDBRANCH  15  16
ENDBRANCH  13  15
ENDBRANCH   6  13
TORSDOF 8
ENDMDL
MODEL 7
REMARK VINA RESULT:    -4.001      9.250     11.121
REMARK INTER + INTRA:          -7.187
REMARK INTER:                  -6.028
REMARK INTRA:                  -1.159
REMARK UNBOUND:                -1.315
REMARK SMILES CCCOC(=O)c1ccccc1C(=O)OCCC
REMARK SMILES IDX 7 1 8 2 9 3 10 4 11 5 12 6 5 7 6 8 4 9 3 10 2 11 1 12 13 13
REMARK SMILES IDX 14 14 15 15 16 16 17 17 18 18
REMARK H PARENT
REMARK Flexibility Score: inf
ROOT
ATOM      1  C   UNL     1       1.872  -3.263  -4.623  1.00  0.00     0.074 A 
ATOM      2  C   UNL     1       0.792  -3.743  -3.860  1.00  0.00     0.016 A 
ATOM      3  C   UNL     1       0.968  -4.113  -2.527  1.00  0.00     0.001 A 
ATOM      4  C   UNL     1       2.224  -4.011  -1.934  1.00  0.00     0.001 A 
ATOM      5  C   UNL     1       3.306  -3.517  -2.664  1.00  0.00     0.016 A 
ATOM      6  C   UNL     1       3.145  -3.116  -4.004  1.00  0.00     0.074 A 
ENDROOT
BRANCH   1   7
ATOM      7  C   UNL     1       1.640  -2.997  -6.061  1.00  0.00     0.339 C 
ATOM      8  O   UNL     1       1.506  -3.952  -6.874  1.00  0.00    -0.246 OA
BRANCH   7   9
ATOM      9  O   UNL     1       1.511  -1.676  -6.503  1.00  0.00    -0.462 OA
BRANCH   9  10
ATOM     10  C   UNL     1       0.568  -0.765  -5.947  1.00  0.00     0.233 C 
BRANCH  10  11
ATOM     11  C   UNL     1       1.295   0.418  -5.310  1.00  0.00     0.038 C 
ATOM     12  C   UNL     1       2.188   1.142  -6.315  1.00  0.00     0.007 C 
ENDBRANCH  10  11
ENDBRANCH   9  10
ENDBRANCH   7   9
ENDBRANCH   1   7
BRANCH   6  13
ATOM     13  C   UNL     1       4.305  -2.497  -4.684  1.00  0.00     0.339 C 
ATOM     14  O   UNL     1       5.160  -3.222  -5.264  1.00  0.00    -0.246 OA
BRANCH  13  15
ATOM     15  O   UNL     1       4.412  -1.102  -4.733  1.00  0.00    -0.462 OA
BRANCH  15  16
ATOM     16  C   UNL     1       4.531  -0.282  -3.572  1.00  0.00     0.233 C 
BRANCH  16  17
ATOM     17  C   UNL     1       5.964  -0.323  -3.034  1.00  0.00     0.038 C 
ATOM     18  C   UNL     1       6.035  -1.076  -1.708  1.00  0.00     0.007 C 
ENDBRANCH  16  17
ENDBRANCH  15  16
ENDBRANCH  13  15
ENDBRANCH   6  13
TORSDOF 8
ENDMDL
MODEL 8
REMARK VINA RESULT:    -3.977      8.871     11.142
REMARK INTER + INTRA:          -7.152
REMARK INTER:                  -5.495
REMARK INTRA:                  -1.657
REMARK UNBOUND:                -1.315
REMARK SMILES CCCOC(=O)c1ccccc1C(=O)OCCC
REMARK SMILES IDX 7 1 8 2 9 3 10 4 11 5 12 6 5 7 6 8 4 9 3 10 2 11 1 12 13 13
REMARK SMILES IDX 14 14 15 15 16 16 17 17 18 18
REMARK H PARENT
REMARK Flexibility Score: inf
ROOT
ATOM      1  C   UNL     1       0.764  -3.519  -5.098  1.00  0.00     0.074 A 
ATOM      2  C   UNL     1       0.979  -3.411  -3.712  1.00  0.00     0.016 A 
ATOM      3  C   UNL     1       1.113  -4.551  -2.920  1.00  0.00     0.001 A 
ATOM      4  C   UNL     1       1.033  -5.816  -3.496  1.00  0.00     0.001 A 
ATOM      5  C   UNL     1       0.842  -5.948  -4.872  1.00  0.00     0.016 A 
ATOM      6  C   UNL     1       0.728  -4.811  -5.694  1.00  0.00     0.074 A 
ENDROOT
BRANCH   1   7
ATOM      7  C   UNL     1       0.518  -2.274  -5.860  1.00  0.00     0.339 C 
ATOM      8  O   UNL     1      -0.638  -1.768  -5.902  1.00  0.00    -0.246 OA
BRANCH   7   9
ATOM      9  O   UNL     1       1.589  -1.627  -6.484  1.00  0.00    -0.462 OA
BRANCH   9  10
ATOM     10  C   UNL     1       2.181  -0.440  -5.967  1.00  0.00     0.233 C 
BRANCH  10  11
ATOM     11  C   UNL     1       3.361  -0.794  -5.063  1.00  0.00     0.038 C 
ATOM     12  C   UNL     1       3.116  -0.367  -3.617  1.00  0.00     0.007 C 
ENDBRANCH  10  11
ENDBRANCH   9  10
ENDBRANCH   7   9
ENDBRANCH   1   7
BRANCH   6  13
ATOM     13  C   UNL     1       0.639  -5.021  -7.156  1.00  0.00     0.339 C 
ATOM     14  O   UNL     1      -0.444  -5.406  -7.677  1.00  0.00    -0.246 OA
BRANCH  13  15
ATOM     15  O   UNL     1       1.746  -4.730  -7.963  1.00  0.00    -0.462 OA
BRANCH  15  16
ATOM     16  C   UNL     1       3.063  -5.208  -7.692  1.00  0.00     0.233 C 
BRANCH  16  17
ATOM     17  C   UNL     1       3.942  -4.076  -7.154  1.00  0.00     0.038 C 
ATOM     18  C   UNL     1       4.377  -4.350  -5.717  1.00  0.00     0.007 C 
ENDBRANCH  16  17
ENDBRANCH  15  16
ENDBRANCH  13  15
ENDBRANCH   6  13
TORSDOF 8
ENDMDL
MODEL 9
REMARK VINA RESULT:    -3.956      1.792      2.335
REMARK INTER + INTRA:          -7.121
REMARK INTER:                  -5.885
REMARK INTRA:                  -1.235
REMARK UNBOUND:                -1.315
REMARK SMILES CCCOC(=O)c1ccccc1C(=O)OCCC
REMARK SMILES IDX 7 1 8 2 9 3 10 4 11 5 12 6 5 7 6 8 4 9 3 10 2 11 1 12 13 13
REMARK SMILES IDX 14 14 15 15 16 16 17 17 18 18
REMARK H PARENT
REMARK Flexibility Score: inf
ROOT
ATOM      1  C   UNL     1      -5.490  -2.116   1.693  1.00  0.00     0.074 A 
ATOM      2  C   UNL     1      -5.674  -0.909   0.995  1.00  0.00     0.016 A 
ATOM      3  C   UNL     1      -4.604  -0.044   0.771  1.00  0.00     0.001 A 
ATOM      4  C   UNL     1      -3.333  -0.368   1.240  1.00  0.00     0.001 A 
ATOM      5  C   UNL     1      -3.122  -1.571   1.915  1.00  0.00     0.016 A 
ATOM      6  C   UNL     1      -4.183  -2.470   2.131  1.00  0.00     0.074 A 
ENDROOT
BRANCH   1   7
ATOM      7  C   UNL     1      -6.688  -2.933   1.993  1.00  0.00     0.339 C 
ATOM      8  O   UNL     1      -7.173  -2.951   3.158  1.00  0.00    -0.246 OA
BRANCH   7   9
ATOM      9  O   UNL     1      -7.316  -3.638   0.962  1.00  0.00    -0.462 OA
BRANCH   9  10
ATOM     10  C   UNL     1      -6.592  -4.314  -0.062  1.00  0.00     0.233 C 
BRANCH  10  11
ATOM     11  C   UNL     1      -6.854  -3.651  -1.414  1.00  0.00     0.038 C 
ATOM     12  C   UNL     1      -6.473  -4.565  -2.577  1.00  0.00     0.007 C 
ENDBRANCH  10  11
ENDBRANCH   9  10
ENDBRANCH   7   9
ENDBRANCH   1   7
BRANCH   6  13
ATOM     13  C   UNL     1      -3.867  -3.775   2.754  1.00  0.00     0.339 C 
ATOM     14  O   UNL     1      -3.887  -4.829   2.062  1.00  0.00    -0.246 OA
BRANCH  13  15
ATOM     15  O   UNL     1      -3.485  -3.822   4.100  1.00  0.00    -0.462 OA
BRANCH  15  16
ATOM     16  C   UNL     1      -4.317  -3.371   5.168  1.00  0.00     0.233 C 
BRANCH  16  17
ATOM     17  C   UNL     1      -3.745  -2.094   5.790  1.00  0.00     0.038 C 
ATOM     18  C   UNL     1      -4.528  -0.863   5.340  1.00  0.00     0.007 C 
ENDBRANCH  16  17
ENDBRANCH  15  16
ENDBRANCH  13  15
ENDBRANCH   6  13
TORSDOF 8
ENDMDL
