MODEL 1
REMARK VINA RESULT:    -3.886      0.000      0.000
REMARK INTER + INTRA:          -4.761
REMARK INTER:                  -4.681
REMARK INTRA:                  -0.080
REMARK UNBOUND:                -0.080
REMARK SMILES CC[C@H](C)[C@H]([NH3+])C(=O)[O-]
REMARK SMILES IDX 3 1 4 2 5 3 6 4 7 8 8 9 9 10 2 11 1 12
REMARK H PARENT 6 5 6 6 6 7
REMARK Flexibility Score: inf
ROOT
ATOM      1  C   UNL     1     134.326 132.382 136.491  1.00  0.00     0.050 C 
ATOM      2  C   UNL     1     133.949 130.987 137.036  1.00  0.00     0.014 C 
ENDROOT
BRANCH   1   3
ATOM      3  C   UNL     1     135.658 132.306 135.675  1.00  0.00     0.230 C 
BRANCH   3   4
ATOM      4  N   UNL     1     136.673 133.248 136.175  1.00  0.00    -0.350 N 
ATOM      5  H   UNL     1     137.070 132.905 137.078  1.00  0.00     0.345 HD
ATOM      6  H   UNL     1     136.263 134.201 136.305  1.00  0.00     0.345 HD
ATOM      7  H   UNL     1     137.471 133.312 135.499  1.00  0.00     0.345 HD
ENDBRANCH   3   4
BRANCH   3   8
ATOM      8  C   UNL     1     135.411 132.574 134.210  1.00  0.00     0.099 C 
ATOM      9  O   UNL     1     134.336 132.206 133.666  1.00  0.00    -0.544 OA
ATOM     10  O   UNL     1     136.374 133.229 133.451  1.00  0.00    -0.544 OA
ENDBRANCH   3   8
ENDBRANCH   1   3
BRANCH   1  11
ATOM     11  C   UNL     1     134.424 133.412 137.648  1.00  0.00     0.006 C 
ATOM     12  C   UNL     1     133.072 134.000 138.061  1.00  0.00     0.004 C 
ENDBRANCH   1  11
TORSDOF 4
ENDMDL
MODEL 2
REMARK VINA RESULT:    -3.826     14.209     15.199
REMARK INTER + INTRA:          -4.689
REMARK INTER:                  -4.603
REMARK INTRA:                  -0.086
REMARK UNBOUND:                -0.080
REMARK SMILES CC[C@H](C)[C@H]([NH3+])C(=O)[O-]
REMARK SMILES IDX 3 1 4 2 5 3 6 4 7 8 8 9 9 10 2 11 1 12
REMARK H PARENT 6 5 6 6 6 7
REMARK Flexibility Score: inf
ROOT
ATOM      1  C   UNL     1     120.533 131.240 136.785  1.00  0.00     0.050 C 
ATOM      2  C   UNL     1     121.933 131.660 137.285  1.00  0.00     0.014 C 
ENDROOT
BRANCH   1   3
ATOM      3  C   UNL     1     119.774 132.474 136.194  1.00  0.00     0.230 C 
BRANCH   3   4
ATOM      4  N   UNL     1     118.396 132.576 136.701  1.00  0.00    -0.350 N 
ATOM      5  H   UNL     1     118.215 133.537 137.066  1.00  0.00     0.345 HD
ATOM      6  H   UNL     1     118.224 131.871 137.454  1.00  0.00     0.345 HD
ATOM      7  H   UNL     1     117.712 132.415 135.924  1.00  0.00     0.345 HD
ENDBRANCH   3   4
BRANCH   3   8
ATOM      8  C   UNL     1     119.745 132.418 134.686  1.00  0.00     0.099 C 
ATOM      9  O   UNL     1     119.095 133.273 134.027  1.00  0.00    -0.544 OA
ATOM     10  O   UNL     1     120.438 131.418 134.014  1.00  0.00    -0.544 OA
ENDBRANCH   3   8
ENDBRANCH   1   3
BRANCH   1  11
ATOM     11  C   UNL     1     119.725 130.567 137.926  1.00  0.00     0.006 C 
ATOM     12  C   UNL     1     120.040 129.079 138.105  1.00  0.00     0.004 C 
ENDBRANCH   1  11
TORSDOF 4
ENDMDL
MODEL 3
REMARK VINA RESULT:    -3.665      2.574      3.862
REMARK INTER + INTRA:          -4.495
REMARK INTER:                  -4.402
REMARK INTRA:                  -0.093
REMARK UNBOUND:                -0.080
REMARK SMILES CC[C@H](C)[C@H]([NH3+])C(=O)[O-]
REMARK SMILES IDX 3 1 4 2 5 3 6 4 7 8 8 9 9 10 2 11 1 12
REMARK H PARENT 6 5 6 6 6 7
REMARK Flexibility Score: inf
ROOT
ATOM      1  C   UNL     1     134.990 132.159 135.412  1.00  0.00     0.050 C 
ATOM      2  C   UNL     1     134.313 132.418 134.048  1.00  0.00     0.014 C 
ENDROOT
BRANCH   1   3
ATOM      3  C   UNL     1     134.136 132.777 136.568  1.00  0.00     0.230 C 
BRANCH   3   4
ATOM      4  N   UNL     1     134.946 133.598 137.482  1.00  0.00    -0.350 N 
ATOM      5  H   UNL     1     135.872 133.144 137.651  1.00  0.00     0.345 HD
ATOM      6  H   UNL     1     134.450 133.742 138.391  1.00  0.00     0.345 HD
ATOM      7  H   UNL     1     135.142 134.532 137.052  1.00  0.00     0.345 HD
ENDBRANCH   3   4
BRANCH   3   8
ATOM      8  C   UNL     1     133.436 131.698 137.359  1.00  0.00     0.099 C 
ATOM      9  O   UNL     1     133.869 130.515 137.347  1.00  0.00    -0.544 OA
ATOM     10  O   UNL     1     132.305 132.006 138.106  1.00  0.00    -0.544 OA
ENDBRANCH   3   8
ENDBRANCH   1   3
BRANCH   1  11
ATOM     11  C   UNL     1     136.440 132.712 135.416  1.00  0.00     0.006 C 
ATOM     12  C   UNL     1     136.998 132.979 134.016  1.00  0.00     0.004 C 
ENDBRANCH   1  11
TORSDOF 4
ENDMDL
MODEL 4
REMARK VINA RESULT:    -3.662     13.740     14.702
REMARK INTER + INTRA:          -4.491
REMARK INTER:                  -4.406
REMARK INTRA:                  -0.085
REMARK UNBOUND:                -0.080
REMARK SMILES CC[C@H](C)[C@H]([NH3+])C(=O)[O-]
REMARK SMILES IDX 3 1 4 2 5 3 6 4 7 8 8 9 9 10 2 11 1 12
REMARK H PARENT 6 5 6 6 6 7
REMARK Flexibility Score: inf
ROOT
ATOM      1  C   UNL     1     120.515 131.785 135.640  1.00  0.00     0.050 C 
ATOM      2  C   UNL     1     120.529 131.127 134.243  1.00  0.00     0.014 C 
ENDROOT
BRANCH   1   3
ATOM      3  C   UNL     1     120.483 130.690 136.757  1.00  0.00     0.230 C 
BRANCH   3   4
ATOM      4  N   UNL     1     119.430 130.941 137.753  1.00  0.00    -0.350 N 
ATOM      5  H   UNL     1     118.742 130.155 137.757  1.00  0.00     0.345 HD
ATOM      6  H   UNL     1     118.939 131.842 137.556  1.00  0.00     0.345 HD
ATOM      7  H   UNL     1     119.844 130.984 138.714  1.00  0.00     0.345 HD
ENDBRANCH   3   4
BRANCH   3   8
ATOM      8  C   UNL     1     121.817 130.594 137.458  1.00  0.00     0.099 C 
ATOM      9  O   UNL     1     122.116 129.567 138.124  1.00  0.00    -0.544 OA
ATOM     10  O   UNL     1     122.724 131.643 137.372  1.00  0.00    -0.544 OA
ENDBRANCH   3   8
ENDBRANCH   1   3
BRANCH   1  11
ATOM     11  C   UNL     1     119.321 132.767 135.770  1.00  0.00     0.006 C 
ATOM     12  C   UNL     1     118.891 133.389 134.438  1.00  0.00     0.004 C 
ENDBRANCH   1  11
TORSDOF 4
ENDMDL
MODEL 5
REMARK VINA RESULT:    -3.595     13.752     14.470
REMARK INTER + INTRA:          -4.411
REMARK INTER:                  -4.423
REMARK INTRA:                   0.012
REMARK UNBOUND:                -0.080
REMARK SMILES CC[C@H](C)[C@H]([NH3+])C(=O)[O-]
REMARK SMILES IDX 3 1 4 2 5 3 6 4 7 8 8 9 9 10 2 11 1 12
REMARK H PARENT 6 5 6 6 6 7
REMARK Flexibility Score: inf
ROOT
ATOM      1  C   UNL     1     127.998 119.160 136.500  1.00  0.00     0.050 C 
ATOM      2  C   UNL     1     127.790 118.059 135.436  1.00  0.00     0.014 C 
ENDROOT
BRANCH   1   3
ATOM      3  C   UNL     1     128.139 120.559 135.814  1.00  0.00     0.230 C 
BRANCH   3   4
ATOM      4  N   UNL     1     126.835 121.206 135.594  1.00  0.00    -0.350 N 
ATOM      5  H   UNL     1     126.061 120.541 135.813  1.00  0.00     0.345 HD
ATOM      6  H   UNL     1     126.749 121.541 134.608  1.00  0.00     0.345 HD
ATOM      7  H   UNL     1     126.723 122.022 136.240  1.00  0.00     0.345 HD
ENDBRANCH   3   4
BRANCH   3   8
ATOM      8  C   UNL     1     128.864 120.443 134.495  1.00  0.00     0.099 C 
ATOM      9  O   UNL     1     130.122 120.391 134.460  1.00  0.00    -0.544 OA
ATOM     10  O   UNL     1     128.143 120.396 133.308  1.00  0.00    -0.544 OA
ENDBRANCH   3   8
ENDBRANCH   1   3
BRANCH   1  11
ATOM     11  C   UNL     1     129.227 118.835 137.390  1.00  0.00     0.006 C 
ATOM     12  C   UNL     1     129.792 120.053 138.125  1.00  0.00     0.004 C 
ENDBRANCH   1  11
TORSDOF 4
ENDMDL
MODEL 6
REMARK VINA RESULT:    -3.579     10.167     11.271
REMARK INTER + INTRA:          -4.391
REMARK INTER:                  -4.263
REMARK INTRA:                  -0.128
REMARK UNBOUND:                -0.080
REMARK SMILES CC[C@H](C)[C@H]([NH3+])C(=O)[O-]
REMARK SMILES IDX 3 1 4 2 5 3 6 4 7 8 8 9 9 10 2 11 1 12
REMARK H PARENT 6 5 6 6 6 7
REMARK Flexibility Score: inf
ROOT
ATOM      1  C   UNL     1     132.666 121.123 136.998  1.00  0.00     0.050 C 
ATOM      2  C   UNL     1     134.011 120.543 137.489  1.00  0.00     0.014 C 
ENDROOT
BRANCH   1   3
ATOM      3  C   UNL     1     132.864 122.583 136.472  1.00  0.00     0.230 C 
BRANCH   3   4
ATOM      4  N   UNL     1     132.276 123.586 137.376  1.00  0.00    -0.350 N 
ATOM      5  H   UNL     1     131.237 123.596 137.276  1.00  0.00     0.345 HD
ATOM      6  H   UNL     1     132.662 124.537 137.177  1.00  0.00     0.345 HD
ATOM      7  H   UNL     1     132.481 123.338 138.372  1.00  0.00     0.345 HD
ENDBRANCH   3   4
BRANCH   3   8
ATOM      8  C   UNL     1     132.269 122.747 135.095  1.00  0.00     0.099 C 
ATOM      9  O   UNL     1     131.235 122.107 134.766  1.00  0.00    -0.544 OA
ATOM     10  O   UNL     1     132.862 123.607 134.179  1.00  0.00    -0.544 OA
ENDBRANCH   3   8
ENDBRANCH   1   3
BRANCH   1  11
ATOM     11  C   UNL     1     131.601 121.062 138.125  1.00  0.00     0.006 C 
ATOM     12  C   UNL     1     130.469 120.070 137.845  1.00  0.00     0.004 C 
ENDBRANCH   1  11
TORSDOF 4
ENDMDL
MODEL 7
REMARK VINA RESULT:    -3.546      1.908      2.942
REMARK INTER + INTRA:          -4.352
REMARK INTER:                  -4.201
REMARK INTRA:                  -0.151
REMARK UNBOUND:                -0.080
REMARK SMILES CC[C@H](C)[C@H]([NH3+])C(=O)[O-]
REMARK SMILES IDX 3 1 4 2 5 3 6 4 7 8 8 9 9 10 2 11 1 12
REMARK H PARENT 6 5 6 6 6 7
REMARK Flexibility Score: inf
ROOT
ATOM      1  C   UNL     1     134.681 132.929 136.075  1.00  0.00     0.050 C 
ATOM      2  C   UNL     1     134.416 133.311 137.548  1.00  0.00     0.014 C 
ENDROOT
BRANCH   1   3
ATOM      3  C   UNL     1     133.584 131.937 135.565  1.00  0.00     0.230 C 
BRANCH   3   4
ATOM      4  N   UNL     1     134.012 130.533 135.667  1.00  0.00    -0.350 N 
ATOM      5  H   UNL     1     133.853 130.040 134.760  1.00  0.00     0.345 HD
ATOM      6  H   UNL     1     133.498 130.042 136.433  1.00  0.00     0.345 HD
ATOM      7  H   UNL     1     135.039 130.481 135.862  1.00  0.00     0.345 HD
ENDBRANCH   3   4
BRANCH   3   8
ATOM      8  C   UNL     1     133.205 132.239 134.135  1.00  0.00     0.099 C 
ATOM      9  O   UNL     1     132.206 132.961 133.878  1.00  0.00    -0.544 OA
ATOM     10  O   UNL     1     133.960 131.716 133.092  1.00  0.00    -0.544 OA
ENDBRANCH   3   8
ENDBRANCH   1   3
BRANCH   1  11
ATOM     11  C   UNL     1     136.106 132.337 135.911  1.00  0.00     0.006 C 
ATOM     12  C   UNL     1     136.868 132.897 134.707  1.00  0.00     0.004 C 
ENDBRANCH   1  11
TORSDOF 4
ENDMDL
MODEL 8
REMARK VINA RESULT:    -3.541     13.798     14.722
REMARK INTER + INTRA:          -4.345
REMARK INTER:                  -4.241
REMARK INTRA:                  -0.104
REMARK UNBOUND:                -0.080
REMARK SMILES CC[C@H](C)[C@H]([NH3+])C(=O)[O-]
REMARK SMILES IDX 3 1 4 2 5 3 6 4 7 8 8 9 9 10 2 11 1 12
REMARK H PARENT 6 5 6 6 6 7
REMARK Flexibility Score: inf
ROOT
ATOM      1  C   UNL     1     120.619 131.689 136.976  1.00  0.00     0.050 C 
ATOM      2  C   UNL     1     119.767 130.690 137.789  1.00  0.00     0.014 C 
ENDROOT
BRANCH   1   3
ATOM      3  C   UNL     1     120.233 131.627 135.462  1.00  0.00     0.230 C 
BRANCH   3   4
ATOM      4  N   UNL     1     121.414 131.544 134.588  1.00  0.00    -0.350 N 
ATOM      5  H   UNL     1     121.991 132.410 134.676  1.00  0.00     0.345 HD
ATOM      6  H   UNL     1     121.130 131.405 133.591  1.00  0.00     0.345 HD
ATOM      7  H   UNL     1     122.024 130.745 134.880  1.00  0.00     0.345 HD
ENDBRANCH   3   4
BRANCH   3   8
ATOM      8  C   UNL     1     119.407 132.827 135.065  1.00  0.00     0.099 C 
ATOM      9  O   UNL     1     119.100 133.702 135.918  1.00  0.00    -0.544 OA
ATOM     10  O   UNL     1     118.977 132.972 133.751  1.00  0.00    -0.544 OA
ENDBRANCH   3   8
ENDBRANCH   1   3
BRANCH   1  11
ATOM     11  C   UNL     1     122.132 131.418 137.191  1.00  0.00     0.006 C 
ATOM     12  C   UNL     1     122.433 130.018 137.732  1.00  0.00     0.004 C 
ENDBRANCH   1  11
TORSDOF 4
ENDMDL
MODEL 9
REMARK VINA RESULT:    -3.537     13.671     14.407
REMARK INTER + INTRA:          -4.341
REMARK INTER:                  -4.194
REMARK INTRA:                  -0.146
REMARK UNBOUND:                -0.080
REMARK SMILES CC[C@H](C)[C@H]([NH3+])C(=O)[O-]
REMARK SMILES IDX 3 1 4 2 5 3 6 4 7 8 8 9 9 10 2 11 1 12
REMARK H PARENT 6 5 6 6 6 7
REMARK Flexibility Score: inf
ROOT
ATOM      1  C   UNL     1     119.965 131.312 136.109  1.00  0.00     0.050 C 
ATOM      2  C   UNL     1     119.733 130.924 137.586  1.00  0.00     0.014 C 
ENDROOT
BRANCH   1   3
ATOM      3  C   UNL     1     121.371 130.818 135.632  1.00  0.00     0.230 C 
BRANCH   3   4
ATOM      4  N   UNL     1     122.389 131.879 135.709  1.00  0.00    -0.350 N 
ATOM      5  H   UNL     1     122.772 132.080 134.758  1.00  0.00     0.345 HD
ATOM      6  H   UNL     1     123.164 131.603 136.354  1.00  0.00     0.345 HD
ATOM      7  H   UNL     1     121.959 132.768 136.056  1.00  0.00     0.345 HD
ENDBRANCH   3   4
BRANCH   3   8
ATOM      8  C   UNL     1     121.307 130.292 134.218  1.00  0.00     0.099 C 
ATOM      9  O   UNL     1     121.251 129.053 134.000  1.00  0.00    -0.544 OA
ATOM     10  O   UNL     1     121.313 131.178 133.147  1.00  0.00    -0.544 OA
ENDBRANCH   3   8
ENDBRANCH   1   3
BRANCH   1  11
ATOM     11  C   UNL     1     119.801 132.843 135.914  1.00  0.00     0.006 C 
ATOM     12  C   UNL     1     118.924 133.218 134.717  1.00  0.00     0.004 C 
ENDBRANCH   1  11
TORSDOF 4
ENDMDL
