MODEL 1
REMARK VINA RESULT:    -4.412      0.000      0.000
REMARK INTER + INTRA:         -10.416
REMARK INTER:                  -8.281
REMARK INTRA:                  -2.135
REMARK UNBOUND:                -2.135
REMARK SMILES O=C([O-])CCCCCCCCCCCCCCC(=O)[O-]
REMARK SMILES IDX 10 1 9 2 8 3 7 4 6 5 5 6 4 7 2 8 1 9 3 10 11 11 12 12 13 13
REMARK SMILES IDX 14 14 15 15 16 16 17 17 18 18 19 19 20 20
REMARK H PARENT
REMARK Flexibility Score: inf
ROOT
ATOM      1  C   UNL     1      45.526  34.755 -13.104  1.00  0.00     0.000 C 
ENDROOT
BRANCH   1   2
ATOM      2  C   UNL     1      44.809  36.067 -13.441  1.00  0.00     0.000 C 
BRANCH   2   3
ATOM      3  C   UNL     1      43.589  36.276 -12.532  1.00  0.00     0.000 C 
BRANCH   3   4
ATOM      4  C   UNL     1      43.924  37.099 -11.276  1.00  0.00     0.000 C 
BRANCH   4   5
ATOM      5  C   UNL     1      44.064  36.224 -10.018  1.00  0.00     0.000 C 
BRANCH   5   6
ATOM      6  C   UNL     1      45.499  36.197  -9.460  1.00  0.00     0.006 C 
BRANCH   6   7
ATOM      7  C   UNL     1      46.096  34.784  -9.343  1.00  0.00     0.053 C 
BRANCH   7   8
ATOM      8  C   UNL     1      45.789  34.131  -8.030  1.00  0.00     0.041 C 
ATOM      9  O   UNL     1      46.087  32.923  -7.834  1.00  0.00    -0.550 OA
ATOM     10  O   UNL     1      45.144  34.850  -7.031  1.00  0.00    -0.550 OA
ENDBRANCH   7   8
ENDBRANCH   6   7
ENDBRANCH   5   6
ENDBRANCH   4   5
ENDBRANCH   3   4
ENDBRANCH   2   3
ENDBRANCH   1   2
BRANCH   1  11
ATOM     11  C   UNL     1      47.037  34.975 -12.957  1.00  0.00     0.000 C 
BRANCH  11  12
ATOM     12  C   UNL     1      47.357  36.461 -12.742  1.00  0.00     0.000 C 
BRANCH  12  13
ATOM     13  C   UNL     1      48.611  36.923 -13.507  1.00  0.00     0.000 C 
BRANCH  13  14
ATOM     14  C   UNL     1      49.399  35.799 -14.205  1.00  0.00     0.000 C 
BRANCH  14  15
ATOM     15  C   UNL     1      49.810  36.158 -15.641  1.00  0.00     0.000 C 
BRANCH  15  16
ATOM     16  C   UNL     1      49.153  35.208 -16.654  1.00  0.00     0.006 C 
BRANCH  16  17
ATOM     17  C   UNL     1      47.623  35.324 -16.651  1.00  0.00     0.053 C 
BRANCH  17  18
ATOM     18  C   UNL     1      47.168  36.701 -17.025  1.00  0.00     0.041 C 
ATOM     19  O   UNL     1      46.386  37.337 -16.270  1.00  0.00    -0.550 OA
ATOM     20  O   UNL     1      47.634  37.297 -18.190  1.00  0.00    -0.550 OA
ENDBRANCH  17  18
ENDBRANCH  16  17
ENDBRANCH  15  16
ENDBRANCH  14  15
ENDBRANCH  13  14
ENDBRANCH  12  13
ENDBRANCH  11  12
ENDBRANCH   1  11
TORSDOF 15
ENDMDL
MODEL 2
REMARK VINA RESULT:    -4.308      2.111      7.296
REMARK INTER + INTRA:         -10.221
REMARK INTER:                  -8.397
REMARK INTRA:                  -1.824
REMARK UNBOUND:                -2.135
REMARK SMILES O=C([O-])CCCCCCCCCCCCCCC(=O)[O-]
REMARK SMILES IDX 10 1 9 2 8 3 7 4 6 5 5 6 4 7 2 8 1 9 3 10 11 11 12 12 13 13
REMARK SMILES IDX 14 14 15 15 16 16 17 17 18 18 19 19 20 20
REMARK H PARENT
REMARK Flexibility Score: inf
ROOT
ATOM      1  C   UNL     1      45.240  36.699 -13.560  1.00  0.00     0.000 C 
ENDROOT
BRANCH   1   2
ATOM      2  C   UNL     1      45.169  35.271 -13.006  1.00  0.00     0.000 C 
BRANCH   2   3
ATOM      3  C   UNL     1      46.246  34.380 -13.642  1.00  0.00     0.000 C 
BRANCH   3   4
ATOM      4  C   UNL     1      47.420  35.192 -14.216  1.00  0.00     0.000 C 
BRANCH   4   5
ATOM      5  C   UNL     1      47.926  34.632 -15.556  1.00  0.00     0.000 C 
BRANCH   5   6
ATOM      6  C   UNL     1      47.575  35.532 -16.755  1.00  0.00     0.006 C 
BRANCH   6   7
ATOM      7  C   UNL     1      48.583  36.669 -16.998  1.00  0.00     0.053 C 
BRANCH   7   8
ATOM      8  C   UNL     1      49.999  36.253 -16.738  1.00  0.00     0.041 C 
ATOM      9  O   UNL     1      50.666  36.804 -15.823  1.00  0.00    -0.550 OA
ATOM     10  O   UNL     1      50.593  35.278 -17.529  1.00  0.00    -0.550 OA
ENDBRANCH   7   8
ENDBRANCH   6   7
ENDBRANCH   5   6
ENDBRANCH   4   5
ENDBRANCH   3   4
ENDBRANCH   2   3
ENDBRANCH   1   2
BRANCH   1  11
ATOM     11  C   UNL     1      44.076  37.550 -13.040  1.00  0.00     0.000 C 
BRANCH  11  12
ATOM     12  C   UNL     1      43.004  36.671 -12.379  1.00  0.00     0.000 C 
BRANCH  12  13
ATOM     13  C   UNL     1      42.188  37.419 -11.309  1.00  0.00     0.000 C 
BRANCH  13  14
ATOM     14  C   UNL     1      42.600  37.129  -9.854  1.00  0.00     0.000 C 
BRANCH  14  15
ATOM     15  C   UNL     1      43.472  35.873  -9.717  1.00  0.00     0.000 C 
BRANCH  15  16
ATOM     16  C   UNL     1      44.757  36.180  -8.933  1.00  0.00     0.006 C 
BRANCH  16  17
ATOM     17  C   UNL     1      45.681  37.145  -9.688  1.00  0.00     0.053 C 
BRANCH  17  18
ATOM     18  C   UNL     1      46.921  36.462 -10.177  1.00  0.00     0.041 C 
ATOM     19  O   UNL     1      47.823  37.125 -10.754  1.00  0.00    -0.550 OA
ATOM     20  O   UNL     1      47.097  35.101  -9.964  1.00  0.00    -0.550 OA
ENDBRANCH  17  18
ENDBRANCH  16  17
ENDBRANCH  15  16
ENDBRANCH  14  15
ENDBRANCH  13  14
ENDBRANCH  12  13
ENDBRANCH  11  12
ENDBRANCH   1  11
TORSDOF 15
ENDMDL
MODEL 3
REMARK VINA RESULT:    -4.294      1.273      7.250
REMARK INTER + INTRA:         -10.193
REMARK INTER:                  -7.870
REMARK INTRA:                  -2.323
REMARK UNBOUND:                -2.135
REMARK SMILES O=C([O-])CCCCCCCCCCCCCCC(=O)[O-]
REMARK SMILES IDX 10 1 9 2 8 3 7 4 6 5 5 6 4 7 2 8 1 9 3 10 11 11 12 12 13 13
REMARK SMILES IDX 14 14 15 15 16 16 17 17 18 18 19 19 20 20
REMARK H PARENT
REMARK Flexibility Score: inf
ROOT
ATOM      1  C   UNL     1      47.152  34.378 -13.041  1.00  0.00     0.000 C 
ENDROOT
BRANCH   1   2
ATOM      2  C   UNL     1      47.773  35.745 -12.730  1.00  0.00     0.000 C 
BRANCH   2   3
ATOM      3  C   UNL     1      49.232  35.808 -13.206  1.00  0.00     0.000 C 
BRANCH   3   4
ATOM      4  C   UNL     1      49.559  37.124 -13.933  1.00  0.00     0.000 C 
BRANCH   4   5
ATOM      5  C   UNL     1      48.303  37.822 -14.484  1.00  0.00     0.000 C 
BRANCH   5   6
ATOM      6  C   UNL     1      48.274  37.882 -16.022  1.00  0.00     0.006 C 
BRANCH   6   7
ATOM      7  C   UNL     1      47.370  36.819 -16.671  1.00  0.00     0.053 C 
BRANCH   7   8
ATOM      8  C   UNL     1      48.019  35.470 -16.741  1.00  0.00     0.041 C 
ATOM      9  O   UNL     1      47.345  34.428 -16.529  1.00  0.00    -0.550 OA
ATOM     10  O   UNL     1      49.378  35.367 -17.011  1.00  0.00    -0.550 OA
ENDBRANCH   7   8
ENDBRANCH   6   7
ENDBRANCH   5   6
ENDBRANCH   4   5
ENDBRANCH   3   4
ENDBRANCH   2   3
ENDBRANCH   1   2
BRANCH   1  11
ATOM     11  C   UNL     1      45.668  34.516 -13.397  1.00  0.00     0.000 C 
BRANCH  11  12
ATOM     12  C   UNL     1      45.249  35.993 -13.447  1.00  0.00     0.000 C 
BRANCH  12  13
ATOM     13  C   UNL     1      43.907  36.262 -12.742  1.00  0.00     0.000 C 
BRANCH  13  14
ATOM     14  C   UNL     1      43.945  36.160 -11.206  1.00  0.00     0.000 C 
BRANCH  14  15
ATOM     15  C   UNL     1      45.032  37.041 -10.575  1.00  0.00     0.000 C 
BRANCH  15  16
ATOM     16  C   UNL     1      45.607  36.383  -9.311  1.00  0.00     0.006 C 
BRANCH  16  17
ATOM     17  C   UNL     1      46.082  34.947  -9.570  1.00  0.00     0.053 C 
BRANCH  17  18
ATOM     18  C   UNL     1      45.710  34.027  -8.448  1.00  0.00     0.041 C 
ATOM     19  O   UNL     1      46.568  33.244  -7.961  1.00  0.00    -0.550 OA
ATOM     20  O   UNL     1      44.427  34.059  -7.917  1.00  0.00    -0.550 OA
ENDBRANCH  17  18
ENDBRANCH  16  17
ENDBRANCH  15  16
ENDBRANCH  14  15
ENDBRANCH  13  14
ENDBRANCH  12  13
ENDBRANCH  11  12
ENDBRANCH   1  11
TORSDOF 15
ENDMDL
MODEL 4
REMARK VINA RESULT:    -4.286      1.419      2.535
REMARK INTER + INTRA:         -10.179
REMARK INTER:                  -7.862
REMARK INTRA:                  -2.317
REMARK UNBOUND:                -2.135
REMARK SMILES O=C([O-])CCCCCCCCCCCCCCC(=O)[O-]
REMARK SMILES IDX 10 1 9 2 8 3 7 4 6 5 5 6 4 7 2 8 1 9 3 10 11 11 12 12 13 13
REMARK SMILES IDX 14 14 15 15 16 16 17 17 18 18 19 19 20 20
REMARK H PARENT
REMARK Flexibility Score: inf
ROOT
ATOM      1  C   UNL     1      45.308  37.263 -13.284  1.00  0.00     0.000 C 
ENDROOT
BRANCH   1   2
ATOM      2  C   UNL     1      45.517  37.914 -11.912  1.00  0.00     0.000 C 
BRANCH   2   3
ATOM      3  C   UNL     1      47.011  38.014 -11.572  1.00  0.00     0.000 C 
BRANCH   3   4
ATOM      4  C   UNL     1      47.460  36.941 -10.565  1.00  0.00     0.000 C 
BRANCH   4   5
ATOM      5  C   UNL     1      46.277  36.304  -9.815  1.00  0.00     0.000 C 
BRANCH   5   6
ATOM      6  C   UNL     1      46.304  34.765  -9.846  1.00  0.00     0.006 C 
BRANCH   6   7
ATOM      7  C   UNL     1      46.450  34.115  -8.459  1.00  0.00     0.053 C 
BRANCH   7   8
ATOM      8  C   UNL     1      45.217  34.258  -7.619  1.00  0.00     0.041 C 
ATOM      9  O   UNL     1      45.080  35.248  -6.852  1.00  0.00    -0.550 OA
ATOM     10  O   UNL     1      44.230  33.281  -7.661  1.00  0.00    -0.550 OA
ENDBRANCH   7   8
ENDBRANCH   6   7
ENDBRANCH   5   6
ENDBRANCH   4   5
ENDBRANCH   3   4
ENDBRANCH   2   3
ENDBRANCH   1   2
BRANCH   1  11
ATOM     11  C   UNL     1      44.606  35.906 -13.148  1.00  0.00     0.000 C 
BRANCH  11  12
ATOM     12  C   UNL     1      45.600  34.751 -13.336  1.00  0.00     0.000 C 
BRANCH  12  13
ATOM     13  C   UNL     1      46.848  35.157 -14.141  1.00  0.00     0.000 C 
BRANCH  13  14
ATOM     14  C   UNL     1      48.175  34.566 -13.628  1.00  0.00     0.000 C 
BRANCH  14  15
ATOM     15  C   UNL     1      49.274  35.624 -13.456  1.00  0.00     0.000 C 
BRANCH  15  16
ATOM     16  C   UNL     1      49.022  36.833 -14.371  1.00  0.00     0.006 C 
BRANCH  16  17
ATOM     17  C   UNL     1      49.949  36.838 -15.594  1.00  0.00     0.053 C 
BRANCH  17  18
ATOM     18  C   UNL     1      49.296  36.216 -16.790  1.00  0.00     0.041 C 
ATOM     19  O   UNL     1      49.425  34.984 -17.013  1.00  0.00    -0.550 OA
ATOM     20  O   UNL     1      48.517  36.991 -17.640  1.00  0.00    -0.550 OA
ENDBRANCH  17  18
ENDBRANCH  16  17
ENDBRANCH  15  16
ENDBRANCH  14  15
ENDBRANCH  13  14
ENDBRANCH  12  13
ENDBRANCH  11  12
ENDBRANCH   1  11
TORSDOF 15
ENDMDL
MODEL 5
REMARK VINA RESULT:    -4.282      1.059      1.460
REMARK INTER + INTRA:         -10.172
REMARK INTER:                  -8.022
REMARK INTRA:                  -2.151
REMARK UNBOUND:                -2.135
REMARK SMILES O=C([O-])CCCCCCCCCCCCCCC(=O)[O-]
REMARK SMILES IDX 10 1 9 2 8 3 7 4 6 5 5 6 4 7 2 8 1 9 3 10 11 11 12 12 13 13
REMARK SMILES IDX 14 14 15 15 16 16 17 17 18 18 19 19 20 20
REMARK H PARENT
REMARK Flexibility Score: inf
ROOT
ATOM      1  C   UNL     1      45.687  34.613 -13.482  1.00  0.00     0.000 C 
ENDROOT
BRANCH   1   2
ATOM      2  C   UNL     1      45.271  36.088 -13.431  1.00  0.00     0.000 C 
BRANCH   2   3
ATOM      3  C   UNL     1      43.904  36.250 -12.751  1.00  0.00     0.000 C 
BRANCH   3   4
ATOM      4  C   UNL     1      43.987  36.125 -11.220  1.00  0.00     0.000 C 
BRANCH   4   5
ATOM      5  C   UNL     1      45.031  37.074 -10.606  1.00  0.00     0.000 C 
BRANCH   5   6
ATOM      6  C   UNL     1      46.055  36.347  -9.716  1.00  0.00     0.006 C 
BRANCH   6   7
ATOM      7  C   UNL     1      45.890  34.817  -9.697  1.00  0.00     0.053 C 
BRANCH   7   8
ATOM      8  C   UNL     1      45.439  34.300  -8.365  1.00  0.00     0.041 C 
ATOM      9  O   UNL     1      45.227  35.095  -7.411  1.00  0.00    -0.550 OA
ATOM     10  O   UNL     1      45.280  32.934  -8.168  1.00  0.00    -0.550 OA
ENDBRANCH   7   8
ENDBRANCH   6   7
ENDBRANCH   5   6
ENDBRANCH   4   5
ENDBRANCH   3   4
ENDBRANCH   2   3
ENDBRANCH   1   2
BRANCH   1  11
ATOM     11  C   UNL     1      47.173  34.449 -13.143  1.00  0.00     0.000 C 
BRANCH  11  12
ATOM     12  C   UNL     1      47.858  35.815 -12.994  1.00  0.00     0.000 C 
BRANCH  12  13
ATOM     13  C   UNL     1      49.378  35.756 -13.230  1.00  0.00     0.000 C 
BRANCH  13  14
ATOM     14  C   UNL     1      50.040  37.108 -13.557  1.00  0.00     0.000 C 
BRANCH  14  15
ATOM     15  C   UNL     1      50.006  37.445 -15.054  1.00  0.00     0.000 C 
BRANCH  15  16
ATOM     16  C   UNL     1      50.168  36.176 -15.906  1.00  0.00     0.006 C 
BRANCH  16  17
ATOM     17  C   UNL     1      49.234  36.172 -17.124  1.00  0.00     0.053 C 
BRANCH  17  18
ATOM     18  C   UNL     1      47.835  35.787 -16.752  1.00  0.00     0.041 C 
ATOM     19  O   UNL     1      47.536  34.576 -16.585  1.00  0.00    -0.550 OA
ATOM     20  O   UNL     1      46.872  36.768 -16.556  1.00  0.00    -0.550 OA
ENDBRANCH  17  18
ENDBRANCH  16  17
ENDBRANCH  15  16
ENDBRANCH  14  15
ENDBRANCH  13  14
ENDBRANCH  12  13
ENDBRANCH  11  12
ENDBRANCH   1  11
TORSDOF 15
ENDMDL
MODEL 6
REMARK VINA RESULT:    -4.261      1.525      2.468
REMARK INTER + INTRA:         -10.133
REMARK INTER:                  -8.828
REMARK INTRA:                  -1.305
REMARK UNBOUND:                -2.135
REMARK SMILES O=C([O-])CCCCCCCCCCCCCCC(=O)[O-]
REMARK SMILES IDX 10 1 9 2 8 3 7 4 6 5 5 6 4 7 2 8 1 9 3 10 11 11 12 12 13 13
REMARK SMILES IDX 14 14 15 15 16 16 17 17 18 18 19 19 20 20
REMARK H PARENT
REMARK Flexibility Score: inf
ROOT
ATOM      1  C   UNL     1      42.968  36.272 -12.476  1.00  0.00     0.000 C 
ENDROOT
BRANCH   1   2
ATOM      2  C   UNL     1      42.484  37.677 -12.097  1.00  0.00     0.000 C 
BRANCH   2   3
ATOM      3  C   UNL     1      42.124  37.749 -10.605  1.00  0.00     0.000 C 
BRANCH   3   4
ATOM      4  C   UNL     1      43.353  37.987  -9.712  1.00  0.00     0.000 C 
BRANCH   4   5
ATOM      5  C   UNL     1      43.440  36.984  -8.548  1.00  0.00     0.000 C 
BRANCH   5   6
ATOM      6  C   UNL     1      43.812  35.562  -9.007  1.00  0.00     0.006 C 
BRANCH   6   7
ATOM      7  C   UNL     1      45.245  35.142  -8.637  1.00  0.00     0.053 C 
BRANCH   7   8
ATOM      8  C   UNL     1      45.299  33.814  -7.944  1.00  0.00     0.041 C 
ATOM      9  O   UNL     1      44.242  33.272  -7.523  1.00  0.00    -0.550 OA
ATOM     10  O   UNL     1      46.521  33.188  -7.735  1.00  0.00    -0.550 OA
ENDBRANCH   7   8
ENDBRANCH   6   7
ENDBRANCH   5   6
ENDBRANCH   4   5
ENDBRANCH   3   4
ENDBRANCH   2   3
ENDBRANCH   1   2
BRANCH   1  11
ATOM     11  C   UNL     1      44.365  36.323 -13.108  1.00  0.00     0.000 C 
BRANCH  11  12
ATOM     12  C   UNL     1      45.353  35.444 -12.328  1.00  0.00     0.000 C 
BRANCH  12  13
ATOM     13  C   UNL     1      45.950  34.309 -13.180  1.00  0.00     0.000 C 
BRANCH  13  14
ATOM     14  C   UNL     1      47.474  34.382 -13.388  1.00  0.00     0.000 C 
BRANCH  14  15
ATOM     15  C   UNL     1      47.879  35.363 -14.498  1.00  0.00     0.000 C 
BRANCH  15  16
ATOM     16  C   UNL     1      47.519  34.804 -15.883  1.00  0.00     0.006 C 
BRANCH  16  17
ATOM     17  C   UNL     1      47.835  35.797 -17.010  1.00  0.00     0.053 C 
BRANCH  17  18
ATOM     18  C   UNL     1      49.264  36.244 -16.975  1.00  0.00     0.041 C 
ATOM     19  O   UNL     1      50.183  35.453 -17.310  1.00  0.00    -0.550 OA
ATOM     20  O   UNL     1      49.578  37.546 -16.606  1.00  0.00    -0.550 OA
ENDBRANCH  17  18
ENDBRANCH  16  17
ENDBRANCH  15  16
ENDBRANCH  14  15
ENDBRANCH  13  14
ENDBRANCH  12  13
ENDBRANCH  11  12
ENDBRANCH   1  11
TORSDOF 15
ENDMDL
MODEL 7
REMARK VINA RESULT:    -4.198      1.518      2.839
REMARK INTER + INTRA:         -10.014
REMARK INTER:                  -7.850
REMARK INTRA:                  -2.165
REMARK UNBOUND:                -2.135
REMARK SMILES O=C([O-])CCCCCCCCCCCCCCC(=O)[O-]
REMARK SMILES IDX 10 1 9 2 8 3 7 4 6 5 5 6 4 7 2 8 1 9 3 10 11 11 12 12 13 13
REMARK SMILES IDX 14 14 15 15 16 16 17 17 18 18 19 19 20 20
REMARK H PARENT
REMARK Flexibility Score: inf
ROOT
ATOM      1  C   UNL     1      48.444  36.924 -13.447  1.00  0.00     0.000 C 
ENDROOT
BRANCH   1   2
ATOM      2  C   UNL     1      48.992  35.497 -13.574  1.00  0.00     0.000 C 
BRANCH   2   3
ATOM      3  C   UNL     1      47.858  34.464 -13.498  1.00  0.00     0.000 C 
BRANCH   3   4
ATOM      4  C   UNL     1      46.465  35.115 -13.523  1.00  0.00     0.000 C 
BRANCH   4   5
ATOM      5  C   UNL     1      45.618  34.745 -12.293  1.00  0.00     0.000 C 
BRANCH   5   6
ATOM      6  C   UNL     1      45.816  35.713 -11.113  1.00  0.00     0.006 C 
BRANCH   6   7
ATOM      7  C   UNL     1      46.706  35.154  -9.989  1.00  0.00     0.053 C 
BRANCH   7   8
ATOM      8  C   UNL     1      45.916  34.520  -8.885  1.00  0.00     0.041 C 
ATOM      9  O   UNL     1      46.397  33.558  -8.230  1.00  0.00    -0.550 OA
ATOM     10  O   UNL     1      44.634  34.972  -8.599  1.00  0.00    -0.550 OA
ENDBRANCH   7   8
ENDBRANCH   6   7
ENDBRANCH   5   6
ENDBRANCH   4   5
ENDBRANCH   3   4
ENDBRANCH   2   3
ENDBRANCH   1   2
BRANCH   1  11
ATOM     11  C   UNL     1      49.526  37.960 -13.775  1.00  0.00     0.000 C 
BRANCH  11  12
ATOM     12  C   UNL     1      50.930  37.365 -13.594  1.00  0.00     0.000 C 
BRANCH  12  13
ATOM     13  C   UNL     1      51.885  37.714 -14.751  1.00  0.00     0.000 C 
BRANCH  13  14
ATOM     14  C   UNL     1      51.274  37.592 -16.159  1.00  0.00     0.000 C 
BRANCH  14  15
ATOM     15  C   UNL     1      51.433  36.189 -16.762  1.00  0.00     0.000 C 
BRANCH  15  16
ATOM     16  C   UNL     1      50.063  35.557 -17.051  1.00  0.00     0.006 C 
BRANCH  16  17
ATOM     17  C   UNL     1      48.971  36.613 -17.267  1.00  0.00     0.053 C 
BRANCH  17  18
ATOM     18  C   UNL     1      47.608  36.077 -16.951  1.00  0.00     0.041 C 
ATOM     19  O   UNL     1      47.421  34.835 -16.863  1.00  0.00    -0.550 OA
ATOM     20  O   UNL     1      46.552  36.949 -16.720  1.00  0.00    -0.550 OA
ENDBRANCH  17  18
ENDBRANCH  16  17
ENDBRANCH  15  16
ENDBRANCH  14  15
ENDBRANCH  13  14
ENDBRANCH  12  13
ENDBRANCH  11  12
ENDBRANCH   1  11
TORSDOF 15
ENDMDL
MODEL 8
REMARK VINA RESULT:    -4.196      1.475      7.741
REMARK INTER + INTRA:         -10.011
REMARK INTER:                  -8.473
REMARK INTRA:                  -1.538
REMARK UNBOUND:                -2.135
REMARK SMILES O=C([O-])CCCCCCCCCCCCCCC(=O)[O-]
REMARK SMILES IDX 10 1 9 2 8 3 7 4 6 5 5 6 4 7 2 8 1 9 3 10 11 11 12 12 13 13
REMARK SMILES IDX 14 14 15 15 16 16 17 17 18 18 19 19 20 20
REMARK H PARENT
REMARK Flexibility Score: inf
ROOT
ATOM      1  C   UNL     1      45.523  35.255 -13.132  1.00  0.00     0.000 C 
ENDROOT
BRANCH   1   2
ATOM      2  C   UNL     1      47.003  35.521 -12.828  1.00  0.00     0.000 C 
BRANCH   2   3
ATOM      3  C   UNL     1      47.907  34.847 -13.870  1.00  0.00     0.000 C 
BRANCH   3   4
ATOM      4  C   UNL     1      47.227  34.711 -15.242  1.00  0.00     0.000 C 
BRANCH   4   5
ATOM      5  C   UNL     1      48.165  35.076 -16.406  1.00  0.00     0.000 C 
BRANCH   5   6
ATOM      6  C   UNL     1      47.661  36.273 -17.232  1.00  0.00     0.006 C 
BRANCH   6   7
ATOM      7  C   UNL     1      47.581  37.590 -16.439  1.00  0.00     0.053 C 
BRANCH   7   8
ATOM      8  C   UNL     1      48.875  37.945 -15.774  1.00  0.00     0.041 C 
ATOM      9  O   UNL     1      48.923  38.123 -14.528  1.00  0.00    -0.550 OA
ATOM     10  O   UNL     1      50.026  38.110 -16.535  1.00  0.00    -0.550 OA
ENDBRANCH   7   8
ENDBRANCH   6   7
ENDBRANCH   5   6
ENDBRANCH   4   5
ENDBRANCH   3   4
ENDBRANCH   2   3
ENDBRANCH   1   2
BRANCH   1  11
ATOM     11  C   UNL     1      44.711  36.555 -13.087  1.00  0.00     0.000 C 
BRANCH  11  12
ATOM     12  C   UNL     1      43.234  36.270 -12.775  1.00  0.00     0.000 C 
BRANCH  12  13
ATOM     13  C   UNL     1      42.622  37.280 -11.788  1.00  0.00     0.000 C 
BRANCH  13  14
ATOM     14  C   UNL     1      43.285  37.318 -10.399  1.00  0.00     0.000 C 
BRANCH  14  15
ATOM     15  C   UNL     1      43.348  35.939  -9.728  1.00  0.00     0.000 C 
BRANCH  15  16
ATOM     16  C   UNL     1      44.513  35.867  -8.729  1.00  0.00     0.006 C 
BRANCH  16  17
ATOM     17  C   UNL     1      45.521  34.768  -9.091  1.00  0.00     0.053 C 
BRANCH  17  18
ATOM     18  C   UNL     1      45.483  33.634  -8.113  1.00  0.00     0.041 C 
ATOM     19  O   UNL     1      46.544  33.030  -7.802  1.00  0.00    -0.550 OA
ATOM     20  O   UNL     1      44.283  33.266  -7.519  1.00  0.00    -0.550 OA
ENDBRANCH  17  18
ENDBRANCH  16  17
ENDBRANCH  15  16
ENDBRANCH  14  15
ENDBRANCH  13  14
ENDBRANCH  12  13
ENDBRANCH  11  12
ENDBRANCH   1  11
TORSDOF 15
ENDMDL
MODEL 9
REMARK VINA RESULT:    -4.158      1.384      7.294
REMARK INTER + INTRA:          -9.940
REMARK INTER:                  -7.672
REMARK INTRA:                  -2.268
REMARK UNBOUND:                -2.135
REMARK SMILES O=C([O-])CCCCCCCCCCCCCCC(=O)[O-]
REMARK SMILES IDX 10 1 9 2 8 3 7 4 6 5 5 6 4 7 2 8 1 9 3 10 11 11 12 12 13 13
REMARK SMILES IDX 14 14 15 15 16 16 17 17 18 18 19 19 20 20
REMARK H PARENT
REMARK Flexibility Score: inf
ROOT
ATOM      1  C   UNL     1      43.043  36.257 -12.681  1.00  0.00     0.000 C 
ENDROOT
BRANCH   1   2
ATOM      2  C   UNL     1      44.460  35.842 -13.093  1.00  0.00     0.000 C 
BRANCH   2   3
ATOM      3  C   UNL     1      45.441  37.015 -12.947  1.00  0.00     0.000 C 
BRANCH   3   4
ATOM      4  C   UNL     1      46.866  36.553 -12.596  1.00  0.00     0.000 C 
BRANCH   4   5
ATOM      5  C   UNL     1      47.054  35.036 -12.771  1.00  0.00     0.000 C 
BRANCH   5   6
ATOM      6  C   UNL     1      48.007  34.677 -13.925  1.00  0.00     0.006 C 
BRANCH   6   7
ATOM      7  C   UNL     1      47.334  34.664 -15.309  1.00  0.00     0.053 C 
BRANCH   7   8
ATOM      8  C   UNL     1      48.079  35.476 -16.324  1.00  0.00     0.041 C 
ATOM      9  O   UNL     1      47.457  36.081 -17.237  1.00  0.00    -0.550 OA
ATOM     10  O   UNL     1      49.466  35.541 -16.279  1.00  0.00    -0.550 OA
ENDBRANCH   7   8
ENDBRANCH   6   7
ENDBRANCH   5   6
ENDBRANCH   4   5
ENDBRANCH   3   4
ENDBRANCH   2   3
ENDBRANCH   1   2
BRANCH   1  11
ATOM     11  C   UNL     1      42.984  37.751 -12.343  1.00  0.00     0.000 C 
BRANCH  11  12
ATOM     12  C   UNL     1      42.181  37.993 -11.056  1.00  0.00     0.000 C 
BRANCH  12  13
ATOM     13  C   UNL     1      42.875  37.435  -9.801  1.00  0.00     0.000 C 
BRANCH  13  14
ATOM     14  C   UNL     1      44.246  38.060  -9.482  1.00  0.00     0.000 C 
BRANCH  14  15
ATOM     15  C   UNL     1      45.321  37.013  -9.159  1.00  0.00     0.000 C 
BRANCH  15  16
ATOM     16  C   UNL     1      44.776  35.589  -9.351  1.00  0.00     0.006 C 
BRANCH  16  17
ATOM     17  C   UNL     1      45.875  34.525  -9.223  1.00  0.00     0.053 C 
BRANCH  17  18
ATOM     18  C   UNL     1      45.587  33.557  -8.117  1.00  0.00     0.041 C 
ATOM     19  O   UNL     1      46.527  32.926  -7.567  1.00  0.00    -0.550 OA
ATOM     20  O   UNL     1      44.284  33.378  -7.669  1.00  0.00    -0.550 OA
ENDBRANCH  17  18
ENDBRANCH  16  17
ENDBRANCH  15  16
ENDBRANCH  14  15
ENDBRANCH  13  14
ENDBRANCH  12  13
ENDBRANCH  11  12
ENDBRANCH   1  11
TORSDOF 15
ENDMDL
