MODEL 1
REMARK VINA RESULT:     1.537      0.000      0.000
REMARK INTER + INTRA:           5.205
REMARK INTER:                   3.873
REMARK INTRA:                   1.332
REMARK UNBOUND:                 1.332
REMARK SMILES CCCCCCCCCCCCCCCCCCCCCCCCCCCC(=O)[O-]
REMARK SMILES IDX 15 1 16 2 17 3 18 4 19 5 20 6 21 7 22 8 23 9 24 10 25 11
REMARK SMILES IDX 26 12 27 13 28 14 29 15 30 16 14 17 13 18 12 19 11 20 10 21
REMARK SMILES IDX 9 22 8 23 7 24 6 25 5 26 4 27 3 28 2 29 1 30
REMARK H PARENT
REMARK Flexibility Score: inf
ROOT
ATOM      1  C   UNL     1      29.115  27.180   2.030  1.00  0.00     0.000 C 
ENDROOT
BRANCH   1   2
ATOM      2  C   UNL     1      28.095  28.321   2.201  1.00  0.00     0.000 C 
BRANCH   2   3
ATOM      3  C   UNL     1      28.672  29.637   2.755  1.00  0.00     0.000 C 
BRANCH   3   4
ATOM      4  C   UNL     1      28.331  29.929   4.230  1.00  0.00     0.000 C 
BRANCH   4   5
ATOM      5  C   UNL     1      29.046  31.173   4.778  1.00  0.00     0.000 C 
BRANCH   5   6
ATOM      6  C   UNL     1      28.237  31.816   5.917  1.00  0.00     0.000 C 
BRANCH   6   7
ATOM      7  C   UNL     1      29.122  32.274   7.087  1.00  0.00     0.000 C 
BRANCH   7   8
ATOM      8  C   UNL     1      28.312  32.647   8.336  1.00  0.00     0.000 C 
BRANCH   8   9
ATOM      9  C   UNL     1      27.770  31.392   9.031  1.00  0.00     0.000 C 
BRANCH   9  10
ATOM     10  C   UNL     1      28.724  30.205   8.852  1.00  0.00     0.000 C 
BRANCH  10  11
ATOM     11  C   UNL     1      28.509  29.524   7.496  1.00  0.00     0.000 C 
BRANCH  11  12
ATOM     12  C   UNL     1      27.116  28.880   7.421  1.00  0.00     0.006 C 
BRANCH  12  13
ATOM     13  C   UNL     1      26.736  28.480   5.990  1.00  0.00     0.053 C 
BRANCH  13  14
ATOM     14  C   UNL     1      25.316  28.007   5.898  1.00  0.00     0.041 C 
ATOM     15  O   UNL     1      24.572  28.034   6.914  1.00  0.00    -0.550 OA
ATOM     16  O   UNL     1      24.808  27.557   4.684  1.00  0.00    -0.550 OA
ENDBRANCH  13  14
ENDBRANCH  12  13
ENDBRANCH  11  12
ENDBRANCH  10  11
ENDBRANCH   9  10
ENDBRANCH   8   9
ENDBRANCH   7   8
ENDBRANCH   6   7
ENDBRANCH   5   6
ENDBRANCH   4   5
ENDBRANCH   3   4
ENDBRANCH   2   3
ENDBRANCH   1   2
BRANCH   1  17
ATOM     17  C   UNL     1      29.098  26.530   0.629  1.00  0.00     0.000 C 
BRANCH  17  18
ATOM     18  C   UNL     1      27.956  25.512   0.460  1.00  0.00     0.000 C 
BRANCH  18  19
ATOM     19  C   UNL     1      28.391  24.257  -0.317  1.00  0.00     0.000 C 
BRANCH  19  20
ATOM     20  C   UNL     1      27.288  23.691  -1.240  1.00  0.00     0.000 C 
BRANCH  20  21
ATOM     21  C   UNL     1      27.741  23.549  -2.704  1.00  0.00     0.000 C 
BRANCH  21  22
ATOM     22  C   UNL     1      29.125  22.884  -2.819  1.00  0.00    -0.000 C 
BRANCH  22  23
ATOM     23  C   UNL     1      29.099  21.389  -2.432  1.00  0.00    -0.000 C 
BRANCH  23  24
ATOM     24  C   UNL     1      27.818  20.648  -2.862  1.00  0.00    -0.000 C 
BRANCH  24  25
ATOM     25  C   UNL     1      28.044  19.373  -3.690  1.00  0.00    -0.000 C 
BRANCH  25  26
ATOM     26  C   UNL     1      29.084  18.430  -3.064  1.00  0.00    -0.000 C 
BRANCH  26  27
ATOM     27  C   UNL     1      28.879  18.316  -1.545  1.00  0.00    -0.000 C 
BRANCH  27  28
ATOM     28  C   UNL     1      27.884  17.208  -1.164  1.00  0.00    -0.000 C 
BRANCH  28  29
ATOM     29  C   UNL     1      27.700  17.072   0.355  1.00  0.00    -0.003 C 
ATOM     30  C   UNL     1      29.046  17.049   1.071  1.00  0.00     0.004 C 
ENDBRANCH  28  29
ENDBRANCH  27  28
ENDBRANCH  26  27
ENDBRANCH  25  26
ENDBRANCH  24  25
ENDBRANCH  23  24
ENDBRANCH  22  23
ENDBRANCH  21  22
ENDBRANCH  20  21
ENDBRANCH  19  20
ENDBRANCH  18  19
ENDBRANCH  17  18
ENDBRANCH   1  17
TORSDOF 26
ENDMDL
MODEL 2
REMARK VINA RESULT:     1.960      5.127      8.489
REMARK INTER + INTRA:           6.271
REMARK INTER:                   6.275
REMARK INTRA:                  -0.003
REMARK UNBOUND:                 1.332
REMARK SMILES CCCCCCCCCCCCCCCCCCCCCCCCCCCC(=O)[O-]
REMARK SMILES IDX 15 1 16 2 17 3 18 4 19 5 20 6 21 7 22 8 23 9 24 10 25 11
REMARK SMILES IDX 26 12 27 13 28 14 29 15 30 16 14 17 13 18 12 19 11 20 10 21
REMARK SMILES IDX 9 22 8 23 7 24 6 25 5 26 4 27 3 28 2 29 1 30
REMARK H PARENT
REMARK Flexibility Score: inf
ROOT
ATOM      1  C   UNL     1      26.026  23.966  -2.866  1.00  0.00     0.000 C 
ENDROOT
BRANCH   1   2
ATOM      2  C   UNL     1      25.703  25.239  -2.062  1.00  0.00     0.000 C 
BRANCH   2   3
ATOM      3  C   UNL     1      26.694  25.567  -0.929  1.00  0.00     0.000 C 
BRANCH   3   4
ATOM      4  C   UNL     1      28.083  24.913  -1.067  1.00  0.00     0.000 C 
BRANCH   4   5
ATOM      5  C   UNL     1      29.109  25.464  -0.067  1.00  0.00     0.000 C 
BRANCH   5   6
ATOM      6  C   UNL     1      29.101  24.648   1.236  1.00  0.00     0.000 C 
BRANCH   6   7
ATOM      7  C   UNL     1      28.041  25.137   2.236  1.00  0.00     0.000 C 
BRANCH   7   8
ATOM      8  C   UNL     1      28.646  25.905   3.419  1.00  0.00     0.000 C 
BRANCH   8   9
ATOM      9  C   UNL     1      27.670  26.968   3.937  1.00  0.00     0.000 C 
BRANCH   9  10
ATOM     10  C   UNL     1      28.017  28.355   3.381  1.00  0.00     0.000 C 
BRANCH  10  11
ATOM     11  C   UNL     1      28.990  29.093   4.307  1.00  0.00     0.000 C 
BRANCH  11  12
ATOM     12  C   UNL     1      28.303  29.486   5.623  1.00  0.00     0.006 C 
BRANCH  12  13
ATOM     13  C   UNL     1      29.125  29.079   6.852  1.00  0.00     0.053 C 
BRANCH  13  14
ATOM     14  C   UNL     1      28.252  28.650   7.994  1.00  0.00     0.041 C 
ATOM     15  O   UNL     1      28.768  28.199   9.051  1.00  0.00    -0.550 OA
ATOM     16  O   UNL     1      26.870  28.769   7.899  1.00  0.00    -0.550 OA
ENDBRANCH  13  14
ENDBRANCH  12  13
ENDBRANCH  11  12
ENDBRANCH  10  11
ENDBRANCH   9  10
ENDBRANCH   8   9
ENDBRANCH   7   8
ENDBRANCH   6   7
ENDBRANCH   5   6
ENDBRANCH   4   5
ENDBRANCH   3   4
ENDBRANCH   2   3
ENDBRANCH   1   2
BRANCH   1  17
ATOM     17  C   UNL     1      27.526  23.794  -3.189  1.00  0.00     0.000 C 
BRANCH  17  18
ATOM     18  C   UNL     1      27.880  22.364  -3.633  1.00  0.00     0.000 C 
BRANCH  18  19
ATOM     19  C   UNL     1      28.146  22.261  -5.145  1.00  0.00     0.000 C 
BRANCH  19  20
ATOM     20  C   UNL     1      28.915  23.472  -5.719  1.00  0.00     0.000 C 
BRANCH  20  21
ATOM     21  C   UNL     1      29.125  23.386  -7.242  1.00  0.00     0.000 C 
BRANCH  21  22
ATOM     22  C   UNL     1      28.560  24.617  -7.974  1.00  0.00    -0.000 C 
BRANCH  22  23
ATOM     23  C   UNL     1      27.921  24.257  -9.334  1.00  0.00    -0.000 C 
BRANCH  23  24
ATOM     24  C   UNL     1      28.232  25.260 -10.462  1.00  0.00    -0.000 C 
BRANCH  24  25
ATOM     25  C   UNL     1      27.019  26.031 -11.007  1.00  0.00    -0.000 C 
BRANCH  25  26
ATOM     26  C   UNL     1      26.951  27.478 -10.496  1.00  0.00    -0.000 C 
BRANCH  26  27
ATOM     27  C   UNL     1      28.304  28.186 -10.665  1.00  0.00    -0.000 C 
BRANCH  27  28
ATOM     28  C   UNL     1      28.346  29.557  -9.971  1.00  0.00    -0.000 C 
BRANCH  28  29
ATOM     29  C   UNL     1      27.378  30.571 -10.598  1.00  0.00    -0.003 C 
ATOM     30  C   UNL     1      26.682  31.401  -9.525  1.00  0.00     0.004 C 
ENDBRANCH  28  29
ENDBRANCH  27  28
ENDBRANCH  26  27
ENDBRANCH  25  26
ENDBRANCH  24  25
ENDBRANCH  23  24
ENDBRANCH  22  23
ENDBRANCH  21  22
ENDBRANCH  20  21
ENDBRANCH  19  20
ENDBRANCH  18  19
ENDBRANCH  17  18
ENDBRANCH   1  17
TORSDOF 26
ENDMDL
MODEL 3
REMARK VINA RESULT:     2.221      4.825      7.497
REMARK INTER + INTRA:           6.928
REMARK INTER:                   6.556
REMARK INTRA:                   0.372
REMARK UNBOUND:                 1.332
REMARK SMILES CCCCCCCCCCCCCCCCCCCCCCCCCCCC(=O)[O-]
REMARK SMILES IDX 15 1 16 2 17 3 18 4 19 5 20 6 21 7 22 8 23 9 24 10 25 11
REMARK SMILES IDX 26 12 27 13 28 14 29 15 30 16 14 17 13 18 12 19 11 20 10 21
REMARK SMILES IDX 9 22 8 23 7 24 6 25 5 26 4 27 3 28 2 29 1 30
REMARK H PARENT
REMARK Flexibility Score: inf
ROOT
ATOM      1  C   UNL     1      26.000  23.970  -2.854  1.00  0.00     0.000 C 
ENDROOT
BRANCH   1   2
ATOM      2  C   UNL     1      25.760  25.215  -1.981  1.00  0.00     0.000 C 
BRANCH   2   3
ATOM      3  C   UNL     1      26.641  25.312  -0.721  1.00  0.00     0.000 C 
BRANCH   3   4
ATOM      4  C   UNL     1      27.998  24.586  -0.817  1.00  0.00     0.000 C 
BRANCH   4   5
ATOM      5  C   UNL     1      29.064  25.180   0.115  1.00  0.00     0.000 C 
BRANCH   5   6
ATOM      6  C   UNL     1      29.104  24.429   1.456  1.00  0.00     0.000 C 
BRANCH   6   7
ATOM      7  C   UNL     1      28.042  24.929   2.448  1.00  0.00     0.000 C 
BRANCH   7   8
ATOM      8  C   UNL     1      28.646  25.700   3.630  1.00  0.00     0.000 C 
BRANCH   8   9
ATOM      9  C   UNL     1      27.672  26.769   4.140  1.00  0.00     0.000 C 
BRANCH   9  10
ATOM     10  C   UNL     1      27.838  28.083   3.366  1.00  0.00     0.000 C 
BRANCH  10  11
ATOM     11  C   UNL     1      28.964  28.935   3.961  1.00  0.00     0.000 C 
BRANCH  11  12
ATOM     12  C   UNL     1      29.092  28.695   5.473  1.00  0.00     0.006 C 
BRANCH  12  13
ATOM     13  C   UNL     1      28.146  29.586   6.286  1.00  0.00     0.053 C 
BRANCH  13  14
ATOM     14  C   UNL     1      28.428  31.044   6.077  1.00  0.00     0.041 C 
ATOM     15  O   UNL     1      28.332  31.853   7.037  1.00  0.00    -0.550 OA
ATOM     16  O   UNL     1      28.821  31.506   4.825  1.00  0.00    -0.550 OA
ENDBRANCH  13  14
ENDBRANCH  12  13
ENDBRANCH  11  12
ENDBRANCH  10  11
ENDBRANCH   9  10
ENDBRANCH   8   9
ENDBRANCH   7   8
ENDBRANCH   6   7
ENDBRANCH   5   6
ENDBRANCH   4   5
ENDBRANCH   3   4
ENDBRANCH   2   3
ENDBRANCH   1   2
BRANCH   1  17
ATOM     17  C   UNL     1      27.490  23.685  -3.141  1.00  0.00     0.000 C 
BRANCH  17  18
ATOM     18  C   UNL     1      27.730  22.271  -3.697  1.00  0.00     0.000 C 
BRANCH  18  19
ATOM     19  C   UNL     1      27.926  22.257  -5.223  1.00  0.00     0.000 C 
BRANCH  19  20
ATOM     20  C   UNL     1      29.011  23.242  -5.714  1.00  0.00     0.000 C 
BRANCH  20  21
ATOM     21  C   UNL     1      29.122  23.301  -7.248  1.00  0.00     0.000 C 
BRANCH  21  22
ATOM     22  C   UNL     1      28.659  24.658  -7.809  1.00  0.00    -0.000 C 
BRANCH  22  23
ATOM     23  C   UNL     1      28.831  24.757  -9.341  1.00  0.00    -0.000 C 
BRANCH  23  24
ATOM     24  C   UNL     1      27.636  25.402 -10.070  1.00  0.00    -0.000 C 
BRANCH  24  25
ATOM     25  C   UNL     1      26.852  24.464 -11.002  1.00  0.00    -0.000 C 
BRANCH  25  26
ATOM     26  C   UNL     1      26.262  23.249 -10.269  1.00  0.00    -0.000 C 
BRANCH  26  27
ATOM     27  C   UNL     1      25.133  22.606 -11.090  1.00  0.00    -0.000 C 
BRANCH  27  28
ATOM     28  C   UNL     1      23.811  23.384 -10.989  1.00  0.00    -0.000 C 
BRANCH  28  29
ATOM     29  C   UNL     1      22.940  22.925  -9.809  1.00  0.00    -0.003 C 
ATOM     30  C   UNL     1      23.053  21.419  -9.596  1.00  0.00     0.004 C 
ENDBRANCH  28  29
ENDBRANCH  27  28
ENDBRANCH  26  27
ENDBRANCH  25  26
ENDBRANCH  24  25
ENDBRANCH  23  24
ENDBRANCH  22  23
ENDBRANCH  21  22
ENDBRANCH  20  21
ENDBRANCH  19  20
ENDBRANCH  18  19
ENDBRANCH  17  18
ENDBRANCH   1  17
TORSDOF 26
ENDMDL
MODEL 4
REMARK VINA RESULT:     2.566      4.404      7.503
REMARK INTER + INTRA:           7.799
REMARK INTER:                   4.233
REMARK INTRA:                   3.566
REMARK UNBOUND:                 1.332
REMARK SMILES CCCCCCCCCCCCCCCCCCCCCCCCCCCC(=O)[O-]
REMARK SMILES IDX 15 1 16 2 17 3 18 4 19 5 20 6 21 7 22 8 23 9 24 10 25 11
REMARK SMILES IDX 26 12 27 13 28 14 29 15 30 16 14 17 13 18 12 19 11 20 10 21
REMARK SMILES IDX 9 22 8 23 7 24 6 25 5 26 4 27 3 28 2 29 1 30
REMARK H PARENT
REMARK Flexibility Score: inf
ROOT
ATOM      1  C   UNL     1      26.086  24.758  -1.341  1.00  0.00     0.000 C 
ENDROOT
BRANCH   1   2
ATOM      2  C   UNL     1      26.744  24.074  -0.128  1.00  0.00     0.000 C 
BRANCH   2   3
ATOM      3  C   UNL     1      27.061  25.007   1.057  1.00  0.00     0.000 C 
BRANCH   3   4
ATOM      4  C   UNL     1      28.435  25.702   0.990  1.00  0.00     0.000 C 
BRANCH   4   5
ATOM      5  C   UNL     1      28.547  26.701  -0.171  1.00  0.00     0.000 C 
BRANCH   5   6
ATOM      6  C   UNL     1      29.123  28.043   0.310  1.00  0.00     0.000 C 
BRANCH   6   7
ATOM      7  C   UNL     1      29.071  28.196   1.839  1.00  0.00     0.000 C 
BRANCH   7   8
ATOM      8  C   UNL     1      29.065  29.664   2.291  1.00  0.00     0.000 C 
BRANCH   8   9
ATOM      9  C   UNL     1      28.958  29.765   3.817  1.00  0.00     0.000 C 
BRANCH   9  10
ATOM     10  C   UNL     1      29.125  28.389   4.475  1.00  0.00     0.000 C 
BRANCH  10  11
ATOM     11  C   UNL     1      27.777  27.843   4.960  1.00  0.00     0.000 C 
BRANCH  11  12
ATOM     12  C   UNL     1      26.958  28.941   5.654  1.00  0.00     0.006 C 
BRANCH  12  13
ATOM     13  C   UNL     1      25.629  28.414   6.207  1.00  0.00     0.053 C 
BRANCH  13  14
ATOM     14  C   UNL     1      24.951  27.483   5.247  1.00  0.00     0.041 C 
ATOM     15  O   UNL     1      25.619  26.896   4.355  1.00  0.00    -0.550 OA
ATOM     16  O   UNL     1      23.585  27.245   5.352  1.00  0.00    -0.550 OA
ENDBRANCH  13  14
ENDBRANCH  12  13
ENDBRANCH  11  12
ENDBRANCH  10  11
ENDBRANCH   9  10
ENDBRANCH   8   9
ENDBRANCH   7   8
ENDBRANCH   6   7
ENDBRANCH   5   6
ENDBRANCH   4   5
ENDBRANCH   3   4
ENDBRANCH   2   3
ENDBRANCH   1   2
BRANCH   1  17
ATOM     17  C   UNL     1      26.272  23.992  -2.668  1.00  0.00     0.000 C 
BRANCH  17  18
ATOM     18  C   UNL     1      27.753  23.784  -3.033  1.00  0.00     0.000 C 
BRANCH  18  19
ATOM     19  C   UNL     1      28.699  24.671  -2.205  1.00  0.00     0.000 C 
BRANCH  19  20
ATOM     20  C   UNL     1      28.400  26.182  -2.337  1.00  0.00     0.000 C 
BRANCH  20  21
ATOM     21  C   UNL     1      28.575  26.707  -3.774  1.00  0.00     0.000 C 
BRANCH  21  22
ATOM     22  C   UNL     1      29.124  28.145  -3.801  1.00  0.00    -0.000 C 
BRANCH  22  23
ATOM     23  C   UNL     1      28.664  28.933  -5.047  1.00  0.00    -0.000 C 
BRANCH  23  24
ATOM     24  C   UNL     1      28.948  28.221  -6.384  1.00  0.00    -0.000 C 
BRANCH  24  25
ATOM     25  C   UNL     1      28.596  29.029  -7.644  1.00  0.00    -0.000 C 
BRANCH  25  26
ATOM     26  C   UNL     1      29.086  28.361  -8.938  1.00  0.00    -0.000 C 
BRANCH  26  27
ATOM     27  C   UNL     1      28.275  28.848 -10.150  1.00  0.00    -0.000 C 
BRANCH  27  28
ATOM     28  C   UNL     1      26.933  28.114 -10.299  1.00  0.00    -0.000 C 
BRANCH  28  29
ATOM     29  C   UNL     1      27.085  26.718 -10.919  1.00  0.00    -0.003 C 
ATOM     30  C   UNL     1      25.725  26.057 -11.125  1.00  0.00     0.004 C 
ENDBRANCH  28  29
ENDBRANCH  27  28
ENDBRANCH  26  27
ENDBRANCH  25  26
ENDBRANCH  24  25
ENDBRANCH  23  24
ENDBRANCH  22  23
ENDBRANCH  21  22
ENDBRANCH  20  21
ENDBRANCH  19  20
ENDBRANCH  18  19
ENDBRANCH  17  18
ENDBRANCH   1  17
TORSDOF 26
ENDMDL
MODEL 5
REMARK VINA RESULT:     2.686      2.877     12.164
REMARK INTER + INTRA:           8.100
REMARK INTER:                   7.292
REMARK INTRA:                   0.808
REMARK UNBOUND:                 1.332
REMARK SMILES CCCCCCCCCCCCCCCCCCCCCCCCCCCC(=O)[O-]
REMARK SMILES IDX 15 1 16 2 17 3 18 4 19 5 20 6 21 7 22 8 23 9 24 10 25 11
REMARK SMILES IDX 26 12 27 13 28 14 29 15 30 16 14 17 13 18 12 19 11 20 10 21
REMARK SMILES IDX 9 22 8 23 7 24 6 25 5 26 4 27 3 28 2 29 1 30
REMARK H PARENT
REMARK Flexibility Score: inf
ROOT
ATOM      1  C   UNL     1      26.561  23.275  -2.104  1.00  0.00     0.000 C 
ENDROOT
BRANCH   1   2
ATOM      2  C   UNL     1      28.037  23.214  -2.540  1.00  0.00     0.000 C 
BRANCH   2   3
ATOM      3  C   UNL     1      28.602  21.795  -2.740  1.00  0.00     0.000 C 
BRANCH   3   4
ATOM      4  C   UNL     1      28.546  21.267  -4.187  1.00  0.00     0.000 C 
BRANCH   4   5
ATOM      5  C   UNL     1      27.441  20.224  -4.404  1.00  0.00     0.000 C 
BRANCH   5   6
ATOM      6  C   UNL     1      28.041  18.834  -4.675  1.00  0.00     0.000 C 
BRANCH   6   7
ATOM      7  C   UNL     1      28.943  18.344  -3.531  1.00  0.00     0.000 C 
BRANCH   7   8
ATOM      8  C   UNL     1      28.162  17.621  -2.424  1.00  0.00     0.000 C 
BRANCH   8   9
ATOM      9  C   UNL     1      29.117  16.933  -1.441  1.00  0.00     0.000 C 
BRANCH   9  10
ATOM     10  C   UNL     1      28.631  17.093   0.005  1.00  0.00     0.000 C 
BRANCH  10  11
ATOM     11  C   UNL     1      27.450  18.067   0.085  1.00  0.00     0.000 C 
BRANCH  11  12
ATOM     12  C   UNL     1      26.121  17.308   0.212  1.00  0.00     0.006 C 
BRANCH  12  13
ATOM     13  C   UNL     1      25.658  17.184   1.669  1.00  0.00     0.053 C 
BRANCH  13  14
ATOM     14  C   UNL     1      26.540  17.954   2.606  1.00  0.00     0.041 C 
ATOM     15  O   UNL     1      26.033  18.709   3.478  1.00  0.00    -0.550 OA
ATOM     16  O   UNL     1      27.922  17.820   2.531  1.00  0.00    -0.550 OA
ENDBRANCH  13  14
ENDBRANCH  12  13
ENDBRANCH  11  12
ENDBRANCH  10  11
ENDBRANCH   9  10
ENDBRANCH   8   9
ENDBRANCH   7   8
ENDBRANCH   6   7
ENDBRANCH   5   6
ENDBRANCH   4   5
ENDBRANCH   3   4
ENDBRANCH   2   3
ENDBRANCH   1   2
BRANCH   1  17
ATOM     17  C   UNL     1      26.178  24.581  -1.376  1.00  0.00     0.000 C 
BRANCH  17  18
ATOM     18  C   UNL     1      26.868  24.725  -0.008  1.00  0.00     0.000 C 
BRANCH  18  19
ATOM     19  C   UNL     1      28.374  24.414  -0.067  1.00  0.00     0.000 C 
BRANCH  19  20
ATOM     20  C   UNL     1      29.125  24.753   1.240  1.00  0.00     0.000 C 
BRANCH  20  21
ATOM     21  C   UNL     1      28.863  26.189   1.731  1.00  0.00     0.000 C 
BRANCH  21  22
ATOM     22  C   UNL     1      28.990  26.309   3.261  1.00  0.00    -0.000 C 
BRANCH  22  23
ATOM     23  C   UNL     1      27.630  26.185   3.981  1.00  0.00    -0.000 C 
BRANCH  23  24
ATOM     24  C   UNL     1      26.657  27.345   3.695  1.00  0.00    -0.000 C 
BRANCH  24  25
ATOM     25  C   UNL     1      26.337  28.245   4.900  1.00  0.00    -0.000 C 
BRANCH  25  26
ATOM     26  C   UNL     1      27.594  28.693   5.662  1.00  0.00    -0.000 C 
BRANCH  26  27
ATOM     27  C   UNL     1      28.163  29.992   5.069  1.00  0.00    -0.000 C 
BRANCH  27  28
ATOM     28  C   UNL     1      29.011  30.781   6.079  1.00  0.00    -0.000 C 
BRANCH  28  29
ATOM     29  C   UNL     1      28.189  31.807   6.872  1.00  0.00    -0.003 C 
ATOM     30  C   UNL     1      29.000  32.386   8.027  1.00  0.00     0.004 C 
ENDBRANCH  28  29
ENDBRANCH  27  28
ENDBRANCH  26  27
ENDBRANCH  25  26
ENDBRANCH  24  25
ENDBRANCH  23  24
ENDBRANCH  22  23
ENDBRANCH  21  22
ENDBRANCH  20  21
ENDBRANCH  19  20
ENDBRANCH  18  19
ENDBRANCH  17  18
ENDBRANCH   1  17
TORSDOF 26
ENDMDL
MODEL 6
REMARK VINA RESULT:     2.926      1.194      2.399
REMARK INTER + INTRA:           8.706
REMARK INTER:                   3.078
REMARK INTRA:                   5.628
REMARK UNBOUND:                 1.332
REMARK SMILES CCCCCCCCCCCCCCCCCCCCCCCCCCCC(=O)[O-]
REMARK SMILES IDX 15 1 16 2 17 3 18 4 19 5 20 6 21 7 22 8 23 9 24 10 25 11
REMARK SMILES IDX 26 12 27 13 28 14 29 15 30 16 14 17 13 18 12 19 11 20 10 21
REMARK SMILES IDX 9 22 8 23 7 24 6 25 5 26 4 27 3 28 2 29 1 30
REMARK H PARENT
REMARK Flexibility Score: inf
ROOT
ATOM      1  C   UNL     1      28.561  25.626   0.623  1.00  0.00     0.000 C 
ENDROOT
BRANCH   1   2
ATOM      2  C   UNL     1      28.623  27.151   0.422  1.00  0.00     0.000 C 
BRANCH   2   3
ATOM      3  C   UNL     1      29.112  27.953   1.643  1.00  0.00     0.000 C 
BRANCH   3   4
ATOM      4  C   UNL     1      28.359  29.273   1.901  1.00  0.00     0.000 C 
BRANCH   4   5
ATOM      5  C   UNL     1      29.064  30.178   2.922  1.00  0.00     0.000 C 
BRANCH   5   6
ATOM      6  C   UNL     1      28.301  30.203   4.256  1.00  0.00     0.000 C 
BRANCH   6   7
ATOM      7  C   UNL     1      28.995  31.066   5.321  1.00  0.00     0.000 C 
BRANCH   7   8
ATOM      8  C   UNL     1      28.472  30.798   6.739  1.00  0.00     0.000 C 
BRANCH   8   9
ATOM      9  C   UNL     1      28.352  29.292   7.002  1.00  0.00     0.000 C 
BRANCH   9  10
ATOM     10  C   UNL     1      28.822  28.480   5.788  1.00  0.00     0.000 C 
BRANCH  10  11
ATOM     11  C   UNL     1      27.703  28.343   4.750  1.00  0.00     0.000 C 
BRANCH  11  12
ATOM     12  C   UNL     1      26.327  28.568   5.393  1.00  0.00     0.006 C 
BRANCH  12  13
ATOM     13  C   UNL     1      25.339  27.442   5.063  1.00  0.00     0.053 C 
BRANCH  13  14
ATOM     14  C   UNL     1      24.251  27.331   6.089  1.00  0.00     0.041 C 
ATOM     15  O   UNL     1      23.371  26.436   5.986  1.00  0.00    -0.550 OA
ATOM     16  O   UNL     1      24.222  28.203   7.172  1.00  0.00    -0.550 OA
ENDBRANCH  13  14
ENDBRANCH  12  13
ENDBRANCH  11  12
ENDBRANCH  10  11
ENDBRANCH   9  10
ENDBRANCH   8   9
ENDBRANCH   7   8
ENDBRANCH   6   7
ENDBRANCH   5   6
ENDBRANCH   4   5
ENDBRANCH   3   4
ENDBRANCH   2   3
ENDBRANCH   1   2
BRANCH   1  17
ATOM     17  C   UNL     1      29.073  24.814  -0.586  1.00  0.00     0.000 C 
BRANCH  17  18
ATOM     18  C   UNL     1      27.976  23.948  -1.230  1.00  0.00     0.000 C 
BRANCH  18  19
ATOM     19  C   UNL     1      28.548  22.772  -2.042  1.00  0.00     0.000 C 
BRANCH  19  20
ATOM     20  C   UNL     1      28.134  22.792  -3.531  1.00  0.00     0.000 C 
BRANCH  20  21
ATOM     21  C   UNL     1      28.529  21.508  -4.283  1.00  0.00     0.000 C 
BRANCH  21  22
ATOM     22  C   UNL     1      28.493  20.269  -3.370  1.00  0.00    -0.000 C 
BRANCH  22  23
ATOM     23  C   UNL     1      28.076  18.988  -4.125  1.00  0.00    -0.000 C 
BRANCH  23  24
ATOM     24  C   UNL     1      29.124  17.859  -4.081  1.00  0.00    -0.000 C 
BRANCH  24  25
ATOM     25  C   UNL     1      29.097  16.988  -2.814  1.00  0.00    -0.000 C 
BRANCH  25  26
ATOM     26  C   UNL     1      28.698  17.775  -1.556  1.00  0.00    -0.000 C 
BRANCH  26  27
ATOM     27  C   UNL     1      27.453  17.162  -0.895  1.00  0.00    -0.000 C 
BRANCH  27  28
ATOM     28  C   UNL     1      27.609  17.003   0.626  1.00  0.00    -0.000 C 
BRANCH  28  29
ATOM     29  C   UNL     1      29.061  17.173   1.096  1.00  0.00    -0.003 C 
ATOM     30  C   UNL     1      29.125  17.428   2.599  1.00  0.00     0.004 C 
ENDBRANCH  28  29
ENDBRANCH  27  28
ENDBRANCH  26  27
ENDBRANCH  25  26
ENDBRANCH  24  25
ENDBRANCH  23  24
ENDBRANCH  22  23
ENDBRANCH  21  22
ENDBRANCH  20  21
ENDBRANCH  19  20
ENDBRANCH  18  19
ENDBRANCH  17  18
ENDBRANCH   1  17
TORSDOF 26
ENDMDL
