MODEL 1
REMARK VINA RESULT:    -3.883      0.000      0.000
REMARK INTER + INTRA:          -7.045
REMARK INTER:                  -6.153
REMARK INTRA:                  -0.893
REMARK UNBOUND:                -0.893
REMARK SMILES CCCCCCCCCCCC(=O)[O-]
REMARK SMILES IDX 7 1 8 2 9 3 10 4 11 5 12 6 13 7 14 8 6 9 5 10 4 11 3 12 2 13
REMARK SMILES IDX 1 14
REMARK H PARENT
REMARK Flexibility Score: inf
ROOT
ATOM      1  C   UNL     1      29.694  10.872 -13.136  1.00  0.00     0.000 C 
ENDROOT
BRANCH   1   2
ATOM      2  C   UNL     1      29.381  11.385 -14.550  1.00  0.00     0.000 C 
BRANCH   2   3
ATOM      3  C   UNL     1      28.663  12.739 -14.495  1.00  0.00     0.000 C 
BRANCH   3   4
ATOM      4  C   UNL     1      29.055  13.619 -15.688  1.00  0.00     0.006 C 
BRANCH   4   5
ATOM      5  C   UNL     1      28.467  13.070 -16.991  1.00  0.00     0.053 C 
BRANCH   5   6
ATOM      6  C   UNL     1      29.337  13.433 -18.153  1.00  0.00     0.041 C 
ATOM      7  O   UNL     1      29.182  14.537 -18.739  1.00  0.00    -0.550 OA
ATOM      8  O   UNL     1      30.352  12.576 -18.557  1.00  0.00    -0.550 OA
ENDBRANCH   5   6
ENDBRANCH   4   5
ENDBRANCH   3   4
ENDBRANCH   2   3
ENDBRANCH   1   2
BRANCH   1   9
ATOM      9  C   UNL     1      30.377  11.932 -12.258  1.00  0.00     0.000 C 
BRANCH   9  10
ATOM     10  C   UNL     1      29.553  12.289 -11.009  1.00  0.00    -0.000 C 
BRANCH  10  11
ATOM     11  C   UNL     1      28.426  11.268 -10.744  1.00  0.00    -0.000 C 
BRANCH  11  12
ATOM     12  C   UNL     1      27.026  11.901 -10.671  1.00  0.00    -0.000 C 
BRANCH  12  13
ATOM     13  C   UNL     1      26.983  13.324 -11.244  1.00  0.00    -0.003 C 
ATOM     14  C   UNL     1      25.697  14.041 -10.843  1.00  0.00     0.004 C 
ENDBRANCH  12  13
ENDBRANCH  11  12
ENDBRANCH  10  11
ENDBRANCH   9  10
ENDBRANCH   1   9
TORSDOF 10
ENDMDL
MODEL 2
REMARK VINA RESULT:    -3.876      3.710      6.038
REMARK INTER + INTRA:          -7.035
REMARK INTER:                  -5.730
REMARK INTRA:                  -1.305
REMARK UNBOUND:                -0.893
REMARK SMILES CCCCCCCCCCCC(=O)[O-]
REMARK SMILES IDX 7 1 8 2 9 3 10 4 11 5 12 6 13 7 14 8 6 9 5 10 4 11 3 12 2 13
REMARK SMILES IDX 1 14
REMARK H PARENT
REMARK Flexibility Score: inf
ROOT
ATOM      1  C   UNL     1      30.223  12.099 -15.424  1.00  0.00     0.000 C 
ENDROOT
BRANCH   1   2
ATOM      2  C   UNL     1      30.219  12.388 -13.916  1.00  0.00     0.000 C 
BRANCH   2   3
ATOM      3  C   UNL     1      28.786  12.467 -13.376  1.00  0.00     0.000 C 
BRANCH   3   4
ATOM      4  C   UNL     1      28.751  13.150 -12.004  1.00  0.00     0.006 C 
BRANCH   4   5
ATOM      5  C   UNL     1      27.480  13.987 -11.839  1.00  0.00     0.053 C 
BRANCH   5   6
ATOM      6  C   UNL     1      26.530  13.318 -10.897  1.00  0.00     0.041 C 
ATOM      7  O   UNL     1      25.558  13.959 -10.415  1.00  0.00    -0.550 OA
ATOM      8  O   UNL     1      26.688  11.974 -10.587  1.00  0.00    -0.550 OA
ENDBRANCH   5   6
ENDBRANCH   4   5
ENDBRANCH   3   4
ENDBRANCH   2   3
ENDBRANCH   1   2
BRANCH   1   9
ATOM      9  C   UNL     1      28.826  12.216 -16.054  1.00  0.00     0.000 C 
BRANCH   9  10
ATOM     10  C   UNL     1      28.761  13.284 -17.160  1.00  0.00    -0.000 C 
BRANCH  10  11
ATOM     11  C   UNL     1      30.089  14.059 -17.299  1.00  0.00    -0.000 C 
BRANCH  11  12
ATOM     12  C   UNL     1      29.986  15.537 -16.887  1.00  0.00    -0.000 C 
BRANCH  12  13
ATOM     13  C   UNL     1      30.510  15.799 -15.468  1.00  0.00    -0.003 C 
ATOM     14  C   UNL     1      29.360  15.939 -14.475  1.00  0.00     0.004 C 
ENDBRANCH  12  13
ENDBRANCH  11  12
ENDBRANCH  10  11
ENDBRANCH   9  10
ENDBRANCH   1   9
TORSDOF 10
ENDMDL
MODEL 3
REMARK VINA RESULT:    -3.821      1.809      2.996
REMARK INTER + INTRA:          -6.948
REMARK INTER:                  -5.777
REMARK INTRA:                  -1.171
REMARK UNBOUND:                -0.893
REMARK SMILES CCCCCCCCCCCC(=O)[O-]
REMARK SMILES IDX 7 1 8 2 9 3 10 4 11 5 12 6 13 7 14 8 6 9 5 10 4 11 3 12 2 13
REMARK SMILES IDX 1 14
REMARK H PARENT
REMARK Flexibility Score: inf
ROOT
ATOM      1  C   UNL     1      29.436  12.922 -12.781  1.00  0.00     0.000 C 
ENDROOT
BRANCH   1   2
ATOM      2  C   UNL     1      30.310  11.956 -13.593  1.00  0.00     0.000 C 
BRANCH   2   3
ATOM      3  C   UNL     1      29.596  11.517 -14.878  1.00  0.00     0.000 C 
BRANCH   3   4
ATOM      4  C   UNL     1      28.565  12.563 -15.318  1.00  0.00     0.006 C 
BRANCH   4   5
ATOM      5  C   UNL     1      28.743  12.919 -16.797  1.00  0.00     0.053 C 
BRANCH   5   6
ATOM      6  C   UNL     1      29.359  14.275 -16.939  1.00  0.00     0.041 C 
ATOM      7  O   UNL     1      29.305  14.884 -18.040  1.00  0.00    -0.550 OA
ATOM      8  O   UNL     1      29.951  14.888 -15.843  1.00  0.00    -0.550 OA
ENDBRANCH   5   6
ENDBRANCH   4   5
ENDBRANCH   3   4
ENDBRANCH   2   3
ENDBRANCH   1   2
BRANCH   1   9
ATOM      9  C   UNL     1      29.294  12.500 -11.310  1.00  0.00     0.000 C 
BRANCH   9  10
ATOM     10  C   UNL     1      30.643  12.143 -10.662  1.00  0.00    -0.000 C 
BRANCH  10  11
ATOM     11  C   UNL     1      30.599  10.780  -9.941  1.00  0.00    -0.000 C 
BRANCH  11  12
ATOM     12  C   UNL     1      29.583   9.795 -10.545  1.00  0.00    -0.000 C 
BRANCH  12  13
ATOM     13  C   UNL     1      30.231   8.770 -11.485  1.00  0.00    -0.003 C 
ATOM     14  C   UNL     1      29.323   8.461 -12.672  1.00  0.00     0.004 C 
ENDBRANCH  12  13
ENDBRANCH  11  12
ENDBRANCH  10  11
ENDBRANCH   9  10
ENDBRANCH   1   9
TORSDOF 10
ENDMDL
MODEL 4
REMARK VINA RESULT:    -3.818      3.632      6.682
REMARK INTER + INTRA:          -6.944
REMARK INTER:                  -6.147
REMARK INTRA:                  -0.797
REMARK UNBOUND:                -0.893
REMARK SMILES CCCCCCCCCCCC(=O)[O-]
REMARK SMILES IDX 7 1 8 2 9 3 10 4 11 5 12 6 13 7 14 8 6 9 5 10 4 11 3 12 2 13
REMARK SMILES IDX 1 14
REMARK H PARENT
REMARK Flexibility Score: inf
ROOT
ATOM      1  C   UNL     1      28.357  12.623 -16.363  1.00  0.00     0.000 C 
ENDROOT
BRANCH   1   2
ATOM      2  C   UNL     1      28.885  12.530 -14.924  1.00  0.00     0.000 C 
BRANCH   2   3
ATOM      3  C   UNL     1      29.631  13.811 -14.530  1.00  0.00     0.000 C 
BRANCH   3   4
ATOM      4  C   UNL     1      28.805  14.648 -13.547  1.00  0.00     0.006 C 
BRANCH   4   5
ATOM      5  C   UNL     1      28.161  13.762 -12.476  1.00  0.00     0.053 C 
BRANCH   5   6
ATOM      6  C   UNL     1      26.969  14.442 -11.881  1.00  0.00     0.041 C 
ATOM      7  O   UNL     1      26.559  15.533 -12.357  1.00  0.00    -0.550 OA
ATOM      8  O   UNL     1      26.281  13.847 -10.832  1.00  0.00    -0.550 OA
ENDBRANCH   5   6
ENDBRANCH   4   5
ENDBRANCH   3   4
ENDBRANCH   2   3
ENDBRANCH   1   2
BRANCH   1   9
ATOM      9  C   UNL     1      28.954  13.808 -17.139  1.00  0.00     0.000 C 
BRANCH   9  10
ATOM     10  C   UNL     1      29.756  13.365 -18.375  1.00  0.00    -0.000 C 
BRANCH  10  11
ATOM     11  C   UNL     1      30.887  12.380 -18.013  1.00  0.00    -0.000 C 
BRANCH  11  12
ATOM     12  C   UNL     1      30.797  11.037 -18.757  1.00  0.00    -0.000 C 
BRANCH  12  13
ATOM     13  C   UNL     1      30.473   9.859 -17.828  1.00  0.00    -0.003 C 
ATOM     14  C   UNL     1      30.618   8.527 -18.557  1.00  0.00     0.004 C 
ENDBRANCH  12  13
ENDBRANCH  11  12
ENDBRANCH  10  11
ENDBRANCH   9  10
ENDBRANCH   1   9
TORSDOF 10
ENDMDL
MODEL 5
REMARK VINA RESULT:    -3.814      3.491      5.483
REMARK INTER + INTRA:          -6.936
REMARK INTER:                  -5.708
REMARK INTRA:                  -1.228
REMARK UNBOUND:                -0.893
REMARK SMILES CCCCCCCCCCCC(=O)[O-]
REMARK SMILES IDX 7 1 8 2 9 3 10 4 11 5 12 6 13 7 14 8 6 9 5 10 4 11 3 12 2 13
REMARK SMILES IDX 1 14
REMARK H PARENT
REMARK Flexibility Score: inf
ROOT
ATOM      1  C   UNL     1      29.268  10.609 -10.277  1.00  0.00     0.000 C 
ENDROOT
BRANCH   1   2
ATOM      2  C   UNL     1      28.315  11.467 -11.122  1.00  0.00     0.000 C 
BRANCH   2   3
ATOM      3  C   UNL     1      28.850  12.897 -11.269  1.00  0.00     0.000 C 
BRANCH   3   4
ATOM      4  C   UNL     1      27.839  13.790 -11.998  1.00  0.00     0.006 C 
BRANCH   4   5
ATOM      5  C   UNL     1      26.416  13.243 -11.851  1.00  0.00     0.053 C 
BRANCH   5   6
ATOM      6  C   UNL     1      25.512  14.282 -11.268  1.00  0.00     0.041 C 
ATOM      7  O   UNL     1      25.449  14.439 -10.020  1.00  0.00    -0.550 OA
ATOM      8  O   UNL     1      24.777  15.113 -12.103  1.00  0.00    -0.550 OA
ENDBRANCH   5   6
ENDBRANCH   4   5
ENDBRANCH   3   4
ENDBRANCH   2   3
ENDBRANCH   1   2
BRANCH   1   9
ATOM      9  C   UNL     1      29.901   9.461 -11.078  1.00  0.00     0.000 C 
BRANCH   9  10
ATOM     10  C   UNL     1      29.825   9.686 -12.599  1.00  0.00    -0.000 C 
BRANCH  10  11
ATOM     11  C   UNL     1      31.035  10.484 -13.130  1.00  0.00    -0.000 C 
BRANCH  11  12
ATOM     12  C   UNL     1      30.706  11.363 -14.348  1.00  0.00    -0.000 C 
BRANCH  12  13
ATOM     13  C   UNL     1      29.250  11.222 -14.811  1.00  0.00    -0.003 C 
ATOM     14  C   UNL     1      28.712  12.545 -15.348  1.00  0.00     0.004 C 
ENDBRANCH  12  13
ENDBRANCH  11  12
ENDBRANCH  10  11
ENDBRANCH   9  10
ENDBRANCH   1   9
TORSDOF 10
ENDMDL
MODEL 6
REMARK VINA RESULT:    -3.805      3.431      5.837
REMARK INTER + INTRA:          -6.923
REMARK INTER:                  -5.864
REMARK INTRA:                  -1.059
REMARK UNBOUND:                -0.893
REMARK SMILES CCCCCCCCCCCC(=O)[O-]
REMARK SMILES IDX 7 1 8 2 9 3 10 4 11 5 12 6 13 7 14 8 6 9 5 10 4 11 3 12 2 13
REMARK SMILES IDX 1 14
REMARK H PARENT
REMARK Flexibility Score: inf
ROOT
ATOM      1  C   UNL     1      30.313  12.803 -13.953  1.00  0.00     0.000 C 
ENDROOT
BRANCH   1   2
ATOM      2  C   UNL     1      29.790  12.523 -12.537  1.00  0.00     0.000 C 
BRANCH   2   3
ATOM      3  C   UNL     1      28.331  12.974 -12.393  1.00  0.00     0.000 C 
BRANCH   3   4
ATOM      4  C   UNL     1      28.140  14.399 -12.925  1.00  0.00     0.006 C 
BRANCH   4   5
ATOM      5  C   UNL     1      27.433  15.281 -11.892  1.00  0.00     0.053 C 
BRANCH   5   6
ATOM      6  C   UNL     1      26.065  14.751 -11.598  1.00  0.00     0.041 C 
ATOM      7  O   UNL     1      25.161  14.810 -12.474  1.00  0.00    -0.550 OA
ATOM      8  O   UNL     1      25.800  14.146 -10.377  1.00  0.00    -0.550 OA
ENDBRANCH   5   6
ENDBRANCH   4   5
ENDBRANCH   3   4
ENDBRANCH   2   3
ENDBRANCH   1   2
BRANCH   1   9
ATOM      9  C   UNL     1      30.365  11.539 -14.827  1.00  0.00     0.000 C 
BRANCH   9  10
ATOM     10  C   UNL     1      29.081  11.333 -15.649  1.00  0.00    -0.000 C 
BRANCH  10  11
ATOM     11  C   UNL     1      28.551  12.655 -16.243  1.00  0.00    -0.000 C 
BRANCH  11  12
ATOM     12  C   UNL     1      29.209  13.038 -17.580  1.00  0.00    -0.000 C 
BRANCH  12  13
ATOM     13  C   UNL     1      29.252  14.554 -17.812  1.00  0.00    -0.003 C 
ATOM     14  C   UNL     1      30.050  15.256 -16.716  1.00  0.00     0.004 C 
ENDBRANCH  12  13
ENDBRANCH  11  12
ENDBRANCH  10  11
ENDBRANCH   9  10
ENDBRANCH   1   9
TORSDOF 10
ENDMDL
MODEL 7
REMARK VINA RESULT:    -3.797     16.735     17.504
REMARK INTER + INTRA:          -6.910
REMARK INTER:                  -5.784
REMARK INTRA:                  -1.126
REMARK UNBOUND:                -0.893
REMARK SMILES CCCCCCCCCCCC(=O)[O-]
REMARK SMILES IDX 7 1 8 2 9 3 10 4 11 5 12 6 13 7 14 8 6 9 5 10 4 11 3 12 2 13
REMARK SMILES IDX 1 14
REMARK H PARENT
REMARK Flexibility Score: inf
ROOT
ATOM      1  C   UNL     1      18.181  -0.093 -14.758  1.00  0.00     0.000 C 
ENDROOT
BRANCH   1   2
ATOM      2  C   UNL     1      16.875   0.679 -14.995  1.00  0.00     0.000 C 
BRANCH   2   3
ATOM      3  C   UNL     1      16.040   0.018 -16.098  1.00  0.00     0.000 C 
BRANCH   3   4
ATOM      4  C   UNL     1      15.308   1.071 -16.939  1.00  0.00     0.006 C 
BRANCH   4   5
ATOM      5  C   UNL     1      16.240   1.677 -17.993  1.00  0.00     0.053 C 
BRANCH   5   6
ATOM      6  C   UNL     1      15.951   3.134 -18.172  1.00  0.00     0.041 C 
ATOM      7  O   UNL     1      14.987   3.668 -17.562  1.00  0.00    -0.550 OA
ATOM      8  O   UNL     1      16.774   3.913 -18.974  1.00  0.00    -0.550 OA
ENDBRANCH   5   6
ENDBRANCH   4   5
ENDBRANCH   3   4
ENDBRANCH   2   3
ENDBRANCH   1   2
BRANCH   1   9
ATOM      9  C   UNL     1      18.218  -0.792 -13.390  1.00  0.00     0.000 C 
BRANCH   9  10
ATOM     10  C   UNL     1      17.370  -2.076 -13.356  1.00  0.00    -0.000 C 
BRANCH  10  11
ATOM     11  C   UNL     1      16.229  -1.992 -12.321  1.00  0.00    -0.000 C 
BRANCH  11  12
ATOM     12  C   UNL     1      16.209  -0.671 -11.531  1.00  0.00    -0.000 C 
BRANCH  12  13
ATOM     13  C   UNL     1      14.938   0.153 -11.779  1.00  0.00    -0.003 C 
ATOM     14  C   UNL     1      14.039  -0.519 -12.812  1.00  0.00     0.004 C 
ENDBRANCH  12  13
ENDBRANCH  11  12
ENDBRANCH  10  11
ENDBRANCH   9  10
ENDBRANCH   1   9
TORSDOF 10
ENDMDL
MODEL 8
REMARK VINA RESULT:    -3.767      1.487      2.027
REMARK INTER + INTRA:          -6.863
REMARK INTER:                  -5.462
REMARK INTRA:                  -1.401
REMARK UNBOUND:                -0.893
REMARK SMILES CCCCCCCCCCCC(=O)[O-]
REMARK SMILES IDX 7 1 8 2 9 3 10 4 11 5 12 6 13 7 14 8 6 9 5 10 4 11 3 12 2 13
REMARK SMILES IDX 1 14
REMARK H PARENT
REMARK Flexibility Score: inf
ROOT
ATOM      1  C   UNL     1      29.520   9.965 -13.600  1.00  0.00     0.000 C 
ENDROOT
BRANCH   1   2
ATOM      2  C   UNL     1      30.696  10.936 -13.781  1.00  0.00     0.000 C 
BRANCH   2   3
ATOM      3  C   UNL     1      30.495  11.816 -15.020  1.00  0.00     0.000 C 
BRANCH   3   4
ATOM      4  C   UNL     1      29.278  11.356 -15.831  1.00  0.00     0.006 C 
BRANCH   4   5
ATOM      5  C   UNL     1      28.463  12.554 -16.326  1.00  0.00     0.053 C 
BRANCH   5   6
ATOM      6  C   UNL     1      29.255  13.358 -17.308  1.00  0.00     0.041 C 
ATOM      7  O   UNL     1      29.640  12.837 -18.388  1.00  0.00    -0.550 OA
ATOM      8  O   UNL     1      29.526  14.696 -17.054  1.00  0.00    -0.550 OA
ENDBRANCH   5   6
ENDBRANCH   4   5
ENDBRANCH   3   4
ENDBRANCH   2   3
ENDBRANCH   1   2
BRANCH   1   9
ATOM      9  C   UNL     1      29.435   9.395 -12.176  1.00  0.00     0.000 C 
BRANCH   9  10
ATOM     10  C   UNL     1      29.472  10.489 -11.095  1.00  0.00    -0.000 C 
BRANCH  10  11
ATOM     11  C   UNL     1      28.235  11.410 -11.157  1.00  0.00    -0.000 C 
BRANCH  11  12
ATOM     12  C   UNL     1      28.578  12.886 -11.426  1.00  0.00    -0.000 C 
BRANCH  12  13
ATOM     13  C   UNL     1      27.837  13.458 -12.642  1.00  0.00    -0.003 C 
ATOM     14  C   UNL     1      28.614  14.616 -13.264  1.00  0.00     0.004 C 
ENDBRANCH  12  13
ENDBRANCH  11  12
ENDBRANCH  10  11
ENDBRANCH   9  10
ENDBRANCH   1   9
TORSDOF 10
ENDMDL
MODEL 9
REMARK VINA RESULT:    -3.757      3.431      6.576
REMARK INTER + INTRA:          -6.846
REMARK INTER:                  -5.736
REMARK INTRA:                  -1.110
REMARK UNBOUND:                -0.893
REMARK SMILES CCCCCCCCCCCC(=O)[O-]
REMARK SMILES IDX 7 1 8 2 9 3 10 4 11 5 12 6 13 7 14 8 6 9 5 10 4 11 3 12 2 13
REMARK SMILES IDX 1 14
REMARK H PARENT
REMARK Flexibility Score: inf
ROOT
ATOM      1  C   UNL     1      28.493  12.492 -16.078  1.00  0.00     0.000 C 
ENDROOT
BRANCH   1   2
ATOM      2  C   UNL     1      28.689  12.900 -14.611  1.00  0.00     0.000 C 
BRANCH   2   3
ATOM      3  C   UNL     1      30.179  12.937 -14.246  1.00  0.00     0.000 C 
BRANCH   3   4
ATOM      4  C   UNL     1      30.704  11.531 -13.934  1.00  0.00     0.006 C 
BRANCH   4   5
ATOM      5  C   UNL     1      30.579  11.217 -12.441  1.00  0.00     0.053 C 
BRANCH   5   6
ATOM      6  C   UNL     1      29.720  10.011 -12.229  1.00  0.00     0.041 C 
ATOM      7  O   UNL     1      29.176   9.440 -13.211  1.00  0.00    -0.550 OA
ATOM      8  O   UNL     1      29.560   9.485 -10.953  1.00  0.00    -0.550 OA
ENDBRANCH   5   6
ENDBRANCH   4   5
ENDBRANCH   3   4
ENDBRANCH   2   3
ENDBRANCH   1   2
BRANCH   1   9
ATOM      9  C   UNL     1      28.891  13.603 -17.062  1.00  0.00     0.000 C 
BRANCH   9  10
ATOM     10  C   UNL     1      29.717  13.078 -18.249  1.00  0.00    -0.000 C 
BRANCH  10  11
ATOM     11  C   UNL     1      30.668  11.935 -17.836  1.00  0.00    -0.000 C 
BRANCH  11  12
ATOM     12  C   UNL     1      30.794  10.825 -18.895  1.00  0.00    -0.000 C 
BRANCH  12  13
ATOM     13  C   UNL     1      30.801   9.417 -18.286  1.00  0.00    -0.003 C 
ATOM     14  C   UNL     1      30.058   9.390 -16.953  1.00  0.00     0.004 C 
ENDBRANCH  12  13
ENDBRANCH  11  12
ENDBRANCH  10  11
ENDBRANCH   9  10
ENDBRANCH   1   9
TORSDOF 10
ENDMDL
