MODEL 1
REMARK VINA RESULT:    -2.440      0.000      0.000
REMARK INTER + INTRA:          -2.440
REMARK INTER:                  -2.440
REMARK INTRA:                   0.000
REMARK UNBOUND:                 0.000
REMARK SMILES CC(=O)[O-]
REMARK SMILES IDX 1 1 2 2 3 3 4 4
REMARK H PARENT
REMARK Flexibility Score: inf
ROOT
ATOM      1  C   UNL     1      27.412  21.708  18.861  1.00  0.00     0.063 C 
ATOM      2  C   UNL     1      27.573  20.883  17.630  1.00  0.00     0.038 C 
ATOM      3  O   UNL     1      26.919  19.816  17.495  1.00  0.00    -0.550 OA
ATOM      4  O   UNL     1      28.403  21.316  16.604  1.00  0.00    -0.550 OA
ENDROOT
TORSDOF 0
ENDMDL
MODEL 2
REMARK VINA RESULT:    -2.266     12.684     12.856
REMARK INTER + INTRA:          -2.266
REMARK INTER:                  -2.266
REMARK INTRA:                   0.000
REMARK UNBOUND:                 0.000
REMARK SMILES CC(=O)[O-]
REMARK SMILES IDX 1 1 2 2 3 3 4 4
REMARK H PARENT
REMARK Flexibility Score: inf
ROOT
ATOM      1  C   UNL     1      18.997  26.848   9.001  1.00  0.00     0.063 C 
ATOM      2  C   UNL     1      19.037  25.399   9.350  1.00  0.00     0.038 C 
ATOM      3  O   UNL     1      19.824  24.625   8.743  1.00  0.00    -0.550 OA
ATOM      4  O   UNL     1      18.247  24.908  10.380  1.00  0.00    -0.550 OA
ENDROOT
TORSDOF 0
ENDMDL
MODEL 3
REMARK VINA RESULT:    -2.262     12.731     12.837
REMARK INTER + INTRA:          -2.262
REMARK INTER:                  -2.262
REMARK INTRA:                   0.000
REMARK UNBOUND:                 0.000
REMARK SMILES CC(=O)[O-]
REMARK SMILES IDX 1 1 2 2 3 3 4 4
REMARK H PARENT
REMARK Flexibility Score: inf
ROOT
ATOM      1  C   UNL     1      18.984  26.848   8.981  1.00  0.00     0.063 C 
ATOM      2  C   UNL     1      18.998  25.404   9.350  1.00  0.00     0.038 C 
ATOM      3  O   UNL     1      18.233  24.976  10.255  1.00  0.00    -0.550 OA
ATOM      4  O   UNL     1      19.815  24.517   8.662  1.00  0.00    -0.550 OA
ENDROOT
TORSDOF 0
ENDMDL
MODEL 4
REMARK VINA RESULT:    -2.188     13.490     13.717
REMARK INTER + INTRA:          -2.188
REMARK INTER:                  -2.188
REMARK INTRA:                   0.000
REMARK UNBOUND:                 0.000
REMARK SMILES CC(=O)[O-]
REMARK SMILES IDX 1 1 2 2 3 3 4 4
REMARK H PARENT
REMARK Flexibility Score: inf
ROOT
ATOM      1  C   UNL     1      19.198  24.690   8.580  1.00  0.00     0.063 C 
ATOM      2  C   UNL     1      18.554  25.988   8.929  1.00  0.00     0.038 C 
ATOM      3  O   UNL     1      19.251  27.032   9.031  1.00  0.00    -0.550 OA
ATOM      4  O   UNL     1      17.177  26.061   9.090  1.00  0.00    -0.550 OA
ENDROOT
TORSDOF 0
ENDMDL
MODEL 5
REMARK VINA RESULT:    -2.163     13.110     13.265
REMARK INTER + INTRA:          -2.163
REMARK INTER:                  -2.163
REMARK INTRA:                   0.000
REMARK UNBOUND:                 0.000
REMARK SMILES CC(=O)[O-]
REMARK SMILES IDX 1 1 2 2 3 3 4 4
REMARK H PARENT
REMARK Flexibility Score: inf
ROOT
ATOM      1  C   UNL     1      17.868  25.113   8.223  1.00  0.00     0.063 C 
ATOM      2  C   UNL     1      18.805  25.756   9.188  1.00  0.00     0.038 C 
ATOM      3  O   UNL     1      19.325  25.077  10.112  1.00  0.00    -0.550 OA
ATOM      4  O   UNL     1      19.149  27.093   9.039  1.00  0.00    -0.550 OA
ENDROOT
TORSDOF 0
ENDMDL
MODEL 6
REMARK VINA RESULT:    -2.013     10.818     10.995
REMARK INTER + INTRA:          -2.013
REMARK INTER:                  -2.013
REMARK INTRA:                   0.000
REMARK UNBOUND:                 0.000
REMARK SMILES CC(=O)[O-]
REMARK SMILES IDX 1 1 2 2 3 3 4 4
REMARK H PARENT
REMARK Flexibility Score: inf
ROOT
ATOM      1  C   UNL     1      19.127  22.284  10.652  1.00  0.00     0.063 C 
ATOM      2  C   UNL     1      20.065  23.369  10.246  1.00  0.00     0.038 C 
ATOM      3  O   UNL     1      21.308  23.165  10.253  1.00  0.00    -0.550 OA
ATOM      4  O   UNL     1      19.570  24.590   9.807  1.00  0.00    -0.550 OA
ENDROOT
TORSDOF 0
ENDMDL
MODEL 7
REMARK VINA RESULT:    -1.999     11.471     11.619
REMARK INTER + INTRA:          -1.999
REMARK INTER:                  -1.999
REMARK INTRA:                   0.000
REMARK UNBOUND:                 0.000
REMARK SMILES CC(=O)[O-]
REMARK SMILES IDX 1 1 2 2 3 3 4 4
REMARK H PARENT
REMARK Flexibility Score: inf
ROOT
ATOM      1  C   UNL     1      20.803  23.443  10.379  1.00  0.00     0.063 C 
ATOM      2  C   UNL     1      19.573  24.162   9.943  1.00  0.00     0.038 C 
ATOM      3  O   UNL     1      18.659  23.542   9.339  1.00  0.00    -0.550 OA
ATOM      4  O   UNL     1      19.407  25.507  10.248  1.00  0.00    -0.550 OA
ENDROOT
TORSDOF 0
ENDMDL
MODEL 8
REMARK VINA RESULT:    -1.996     11.202     11.468
REMARK INTER + INTRA:          -1.996
REMARK INTER:                  -1.996
REMARK INTRA:                   0.000
REMARK UNBOUND:                 0.000
REMARK SMILES CC(=O)[O-]
REMARK SMILES IDX 1 1 2 2 3 3 4 4
REMARK H PARENT
REMARK Flexibility Score: inf
ROOT
ATOM      1  C   UNL     1      21.504  22.814   7.934  1.00  0.00     0.063 C 
ATOM      2  C   UNL     1      20.781  23.524   9.027  1.00  0.00     0.038 C 
ATOM      3  O   UNL     1      19.898  24.378   8.750  1.00  0.00    -0.550 OA
ATOM      4  O   UNL     1      21.041  23.208  10.354  1.00  0.00    -0.550 OA
ENDROOT
TORSDOF 0
ENDMDL
