MODEL 1
REMARK VINA RESULT:    -6.085      0.000      0.000
REMARK INTER + INTRA:          -7.242
REMARK INTER:                  -7.331
REMARK INTRA:                   0.088
REMARK UNBOUND:                 0.088
REMARK SMILES Oc1cc(O)c2c(c1)O[C@@H](c1ccc(O)c(O)c1)[C@@H](O)C2
REMARK SMILES IDX 21 1 19 2 10 3 9 4 7 5 8 6 2 7 3 8 4 9 6 10 20 11 11 13
REMARK SMILES IDX 18 14 12 15 16 16 13 17 14 18 17 19 15 21 5 23 1 25
REMARK H PARENT 20 12 17 20 15 22 5 24 1 26
REMARK Flexibility Score: inf
ROOT
ATOM      1  C   UNL     1      36.026  40.519  33.636  1.00  0.00     0.079 C 
ATOM      2  C   UNL     1      36.279  39.731  32.336  1.00  0.00     0.164 C 
ATOM      3  C   UNL     1      35.774  40.548  31.135  1.00  0.00     0.232 C 
ATOM      4  O   UNL     1      36.421  41.820  31.107  1.00  0.00    -0.482 OA
ATOM      5  C   UNL     1      36.679  42.547  32.274  1.00  0.00     0.131 A 
ATOM      6  C   UNL     1      37.135  43.864  32.168  1.00  0.00     0.093 A 
ATOM      7  C   UNL     1      37.385  44.619  33.318  1.00  0.00     0.122 A 
ATOM      8  C   UNL     1      37.165  44.058  34.578  1.00  0.00     0.092 A 
ATOM      9  C   UNL     1      36.707  42.741  34.704  1.00  0.00     0.126 A 
ATOM     10  C   UNL     1      36.495  41.957  33.545  1.00  0.00     0.039 A 
ENDROOT
BRANCH   2  11
ATOM     11  O   UNL     1      37.653  39.471  32.195  1.00  0.00    -0.389 OA
ATOM     12  H   UNL     1      38.008  39.300  33.106  1.00  0.00     0.211 HD
ENDBRANCH   2  11
BRANCH   3  13
ATOM     13  C   UNL     1      35.993  39.811  29.833  1.00  0.00    -0.001 A 
ATOM     14  C   UNL     1      35.767  40.465  28.612  1.00  0.00     0.057 A 
ATOM     15  C   UNL     1      36.362  38.456  29.823  1.00  0.00     0.012 A 
ATOM     16  C   UNL     1      35.929  39.794  27.393  1.00  0.00     0.157 A 
ATOM     17  C   UNL     1      36.527  37.780  28.614  1.00  0.00     0.050 A 
ATOM     18  C   UNL     1      36.318  38.433  27.395  1.00  0.00     0.157 A 
BRANCH  16  19
ATOM     19  O   UNL     1      35.693  40.510  26.218  1.00  0.00    -0.504 OA
ATOM     20  H   UNL     1      36.419  40.810  25.585  1.00  0.00     0.293 HD
ENDBRANCH  16  19
BRANCH  18  21
ATOM     21  O   UNL     1      36.504  37.701  26.221  1.00  0.00    -0.504 OA
ATOM     22  H   UNL     1      35.759  37.247  25.713  1.00  0.00     0.293 HD
ENDBRANCH  18  21
ENDBRANCH   3  13
BRANCH   9  23
ATOM     23  O   UNL     1      36.463  42.252  35.989  1.00  0.00    -0.507 OA
ATOM     24  H   UNL     1      36.294  41.275  36.190  1.00  0.00     0.293 HD
ENDBRANCH   9  23
BRANCH   7  25
ATOM     25  O   UNL     1      37.843  45.931  33.220  1.00  0.00    -0.508 OA
ATOM     26  H   UNL     1      38.830  46.142  33.132  1.00  0.00     0.293 HD
ENDBRANCH   7  25
TORSDOF 6
ENDMDL
MODEL 2
REMARK VINA RESULT:    -5.871      4.548      6.783
REMARK INTER + INTRA:          -6.983
REMARK INTER:                  -6.666
REMARK INTRA:                  -0.318
REMARK UNBOUND:                 0.088
REMARK SMILES Oc1cc(O)c2c(c1)O[C@@H](c1ccc(O)c(O)c1)[C@@H](O)C2
REMARK SMILES IDX 21 1 19 2 10 3 9 4 7 5 8 6 2 7 3 8 4 9 6 10 20 11 11 13
REMARK SMILES IDX 18 14 12 15 16 16 13 17 14 18 17 19 15 21 5 23 1 25
REMARK H PARENT 20 12 17 20 15 22 5 24 1 26
REMARK Flexibility Score: inf
ROOT
ATOM      1  C   UNL     1      36.932  37.057  30.317  1.00  0.00     0.079 C 
ATOM      2  C   UNL     1      38.332  37.420  30.849  1.00  0.00     0.164 C 
ATOM      3  C   UNL     1      39.308  37.563  29.668  1.00  0.00     0.232 C 
ATOM      4  O   UNL     1      38.825  38.549  28.756  1.00  0.00    -0.482 OA
ATOM      5  C   UNL     1      37.467  38.668  28.442  1.00  0.00     0.131 A 
ATOM      6  C   UNL     1      37.081  39.518  27.403  1.00  0.00     0.093 A 
ATOM      7  C   UNL     1      35.732  39.644  27.057  1.00  0.00     0.122 A 
ATOM      8  C   UNL     1      34.767  38.906  27.746  1.00  0.00     0.092 A 
ATOM      9  C   UNL     1      35.135  38.048  28.791  1.00  0.00     0.126 A 
ATOM     10  C   UNL     1      36.494  37.951  29.175  1.00  0.00     0.039 A 
ENDROOT
BRANCH   2  11
ATOM     11  O   UNL     1      38.271  38.625  31.568  1.00  0.00    -0.389 OA
ATOM     12  H   UNL     1      38.329  39.360  30.903  1.00  0.00     0.211 HD
ENDBRANCH   2  11
BRANCH   3  13
ATOM     13  C   UNL     1      40.700  37.911  30.141  1.00  0.00    -0.001 A 
ATOM     14  C   UNL     1      41.166  39.231  30.033  1.00  0.00     0.057 A 
ATOM     15  C   UNL     1      41.566  36.921  30.633  1.00  0.00     0.012 A 
ATOM     16  C   UNL     1      42.465  39.573  30.432  1.00  0.00     0.157 A 
ATOM     17  C   UNL     1      42.861  37.252  31.033  1.00  0.00     0.050 A 
ATOM     18  C   UNL     1      43.322  38.570  30.942  1.00  0.00     0.157 A 
BRANCH  16  19
ATOM     19  O   UNL     1      42.857  40.906  30.302  1.00  0.00    -0.504 OA
ATOM     20  H   UNL     1      43.691  41.204  29.817  1.00  0.00     0.293 HD
ENDBRANCH  16  19
BRANCH  18  21
ATOM     21  O   UNL     1      44.627  38.835  31.364  1.00  0.00    -0.504 OA
ATOM     22  H   UNL     1      44.857  39.323  32.218  1.00  0.00     0.293 HD
ENDBRANCH  18  21
ENDBRANCH   3  13
BRANCH   9  23
ATOM     23  O   UNL     1      34.130  37.304  29.412  1.00  0.00    -0.507 OA
ATOM     24  H   UNL     1      33.696  36.494  28.989  1.00  0.00     0.293 HD
ENDBRANCH   9  23
BRANCH   7  25
ATOM     25  O   UNL     1      35.340  40.491  26.023  1.00  0.00    -0.508 OA
ATOM     26  H   UNL     1      34.423  40.419  25.598  1.00  0.00     0.293 HD
ENDBRANCH   7  25
TORSDOF 6
ENDMDL
MODEL 3
REMARK VINA RESULT:    -5.831      3.231      5.419
REMARK INTER + INTRA:          -6.935
REMARK INTER:                  -6.577
REMARK INTRA:                  -0.359
REMARK UNBOUND:                 0.088
REMARK SMILES Oc1cc(O)c2c(c1)O[C@@H](c1ccc(O)c(O)c1)[C@@H](O)C2
REMARK SMILES IDX 21 1 19 2 10 3 9 4 7 5 8 6 2 7 3 8 4 9 6 10 20 11 11 13
REMARK SMILES IDX 18 14 12 15 16 16 13 17 14 18 17 19 15 21 5 23 1 25
REMARK H PARENT 20 12 17 20 15 22 5 24 1 26
REMARK Flexibility Score: inf
ROOT
ATOM      1  C   UNL     1      37.427  36.867  30.438  1.00  0.00     0.079 C 
ATOM      2  C   UNL     1      37.102  35.887  29.295  1.00  0.00     0.164 C 
ATOM      3  C   UNL     1      35.593  35.927  28.999  1.00  0.00     0.232 C 
ATOM      4  O   UNL     1      35.198  37.258  28.672  1.00  0.00    -0.482 OA
ATOM      5  C   UNL     1      35.717  38.373  29.339  1.00  0.00     0.131 A 
ATOM      6  C   UNL     1      35.151  39.629  29.108  1.00  0.00     0.093 A 
ATOM      7  C   UNL     1      35.640  40.756  29.775  1.00  0.00     0.122 A 
ATOM      8  C   UNL     1      36.692  40.624  30.684  1.00  0.00     0.092 A 
ATOM      9  C   UNL     1      37.271  39.373  30.929  1.00  0.00     0.126 A 
ATOM     10  C   UNL     1      36.811  38.235  30.224  1.00  0.00     0.039 A 
ENDROOT
BRANCH   2  11
ATOM     11  O   UNL     1      37.825  36.240  28.143  1.00  0.00    -0.389 OA
ATOM     12  H   UNL     1      38.550  36.852  28.435  1.00  0.00     0.211 HD
ENDBRANCH   2  11
BRANCH   3  13
ATOM     13  C   UNL     1      35.222  34.973  27.887  1.00  0.00    -0.001 A 
ATOM     14  C   UNL     1      34.862  35.473  26.626  1.00  0.00     0.057 A 
ATOM     15  C   UNL     1      35.170  33.587  28.110  1.00  0.00     0.012 A 
ATOM     16  C   UNL     1      34.480  34.612  25.590  1.00  0.00     0.157 A 
ATOM     17  C   UNL     1      34.792  32.721  27.083  1.00  0.00     0.050 A 
ATOM     18  C   UNL     1      34.449  33.216  25.821  1.00  0.00     0.157 A 
BRANCH  16  19
ATOM     19  O   UNL     1      34.142  35.180  24.360  1.00  0.00    -0.504 OA
ATOM     20  H   UNL     1      34.680  35.057  23.515  1.00  0.00     0.293 HD
ENDBRANCH  16  19
BRANCH  18  21
ATOM     21  O   UNL     1      34.085  32.296  24.836  1.00  0.00    -0.504 OA
ATOM     22  H   UNL     1      33.151  31.930  24.721  1.00  0.00     0.293 HD
ENDBRANCH  18  21
ENDBRANCH   3  13
BRANCH   9  23
ATOM     23  O   UNL     1      38.289  39.297  31.883  1.00  0.00    -0.507 OA
ATOM     24  H   UNL     1      38.611  40.094  32.416  1.00  0.00     0.293 HD
ENDBRANCH   9  23
BRANCH   7  25
ATOM     25  O   UNL     1      35.082  42.013  29.548  1.00  0.00    -0.508 OA
ATOM     26  H   UNL     1      34.142  42.116  29.184  1.00  0.00     0.293 HD
ENDBRANCH   7  25
TORSDOF 6
ENDMDL
MODEL 4
REMARK VINA RESULT:    -5.827      7.566      9.423
REMARK INTER + INTRA:          -6.931
REMARK INTER:                  -6.546
REMARK INTRA:                  -0.385
REMARK UNBOUND:                 0.088
REMARK SMILES Oc1cc(O)c2c(c1)O[C@@H](c1ccc(O)c(O)c1)[C@@H](O)C2
REMARK SMILES IDX 21 1 19 2 10 3 9 4 7 5 8 6 2 7 3 8 4 9 6 10 20 11 11 13
REMARK SMILES IDX 18 14 12 15 16 16 13 17 14 18 17 19 15 21 5 23 1 25
REMARK H PARENT 20 12 17 20 15 22 5 24 1 26
REMARK Flexibility Score: inf
ROOT
ATOM      1  C   UNL     1      41.416  36.854  28.930  1.00  0.00     0.079 C 
ATOM      2  C   UNL     1      41.783  35.955  30.127  1.00  0.00     0.164 C 
ATOM      3  C   UNL     1      43.302  36.012  30.363  1.00  0.00     0.232 C 
ATOM      4  O   UNL     1      43.709  37.362  30.581  1.00  0.00    -0.482 OA
ATOM      5  C   UNL     1      43.165  38.428  29.856  1.00  0.00     0.131 A 
ATOM      6  C   UNL     1      43.740  39.696  29.976  1.00  0.00     0.093 A 
ATOM      7  C   UNL     1      43.227  40.775  29.250  1.00  0.00     0.122 A 
ATOM      8  C   UNL     1      42.143  40.581  28.391  1.00  0.00     0.092 A 
ATOM      9  C   UNL     1      41.554  39.318  28.257  1.00  0.00     0.126 A 
ATOM     10  C   UNL     1      42.040  38.231  29.023  1.00  0.00     0.039 A 
ENDROOT
BRANCH   2  11
ATOM     11  O   UNL     1      41.103  36.391  31.277  1.00  0.00    -0.389 OA
ATOM     12  H   UNL     1      41.792  36.727  31.908  1.00  0.00     0.211 HD
ENDBRANCH   2  11
BRANCH   3  13
ATOM     13  C   UNL     1      43.714  35.138  31.526  1.00  0.00    -0.001 A 
ATOM     14  C   UNL     1      44.236  35.722  32.690  1.00  0.00     0.057 A 
ATOM     15  C   UNL     1      43.639  33.738  31.440  1.00  0.00     0.012 A 
ATOM     16  C   UNL     1      44.658  34.932  33.767  1.00  0.00     0.157 A 
ATOM     17  C   UNL     1      44.056  32.943  32.508  1.00  0.00     0.050 A 
ATOM     18  C   UNL     1      44.562  33.523  33.676  1.00  0.00     0.157 A 
BRANCH  16  19
ATOM     19  O   UNL     1      45.161  35.582  34.895  1.00  0.00    -0.504 OA
ATOM     20  H   UNL     1      45.446  36.550  34.908  1.00  0.00     0.293 HD
ENDBRANCH  16  19
BRANCH  18  21
ATOM     21  O   UNL     1      44.956  32.671  34.710  1.00  0.00    -0.504 OA
ATOM     22  H   UNL     1      45.657  31.951  34.613  1.00  0.00     0.293 HD
ENDBRANCH  18  21
ENDBRANCH   3  13
BRANCH   9  23
ATOM     23  O   UNL     1      40.502  39.178  27.350  1.00  0.00    -0.507 OA
ATOM     24  H   UNL     1      39.688  39.778  27.346  1.00  0.00     0.293 HD
ENDBRANCH   9  23
BRANCH   7  25
ATOM     25  O   UNL     1      43.794  42.043  29.367  1.00  0.00    -0.508 OA
ATOM     26  H   UNL     1      43.226  42.882  29.325  1.00  0.00     0.293 HD
ENDBRANCH   7  25
TORSDOF 6
ENDMDL
MODEL 5
REMARK VINA RESULT:    -5.748      7.081      9.088
REMARK INTER + INTRA:          -6.835
REMARK INTER:                  -6.747
REMARK INTRA:                  -0.089
REMARK UNBOUND:                 0.088
REMARK SMILES Oc1cc(O)c2c(c1)O[C@@H](c1ccc(O)c(O)c1)[C@@H](O)C2
REMARK SMILES IDX 21 1 19 2 10 3 9 4 7 5 8 6 2 7 3 8 4 9 6 10 20 11 11 13
REMARK SMILES IDX 18 14 12 15 16 16 13 17 14 18 17 19 15 21 5 23 1 25
REMARK H PARENT 20 12 17 20 15 22 5 24 1 26
REMARK Flexibility Score: inf
ROOT
ATOM      1  C   UNL     1      43.099  40.318  25.236  1.00  0.00     0.079 C 
ATOM      2  C   UNL     1      42.852  39.539  26.541  1.00  0.00     0.164 C 
ATOM      3  C   UNL     1      43.444  40.322  27.726  1.00  0.00     0.232 C 
ATOM      4  O   UNL     1      42.868  41.627  27.781  1.00  0.00    -0.482 OA
ATOM      5  C   UNL     1      42.608  42.373  26.626  1.00  0.00     0.131 A 
ATOM      6  C   UNL     1      42.228  43.711  26.753  1.00  0.00     0.093 A 
ATOM      7  C   UNL     1      41.978  44.484  25.615  1.00  0.00     0.122 A 
ATOM      8  C   UNL     1      42.121  43.919  24.346  1.00  0.00     0.092 A 
ATOM      9  C   UNL     1      42.502  42.579  24.199  1.00  0.00     0.126 A 
ATOM     10  C   UNL     1      42.713  41.779  25.348  1.00  0.00     0.039 A 
ENDROOT
BRANCH   2  11
ATOM     11  O   UNL     1      41.472  39.353  26.732  1.00  0.00    -0.389 OA
ATOM     12  H   UNL     1      41.323  39.290  27.712  1.00  0.00     0.211 HD
ENDBRANCH   2  11
BRANCH   3  13
ATOM     13  C   UNL     1      43.233  39.591  29.032  1.00  0.00    -0.001 A 
ATOM     14  C   UNL     1      43.285  40.297  30.245  1.00  0.00     0.057 A 
ATOM     15  C   UNL     1      43.045  38.200  29.061  1.00  0.00     0.012 A 
ATOM     16  C   UNL     1      43.127  39.637  31.471  1.00  0.00     0.157 A 
ATOM     17  C   UNL     1      42.886  37.535  30.277  1.00  0.00     0.050 A 
ATOM     18  C   UNL     1      42.921  38.237  31.486  1.00  0.00     0.157 A 
BRANCH  16  19
ATOM     19  O   UNL     1      43.185  40.404  32.636  1.00  0.00    -0.504 OA
ATOM     20  H   UNL     1      42.961  41.388  32.675  1.00  0.00     0.293 HD
ENDBRANCH  16  19
BRANCH  18  21
ATOM     21  O   UNL     1      42.751  37.513  32.667  1.00  0.00    -0.504 OA
ATOM     22  H   UNL     1      43.309  37.646  33.498  1.00  0.00     0.293 HD
ENDBRANCH  18  21
ENDBRANCH   3  13
BRANCH   9  23
ATOM     23  O   UNL     1      42.672  42.084  22.905  1.00  0.00    -0.507 OA
ATOM     24  H   UNL     1      43.512  42.229  22.360  1.00  0.00     0.293 HD
ENDBRANCH   9  23
BRANCH   7  25
ATOM     25  O   UNL     1      41.596  45.819  25.734  1.00  0.00    -0.508 OA
ATOM     26  H   UNL     1      41.289  46.355  24.930  1.00  0.00     0.293 HD
ENDBRANCH   7  25
TORSDOF 6
ENDMDL
MODEL 6
REMARK VINA RESULT:    -5.743      1.304      2.695
REMARK INTER + INTRA:          -6.829
REMARK INTER:                  -6.450
REMARK INTRA:                  -0.379
REMARK UNBOUND:                 0.088
REMARK SMILES Oc1cc(O)c2c(c1)O[C@@H](c1ccc(O)c(O)c1)[C@@H](O)C2
REMARK SMILES IDX 21 1 19 2 10 3 9 4 7 5 8 6 2 7 3 8 4 9 6 10 20 11 11 13
REMARK SMILES IDX 18 14 12 15 16 16 13 17 14 18 17 19 15 21 5 23 1 25
REMARK H PARENT 20 12 17 20 15 22 5 24 1 26
REMARK Flexibility Score: inf
ROOT
ATOM      1  C   UNL     1      37.275  43.112  30.576  1.00  0.00     0.079 C 
ATOM      2  C   UNL     1      36.587  41.987  29.780  1.00  0.00     0.164 C 
ATOM      3  C   UNL     1      36.911  40.629  30.427  1.00  0.00     0.232 C 
ATOM      4  O   UNL     1      36.495  40.631  31.793  1.00  0.00    -0.482 OA
ATOM      5  C   UNL     1      36.652  41.752  32.615  1.00  0.00     0.131 A 
ATOM      6  C   UNL     1      36.406  41.629  33.985  1.00  0.00     0.093 A 
ATOM      7  C   UNL     1      36.571  42.729  34.833  1.00  0.00     0.122 A 
ATOM      8  C   UNL     1      36.997  43.952  34.309  1.00  0.00     0.092 A 
ATOM      9  C   UNL     1      37.249  44.093  32.939  1.00  0.00     0.126 A 
ATOM     10  C   UNL     1      37.040  42.996  32.069  1.00  0.00     0.039 A 
ENDROOT
BRANCH   2  11
ATOM     11  O   UNL     1      35.197  42.191  29.767  1.00  0.00    -0.389 OA
ATOM     12  H   UNL     1      34.915  42.196  28.815  1.00  0.00     0.211 HD
ENDBRANCH   2  11
BRANCH   3  13
ATOM     13  C   UNL     1      36.264  39.489  29.675  1.00  0.00    -0.001 A 
ATOM     14  C   UNL     1      36.634  39.227  28.347  1.00  0.00     0.057 A 
ATOM     15  C   UNL     1      35.247  38.719  30.264  1.00  0.00     0.012 A 
ATOM     16  C   UNL     1      36.024  38.198  27.617  1.00  0.00     0.157 A 
ATOM     17  C   UNL     1      34.635  37.692  29.545  1.00  0.00     0.050 A 
ATOM     18  C   UNL     1      35.013  37.418  28.226  1.00  0.00     0.157 A 
BRANCH  16  19
ATOM     19  O   UNL     1      36.449  37.991  26.303  1.00  0.00    -0.504 OA
ATOM     20  H   UNL     1      36.728  37.093  25.936  1.00  0.00     0.293 HD
ENDBRANCH  16  19
BRANCH  18  21
ATOM     21  O   UNL     1      34.365  36.374  27.564  1.00  0.00    -0.504 OA
ATOM     22  H   UNL     1      34.740  35.441  27.477  1.00  0.00     0.293 HD
ENDBRANCH  18  21
ENDBRANCH   3  13
BRANCH   9  23
ATOM     23  O   UNL     1      37.715  45.328  32.482  1.00  0.00    -0.507 OA
ATOM     24  H   UNL     1      37.112  46.122  32.315  1.00  0.00     0.293 HD
ENDBRANCH   9  23
BRANCH   7  25
ATOM     25  O   UNL     1      36.325  42.615  36.200  1.00  0.00    -0.508 OA
ATOM     26  H   UNL     1      36.617  41.798  36.723  1.00  0.00     0.293 HD
ENDBRANCH   7  25
TORSDOF 6
ENDMDL
MODEL 7
REMARK VINA RESULT:    -5.717      2.109      6.784
REMARK INTER + INTRA:          -6.798
REMARK INTER:                  -6.439
REMARK INTRA:                  -0.359
REMARK UNBOUND:                 0.088
REMARK SMILES Oc1cc(O)c2c(c1)O[C@@H](c1ccc(O)c(O)c1)[C@@H](O)C2
REMARK SMILES IDX 21 1 19 2 10 3 9 4 7 5 8 6 2 7 3 8 4 9 6 10 20 11 11 13
REMARK SMILES IDX 18 14 12 15 16 16 13 17 14 18 17 19 15 21 5 23 1 25
REMARK H PARENT 20 12 17 20 15 22 5 24 1 26
REMARK Flexibility Score: inf
ROOT
ATOM      1  C   UNL     1      34.016  40.806  30.635  1.00  0.00     0.079 C 
ATOM      2  C   UNL     1      34.729  42.115  31.024  1.00  0.00     0.164 C 
ATOM      3  C   UNL     1      36.239  41.855  31.164  1.00  0.00     0.232 C 
ATOM      4  O   UNL     1      36.754  41.323  29.944  1.00  0.00    -0.482 OA
ATOM      5  C   UNL     1      36.043  40.390  29.181  1.00  0.00     0.131 A 
ATOM      6  C   UNL     1      36.679  39.764  28.106  1.00  0.00     0.093 A 
ATOM      7  C   UNL     1      35.997  38.816  27.338  1.00  0.00     0.122 A 
ATOM      8  C   UNL     1      34.677  38.485  27.654  1.00  0.00     0.092 A 
ATOM      9  C   UNL     1      34.024  39.101  28.728  1.00  0.00     0.126 A 
ATOM     10  C   UNL     1      34.694  40.094  29.482  1.00  0.00     0.039 A 
ENDROOT
BRANCH   2  11
ATOM     11  O   UNL     1      34.502  43.093  30.041  1.00  0.00    -0.389 OA
ATOM     12  H   UNL     1      35.287  43.079  29.433  1.00  0.00     0.211 HD
ENDBRANCH   2  11
BRANCH   3  13
ATOM     13  C   UNL     1      36.983  43.111  31.553  1.00  0.00    -0.001 A 
ATOM     14  C   UNL     1      37.805  43.757  30.616  1.00  0.00     0.057 A 
ATOM     15  C   UNL     1      36.917  43.614  32.863  1.00  0.00     0.012 A 
ATOM     16  C   UNL     1      38.532  44.903  30.963  1.00  0.00     0.157 A 
ATOM     17  C   UNL     1      37.637  44.756  33.217  1.00  0.00     0.050 A 
ATOM     18  C   UNL     1      38.444  45.411  32.280  1.00  0.00     0.157 A 
BRANCH  16  19
ATOM     19  O   UNL     1      39.323  45.496  29.977  1.00  0.00    -0.504 OA
ATOM     20  H   UNL     1      39.981  46.242  30.154  1.00  0.00     0.293 HD
ENDBRANCH  16  19
BRANCH  18  21
ATOM     21  O   UNL     1      39.135  46.550  32.698  1.00  0.00    -0.504 OA
ATOM     22  H   UNL     1      38.908  47.076  33.529  1.00  0.00     0.293 HD
ENDBRANCH  18  21
ENDBRANCH   3  13
BRANCH   9  23
ATOM     23  O   UNL     1      32.721  38.696  29.022  1.00  0.00    -0.507 OA
ATOM     24  H   UNL     1      32.501  37.822  29.483  1.00  0.00     0.293 HD
ENDBRANCH   9  23
BRANCH   7  25
ATOM     25  O   UNL     1      36.624  38.189  26.262  1.00  0.00    -0.508 OA
ATOM     26  H   UNL     1      36.944  38.715  25.457  1.00  0.00     0.293 HD
ENDBRANCH   7  25
TORSDOF 6
ENDMDL
MODEL 8
REMARK VINA RESULT:    -5.618      8.130      9.693
REMARK INTER + INTRA:          -6.679
REMARK INTER:                  -6.297
REMARK INTRA:                  -0.383
REMARK UNBOUND:                 0.088
REMARK SMILES Oc1cc(O)c2c(c1)O[C@@H](c1ccc(O)c(O)c1)[C@@H](O)C2
REMARK SMILES IDX 21 1 19 2 10 3 9 4 7 5 8 6 2 7 3 8 4 9 6 10 20 11 11 13
REMARK SMILES IDX 18 14 12 15 16 16 13 17 14 18 17 19 15 21 5 23 1 25
REMARK H PARENT 20 12 17 20 15 22 5 24 1 26
REMARK Flexibility Score: inf
ROOT
ATOM      1  C   UNL     1      43.833  40.196  30.593  1.00  0.00     0.079 C 
ATOM      2  C   UNL     1      44.460  38.831  30.932  1.00  0.00     0.164 C 
ATOM      3  C   UNL     1      43.601  37.708  30.327  1.00  0.00     0.232 C 
ATOM      4  O   UNL     1      43.486  37.892  28.916  1.00  0.00    -0.482 OA
ATOM      5  C   UNL     1      43.325  39.158  28.343  1.00  0.00     0.131 A 
ATOM      6  C   UNL     1      43.025  39.256  26.982  1.00  0.00     0.093 A 
ATOM      7  C   UNL     1      42.843  40.508  26.388  1.00  0.00     0.122 A 
ATOM      8  C   UNL     1      42.950  41.666  27.162  1.00  0.00     0.092 A 
ATOM      9  C   UNL     1      43.249  41.588  28.527  1.00  0.00     0.126 A 
ATOM     10  C   UNL     1      43.480  40.326  29.125  1.00  0.00     0.039 A 
ENDROOT
BRANCH   2  11
ATOM     11  O   UNL     1      45.766  38.764  30.419  1.00  0.00    -0.389 OA
ATOM     12  H   UNL     1      45.684  38.573  29.448  1.00  0.00     0.211 HD
ENDBRANCH   2  11
BRANCH   3  13
ATOM     13  C   UNL     1      44.172  36.344  30.641  1.00  0.00    -0.001 A 
ATOM     14  C   UNL     1      44.278  35.919  31.974  1.00  0.00     0.057 A 
ATOM     15  C   UNL     1      44.660  35.512  29.620  1.00  0.00     0.012 A 
ATOM     16  C   UNL     1      44.836  34.674  32.293  1.00  0.00     0.157 A 
ATOM     17  C   UNL     1      45.217  34.270  29.928  1.00  0.00     0.050 A 
ATOM     18  C   UNL     1      45.308  33.837  31.255  1.00  0.00     0.157 A 
BRANCH  16  19
ATOM     19  O   UNL     1      44.902  34.315  33.640  1.00  0.00    -0.504 OA
ATOM     20  H   UNL     1      44.560  33.439  34.008  1.00  0.00     0.293 HD
ENDBRANCH  16  19
BRANCH  18  21
ATOM     21  O   UNL     1      45.871  32.582  31.494  1.00  0.00    -0.504 OA
ATOM     22  H   UNL     1      46.753  32.438  31.965  1.00  0.00     0.293 HD
ENDBRANCH  18  21
ENDBRANCH   3  13
BRANCH   9  23
ATOM     23  O   UNL     1      43.299  42.778  29.256  1.00  0.00    -0.507 OA
ATOM     24  H   UNL     1      42.821  42.910  30.138  1.00  0.00     0.293 HD
ENDBRANCH   9  23
BRANCH   7  25
ATOM     25  O   UNL     1      42.545  40.613  25.031  1.00  0.00    -0.508 OA
ATOM     26  H   UNL     1      42.588  39.809  24.416  1.00  0.00     0.293 HD
ENDBRANCH   7  25
TORSDOF 6
ENDMDL
MODEL 9
REMARK VINA RESULT:    -5.561      2.019      6.951
REMARK INTER + INTRA:          -6.611
REMARK INTER:                  -6.227
REMARK INTRA:                  -0.383
REMARK UNBOUND:                 0.088
REMARK SMILES Oc1cc(O)c2c(c1)O[C@@H](c1ccc(O)c(O)c1)[C@@H](O)C2
REMARK SMILES IDX 21 1 19 2 10 3 9 4 7 5 8 6 2 7 3 8 4 9 6 10 20 11 11 13
REMARK SMILES IDX 18 14 12 15 16 16 13 17 14 18 17 19 15 21 5 23 1 25
REMARK H PARENT 20 12 17 20 15 22 5 24 1 26
REMARK Flexibility Score: inf
ROOT
ATOM      1  C   UNL     1      34.182  40.871  30.726  1.00  0.00     0.079 C 
ATOM      2  C   UNL     1      34.837  42.234  31.020  1.00  0.00     0.164 C 
ATOM      3  C   UNL     1      36.366  42.070  31.062  1.00  0.00     0.232 C 
ATOM      4  O   UNL     1      36.828  41.525  29.826  1.00  0.00    -0.482 OA
ATOM      5  C   UNL     1      36.126  40.524  29.147  1.00  0.00     0.131 A 
ATOM      6  C   UNL     1      36.725  39.898  28.051  1.00  0.00     0.093 A 
ATOM      7  C   UNL     1      36.052  38.883  27.364  1.00  0.00     0.122 A 
ATOM      8  C   UNL     1      34.781  38.485  27.784  1.00  0.00     0.092 A 
ATOM      9  C   UNL     1      34.165  39.100  28.881  1.00  0.00     0.126 A 
ATOM     10  C   UNL     1      34.822  40.159  29.552  1.00  0.00     0.039 A 
ENDROOT
BRANCH   2  11
ATOM     11  O   UNL     1      34.481  43.159  30.024  1.00  0.00    -0.389 OA
ATOM     12  H   UNL     1      35.138  43.055  29.287  1.00  0.00     0.211 HD
ENDBRANCH   2  11
BRANCH   3  13
ATOM     13  C   UNL     1      37.055  43.382  31.356  1.00  0.00    -0.001 A 
ATOM     14  C   UNL     1      36.783  44.063  32.553  1.00  0.00     0.057 A 
ATOM     15  C   UNL     1      37.923  43.969  30.421  1.00  0.00     0.012 A 
ATOM     16  C   UNL     1      37.382  45.298  32.833  1.00  0.00     0.157 A 
ATOM     17  C   UNL     1      38.526  45.198  30.692  1.00  0.00     0.050 A 
ATOM     18  C   UNL     1      38.269  45.871  31.891  1.00  0.00     0.157 A 
BRANCH  16  19
ATOM     19  O   UNL     1      37.070  45.914  34.047  1.00  0.00    -0.504 OA
ATOM     20  H   UNL     1      36.130  46.131  34.343  1.00  0.00     0.293 HD
ENDBRANCH  16  19
BRANCH  18  21
ATOM     21  O   UNL     1      38.907  47.094  32.103  1.00  0.00    -0.504 OA
ATOM     22  H   UNL     1      38.424  47.974  32.207  1.00  0.00     0.293 HD
ENDBRANCH  18  21
ENDBRANCH   3  13
BRANCH   9  23
ATOM     23  O   UNL     1      32.913  38.628  29.279  1.00  0.00    -0.507 OA
ATOM     24  H   UNL     1      32.737  38.216  30.186  1.00  0.00     0.293 HD
ENDBRANCH   9  23
BRANCH   7  25
ATOM     25  O   UNL     1      36.642  38.255  26.268  1.00  0.00    -0.508 OA
ATOM     26  H   UNL     1      36.648  38.687  25.351  1.00  0.00     0.293 HD
ENDBRANCH   7  25
TORSDOF 6
ENDMDL
