MODEL 1
REMARK VINA RESULT:    -3.986      0.000      0.000
REMARK INTER + INTRA:          -5.763
REMARK INTER:                  -5.385
REMARK INTRA:                  -0.379
REMARK UNBOUND:                -0.379
REMARK SMILES [NH3+]CCCC[C@@H]([NH3+])C(=O)[O-]
REMARK SMILES IDX 4 1 3 2 2 3 1 4 5 8 6 9 7 10 8 14 9 15 10 16
REMARK H PARENT 1 5 1 6 1 7 7 11 7 12 7 13
REMARK Flexibility Score: inf
ROOT
ATOM      1  C   UNL     1     125.548 141.579 121.526  1.00  0.00     0.012 C 
ENDROOT
BRANCH   1   2
ATOM      2  C   UNL     1     125.725 142.429 122.800  1.00  0.00     0.061 C 
BRANCH   2   3
ATOM      3  C   UNL     1     127.070 143.172 122.898  1.00  0.00     0.258 C 
BRANCH   3   4
ATOM      4  N   UNL     1     127.770 143.223 121.613  1.00  0.00    -0.358 N 
ATOM      5  H   UNL     1     127.064 143.277 120.845  1.00  0.00     0.344 HD
ATOM      6  H   UNL     1     128.376 144.073 121.563  1.00  0.00     0.344 HD
ATOM      7  H   UNL     1     128.349 142.363 121.478  1.00  0.00     0.344 HD
ENDBRANCH   3   4
ENDBRANCH   2   3
ENDBRANCH   1   2
BRANCH   1   8
ATOM      8  C   UNL     1     125.594 140.054 121.742  1.00  0.00     0.072 C 
BRANCH   8   9
ATOM      9  C   UNL     1     126.778 139.334 121.055  1.00  0.00     0.227 C 
BRANCH   9  10
ATOM     10  N   UNL     1     126.953 139.776 119.665  1.00  0.00    -0.350 N 
ATOM     11  H   UNL     1     126.282 139.281 119.031  1.00  0.00     0.345 HD
ATOM     12  H   UNL     1     127.931 139.587 119.349  1.00  0.00     0.345 HD
ATOM     13  H   UNL     1     126.792 140.807 119.595  1.00  0.00     0.345 HD
ENDBRANCH   9  10
BRANCH   9  14
ATOM     14  C   UNL     1     128.037 139.590 121.840  1.00  0.00     0.099 C 
ATOM     15  O   UNL     1     129.143 139.695 121.248  1.00  0.00    -0.544 OA
ATOM     16  O   UNL     1     127.994 139.677 123.228  1.00  0.00    -0.544 OA
ENDBRANCH   9  14
ENDBRANCH   8   9
ENDBRANCH   1   8
TORSDOF 7
ENDMDL
MODEL 2
REMARK VINA RESULT:    -3.836      2.308      3.658
REMARK INTER + INTRA:          -5.560
REMARK INTER:                  -5.049
REMARK INTRA:                  -0.511
REMARK UNBOUND:                -0.379
REMARK SMILES [NH3+]CCCC[C@@H]([NH3+])C(=O)[O-]
REMARK SMILES IDX 4 1 3 2 2 3 1 4 5 8 6 9 7 10 8 14 9 15 10 16
REMARK H PARENT 1 5 1 6 1 7 7 11 7 12 7 13
REMARK Flexibility Score: inf
ROOT
ATOM      1  C   UNL     1     124.353 139.605 121.699  1.00  0.00     0.012 C 
ENDROOT
BRANCH   1   2
ATOM      2  C   UNL     1     124.609 139.621 120.179  1.00  0.00     0.061 C 
BRANCH   2   3
ATOM      3  C   UNL     1     125.566 138.524 119.674  1.00  0.00     0.258 C 
BRANCH   3   4
ATOM      4  N   UNL     1     126.618 138.217 120.645  1.00  0.00    -0.358 N 
ATOM      5  H   UNL     1     126.179 137.813 121.503  1.00  0.00     0.344 HD
ATOM      6  H   UNL     1     127.281 137.512 120.251  1.00  0.00     0.344 HD
ATOM      7  H   UNL     1     127.136 139.087 120.909  1.00  0.00     0.344 HD
ENDBRANCH   3   4
ENDBRANCH   2   3
ENDBRANCH   1   2
BRANCH   1   8
ATOM      8  C   UNL     1     124.520 140.964 122.407  1.00  0.00     0.072 C 
BRANCH   8   9
ATOM      9  C   UNL     1     125.773 141.081 123.306  1.00  0.00     0.227 C 
BRANCH   9  10
ATOM     10  N   UNL     1     126.000 139.857 124.087  1.00  0.00    -0.350 N 
ATOM     11  H   UNL     1     126.989 139.527 123.982  1.00  0.00     0.345 HD
ATOM     12  H   UNL     1     125.348 139.104 123.772  1.00  0.00     0.345 HD
ATOM     13  H   UNL     1     125.806 140.038 125.099  1.00  0.00     0.345 HD
ENDBRANCH   9  10
BRANCH   9  14
ATOM     14  C   UNL     1     126.975 141.375 122.447  1.00  0.00     0.099 C 
ATOM     15  O   UNL     1     127.739 140.443 122.085  1.00  0.00    -0.544 OA
ATOM     16  O   UNL     1     127.268 142.683 122.077  1.00  0.00    -0.544 OA
ENDBRANCH   9  14
ENDBRANCH   8   9
ENDBRANCH   1   8
TORSDOF 7
ENDMDL
MODEL 3
REMARK VINA RESULT:    -3.674     16.998     17.916
REMARK INTER + INTRA:          -5.341
REMARK INTER:                  -4.820
REMARK INTRA:                  -0.521
REMARK UNBOUND:                -0.379
REMARK SMILES [NH3+]CCCC[C@@H]([NH3+])C(=O)[O-]
REMARK SMILES IDX 4 1 3 2 2 3 1 4 5 8 6 9 7 10 8 14 9 15 10 16
REMARK H PARENT 1 5 1 6 1 7 7 11 7 12 7 13
REMARK Flexibility Score: inf
ROOT
ATOM      1  C   UNL     1     139.171 130.327 123.848  1.00  0.00     0.012 C 
ENDROOT
BRANCH   1   2
ATOM      2  C   UNL     1     138.634 129.933 125.238  1.00  0.00     0.061 C 
BRANCH   2   3
ATOM      3  C   UNL     1     139.041 128.524 125.710  1.00  0.00     0.258 C 
BRANCH   3   4
ATOM      4  N   UNL     1     138.304 127.471 125.009  1.00  0.00    -0.358 N 
ATOM      5  H   UNL     1     138.180 126.657 125.654  1.00  0.00     0.344 HD
ATOM      6  H   UNL     1     137.359 127.814 124.727  1.00  0.00     0.344 HD
ATOM      7  H   UNL     1     138.836 127.153 124.166  1.00  0.00     0.344 HD
ENDBRANCH   3   4
ENDBRANCH   2   3
ENDBRANCH   1   2
BRANCH   1   8
ATOM      8  C   UNL     1     140.652 129.983 123.593  1.00  0.00     0.072 C 
BRANCH   8   9
ATOM      9  C   UNL     1     140.954 129.406 122.190  1.00  0.00     0.227 C 
BRANCH   9  10
ATOM     10  N   UNL     1     142.396 129.214 121.978  1.00  0.00    -0.350 N 
ATOM     11  H   UNL     1     142.949 129.908 122.535  1.00  0.00     0.345 HD
ATOM     12  H   UNL     1     142.626 129.320 120.965  1.00  0.00     0.345 HD
ATOM     13  H   UNL     1     142.673 128.247 122.264  1.00  0.00     0.345 HD
ENDBRANCH   9  10
BRANCH   9  14
ATOM     14  C   UNL     1     140.230 128.096 122.025  1.00  0.00     0.099 C 
ATOM     15  O   UNL     1     139.346 127.968 121.138  1.00  0.00    -0.544 OA
ATOM     16  O   UNL     1     140.507 127.029 122.873  1.00  0.00    -0.544 OA
ENDBRANCH   9  14
ENDBRANCH   8   9
ENDBRANCH   1   8
TORSDOF 7
ENDMDL
MODEL 4
REMARK VINA RESULT:    -3.618     17.089     18.363
REMARK INTER + INTRA:          -5.266
REMARK INTER:                  -4.746
REMARK INTRA:                  -0.520
REMARK UNBOUND:                -0.379
REMARK SMILES [NH3+]CCCC[C@@H]([NH3+])C(=O)[O-]
REMARK SMILES IDX 4 1 3 2 2 3 1 4 5 8 6 9 7 10 8 14 9 15 10 16
REMARK H PARENT 1 5 1 6 1 7 7 11 7 12 7 13
REMARK Flexibility Score: inf
ROOT
ATOM      1  C   UNL     1     139.657 127.605 121.582  1.00  0.00     0.012 C 
ENDROOT
BRANCH   1   2
ATOM      2  C   UNL     1     139.866 126.352 122.455  1.00  0.00     0.061 C 
BRANCH   2   3
ATOM      3  C   UNL     1     138.888 126.218 123.637  1.00  0.00     0.258 C 
BRANCH   3   4
ATOM      4  N   UNL     1     139.576 126.212 124.929  1.00  0.00    -0.358 N 
ATOM      5  H   UNL     1     139.795 127.198 125.201  1.00  0.00     0.344 HD
ATOM      6  H   UNL     1     138.963 125.797 125.666  1.00  0.00     0.344 HD
ATOM      7  H   UNL     1     140.471 125.675 124.863  1.00  0.00     0.344 HD
ENDBRANCH   3   4
ENDBRANCH   2   3
ENDBRANCH   1   2
BRANCH   1   8
ATOM      8  C   UNL     1     140.692 128.729 121.787  1.00  0.00     0.072 C 
BRANCH   8   9
ATOM      9  C   UNL     1     140.217 129.896 122.684  1.00  0.00     0.227 C 
BRANCH   9  10
ATOM     10  N   UNL     1     138.765 130.101 122.590  1.00  0.00    -0.350 N 
ATOM     11  H   UNL     1     138.546 130.977 122.060  1.00  0.00     0.345 HD
ATOM     12  H   UNL     1     138.348 130.161 123.546  1.00  0.00     0.345 HD
ATOM     13  H   UNL     1     138.320 129.288 122.104  1.00  0.00     0.345 HD
ENDBRANCH   9  10
BRANCH   9  14
ATOM     14  C   UNL     1     140.607 129.617 124.111  1.00  0.00     0.099 C 
ATOM     15  O   UNL     1     141.813 129.694 124.465  1.00  0.00    -0.544 OA
ATOM     16  O   UNL     1     139.644 129.237 125.040  1.00  0.00    -0.544 OA
ENDBRANCH   9  14
ENDBRANCH   8   9
ENDBRANCH   1   8
TORSDOF 7
ENDMDL
MODEL 5
REMARK VINA RESULT:    -3.611      2.501      2.664
REMARK INTER + INTRA:          -5.257
REMARK INTER:                  -5.133
REMARK INTRA:                  -0.124
REMARK UNBOUND:                -0.379
REMARK SMILES [NH3+]CCCC[C@@H]([NH3+])C(=O)[O-]
REMARK SMILES IDX 4 1 3 2 2 3 1 4 5 8 6 9 7 10 8 14 9 15 10 16
REMARK H PARENT 1 5 1 6 1 7 7 11 7 12 7 13
REMARK Flexibility Score: inf
ROOT
ATOM      1  C   UNL     1     125.971 140.905 122.052  1.00  0.00     0.012 C 
ENDROOT
BRANCH   1   2
ATOM      2  C   UNL     1     125.674 142.383 122.373  1.00  0.00     0.061 C 
BRANCH   2   3
ATOM      3  C   UNL     1     126.893 143.199 122.843  1.00  0.00     0.258 C 
BRANCH   3   4
ATOM      4  N   UNL     1     127.814 143.501 121.746  1.00  0.00    -0.358 N 
ATOM      5  H   UNL     1     127.391 143.171 120.848  1.00  0.00     0.344 HD
ATOM      6  H   UNL     1     127.970 144.532 121.676  1.00  0.00     0.344 HD
ATOM      7  H   UNL     1     128.726 143.010 121.889  1.00  0.00     0.344 HD
ENDBRANCH   3   4
ENDBRANCH   2   3
ENDBRANCH   1   2
BRANCH   1   8
ATOM      8  C   UNL     1     125.572 140.448 120.635  1.00  0.00     0.072 C 
BRANCH   8   9
ATOM      9  C   UNL     1     126.291 139.173 120.135  1.00  0.00     0.227 C 
BRANCH   9  10
ATOM     10  N   UNL     1     127.339 138.736 121.069  1.00  0.00    -0.350 N 
ATOM     11  H   UNL     1     127.616 139.517 121.708  1.00  0.00     0.345 HD
ATOM     12  H   UNL     1     128.177 138.407 120.539  1.00  0.00     0.345 HD
ATOM     13  H   UNL     1     126.993 137.932 121.642  1.00  0.00     0.345 HD
ENDBRANCH   9  10
BRANCH   9  14
ATOM     14  C   UNL     1     125.280 138.074 119.944  1.00  0.00     0.099 C 
ATOM     15  O   UNL     1     125.650 136.929 119.575  1.00  0.00    -0.544 OA
ATOM     16  O   UNL     1     123.926 138.326 120.138  1.00  0.00    -0.544 OA
ENDBRANCH   9  14
ENDBRANCH   8   9
ENDBRANCH   1   8
TORSDOF 7
ENDMDL
MODEL 6
REMARK VINA RESULT:    -3.570      2.315      2.844
REMARK INTER + INTRA:          -5.200
REMARK INTER:                  -4.766
REMARK INTRA:                  -0.434
REMARK UNBOUND:                -0.379
REMARK SMILES [NH3+]CCCC[C@@H]([NH3+])C(=O)[O-]
REMARK SMILES IDX 4 1 3 2 2 3 1 4 5 8 6 9 7 10 8 14 9 15 10 16
REMARK H PARENT 1 5 1 6 1 7 7 11 7 12 7 13
REMARK Flexibility Score: inf
ROOT
ATOM      1  C   UNL     1     126.145 142.604 122.298  1.00  0.00     0.012 C 
ENDROOT
BRANCH   1   2
ATOM      2  C   UNL     1     124.751 143.126 122.702  1.00  0.00     0.061 C 
BRANCH   2   3
ATOM      3  C   UNL     1     123.582 142.538 121.889  1.00  0.00     0.258 C 
BRANCH   3   4
ATOM      4  N   UNL     1     124.020 141.484 120.972  1.00  0.00    -0.358 N 
ATOM      5  H   UNL     1     124.349 140.664 121.531  1.00  0.00     0.344 HD
ATOM      6  H   UNL     1     123.225 141.172 120.370  1.00  0.00     0.344 HD
ATOM      7  H   UNL     1     124.809 141.823 120.375  1.00  0.00     0.344 HD
ENDBRANCH   3   4
ENDBRANCH   2   3
ENDBRANCH   1   2
BRANCH   1   8
ATOM      8  C   UNL     1     126.939 141.913 123.424  1.00  0.00     0.072 C 
BRANCH   8   9
ATOM      9  C   UNL     1     126.949 140.368 123.360  1.00  0.00     0.227 C 
BRANCH   9  10
ATOM     10  N   UNL     1     125.687 139.793 123.846  1.00  0.00    -0.350 N 
ATOM     11  H   UNL     1     124.876 140.154 123.290  1.00  0.00     0.345 HD
ATOM     12  H   UNL     1     125.549 140.030 124.854  1.00  0.00     0.345 HD
ATOM     13  H   UNL     1     125.717 138.750 123.769  1.00  0.00     0.345 HD
ENDBRANCH   9  10
BRANCH   9  14
ATOM     14  C   UNL     1     127.203 139.931 121.941  1.00  0.00     0.099 C 
ATOM     15  O   UNL     1     126.244 139.573 121.208  1.00  0.00    -0.544 OA
ATOM     16  O   UNL     1     128.500 139.887 121.442  1.00  0.00    -0.544 OA
ENDBRANCH   9  14
ENDBRANCH   8   9
ENDBRANCH   1   8
TORSDOF 7
ENDMDL
MODEL 7
REMARK VINA RESULT:    -3.526      2.654      3.971
REMARK INTER + INTRA:          -5.141
REMARK INTER:                  -4.684
REMARK INTRA:                  -0.457
REMARK UNBOUND:                -0.379
REMARK SMILES [NH3+]CCCC[C@@H]([NH3+])C(=O)[O-]
REMARK SMILES IDX 4 1 3 2 2 3 1 4 5 8 6 9 7 10 8 14 9 15 10 16
REMARK H PARENT 1 5 1 6 1 7 7 11 7 12 7 13
REMARK Flexibility Score: inf
ROOT
ATOM      1  C   UNL     1     126.985 140.932 123.262  1.00  0.00     0.012 C 
ENDROOT
BRANCH   1   2
ATOM      2  C   UNL     1     127.897 139.699 123.100  1.00  0.00     0.061 C 
BRANCH   2   3
ATOM      3  C   UNL     1     128.304 139.385 121.648  1.00  0.00     0.258 C 
BRANCH   3   4
ATOM      4  N   UNL     1     127.245 138.688 120.914  1.00  0.00    -0.358 N 
ATOM      5  H   UNL     1     126.320 138.949 121.325  1.00  0.00     0.344 HD
ATOM      6  H   UNL     1     127.251 138.974 119.909  1.00  0.00     0.344 HD
ATOM      7  H   UNL     1     127.368 137.652 120.993  1.00  0.00     0.344 HD
ENDBRANCH   3   4
ENDBRANCH   2   3
ENDBRANCH   1   2
BRANCH   1   8
ATOM      8  C   UNL     1     125.487 140.620 123.452  1.00  0.00     0.072 C 
BRANCH   8   9
ATOM      9  C   UNL     1     124.535 141.412 122.525  1.00  0.00     0.227 C 
BRANCH   9  10
ATOM     10  N   UNL     1     125.123 142.691 122.103  1.00  0.00    -0.350 N 
ATOM     11  H   UNL     1     125.242 142.719 121.063  1.00  0.00     0.345 HD
ATOM     12  H   UNL     1     126.051 142.828 122.562  1.00  0.00     0.345 HD
ATOM     13  H   UNL     1     124.506 143.482 122.398  1.00  0.00     0.345 HD
ENDBRANCH   9  10
BRANCH   9  14
ATOM     14  C   UNL     1     124.202 140.573 121.320  1.00  0.00     0.099 C 
ATOM     15  O   UNL     1     124.383 139.328 121.345  1.00  0.00    -0.544 OA
ATOM     16  O   UNL     1     123.727 141.172 120.158  1.00  0.00    -0.544 OA
ENDBRANCH   9  14
ENDBRANCH   8   9
ENDBRANCH   1   8
TORSDOF 7
ENDMDL
MODEL 8
REMARK VINA RESULT:    -3.502     17.067     18.173
REMARK INTER + INTRA:          -5.109
REMARK INTER:                  -5.015
REMARK INTRA:                  -0.094
REMARK UNBOUND:                -0.379
REMARK SMILES [NH3+]CCCC[C@@H]([NH3+])C(=O)[O-]
REMARK SMILES IDX 4 1 3 2 2 3 1 4 5 8 6 9 7 10 8 14 9 15 10 16
REMARK H PARENT 1 5 1 6 1 7 7 11 7 12 7 13
REMARK Flexibility Score: inf
ROOT
ATOM      1  C   UNL     1     141.013 129.431 122.095  1.00  0.00     0.012 C 
ENDROOT
BRANCH   1   2
ATOM      2  C   UNL     1     142.282 128.941 121.368  1.00  0.00     0.061 C 
BRANCH   2   3
ATOM      3  C   UNL     1     142.516 129.573 119.982  1.00  0.00     0.258 C 
BRANCH   3   4
ATOM      4  N   UNL     1     141.293 129.611 119.177  1.00  0.00    -0.358 N 
ATOM      5  H   UNL     1     140.495 129.902 119.787  1.00  0.00     0.344 HD
ATOM      6  H   UNL     1     141.388 130.309 118.405  1.00  0.00     0.344 HD
ATOM      7  H   UNL     1     141.087 128.665 118.782  1.00  0.00     0.344 HD
ENDBRANCH   3   4
ENDBRANCH   2   3
ENDBRANCH   1   2
BRANCH   1   8
ATOM      8  C   UNL     1     141.019 129.241 123.625  1.00  0.00     0.072 C 
BRANCH   8   9
ATOM      9  C   UNL     1     139.725 129.694 124.342  1.00  0.00     0.227 C 
BRANCH   9  10
ATOM     10  N   UNL     1     138.698 130.135 123.388  1.00  0.00    -0.350 N 
ATOM     11  H   UNL     1     138.510 129.391 122.675  1.00  0.00     0.345 HD
ATOM     12  H   UNL     1     139.008 131.008 122.905  1.00  0.00     0.345 HD
ATOM     13  H   UNL     1     137.810 130.354 123.895  1.00  0.00     0.345 HD
ENDBRANCH   9  10
BRANCH   9  14
ATOM     14  C   UNL     1     139.199 128.560 125.180  1.00  0.00     0.099 C 
ATOM     15  O   UNL     1     138.968 128.731 126.406  1.00  0.00    -0.544 OA
ATOM     16  O   UNL     1     138.995 127.305 124.615  1.00  0.00    -0.544 OA
ENDBRANCH   9  14
ENDBRANCH   8   9
ENDBRANCH   1   8
TORSDOF 7
ENDMDL
MODEL 9
REMARK VINA RESULT:    -3.450     17.941     18.967
REMARK INTER + INTRA:          -5.038
REMARK INTER:                  -4.468
REMARK INTRA:                  -0.570
REMARK UNBOUND:                -0.379
REMARK SMILES [NH3+]CCCC[C@@H]([NH3+])C(=O)[O-]
REMARK SMILES IDX 4 1 3 2 2 3 1 4 5 8 6 9 7 10 8 14 9 15 10 16
REMARK H PARENT 1 5 1 6 1 7 7 11 7 12 7 13
REMARK Flexibility Score: inf
ROOT
ATOM      1  C   UNL     1     140.500 136.745 136.466  1.00  0.00     0.012 C 
ENDROOT
BRANCH   1   2
ATOM      2  C   UNL     1     141.900 136.774 135.822  1.00  0.00     0.061 C 
BRANCH   2   3
ATOM      3  C   UNL     1     142.561 138.165 135.776  1.00  0.00     0.258 C 
BRANCH   3   4
ATOM      4  N   UNL     1     142.273 138.874 134.528  1.00  0.00    -0.358 N 
ATOM      5  H   UNL     1     142.412 139.899 134.680  1.00  0.00     0.344 HD
ATOM      6  H   UNL     1     142.925 138.562 133.774  1.00  0.00     0.344 HD
ATOM      7  H   UNL     1     141.282 138.709 134.234  1.00  0.00     0.344 HD
ENDBRANCH   3   4
ENDBRANCH   2   3
ENDBRANCH   1   2
BRANCH   1   8
ATOM      8  C   UNL     1     139.345 136.387 135.511  1.00  0.00     0.072 C 
BRANCH   8   9
ATOM      9  C   UNL     1     138.563 137.598 134.951  1.00  0.00     0.227 C 
BRANCH   9  10
ATOM     10  N   UNL     1     138.938 138.849 135.625  1.00  0.00    -0.350 N 
ATOM     11  H   UNL     1     139.776 138.704 136.237  1.00  0.00     0.345 HD
ATOM     12  H   UNL     1     138.142 139.197 136.204  1.00  0.00     0.345 HD
ATOM     13  H   UNL     1     139.157 139.585 134.915  1.00  0.00     0.345 HD
ENDBRANCH   9  10
BRANCH   9  14
ATOM     14  C   UNL     1     138.817 137.713 133.471  1.00  0.00     0.099 C 
ATOM     15  O   UNL     1     137.863 137.928 132.679  1.00  0.00    -0.544 OA
ATOM     16  O   UNL     1     140.102 137.548 132.966  1.00  0.00    -0.544 OA
ENDBRANCH   9  14
ENDBRANCH   8   9
ENDBRANCH   1   8
TORSDOF 7
ENDMDL
