MODEL 1
REMARK VINA RESULT:    -3.161      0.000      0.000
REMARK INTER + INTRA:          -3.557
REMARK INTER:                  -3.531
REMARK INTRA:                  -0.026
REMARK UNBOUND:                -0.026
REMARK SMILES CC(C)CC=O
REMARK SMILES IDX 4 1 2 2 1 3 3 4 5 5 6 6
REMARK H PARENT
REMARK Flexibility Score: inf
ROOT
ATOM      1  C   UNL     1      19.533  42.885   1.515  1.00  0.00     0.075 C 
ENDROOT
BRANCH   1   2
ATOM      2  C   UNL     1      18.836  44.255   1.373  1.00  0.00    -0.010 C 
ATOM      3  C   UNL     1      19.262  44.928   0.061  1.00  0.00     0.008 C 
ATOM      4  C   UNL     1      17.306  44.128   1.419  1.00  0.00     0.008 C 
ENDBRANCH   1   2
BRANCH   1   5
ATOM      5  C   UNL     1      20.969  42.925   1.076  1.00  0.00     0.224 C 
ATOM      6  O   UNL     1      21.379  42.160   0.219  1.00  0.00    -0.303 OA
ENDBRANCH   1   5
TORSDOF 2
ENDMDL
MODEL 2
REMARK VINA RESULT:    -3.159     15.801     17.000
REMARK INTER + INTRA:          -3.554
REMARK INTER:                  -3.525
REMARK INTRA:                  -0.030
REMARK UNBOUND:                -0.026
REMARK SMILES CC(C)CC=O
REMARK SMILES IDX 4 1 2 2 1 3 3 4 5 5 6 6
REMARK H PARENT
REMARK Flexibility Score: inf
ROOT
ATOM      1  C   UNL     1      24.000  57.054  -8.757  1.00  0.00     0.075 C 
ENDROOT
BRANCH   1   2
ATOM      2  C   UNL     1      24.049  55.538  -8.471  1.00  0.00    -0.010 C 
ATOM      3  C   UNL     1      25.420  55.154  -7.899  1.00  0.00     0.008 C 
ATOM      4  C   UNL     1      22.940  55.101  -7.502  1.00  0.00     0.008 C 
ENDBRANCH   1   2
BRANCH   1   5
ATOM      5  C   UNL     1      25.364  57.635  -8.997  1.00  0.00     0.224 C 
ATOM      6  O   UNL     1      25.524  58.844  -9.061  1.00  0.00    -0.303 OA
ENDBRANCH   1   5
TORSDOF 2
ENDMDL
MODEL 3
REMARK VINA RESULT:    -3.125      0.518      1.530
REMARK INTER + INTRA:          -3.516
REMARK INTER:                  -3.483
REMARK INTRA:                  -0.033
REMARK UNBOUND:                -0.026
REMARK SMILES CC(C)CC=O
REMARK SMILES IDX 4 1 2 2 1 3 3 4 5 5 6 6
REMARK H PARENT
REMARK Flexibility Score: inf
ROOT
ATOM      1  C   UNL     1      19.511  43.114   1.441  1.00  0.00     0.075 C 
ENDROOT
BRANCH   1   2
ATOM      2  C   UNL     1      18.730  43.909   0.373  1.00  0.00    -0.010 C 
ATOM      3  C   UNL     1      17.343  44.287   0.908  1.00  0.00     0.008 C 
ATOM      4  C   UNL     1      19.482  45.176  -0.063  1.00  0.00     0.008 C 
ENDBRANCH   1   2
BRANCH   1   5
ATOM      5  C   UNL     1      20.966  42.970   1.097  1.00  0.00     0.224 C 
ATOM      6  O   UNL     1      21.328  42.189   0.231  1.00  0.00    -0.303 OA
ENDBRANCH   1   5
TORSDOF 2
ENDMDL
MODEL 4
REMARK VINA RESULT:    -3.094      2.423      3.254
REMARK INTER + INTRA:          -3.483
REMARK INTER:                  -3.444
REMARK INTRA:                  -0.039
REMARK UNBOUND:                -0.026
REMARK SMILES CC(C)CC=O
REMARK SMILES IDX 4 1 2 2 1 3 3 4 5 5 6 6
REMARK H PARENT
REMARK Flexibility Score: inf
ROOT
ATOM      1  C   UNL     1      18.781  44.016   2.086  1.00  0.00     0.075 C 
ENDROOT
BRANCH   1   2
ATOM      2  C   UNL     1      19.966  44.305   1.140  1.00  0.00    -0.010 C 
ATOM      3  C   UNL     1      20.601  42.987   0.675  1.00  0.00     0.008 C 
ATOM      4  C   UNL     1      19.537  45.134  -0.080  1.00  0.00     0.008 C 
ENDBRANCH   1   2
BRANCH   1   5
ATOM      5  C   UNL     1      17.463  44.002   1.365  1.00  0.00     0.224 C 
ATOM      6  O   UNL     1      16.503  44.613   1.809  1.00  0.00    -0.303 OA
ENDBRANCH   1   5
TORSDOF 2
ENDMDL
MODEL 5
REMARK VINA RESULT:    -3.073      2.173      3.151
REMARK INTER + INTRA:          -3.459
REMARK INTER:                  -3.416
REMARK INTRA:                  -0.043
REMARK UNBOUND:                -0.026
REMARK SMILES CC(C)CC=O
REMARK SMILES IDX 4 1 2 2 1 3 3 4 5 5 6 6
REMARK H PARENT
REMARK Flexibility Score: inf
ROOT
ATOM      1  C   UNL     1      19.591  44.447   1.161  1.00  0.00     0.075 C 
ENDROOT
BRANCH   1   2
ATOM      2  C   UNL     1      19.745  42.920   0.996  1.00  0.00    -0.010 C 
ATOM      3  C   UNL     1      18.602  42.366   0.135  1.00  0.00     0.008 C 
ATOM      4  C   UNL     1      21.097  42.544   0.371  1.00  0.00     0.008 C 
ENDBRANCH   1   2
BRANCH   1   5
ATOM      5  C   UNL     1      19.681  45.176  -0.149  1.00  0.00     0.224 C 
ATOM      6  O   UNL     1      18.733  45.822  -0.569  1.00  0.00    -0.303 OA
ENDBRANCH   1   5
TORSDOF 2
ENDMDL
MODEL 6
REMARK VINA RESULT:    -3.033     14.987     16.281
REMARK INTER + INTRA:          -3.413
REMARK INTER:                  -3.375
REMARK INTRA:                  -0.038
REMARK UNBOUND:                -0.026
REMARK SMILES CC(C)CC=O
REMARK SMILES IDX 4 1 2 2 1 3 3 4 5 5 6 6
REMARK H PARENT
REMARK Flexibility Score: inf
ROOT
ATOM      1  C   UNL     1      23.557  56.109  -8.644  1.00  0.00     0.075 C 
ENDROOT
BRANCH   1   2
ATOM      2  C   UNL     1      25.071  56.164  -8.940  1.00  0.00    -0.010 C 
ATOM      3  C   UNL     1      25.546  57.623  -8.980  1.00  0.00     0.008 C 
ATOM      4  C   UNL     1      25.888  55.380  -7.903  1.00  0.00     0.008 C 
ENDBRANCH   1   2
BRANCH   1   5
ATOM      5  C   UNL     1      23.244  55.307  -7.413  1.00  0.00     0.224 C 
ATOM      6  O   UNL     1      22.473  54.361  -7.466  1.00  0.00    -0.303 OA
ENDBRANCH   1   5
TORSDOF 2
ENDMDL
MODEL 7
REMARK VINA RESULT:    -2.824      3.049      3.770
REMARK INTER + INTRA:          -3.180
REMARK INTER:                  -3.145
REMARK INTRA:                  -0.035
REMARK UNBOUND:                -0.026
REMARK SMILES CC(C)CC=O
REMARK SMILES IDX 4 1 2 2 1 3 3 4 5 5 6 6
REMARK H PARENT
REMARK Flexibility Score: inf
ROOT
ATOM      1  C   UNL     1      17.130  44.689   0.301  1.00  0.00     0.075 C 
ENDROOT
BRANCH   1   2
ATOM      2  C   UNL     1      18.613  44.278   0.425  1.00  0.00    -0.010 C 
ATOM      3  C   UNL     1      19.510  45.353  -0.202  1.00  0.00     0.008 C 
ATOM      4  C   UNL     1      19.024  44.044   1.886  1.00  0.00     0.008 C 
ENDBRANCH   1   2
BRANCH   1   5
ATOM      5  C   UNL     1      16.325  44.300   1.508  1.00  0.00     0.224 C 
ATOM      6  O   UNL     1      15.378  44.980   1.871  1.00  0.00    -0.303 OA
ENDBRANCH   1   5
TORSDOF 2
ENDMDL
MODEL 8
REMARK VINA RESULT:    -2.804      9.811     11.377
REMARK INTER + INTRA:          -3.159
REMARK INTER:                  -3.134
REMARK INTRA:                  -0.024
REMARK UNBOUND:                -0.026
REMARK SMILES CC(C)CC=O
REMARK SMILES IDX 4 1 2 2 1 3 3 4 5 5 6 6
REMARK H PARENT
REMARK Flexibility Score: inf
ROOT
ATOM      1  C   UNL     1      30.001  45.613   0.906  1.00  0.00     0.075 C 
ENDROOT
BRANCH   1   2
ATOM      2  C   UNL     1      31.027  44.473   1.082  1.00  0.00    -0.010 C 
ATOM      3  C   UNL     1      31.518  43.992  -0.290  1.00  0.00     0.008 C 
ATOM      4  C   UNL     1      32.225  44.907   1.940  1.00  0.00     0.008 C 
ENDBRANCH   1   2
BRANCH   1   5
ATOM      5  C   UNL     1      29.007  45.326  -0.183  1.00  0.00     0.224 C 
ATOM      6  O   UNL     1      28.230  46.189  -0.560  1.00  0.00    -0.303 OA
ENDBRANCH   1   5
TORSDOF 2
ENDMDL
MODEL 9
REMARK VINA RESULT:    -2.719     22.773     23.463
REMARK INTER + INTRA:          -3.063
REMARK INTER:                  -3.002
REMARK INTRA:                  -0.061
REMARK UNBOUND:                -0.026
REMARK SMILES CC(C)CC=O
REMARK SMILES IDX 4 1 2 2 1 3 3 4 5 5 6 6
REMARK H PARENT
REMARK Flexibility Score: inf
ROOT
ATOM      1  C   UNL     1      30.614  57.315 -13.156  1.00  0.00     0.075 C 
ENDROOT
BRANCH   1   2
ATOM      2  C   UNL     1      32.094  56.931 -13.365  1.00  0.00    -0.010 C 
ATOM      3  C   UNL     1      32.820  58.036 -14.143  1.00  0.00     0.008 C 
ATOM      4  C   UNL     1      32.813  56.673 -12.032  1.00  0.00     0.008 C 
ENDBRANCH   1   2
BRANCH   1   5
ATOM      5  C   UNL     1      30.404  58.802 -13.150  1.00  0.00     0.224 C 
ATOM      6  O   UNL     1      30.009  59.372 -12.144  1.00  0.00    -0.303 OA
ENDBRANCH   1   5
TORSDOF 2
ENDMDL
