MODEL 1
REMARK VINA RESULT:    -5.123      0.000      0.000
REMARK INTER + INTRA:          -8.404
REMARK INTER:                  -7.070
REMARK INTRA:                  -1.334
REMARK UNBOUND:                -1.334
REMARK SMILES CCCCc1cccc(O)c1CCCC
REMARK SMILES IDX 5 1 11 2 9 3 8 4 7 5 6 6 4 7 3 8 2 9 1 10 12 11 13 12 14 13
REMARK SMILES IDX 15 14 10 15
REMARK H PARENT 10 16
REMARK Flexibility Score: inf
ROOT
ATOM      1  C   UNL     1      53.116  19.990  58.726  1.00  0.00    -0.041 A 
ATOM      2  C   UNL     1      52.575  20.847  59.728  1.00  0.00    -0.003 A 
ATOM      3  C   UNL     1      53.113  22.147  59.880  1.00  0.00     0.119 A 
ATOM      4  C   UNL     1      54.137  22.592  59.038  1.00  0.00     0.046 A 
ATOM      5  C   UNL     1      54.645  21.760  58.047  1.00  0.00     0.004 A 
ATOM      6  C   UNL     1      54.144  20.470  57.894  1.00  0.00     0.004 A 
ENDROOT
BRANCH   1   7
ATOM      7  C   UNL     1      52.675  18.551  58.540  1.00  0.00     0.036 C 
BRANCH   7   8
ATOM      8  C   UNL     1      53.821  17.549  58.774  1.00  0.00     0.004 C 
BRANCH   8   9
ATOM      9  C   UNL     1      54.278  17.442  60.239  1.00  0.00    -0.003 C 
ATOM     10  C   UNL     1      53.576  16.318  61.002  1.00  0.00     0.004 C 
ENDBRANCH   8   9
ENDBRANCH   7   8
ENDBRANCH   1   7
BRANCH   2  11
ATOM     11  C   UNL     1      51.424  20.430  60.633  1.00  0.00     0.040 C 
BRANCH  11  12
ATOM     12  C   UNL     1      51.905  19.653  61.874  1.00  0.00     0.005 C 
BRANCH  12  13
ATOM     13  C   UNL     1      50.865  18.668  62.431  1.00  0.00    -0.003 C 
ATOM     14  C   UNL     1      50.248  17.793  61.339  1.00  0.00     0.004 C 
ENDBRANCH  12  13
ENDBRANCH  11  12
ENDBRANCH   2  11
BRANCH   3  15
ATOM     15  O   UNL     1      52.627  22.996  60.876  1.00  0.00    -0.508 OA
ATOM     16  H   UNL     1      51.768  23.521  60.757  1.00  0.00     0.293 HD
ENDBRANCH   3  15
TORSDOF 7
ENDMDL
MODEL 2
REMARK VINA RESULT:    -5.103      2.639      4.205
REMARK INTER + INTRA:          -8.376
REMARK INTER:                  -7.630
REMARK INTRA:                  -0.746
REMARK UNBOUND:                -1.334
REMARK SMILES CCCCc1cccc(O)c1CCCC
REMARK SMILES IDX 5 1 11 2 9 3 8 4 7 5 6 6 4 7 3 8 2 9 1 10 12 11 13 12 14 13
REMARK SMILES IDX 15 14 10 15
REMARK H PARENT 10 16
REMARK Flexibility Score: inf
ROOT
ATOM      1  C   UNL     1      53.373  19.116  57.062  1.00  0.00    -0.041 A 
ATOM      2  C   UNL     1      52.857  20.315  56.489  1.00  0.00    -0.003 A 
ATOM      3  C   UNL     1      52.694  20.388  55.085  1.00  0.00     0.119 A 
ATOM      4  C   UNL     1      53.005  19.288  54.279  1.00  0.00     0.046 A 
ATOM      5  C   UNL     1      53.485  18.113  54.846  1.00  0.00     0.004 A 
ATOM      6  C   UNL     1      53.672  18.028  56.223  1.00  0.00     0.004 A 
ENDROOT
BRANCH   1   7
ATOM      7  C   UNL     1      53.671  18.967  58.541  1.00  0.00     0.036 C 
BRANCH   7   8
ATOM      8  C   UNL     1      53.464  17.525  59.041  1.00  0.00     0.004 C 
BRANCH   8   9
ATOM      9  C   UNL     1      53.951  17.278  60.479  1.00  0.00    -0.003 C 
ATOM     10  C   UNL     1      53.426  15.969  61.071  1.00  0.00     0.004 C 
ENDBRANCH   8   9
ENDBRANCH   7   8
ENDBRANCH   1   7
BRANCH   2  11
ATOM     11  C   UNL     1      52.454  21.520  57.328  1.00  0.00     0.040 C 
BRANCH  11  12
ATOM     12  C   UNL     1      53.609  22.525  57.507  1.00  0.00     0.005 C 
BRANCH  12  13
ATOM     13  C   UNL     1      54.116  22.634  58.954  1.00  0.00    -0.003 C 
ATOM     14  C   UNL     1      53.056  22.224  59.976  1.00  0.00     0.004 C 
ENDBRANCH  12  13
ENDBRANCH  11  12
ENDBRANCH   2  11
BRANCH   3  15
ATOM     15  O   UNL     1      52.225  21.561  54.492  1.00  0.00    -0.508 OA
ATOM     16  H   UNL     1      52.019  22.389  55.039  1.00  0.00     0.293 HD
ENDBRANCH   3  15
TORSDOF 7
ENDMDL
MODEL 3
REMARK VINA RESULT:    -5.030      1.376      4.472
REMARK INTER + INTRA:          -8.276
REMARK INTER:                  -7.250
REMARK INTRA:                  -1.025
REMARK UNBOUND:                -1.334
REMARK SMILES CCCCc1cccc(O)c1CCCC
REMARK SMILES IDX 5 1 11 2 9 3 8 4 7 5 6 6 4 7 3 8 2 9 1 10 12 11 13 12 14 13
REMARK SMILES IDX 15 14 10 15
REMARK H PARENT 10 16
REMARK Flexibility Score: inf
ROOT
ATOM      1  C   UNL     1      50.946  18.554  61.925  1.00  0.00    -0.041 A 
ATOM      2  C   UNL     1      51.452  19.886  61.960  1.00  0.00    -0.003 A 
ATOM      3  C   UNL     1      50.982  20.771  62.959  1.00  0.00     0.119 A 
ATOM      4  C   UNL     1      50.058  20.334  63.914  1.00  0.00     0.046 A 
ATOM      5  C   UNL     1      49.585  19.027  63.889  1.00  0.00     0.004 A 
ATOM      6  C   UNL     1      50.020  18.146  62.902  1.00  0.00     0.004 A 
ENDROOT
BRANCH   1   7
ATOM      7  C   UNL     1      51.315  17.556  60.845  1.00  0.00     0.036 C 
BRANCH   7   8
ATOM      8  C   UNL     1      52.463  16.623  61.272  1.00  0.00     0.004 C 
BRANCH   8   9
ATOM      9  C   UNL     1      53.810  16.926  60.593  1.00  0.00    -0.003 C 
ATOM     10  C   UNL     1      53.659  17.331  59.126  1.00  0.00     0.004 C 
ENDBRANCH   8   9
ENDBRANCH   7   8
ENDBRANCH   1   7
BRANCH   2  11
ATOM     11  C   UNL     1      52.498  20.395  60.977  1.00  0.00     0.040 C 
BRANCH  11  12
ATOM     12  C   UNL     1      51.868  20.949  59.684  1.00  0.00     0.005 C 
BRANCH  12  13
ATOM     13  C   UNL     1      52.805  20.893  58.465  1.00  0.00    -0.003 C 
ATOM     14  C   UNL     1      53.928  21.927  58.546  1.00  0.00     0.004 C 
ENDBRANCH  12  13
ENDBRANCH  11  12
ENDBRANCH   2  11
BRANCH   3  15
ATOM     15  O   UNL     1      51.433  22.092  62.997  1.00  0.00    -0.508 OA
ATOM     16  H   UNL     1      50.820  22.870  62.782  1.00  0.00     0.293 HD
ENDBRANCH   3  15
TORSDOF 7
ENDMDL
MODEL 4
REMARK VINA RESULT:    -4.937      1.633      3.128
REMARK INTER + INTRA:          -8.147
REMARK INTER:                  -7.386
REMARK INTRA:                  -0.760
REMARK UNBOUND:                -1.334
REMARK SMILES CCCCc1cccc(O)c1CCCC
REMARK SMILES IDX 5 1 11 2 9 3 8 4 7 5 6 6 4 7 3 8 2 9 1 10 12 11 13 12 14 13
REMARK SMILES IDX 15 14 10 15
REMARK H PARENT 10 16
REMARK Flexibility Score: inf
ROOT
ATOM      1  C   UNL     1      53.776  20.279  58.265  1.00  0.00    -0.041 A 
ATOM      2  C   UNL     1      52.960  20.313  59.434  1.00  0.00    -0.003 A 
ATOM      3  C   UNL     1      52.873  21.516  60.173  1.00  0.00     0.119 A 
ATOM      4  C   UNL     1      53.554  22.661  59.744  1.00  0.00     0.046 A 
ATOM      5  C   UNL     1      54.330  22.628  58.591  1.00  0.00     0.004 A 
ATOM      6  C   UNL     1      54.445  21.448  57.861  1.00  0.00     0.004 A 
ENDROOT
BRANCH   1   7
ATOM      7  C   UNL     1      54.009  19.019  57.454  1.00  0.00     0.036 C 
BRANCH   7   8
ATOM      8  C   UNL     1      53.690  19.213  55.960  1.00  0.00     0.004 C 
BRANCH   8   9
ATOM      9  C   UNL     1      52.303  19.819  55.684  1.00  0.00    -0.003 C 
ATOM     10  C   UNL     1      52.373  21.147  54.928  1.00  0.00     0.004 C 
ENDBRANCH   8   9
ENDBRANCH   7   8
ENDBRANCH   1   7
BRANCH   2  11
ATOM     11  C   UNL     1      52.157  19.111  59.911  1.00  0.00     0.040 C 
BRANCH  11  12
ATOM     12  C   UNL     1      52.847  18.368  61.073  1.00  0.00     0.005 C 
BRANCH  12  13
ATOM     13  C   UNL     1      53.791  17.243  60.616  1.00  0.00    -0.003 C 
ATOM     14  C   UNL     1      53.429  15.893  61.234  1.00  0.00     0.004 C 
ENDBRANCH  12  13
ENDBRANCH  11  12
ENDBRANCH   2  11
BRANCH   3  15
ATOM     15  O   UNL     1      52.110  21.570  61.341  1.00  0.00    -0.508 OA
ATOM     16  H   UNL     1      52.412  22.100  62.151  1.00  0.00     0.293 HD
ENDBRANCH   3  15
TORSDOF 7
ENDMDL
MODEL 5
REMARK VINA RESULT:    -4.888      2.919      4.865
REMARK INTER + INTRA:          -8.080
REMARK INTER:                  -7.099
REMARK INTRA:                  -0.981
REMARK UNBOUND:                -1.334
REMARK SMILES CCCCc1cccc(O)c1CCCC
REMARK SMILES IDX 5 1 11 2 9 3 8 4 7 5 6 6 4 7 3 8 2 9 1 10 12 11 13 12 14 13
REMARK SMILES IDX 15 14 10 15
REMARK H PARENT 10 16
REMARK Flexibility Score: inf
ROOT
ATOM      1  C   UNL     1      52.759  19.975  57.197  1.00  0.00    -0.041 A 
ATOM      2  C   UNL     1      53.452  18.829  56.710  1.00  0.00    -0.003 A 
ATOM      3  C   UNL     1      53.579  18.649  55.313  1.00  0.00     0.119 A 
ATOM      4  C   UNL     1      53.060  19.599  54.426  1.00  0.00     0.046 A 
ATOM      5  C   UNL     1      52.406  20.727  54.908  1.00  0.00     0.004 A 
ATOM      6  C   UNL     1      52.252  20.912  56.279  1.00  0.00     0.004 A 
ENDROOT
BRANCH   1   7
ATOM      7  C   UNL     1      52.488  20.216  58.670  1.00  0.00     0.036 C 
BRANCH   7   8
ATOM      8  C   UNL     1      52.916  21.623  59.126  1.00  0.00     0.004 C 
BRANCH   8   9
ATOM      9  C   UNL     1      54.367  21.988  58.770  1.00  0.00    -0.003 C 
ATOM     10  C   UNL     1      54.477  23.289  57.974  1.00  0.00     0.004 C 
ENDBRANCH   8   9
ENDBRANCH   7   8
ENDBRANCH   1   7
BRANCH   2  11
ATOM     11  C   UNL     1      54.081  17.794  57.634  1.00  0.00     0.040 C 
BRANCH  11  12
ATOM     12  C   UNL     1      53.084  16.696  58.051  1.00  0.00     0.005 C 
BRANCH  12  13
ATOM     13  C   UNL     1      52.947  16.528  59.573  1.00  0.00    -0.003 C 
ATOM     14  C   UNL     1      54.031  17.283  60.342  1.00  0.00     0.004 C 
ENDBRANCH  12  13
ENDBRANCH  11  12
ENDBRANCH   2  11
BRANCH   3  15
ATOM     15  O   UNL     1      54.222  17.518  54.806  1.00  0.00    -0.508 OA
ATOM     16  H   UNL     1      55.197  17.325  55.005  1.00  0.00     0.293 HD
ENDBRANCH   3  15
TORSDOF 7
ENDMDL
MODEL 6
REMARK VINA RESULT:    -4.858      1.886      2.460
REMARK INTER + INTRA:          -8.038
REMARK INTER:                  -6.776
REMARK INTRA:                  -1.262
REMARK UNBOUND:                -1.334
REMARK SMILES CCCCc1cccc(O)c1CCCC
REMARK SMILES IDX 5 1 11 2 9 3 8 4 7 5 6 6 4 7 3 8 2 9 1 10 12 11 13 12 14 13
REMARK SMILES IDX 15 14 10 15
REMARK H PARENT 10 16
REMARK Flexibility Score: inf
ROOT
ATOM      1  C   UNL     1      53.420  19.169  57.120  1.00  0.00    -0.041 A 
ATOM      2  C   UNL     1      53.070  20.396  57.756  1.00  0.00    -0.003 A 
ATOM      3  C   UNL     1      52.623  21.477  56.959  1.00  0.00     0.119 A 
ATOM      4  C   UNL     1      52.497  21.330  55.574  1.00  0.00     0.046 A 
ATOM      5  C   UNL     1      52.817  20.123  54.962  1.00  0.00     0.004 A 
ATOM      6  C   UNL     1      53.278  19.054  55.725  1.00  0.00     0.004 A 
ENDROOT
BRANCH   1   7
ATOM      7  C   UNL     1      53.994  17.982  57.869  1.00  0.00     0.036 C 
BRANCH   7   8
ATOM      8  C   UNL     1      52.939  16.896  58.149  1.00  0.00     0.004 C 
BRANCH   8   9
ATOM      9  C   UNL     1      52.824  16.493  59.629  1.00  0.00    -0.003 C 
ATOM     10  C   UNL     1      53.967  17.038  60.486  1.00  0.00     0.004 C 
ENDBRANCH   8   9
ENDBRANCH   7   8
ENDBRANCH   1   7
BRANCH   2  11
ATOM     11  C   UNL     1      53.138  20.589  59.265  1.00  0.00     0.040 C 
BRANCH  11  12
ATOM     12  C   UNL     1      51.851  20.125  59.974  1.00  0.00     0.005 C 
BRANCH  12  13
ATOM     13  C   UNL     1      52.010  19.947  61.494  1.00  0.00    -0.003 C 
ATOM     14  C   UNL     1      51.025  18.929  62.067  1.00  0.00     0.004 C 
ENDBRANCH  12  13
ENDBRANCH  11  12
ENDBRANCH   2  11
BRANCH   3  15
ATOM     15  O   UNL     1      52.307  22.701  57.550  1.00  0.00    -0.508 OA
ATOM     16  H   UNL     1      51.421  22.854  58.019  1.00  0.00     0.293 HD
ENDBRANCH   3  15
TORSDOF 7
ENDMDL
MODEL 7
REMARK VINA RESULT:    -4.822      2.987      5.778
REMARK INTER + INTRA:          -7.989
REMARK INTER:                  -6.942
REMARK INTRA:                  -1.047
REMARK UNBOUND:                -1.334
REMARK SMILES CCCCc1cccc(O)c1CCCC
REMARK SMILES IDX 5 1 11 2 9 3 8 4 7 5 6 6 4 7 3 8 2 9 1 10 12 11 13 12 14 13
REMARK SMILES IDX 15 14 10 15
REMARK H PARENT 10 16
REMARK Flexibility Score: inf
ROOT
ATOM      1  C   UNL     1      53.586  18.592  58.526  1.00  0.00    -0.041 A 
ATOM      2  C   UNL     1      53.207  17.423  57.803  1.00  0.00    -0.003 A 
ATOM      3  C   UNL     1      52.921  16.238  58.521  1.00  0.00     0.119 A 
ATOM      4  C   UNL     1      52.980  16.225  59.919  1.00  0.00     0.046 A 
ATOM      5  C   UNL     1      53.328  17.374  60.619  1.00  0.00     0.004 A 
ATOM      6  C   UNL     1      53.633  18.545  59.931  1.00  0.00     0.004 A 
ENDROOT
BRANCH   1   7
ATOM      7  C   UNL     1      54.000  19.886  57.851  1.00  0.00     0.036 C 
BRANCH   7   8
ATOM      8  C   UNL     1      52.855  20.914  57.796  1.00  0.00     0.004 C 
BRANCH   8   9
ATOM      9  C   UNL     1      53.297  22.332  57.397  1.00  0.00    -0.003 C 
ATOM     10  C   UNL     1      54.393  22.892  58.305  1.00  0.00     0.004 C 
ENDBRANCH   8   9
ENDBRANCH   7   8
ENDBRANCH   1   7
BRANCH   2  11
ATOM     11  C   UNL     1      53.075  17.401  56.287  1.00  0.00     0.040 C 
BRANCH  11  12
ATOM     12  C   UNL     1      51.706  17.921  55.808  1.00  0.00     0.005 C 
BRANCH  12  13
ATOM     13  C   UNL     1      51.780  18.786  54.539  1.00  0.00    -0.003 C 
ATOM     14  C   UNL     1      53.175  19.366  54.310  1.00  0.00     0.004 C 
ENDBRANCH  12  13
ENDBRANCH  11  12
ENDBRANCH   2  11
BRANCH   3  15
ATOM     15  O   UNL     1      52.581  15.069  57.838  1.00  0.00    -0.508 OA
ATOM     16  H   UNL     1      52.792  14.945  56.855  1.00  0.00     0.293 HD
ENDBRANCH   3  15
TORSDOF 7
ENDMDL
MODEL 8
REMARK VINA RESULT:    -4.812      1.887      4.130
REMARK INTER + INTRA:          -7.975
REMARK INTER:                  -6.646
REMARK INTRA:                  -1.329
REMARK UNBOUND:                -1.334
REMARK SMILES CCCCc1cccc(O)c1CCCC
REMARK SMILES IDX 5 1 11 2 9 3 8 4 7 5 6 6 4 7 3 8 2 9 1 10 12 11 13 12 14 13
REMARK SMILES IDX 15 14 10 15
REMARK H PARENT 10 16
REMARK Flexibility Score: inf
ROOT
ATOM      1  C   UNL     1      53.412  18.797  59.560  1.00  0.00    -0.041 A 
ATOM      2  C   UNL     1      53.416  20.098  58.976  1.00  0.00    -0.003 A 
ATOM      3  C   UNL     1      52.805  21.164  59.677  1.00  0.00     0.119 A 
ATOM      4  C   UNL     1      52.235  20.949  60.937  1.00  0.00     0.046 A 
ATOM      5  C   UNL     1      52.255  19.684  61.511  1.00  0.00     0.004 A 
ATOM      6  C   UNL     1      52.833  18.616  60.829  1.00  0.00     0.004 A 
ENDROOT
BRANCH   1   7
ATOM      7  C   UNL     1      53.957  17.571  58.854  1.00  0.00     0.036 C 
BRANCH   7   8
ATOM      8  C   UNL     1      52.915  16.442  58.745  1.00  0.00     0.004 C 
BRANCH   8   9
ATOM      9  C   UNL     1      52.260  16.319  57.358  1.00  0.00    -0.003 C 
ATOM     10  C   UNL     1      50.997  17.170  57.217  1.00  0.00     0.004 C 
ENDBRANCH   8   9
ENDBRANCH   7   8
ENDBRANCH   1   7
BRANCH   2  11
ATOM     11  C   UNL     1      54.070  20.395  57.634  1.00  0.00     0.040 C 
BRANCH  11  12
ATOM     12  C   UNL     1      53.105  20.184  56.451  1.00  0.00     0.005 C 
BRANCH  12  13
ATOM     13  C   UNL     1      53.610  19.166  55.413  1.00  0.00    -0.003 C 
ATOM     14  C   UNL     1      52.633  18.986  54.251  1.00  0.00     0.004 C 
ENDBRANCH  12  13
ENDBRANCH  11  12
ENDBRANCH   2  11
BRANCH   3  15
ATOM     15  O   UNL     1      52.763  22.442  59.115  1.00  0.00    -0.508 OA
ATOM     16  H   UNL     1      52.224  23.191  59.535  1.00  0.00     0.293 HD
ENDBRANCH   3  15
TORSDOF 7
ENDMDL
MODEL 9
REMARK VINA RESULT:    -4.774      3.217      4.811
REMARK INTER + INTRA:          -7.923
REMARK INTER:                  -6.884
REMARK INTRA:                  -1.039
REMARK UNBOUND:                -1.334
REMARK SMILES CCCCc1cccc(O)c1CCCC
REMARK SMILES IDX 5 1 11 2 9 3 8 4 7 5 6 6 4 7 3 8 2 9 1 10 12 11 13 12 14 13
REMARK SMILES IDX 15 14 10 15
REMARK H PARENT 10 16
REMARK Flexibility Score: inf
ROOT
ATOM      1  C   UNL     1      53.486  19.563  57.153  1.00  0.00    -0.041 A 
ATOM      2  C   UNL     1      53.077  20.013  55.863  1.00  0.00    -0.003 A 
ATOM      3  C   UNL     1      52.546  21.318  55.730  1.00  0.00     0.119 A 
ATOM      4  C   UNL     1      52.455  22.162  56.842  1.00  0.00     0.046 A 
ATOM      5  C   UNL     1      52.877  21.726  58.093  1.00  0.00     0.004 A 
ATOM      6  C   UNL     1      53.384  20.438  58.249  1.00  0.00     0.004 A 
ENDROOT
BRANCH   1   7
ATOM      7  C   UNL     1      53.983  18.156  57.420  1.00  0.00     0.036 C 
BRANCH   7   8
ATOM      8  C   UNL     1      52.849  17.202  57.841  1.00  0.00     0.004 C 
BRANCH   8   9
ATOM      9  C   UNL     1      53.039  16.568  59.230  1.00  0.00    -0.003 C 
ATOM     10  C   UNL     1      54.005  17.355  60.117  1.00  0.00     0.004 C 
ENDBRANCH   8   9
ENDBRANCH   7   8
ENDBRANCH   1   7
BRANCH   2  11
ATOM     11  C   UNL     1      53.206  19.153  54.613  1.00  0.00     0.040 C 
BRANCH  11  12
ATOM     12  C   UNL     1      51.899  18.410  54.275  1.00  0.00     0.005 C 
BRANCH  12  13
ATOM     13  C   UNL     1      52.112  16.952  53.831  1.00  0.00    -0.003 C 
ATOM     14  C   UNL     1      53.566  16.504  53.983  1.00  0.00     0.004 C 
ENDBRANCH  12  13
ENDBRANCH  11  12
ENDBRANCH   2  11
BRANCH   3  15
ATOM     15  O   UNL     1      52.104  21.773  54.487  1.00  0.00    -0.508 OA
ATOM     16  H   UNL     1      52.339  22.698  54.144  1.00  0.00     0.293 HD
ENDBRANCH   3  15
TORSDOF 7
ENDMDL
