MODEL 1
REMARK VINA RESULT:    -4.243      0.000      0.000
REMARK INTER + INTRA:          -9.993
REMARK INTER:                  -8.212
REMARK INTRA:                  -1.781
REMARK UNBOUND:                -1.781
REMARK SMILES CCCCCCCCCCCCCCCCCC(=O)[O-]
REMARK SMILES IDX 10 1 11 2 12 3 13 4 14 5 15 6 16 7 17 8 18 9 19 10 20 11
REMARK SMILES IDX 9 12 8 13 7 14 6 15 5 16 4 17 3 18 2 19 1 20
REMARK H PARENT
REMARK Flexibility Score: inf
ROOT
ATOM      1  C   UNL     1       7.072 -62.199 191.130  1.00  0.00     0.000 C 
ENDROOT
BRANCH   1   2
ATOM      2  C   UNL     1       6.526 -60.757 191.213  1.00  0.00     0.000 C 
BRANCH   2   3
ATOM      3  C   UNL     1       5.127 -60.586 190.591  1.00  0.00     0.000 C 
BRANCH   3   4
ATOM      4  C   UNL     1       4.977 -59.364 189.669  1.00  0.00     0.000 C 
BRANCH   4   5
ATOM      5  C   UNL     1       5.056 -58.031 190.435  1.00  0.00     0.000 C 
BRANCH   5   6
ATOM      6  C   UNL     1       4.085 -57.978 191.629  1.00  0.00     0.000 C 
BRANCH   6   7
ATOM      7  C   UNL     1       4.664 -57.299 192.885  1.00  0.00     0.006 C 
BRANCH   7   8
ATOM      8  C   UNL     1       5.946 -57.978 193.385  1.00  0.00     0.053 C 
BRANCH   8   9
ATOM      9  C   UNL     1       7.075 -56.997 193.419  1.00  0.00     0.041 C 
ATOM     10  O   UNL     1       7.984 -57.106 194.282  1.00  0.00    -0.550 OA
ATOM     11  O   UNL     1       7.098 -55.932 192.527  1.00  0.00    -0.550 OA
ENDBRANCH   8   9
ENDBRANCH   7   8
ENDBRANCH   6   7
ENDBRANCH   5   6
ENDBRANCH   4   5
ENDBRANCH   3   4
ENDBRANCH   2   3
ENDBRANCH   1   2
BRANCH   1  12
ATOM     12  C   UNL     1       8.188 -62.339 190.080  1.00  0.00     0.000 C 
BRANCH  12  13
ATOM     13  C   UNL     1       7.656 -62.307 188.639  1.00  0.00    -0.000 C 
BRANCH  13  14
ATOM     14  C   UNL     1       6.895 -63.587 188.260  1.00  0.00    -0.000 C 
BRANCH  14  15
ATOM     15  C   UNL     1       5.401 -63.293 188.049  1.00  0.00    -0.000 C 
BRANCH  15  16
ATOM     16  C   UNL     1       4.606 -64.537 187.622  1.00  0.00    -0.000 C 
BRANCH  16  17
ATOM     17  C   UNL     1       3.241 -64.184 187.004  1.00  0.00    -0.000 C 
BRANCH  17  18
ATOM     18  C   UNL     1       3.053 -62.671 186.813  1.00  0.00    -0.000 C 
BRANCH  18  19
ATOM     19  C   UNL     1       1.952 -62.092 187.715  1.00  0.00    -0.003 C 
ATOM     20  C   UNL     1       1.991 -60.566 187.717  1.00  0.00     0.004 C 
ENDBRANCH  18  19
ENDBRANCH  17  18
ENDBRANCH  16  17
ENDBRANCH  15  16
ENDBRANCH  14  15
ENDBRANCH  13  14
ENDBRANCH  12  13
ENDBRANCH   1  12
TORSDOF 16
ENDMDL
MODEL 2
REMARK VINA RESULT:    -4.121      2.435      6.432
REMARK INTER + INTRA:          -9.757
REMARK INTER:                  -7.475
REMARK INTRA:                  -2.282
REMARK UNBOUND:                -1.781
REMARK SMILES CCCCCCCCCCCCCCCCCC(=O)[O-]
REMARK SMILES IDX 10 1 11 2 12 3 13 4 14 5 15 6 16 7 17 8 18 9 19 10 20 11
REMARK SMILES IDX 9 12 8 13 7 14 6 15 5 16 4 17 3 18 2 19 1 20
REMARK H PARENT
REMARK Flexibility Score: inf
ROOT
ATOM      1  C   UNL     1       2.004 -61.459 189.837  1.00  0.00     0.000 C 
ENDROOT
BRANCH   1   2
ATOM      2  C   UNL     1       2.070 -61.723 188.317  1.00  0.00     0.000 C 
BRANCH   2   3
ATOM      3  C   UNL     1       2.245 -63.210 187.952  1.00  0.00     0.000 C 
BRANCH   3   4
ATOM      4  C   UNL     1       3.449 -63.512 187.045  1.00  0.00     0.000 C 
BRANCH   4   5
ATOM      5  C   UNL     1       4.479 -64.440 187.715  1.00  0.00     0.000 C 
BRANCH   5   6
ATOM      6  C   UNL     1       5.834 -63.746 187.949  1.00  0.00     0.000 C 
BRANCH   6   7
ATOM      7  C   UNL     1       5.735 -62.401 188.693  1.00  0.00     0.006 C 
BRANCH   7   8
ATOM      8  C   UNL     1       7.102 -61.733 188.890  1.00  0.00     0.053 C 
BRANCH   8   9
ATOM      9  C   UNL     1       7.711 -62.164 190.187  1.00  0.00     0.041 C 
ATOM     10  O   UNL     1       7.031 -62.139 191.245  1.00  0.00    -0.550 OA
ATOM     11  O   UNL     1       9.046 -62.547 190.235  1.00  0.00    -0.550 OA
ENDBRANCH   8   9
ENDBRANCH   7   8
ENDBRANCH   6   7
ENDBRANCH   5   6
ENDBRANCH   4   5
ENDBRANCH   3   4
ENDBRANCH   2   3
ENDBRANCH   1   2
BRANCH   1  12
ATOM     12  C   UNL     1       2.520 -60.057 190.207  1.00  0.00     0.000 C 
BRANCH  12  13
ATOM     13  C   UNL     1       3.361 -59.420 189.091  1.00  0.00    -0.000 C 
BRANCH  13  14
ATOM     14  C   UNL     1       4.675 -58.815 189.610  1.00  0.00    -0.000 C 
BRANCH  14  15
ATOM     15  C   UNL     1       5.022 -59.373 190.999  1.00  0.00    -0.000 C 
BRANCH  15  16
ATOM     16  C   UNL     1       5.647 -58.317 191.924  1.00  0.00    -0.000 C 
BRANCH  16  17
ATOM     17  C   UNL     1       5.668 -56.914 191.292  1.00  0.00    -0.000 C 
BRANCH  17  18
ATOM     18  C   UNL     1       4.726 -55.930 192.004  1.00  0.00    -0.000 C 
BRANCH  18  19
ATOM     19  C   UNL     1       3.513 -56.627 192.639  1.00  0.00    -0.003 C 
ATOM     20  C   UNL     1       2.313 -56.605 191.695  1.00  0.00     0.004 C 
ENDBRANCH  18  19
ENDBRANCH  17  18
ENDBRANCH  16  17
ENDBRANCH  15  16
ENDBRANCH  14  15
ENDBRANCH  13  14
ENDBRANCH  12  13
ENDBRANCH   1  12
TORSDOF 16
ENDMDL
MODEL 3
REMARK VINA RESULT:    -4.080      1.163      3.793
REMARK INTER + INTRA:          -9.677
REMARK INTER:                  -8.068
REMARK INTRA:                  -1.609
REMARK UNBOUND:                -1.781
REMARK SMILES CCCCCCCCCCCCCCCCCC(=O)[O-]
REMARK SMILES IDX 10 1 11 2 12 3 13 4 14 5 15 6 16 7 17 8 18 9 19 10 20 11
REMARK SMILES IDX 9 12 8 13 7 14 6 15 5 16 4 17 3 18 2 19 1 20
REMARK H PARENT
REMARK Flexibility Score: inf
ROOT
ATOM      1  C   UNL     1       2.725 -61.897 188.878  1.00  0.00     0.000 C 
ENDROOT
BRANCH   1   2
ATOM      2  C   UNL     1       2.266 -60.680 188.045  1.00  0.00     0.000 C 
BRANCH   2   3
ATOM      3  C   UNL     1       2.861 -59.341 188.522  1.00  0.00     0.000 C 
BRANCH   3   4
ATOM      4  C   UNL     1       2.741 -59.087 190.034  1.00  0.00     0.000 C 
BRANCH   4   5
ATOM      5  C   UNL     1       3.706 -57.995 190.530  1.00  0.00     0.000 C 
BRANCH   5   6
ATOM      6  C   UNL     1       3.930 -58.053 192.053  1.00  0.00     0.000 C 
BRANCH   6   7
ATOM      7  C   UNL     1       4.717 -56.857 192.621  1.00  0.00     0.006 C 
BRANCH   7   8
ATOM      8  C   UNL     1       6.236 -57.038 192.500  1.00  0.00     0.053 C 
BRANCH   8   9
ATOM      9  C   UNL     1       6.884 -55.748 192.105  1.00  0.00     0.041 C 
ATOM     10  O   UNL     1       6.694 -55.269 190.957  1.00  0.00    -0.550 OA
ATOM     11  O   UNL     1       7.738 -55.100 192.989  1.00  0.00    -0.550 OA
ENDBRANCH   8   9
ENDBRANCH   7   8
ENDBRANCH   6   7
ENDBRANCH   5   6
ENDBRANCH   4   5
ENDBRANCH   3   4
ENDBRANCH   2   3
ENDBRANCH   1   2
BRANCH   1  12
ATOM     12  C   UNL     1       2.295 -63.232 188.244  1.00  0.00     0.000 C 
BRANCH  12  13
ATOM     13  C   UNL     1       3.479 -64.026 187.672  1.00  0.00    -0.000 C 
BRANCH  13  14
ATOM     14  C   UNL     1       4.829 -63.334 187.913  1.00  0.00    -0.000 C 
BRANCH  14  15
ATOM     15  C   UNL     1       5.991 -64.326 187.741  1.00  0.00    -0.000 C 
BRANCH  15  16
ATOM     16  C   UNL     1       7.364 -63.680 187.985  1.00  0.00    -0.000 C 
BRANCH  16  17
ATOM     17  C   UNL     1       7.257 -62.292 188.643  1.00  0.00    -0.000 C 
BRANCH  17  18
ATOM     18  C   UNL     1       8.017 -62.211 189.976  1.00  0.00    -0.000 C 
BRANCH  18  19
ATOM     19  C   UNL     1       7.154 -61.646 191.115  1.00  0.00    -0.003 C 
ATOM     20  C   UNL     1       5.939 -60.903 190.566  1.00  0.00     0.004 C 
ENDBRANCH  18  19
ENDBRANCH  17  18
ENDBRANCH  16  17
ENDBRANCH  15  16
ENDBRANCH  14  15
ENDBRANCH  13  14
ENDBRANCH  12  13
ENDBRANCH   1  12
TORSDOF 16
ENDMDL
MODEL 4
REMARK VINA RESULT:    -3.928      8.375     12.072
REMARK INTER + INTRA:          -9.384
REMARK INTER:                  -7.330
REMARK INTRA:                  -2.054
REMARK UNBOUND:                -1.781
REMARK SMILES CCCCCCCCCCCCCCCCCC(=O)[O-]
REMARK SMILES IDX 10 1 11 2 12 3 13 4 14 5 15 6 16 7 17 8 18 9 19 10 20 11
REMARK SMILES IDX 9 12 8 13 7 14 6 15 5 16 4 17 3 18 2 19 1 20
REMARK H PARENT
REMARK Flexibility Score: inf
ROOT
ATOM      1  C   UNL     1       4.539 -60.121 201.411  1.00  0.00     0.000 C 
ENDROOT
BRANCH   1   2
ATOM      2  C   UNL     1       5.849 -60.769 200.909  1.00  0.00     0.000 C 
BRANCH   2   3
ATOM      3  C   UNL     1       5.889 -62.300 201.079  1.00  0.00     0.000 C 
BRANCH   3   4
ATOM      4  C   UNL     1       5.965 -63.091 199.762  1.00  0.00     0.000 C 
BRANCH   4   5
ATOM      5  C   UNL     1       4.704 -63.936 199.505  1.00  0.00     0.000 C 
BRANCH   5   6
ATOM      6  C   UNL     1       3.528 -63.095 198.975  1.00  0.00     0.000 C 
BRANCH   6   7
ATOM      7  C   UNL     1       3.895 -62.163 197.804  1.00  0.00     0.006 C 
BRANCH   7   8
ATOM      8  C   UNL     1       3.289 -60.761 197.953  1.00  0.00     0.053 C 
BRANCH   8   9
ATOM      9  C   UNL     1       4.312 -59.716 197.637  1.00  0.00     0.041 C 
ATOM     10  O   UNL     1       5.512 -60.040 197.445  1.00  0.00    -0.550 OA
ATOM     11  O   UNL     1       3.947 -58.375 197.601  1.00  0.00    -0.550 OA
ENDBRANCH   8   9
ENDBRANCH   7   8
ENDBRANCH   6   7
ENDBRANCH   5   6
ENDBRANCH   4   5
ENDBRANCH   3   4
ENDBRANCH   2   3
ENDBRANCH   1   2
BRANCH   1  12
ATOM     12  C   UNL     1       4.518 -58.600 201.181  1.00  0.00     0.000 C 
BRANCH  12  13
ATOM     13  C   UNL     1       5.846 -58.063 200.625  1.00  0.00    -0.000 C 
BRANCH  13  14
ATOM     14  C   UNL     1       6.335 -56.809 201.364  1.00  0.00    -0.000 C 
BRANCH  14  15
ATOM     15  C   UNL     1       7.831 -56.918 201.697  1.00  0.00    -0.000 C 
BRANCH  15  16
ATOM     16  C   UNL     1       8.383 -58.337 201.490  1.00  0.00    -0.000 C 
BRANCH  16  17
ATOM     17  C   UNL     1       9.920 -58.370 201.422  1.00  0.00    -0.000 C 
BRANCH  17  18
ATOM     18  C   UNL     1      10.478 -57.522 200.268  1.00  0.00    -0.000 C 
BRANCH  18  19
ATOM     19  C   UNL     1      11.861 -57.998 199.797  1.00  0.00    -0.003 C 
ATOM     20  C   UNL     1      12.274 -59.279 200.518  1.00  0.00     0.004 C 
ENDBRANCH  18  19
ENDBRANCH  17  18
ENDBRANCH  16  17
ENDBRANCH  15  16
ENDBRANCH  14  15
ENDBRANCH  13  14
ENDBRANCH  12  13
ENDBRANCH   1  12
TORSDOF 16
ENDMDL
MODEL 5
REMARK VINA RESULT:    -3.885      8.203     10.635
REMARK INTER + INTRA:          -9.299
REMARK INTER:                  -6.602
REMARK INTRA:                  -2.697
REMARK UNBOUND:                -1.781
REMARK SMILES CCCCCCCCCCCCCCCCCC(=O)[O-]
REMARK SMILES IDX 10 1 11 2 12 3 13 4 14 5 15 6 16 7 17 8 18 9 19 10 20 11
REMARK SMILES IDX 9 12 8 13 7 14 6 15 5 16 4 17 3 18 2 19 1 20
REMARK H PARENT
REMARK Flexibility Score: inf
ROOT
ATOM      1  C   UNL     1       4.912 -59.203 197.038  1.00  0.00     0.000 C 
ENDROOT
BRANCH   1   2
ATOM      2  C   UNL     1       6.189 -59.839 197.629  1.00  0.00     0.000 C 
BRANCH   2   3
ATOM      3  C   UNL     1       7.132 -58.824 198.304  1.00  0.00     0.000 C 
BRANCH   3   4
ATOM      4  C   UNL     1       6.423 -57.651 199.001  1.00  0.00     0.000 C 
BRANCH   4   5
ATOM      5  C   UNL     1       6.875 -57.469 200.461  1.00  0.00     0.000 C 
BRANCH   5   6
ATOM      6  C   UNL     1       7.907 -58.526 200.896  1.00  0.00     0.000 C 
BRANCH   6   7
ATOM      7  C   UNL     1       9.202 -57.939 201.489  1.00  0.00     0.006 C 
BRANCH   7   8
ATOM      8  C   UNL     1      10.428 -58.200 200.604  1.00  0.00     0.053 C 
BRANCH   8   9
ATOM      9  C   UNL     1      10.848 -56.941 199.913  1.00  0.00     0.041 C 
ATOM     10  O   UNL     1      10.167 -55.891 200.038  1.00  0.00    -0.550 OA
ATOM     11  O   UNL     1      11.967 -56.941 199.089  1.00  0.00    -0.550 OA
ENDBRANCH   8   9
ENDBRANCH   7   8
ENDBRANCH   6   7
ENDBRANCH   5   6
ENDBRANCH   4   5
ENDBRANCH   3   4
ENDBRANCH   2   3
ENDBRANCH   1   2
BRANCH   1  12
ATOM     12  C   UNL     1       3.631 -59.786 197.659  1.00  0.00     0.000 C 
BRANCH  12  13
ATOM     13  C   UNL     1       2.881 -58.772 198.537  1.00  0.00    -0.000 C 
BRANCH  13  14
ATOM     14  C   UNL     1       3.148 -58.974 200.036  1.00  0.00    -0.000 C 
BRANCH  14  15
ATOM     15  C   UNL     1       3.626 -60.407 200.319  1.00  0.00    -0.000 C 
BRANCH  15  16
ATOM     16  C   UNL     1       4.847 -60.453 201.250  1.00  0.00    -0.000 C 
BRANCH  16  17
ATOM     17  C   UNL     1       5.752 -61.669 200.982  1.00  0.00    -0.000 C 
BRANCH  17  18
ATOM     18  C   UNL     1       5.144 -62.642 199.959  1.00  0.00    -0.000 C 
BRANCH  18  19
ATOM     19  C   UNL     1       6.111 -63.771 199.568  1.00  0.00    -0.003 C 
ATOM     20  C   UNL     1       5.419 -65.130 199.627  1.00  0.00     0.004 C 
ENDBRANCH  18  19
ENDBRANCH  17  18
ENDBRANCH  16  17
ENDBRANCH  15  16
ENDBRANCH  14  15
ENDBRANCH  13  14
ENDBRANCH  12  13
ENDBRANCH   1  12
TORSDOF 16
ENDMDL
MODEL 6
REMARK VINA RESULT:    -3.878      8.097     10.124
REMARK INTER + INTRA:          -9.286
REMARK INTER:                  -6.754
REMARK INTRA:                  -2.532
REMARK UNBOUND:                -1.781
REMARK SMILES CCCCCCCCCCCCCCCCCC(=O)[O-]
REMARK SMILES IDX 10 1 11 2 12 3 13 4 14 5 15 6 16 7 17 8 18 9 19 10 20 11
REMARK SMILES IDX 9 12 8 13 7 14 6 15 5 16 4 17 3 18 2 19 1 20
REMARK H PARENT
REMARK Flexibility Score: inf
ROOT
ATOM      1  C   UNL     1       5.978 -62.500 201.229  1.00  0.00     0.000 C 
ENDROOT
BRANCH   1   2
ATOM      2  C   UNL     1       5.259 -61.134 201.224  1.00  0.00     0.000 C 
BRANCH   2   3
ATOM      3  C   UNL     1       6.062 -60.012 200.538  1.00  0.00     0.000 C 
BRANCH   3   4
ATOM      4  C   UNL     1       5.505 -58.595 200.757  1.00  0.00     0.000 C 
BRANCH   4   5
ATOM      5  C   UNL     1       6.614 -57.536 200.891  1.00  0.00     0.000 C 
BRANCH   5   6
ATOM      6  C   UNL     1       8.001 -58.162 201.129  1.00  0.00     0.000 C 
BRANCH   6   7
ATOM      7  C   UNL     1       9.180 -57.249 200.743  1.00  0.00     0.006 C 
BRANCH   7   8
ATOM      8  C   UNL     1       9.918 -57.736 199.489  1.00  0.00     0.053 C 
BRANCH   8   9
ATOM      9  C   UNL     1      11.376 -57.912 199.779  1.00  0.00     0.041 C 
ATOM     10  O   UNL     1      12.228 -57.186 199.206  1.00  0.00    -0.550 OA
ATOM     11  O   UNL     1      11.796 -58.913 200.646  1.00  0.00    -0.550 OA
ENDBRANCH   8   9
ENDBRANCH   7   8
ENDBRANCH   6   7
ENDBRANCH   5   6
ENDBRANCH   4   5
ENDBRANCH   3   4
ENDBRANCH   2   3
ENDBRANCH   1   2
BRANCH   1  12
ATOM     12  C   UNL     1       5.924 -63.190 199.855  1.00  0.00     0.000 C 
BRANCH  12  13
ATOM     13  C   UNL     1       4.501 -63.606 199.453  1.00  0.00    -0.000 C 
BRANCH  13  14
ATOM     14  C   UNL     1       4.028 -62.928 198.158  1.00  0.00    -0.000 C 
BRANCH  14  15
ATOM     15  C   UNL     1       2.867 -61.961 198.439  1.00  0.00    -0.000 C 
BRANCH  15  16
ATOM     16  C   UNL     1       3.214 -60.503 198.099  1.00  0.00    -0.000 C 
BRANCH  16  17
ATOM     17  C   UNL     1       4.482 -60.381 197.236  1.00  0.00    -0.000 C 
BRANCH  17  18
ATOM     18  C   UNL     1       4.950 -58.926 197.075  1.00  0.00    -0.000 C 
BRANCH  18  19
ATOM     19  C   UNL     1       6.479 -58.785 197.135  1.00  0.00    -0.003 C 
ATOM     20  C   UNL     1       6.892 -57.316 197.194  1.00  0.00     0.004 C 
ENDBRANCH  18  19
ENDBRANCH  17  18
ENDBRANCH  16  17
ENDBRANCH  15  16
ENDBRANCH  14  15
ENDBRANCH  13  14
ENDBRANCH  12  13
ENDBRANCH   1  12
TORSDOF 16
ENDMDL
MODEL 7
REMARK VINA RESULT:    -3.863      8.120     11.394
REMARK INTER + INTRA:          -9.258
REMARK INTER:                  -6.729
REMARK INTRA:                  -2.529
REMARK UNBOUND:                -1.781
REMARK SMILES CCCCCCCCCCCCCCCCCC(=O)[O-]
REMARK SMILES IDX 10 1 11 2 12 3 13 4 14 5 15 6 16 7 17 8 18 9 19 10 20 11
REMARK SMILES IDX 9 12 8 13 7 14 6 15 5 16 4 17 3 18 2 19 1 20
REMARK H PARENT
REMARK Flexibility Score: inf
ROOT
ATOM      1  C   UNL     1       3.019 -59.368 197.333  1.00  0.00     0.000 C 
ENDROOT
BRANCH   1   2
ATOM      2  C   UNL     1       2.651 -59.188 198.822  1.00  0.00     0.000 C 
BRANCH   2   3
ATOM      3  C   UNL     1       3.364 -58.000 199.498  1.00  0.00     0.000 C 
BRANCH   3   4
ATOM      4  C   UNL     1       4.357 -58.391 200.606  1.00  0.00     0.000 C 
BRANCH   4   5
ATOM      5  C   UNL     1       4.300 -59.890 200.950  1.00  0.00     0.000 C 
BRANCH   5   6
ATOM      6  C   UNL     1       5.699 -60.510 201.120  1.00  0.00     0.000 C 
BRANCH   6   7
ATOM      7  C   UNL     1       5.714 -62.051 201.100  1.00  0.00     0.006 C 
BRANCH   7   8
ATOM      8  C   UNL     1       5.688 -62.623 199.677  1.00  0.00     0.053 C 
BRANCH   8   9
ATOM      9  C   UNL     1       4.570 -63.607 199.532  1.00  0.00     0.041 C 
ATOM     10  O   UNL     1       3.444 -63.231 199.116  1.00  0.00    -0.550 OA
ATOM     11  O   UNL     1       4.758 -64.933 199.904  1.00  0.00    -0.550 OA
ENDBRANCH   8   9
ENDBRANCH   7   8
ENDBRANCH   6   7
ENDBRANCH   5   6
ENDBRANCH   4   5
ENDBRANCH   3   4
ENDBRANCH   2   3
ENDBRANCH   1   2
BRANCH   1  12
ATOM     12  C   UNL     1       4.227 -60.302 197.141  1.00  0.00     0.000 C 
BRANCH  12  13
ATOM     13  C   UNL     1       5.486 -59.557 196.673  1.00  0.00    -0.000 C 
BRANCH  13  14
ATOM     14  C   UNL     1       6.560 -59.461 197.768  1.00  0.00    -0.000 C 
BRANCH  14  15
ATOM     15  C   UNL     1       6.915 -57.995 198.059  1.00  0.00    -0.000 C 
BRANCH  15  16
ATOM     16  C   UNL     1       8.269 -57.842 198.771  1.00  0.00    -0.000 C 
BRANCH  16  17
ATOM     17  C   UNL     1       8.158 -58.012 200.297  1.00  0.00    -0.000 C 
BRANCH  17  18
ATOM     18  C   UNL     1       9.510 -58.329 200.955  1.00  0.00    -0.000 C 
BRANCH  18  19
ATOM     19  C   UNL     1      10.683 -58.249 199.966  1.00  0.00    -0.003 C 
ATOM     20  C   UNL     1      11.905 -58.989 200.505  1.00  0.00     0.004 C 
ENDBRANCH  18  19
ENDBRANCH  17  18
ENDBRANCH  16  17
ENDBRANCH  15  16
ENDBRANCH  14  15
ENDBRANCH  13  14
ENDBRANCH  12  13
ENDBRANCH   1  12
TORSDOF 16
ENDMDL
MODEL 8
REMARK VINA RESULT:    -3.844      2.894      6.792
REMARK INTER + INTRA:          -9.222
REMARK INTER:                  -7.591
REMARK INTRA:                  -1.631
REMARK UNBOUND:                -1.781
REMARK SMILES CCCCCCCCCCCCCCCCCC(=O)[O-]
REMARK SMILES IDX 10 1 11 2 12 3 13 4 14 5 15 6 16 7 17 8 18 9 19 10 20 11
REMARK SMILES IDX 9 12 8 13 7 14 6 15 5 16 4 17 3 18 2 19 1 20
REMARK H PARENT
REMARK Flexibility Score: inf
ROOT
ATOM      1  C   UNL     1       8.009 -62.330 189.922  1.00  0.00     0.000 C 
ENDROOT
BRANCH   1   2
ATOM      2  C   UNL     1       7.670 -63.383 188.845  1.00  0.00     0.000 C 
BRANCH   2   3
ATOM      3  C   UNL     1       6.353 -63.102 188.095  1.00  0.00     0.000 C 
BRANCH   3   4
ATOM      4  C   UNL     1       5.512 -64.351 187.783  1.00  0.00     0.000 C 
BRANCH   4   5
ATOM      5  C   UNL     1       4.005 -64.047 187.707  1.00  0.00     0.000 C 
BRANCH   5   6
ATOM      6  C   UNL     1       3.614 -62.797 188.518  1.00  0.00     0.000 C 
BRANCH   6   7
ATOM      7  C   UNL     1       2.297 -62.138 188.067  1.00  0.00     0.006 C 
BRANCH   7   8
ATOM      8  C   UNL     1       2.388 -61.539 186.657  1.00  0.00     0.053 C 
BRANCH   8   9
ATOM      9  C   UNL     1       2.116 -60.068 186.698  1.00  0.00     0.041 C 
ATOM     10  O   UNL     1       1.889 -59.435 185.635  1.00  0.00    -0.550 OA
ATOM     11  O   UNL     1       2.162 -59.387 187.909  1.00  0.00    -0.550 OA
ENDBRANCH   8   9
ENDBRANCH   7   8
ENDBRANCH   6   7
ENDBRANCH   5   6
ENDBRANCH   4   5
ENDBRANCH   3   4
ENDBRANCH   2   3
ENDBRANCH   1   2
BRANCH   1  12
ATOM     12  C   UNL     1       6.982 -61.185 189.960  1.00  0.00     0.000 C 
BRANCH  12  13
ATOM     13  C   UNL     1       6.369 -60.981 191.354  1.00  0.00    -0.000 C 
BRANCH  13  14
ATOM     14  C   UNL     1       5.561 -59.679 191.462  1.00  0.00    -0.000 C 
BRANCH  14  15
ATOM     15  C   UNL     1       4.951 -59.299 190.104  1.00  0.00    -0.000 C 
BRANCH  15  16
ATOM     16  C   UNL     1       4.732 -57.785 189.954  1.00  0.00    -0.000 C 
BRANCH  16  17
ATOM     17  C   UNL     1       5.523 -56.967 190.990  1.00  0.00    -0.000 C 
BRANCH  17  18
ATOM     18  C   UNL     1       4.610 -56.182 191.945  1.00  0.00    -0.000 C 
BRANCH  18  19
ATOM     19  C   UNL     1       5.360 -55.643 193.173  1.00  0.00    -0.003 C 
ATOM     20  C   UNL     1       5.750 -56.777 194.118  1.00  0.00     0.004 C 
ENDBRANCH  18  19
ENDBRANCH  17  18
ENDBRANCH  16  17
ENDBRANCH  15  16
ENDBRANCH  14  15
ENDBRANCH  13  14
ENDBRANCH  12  13
ENDBRANCH   1  12
TORSDOF 16
ENDMDL
MODEL 9
REMARK VINA RESULT:    -3.755      9.170     12.133
REMARK INTER + INTRA:          -9.048
REMARK INTER:                  -6.597
REMARK INTRA:                  -2.451
REMARK UNBOUND:                -1.781
REMARK SMILES CCCCCCCCCCCCCCCCCC(=O)[O-]
REMARK SMILES IDX 10 1 11 2 12 3 13 4 14 5 15 6 16 7 17 8 18 9 19 10 20 11
REMARK SMILES IDX 9 12 8 13 7 14 6 15 5 16 4 17 3 18 2 19 1 20
REMARK H PARENT
REMARK Flexibility Score: inf
ROOT
ATOM      1  C   UNL     1       5.619 -56.207 198.990  1.00  0.00     0.000 C 
ENDROOT
BRANCH   1   2
ATOM      2  C   UNL     1       6.781 -56.834 198.190  1.00  0.00     0.000 C 
BRANCH   2   3
ATOM      3  C   UNL     1       6.421 -58.174 197.518  1.00  0.00     0.000 C 
BRANCH   3   4
ATOM      4  C   UNL     1       6.925 -59.422 198.263  1.00  0.00     0.000 C 
BRANCH   4   5
ATOM      5  C   UNL     1       5.778 -60.335 198.732  1.00  0.00     0.000 C 
BRANCH   5   6
ATOM      6  C   UNL     1       5.604 -60.325 200.262  1.00  0.00     0.000 C 
BRANCH   6   7
ATOM      7  C   UNL     1       5.496 -61.725 200.895  1.00  0.00     0.006 C 
BRANCH   7   8
ATOM      8  C   UNL     1       5.990 -62.836 199.959  1.00  0.00     0.053 C 
BRANCH   8   9
ATOM      9  C   UNL     1       4.923 -63.867 199.767  1.00  0.00     0.041 C 
ATOM     10  O   UNL     1       3.771 -63.526 199.394  1.00  0.00    -0.550 OA
ATOM     11  O   UNL     1       5.188 -65.202 200.047  1.00  0.00    -0.550 OA
ENDBRANCH   8   9
ENDBRANCH   7   8
ENDBRANCH   6   7
ENDBRANCH   5   6
ENDBRANCH   4   5
ENDBRANCH   3   4
ENDBRANCH   2   3
ENDBRANCH   1   2
BRANCH   1  12
ATOM     12  C   UNL     1       6.062 -55.735 200.386  1.00  0.00     0.000 C 
BRANCH  12  13
ATOM     13  C   UNL     1       6.291 -56.899 201.363  1.00  0.00    -0.000 C 
BRANCH  13  14
ATOM     14  C   UNL     1       7.735 -56.961 201.883  1.00  0.00    -0.000 C 
BRANCH  14  15
ATOM     15  C   UNL     1       8.481 -58.164 201.286  1.00  0.00    -0.000 C 
BRANCH  15  16
ATOM     16  C   UNL     1       9.979 -58.165 201.631  1.00  0.00    -0.000 C 
BRANCH  16  17
ATOM     17  C   UNL     1      10.866 -58.492 200.417  1.00  0.00    -0.000 C 
BRANCH  17  18
ATOM     18  C   UNL     1      10.323 -57.891 199.110  1.00  0.00    -0.000 C 
BRANCH  18  19
ATOM     19  C   UNL     1      10.950 -56.527 198.780  1.00  0.00    -0.003 C 
ATOM     20  C   UNL     1      10.136 -55.388 199.389  1.00  0.00     0.004 C 
ENDBRANCH  18  19
ENDBRANCH  17  18
ENDBRANCH  16  17
ENDBRANCH  15  16
ENDBRANCH  14  15
ENDBRANCH  13  14
ENDBRANCH  12  13
ENDBRANCH   1  12
TORSDOF 16
ENDMDL
