MODEL 1
REMARK VINA RESULT:    -3.078      0.000      0.000
REMARK INTER + INTRA:          -5.420
REMARK INTER:                  -4.698
REMARK INTRA:                  -0.722
REMARK UNBOUND:                -0.722
REMARK SMILES O=C([O-])CCCCCCCCC(=O)[O-]
REMARK SMILES IDX 7 1 6 2 5 3 4 4 2 5 1 6 3 7 8 8 9 9 10 10 11 11 12 12 13 13
REMARK SMILES IDX 14 14
REMARK H PARENT
REMARK Flexibility Score: inf
ROOT
ATOM      1  C   UNL     1       9.725   8.385  -0.822  1.00  0.00     0.000 C 
ENDROOT
BRANCH   1   2
ATOM      2  C   UNL     1       8.223   8.383  -1.141  1.00  0.00     0.000 C 
BRANCH   2   3
ATOM      3  C   UNL     1       7.532   9.707  -0.766  1.00  0.00     0.006 C 
BRANCH   3   4
ATOM      4  C   UNL     1       6.248   9.538   0.061  1.00  0.00     0.053 C 
BRANCH   4   5
ATOM      5  C   UNL     1       6.536   9.109   1.467  1.00  0.00     0.041 C 
ATOM      6  O   UNL     1       7.412   9.709   2.144  1.00  0.00    -0.550 OA
ATOM      7  O   UNL     1       5.863   8.025   2.016  1.00  0.00    -0.550 OA
ENDBRANCH   4   5
ENDBRANCH   3   4
ENDBRANCH   2   3
ENDBRANCH   1   2
BRANCH   1   8
ATOM      8  C   UNL     1      10.009   7.643   0.490  1.00  0.00     0.000 C 
BRANCH   8   9
ATOM      9  C   UNL     1       9.061   6.448   0.662  1.00  0.00     0.000 C 
BRANCH   9  10
ATOM     10  C   UNL     1       9.757   5.217   1.271  1.00  0.00     0.006 C 
BRANCH  10  11
ATOM     11  C   UNL     1      10.268   4.201   0.237  1.00  0.00     0.053 C 
BRANCH  11  12
ATOM     12  C   UNL     1       9.555   2.887   0.339  1.00  0.00     0.041 C 
ATOM     13  O   UNL     1       9.535   2.099  -0.641  1.00  0.00    -0.550 OA
ATOM     14  O   UNL     1       8.882   2.550   1.507  1.00  0.00    -0.550 OA
ENDBRANCH  11  12
ENDBRANCH  10  11
ENDBRANCH   9  10
ENDBRANCH   8   9
ENDBRANCH   1   8
TORSDOF 9
ENDMDL
MODEL 2
REMARK VINA RESULT:    -3.036      4.665      6.537
REMARK INTER + INTRA:          -5.356
REMARK INTER:                  -5.004
REMARK INTRA:                  -0.352
REMARK UNBOUND:                -0.722
REMARK SMILES O=C([O-])CCCCCCCCC(=O)[O-]
REMARK SMILES IDX 7 1 6 2 5 3 4 4 2 5 1 6 3 7 8 8 9 9 10 10 11 11 12 12 13 13
REMARK SMILES IDX 14 14
REMARK H PARENT
REMARK Flexibility Score: inf
ROOT
ATOM      1  C   UNL     1       6.260   9.138  -3.341  1.00  0.00     0.000 C 
ENDROOT
BRANCH   1   2
ATOM      2  C   UNL     1       6.058   7.976  -4.325  1.00  0.00     0.000 C 
BRANCH   2   3
ATOM      3  C   UNL     1       5.065   8.314  -5.452  1.00  0.00     0.006 C 
BRANCH   3   4
ATOM      4  C   UNL     1       3.600   7.984  -5.125  1.00  0.00     0.053 C 
BRANCH   4   5
ATOM      5  C   UNL     1       2.649   8.941  -5.773  1.00  0.00     0.041 C 
ATOM      6  O   UNL     1       2.167   8.684  -6.908  1.00  0.00    -0.550 OA
ATOM      7  O   UNL     1       2.322  10.133  -5.140  1.00  0.00    -0.550 OA
ENDBRANCH   4   5
ENDBRANCH   3   4
ENDBRANCH   2   3
ENDBRANCH   1   2
BRANCH   1   8
ATOM      8  C   UNL     1       7.604   9.014  -2.614  1.00  0.00     0.000 C 
BRANCH   8   9
ATOM      9  C   UNL     1       7.396   8.725  -1.120  1.00  0.00     0.000 C 
BRANCH   9  10
ATOM     10  C   UNL     1       6.311   9.614  -0.486  1.00  0.00     0.006 C 
BRANCH  10  11
ATOM     11  C   UNL     1       6.597  10.024   0.968  1.00  0.00     0.053 C 
BRANCH  11  12
ATOM     12  C   UNL     1       6.734   8.836   1.870  1.00  0.00     0.041 C 
ATOM     13  O   UNL     1       5.786   8.017   1.990  1.00  0.00    -0.550 OA
ATOM     14  O   UNL     1       7.898   8.653   2.607  1.00  0.00    -0.550 OA
ENDBRANCH  11  12
ENDBRANCH  10  11
ENDBRANCH   9  10
ENDBRANCH   8   9
ENDBRANCH   1   8
TORSDOF 9
ENDMDL
MODEL 3
REMARK VINA RESULT:    -3.021      4.678      6.800
REMARK INTER + INTRA:          -5.332
REMARK INTER:                  -5.013
REMARK INTRA:                  -0.320
REMARK UNBOUND:                -0.722
REMARK SMILES O=C([O-])CCCCCCCCC(=O)[O-]
REMARK SMILES IDX 7 1 6 2 5 3 4 4 2 5 1 6 3 7 8 8 9 9 10 10 11 11 12 12 13 13
REMARK SMILES IDX 14 14
REMARK H PARENT
REMARK Flexibility Score: inf
ROOT
ATOM      1  C   UNL     1       7.918   8.560  -2.606  1.00  0.00     0.000 C 
ENDROOT
BRANCH   1   2
ATOM      2  C   UNL     1       7.886   8.481  -1.072  1.00  0.00     0.000 C 
BRANCH   2   3
ATOM      3  C   UNL     1       6.748   9.314  -0.455  1.00  0.00     0.006 C 
BRANCH   3   4
ATOM      4  C   UNL     1       7.088   9.939   0.907  1.00  0.00     0.053 C 
BRANCH   4   5
ATOM      5  C   UNL     1       6.770   9.019   2.045  1.00  0.00     0.041 C 
ATOM      6  O   UNL     1       7.449   9.065   3.105  1.00  0.00    -0.550 OA
ATOM      7  O   UNL     1       5.748   8.087   1.921  1.00  0.00    -0.550 OA
ENDBRANCH   4   5
ENDBRANCH   3   4
ENDBRANCH   2   3
ENDBRANCH   1   2
BRANCH   1   8
ATOM      8  C   UNL     1       6.544   8.948  -3.165  1.00  0.00     0.000 C 
BRANCH   8   9
ATOM      9  C   UNL     1       6.111   7.984  -4.279  1.00  0.00     0.000 C 
BRANCH   9  10
ATOM     10  C   UNL     1       5.080   8.606  -5.239  1.00  0.00     0.006 C 
BRANCH  10  11
ATOM     11  C   UNL     1       3.667   8.012  -5.121  1.00  0.00     0.053 C 
BRANCH  11  12
ATOM     12  C   UNL     1       2.649   8.835  -5.851  1.00  0.00     0.041 C 
ATOM     13  O   UNL     1       2.150   9.854  -5.307  1.00  0.00    -0.550 OA
ATOM     14  O   UNL     1       2.225   8.453  -7.118  1.00  0.00    -0.550 OA
ENDBRANCH  11  12
ENDBRANCH  10  11
ENDBRANCH   9  10
ENDBRANCH   8   9
ENDBRANCH   1   8
TORSDOF 9
ENDMDL
MODEL 4
REMARK VINA RESULT:    -3.018     11.130     14.128
REMARK INTER + INTRA:          -5.329
REMARK INTER:                  -4.797
REMARK INTRA:                  -0.532
REMARK UNBOUND:                -0.722
REMARK SMILES O=C([O-])CCCCCCCCC(=O)[O-]
REMARK SMILES IDX 7 1 6 2 5 3 4 4 2 5 1 6 3 7 8 8 9 9 10 10 11 11 12 12 13 13
REMARK SMILES IDX 14 14
REMARK H PARENT
REMARK Flexibility Score: inf
ROOT
ATOM      1  C   UNL     1      -3.701  10.197  -4.013  1.00  0.00     0.000 C 
ENDROOT
BRANCH   1   2
ATOM      2  C   UNL     1      -3.089   9.293  -5.093  1.00  0.00     0.000 C 
BRANCH   2   3
ATOM      3  C   UNL     1      -2.106  10.041  -6.011  1.00  0.00     0.006 C 
BRANCH   3   4
ATOM      4  C   UNL     1      -1.085  10.915  -5.267  1.00  0.00     0.053 C 
BRANCH   4   5
ATOM      5  C   UNL     1       0.326  10.560  -5.625  1.00  0.00     0.041 C 
ATOM      6  O   UNL     1       1.284  11.007  -4.940  1.00  0.00    -0.550 OA
ATOM      7  O   UNL     1       0.584   9.765  -6.734  1.00  0.00    -0.550 OA
ENDBRANCH   4   5
ENDBRANCH   3   4
ENDBRANCH   2   3
ENDBRANCH   1   2
BRANCH   1   8
ATOM      8  C   UNL     1      -4.807  11.082  -4.599  1.00  0.00     0.000 C 
BRANCH   8   9
ATOM      9  C   UNL     1      -4.888  12.424  -3.857  1.00  0.00     0.000 C 
BRANCH   9  10
ATOM     10  C   UNL     1      -4.187  12.391  -2.486  1.00  0.00     0.006 C 
BRANCH  10  11
ATOM     11  C   UNL     1      -4.976  13.068  -1.354  1.00  0.00     0.053 C 
BRANCH  11  12
ATOM     12  C   UNL     1      -4.137  13.279  -0.131  1.00  0.00     0.041 C 
ATOM     13  O   UNL     1      -4.622  13.850   0.880  1.00  0.00    -0.550 OA
ATOM     14  O   UNL     1      -2.807  12.876  -0.122  1.00  0.00    -0.550 OA
ENDBRANCH  11  12
ENDBRANCH  10  11
ENDBRANCH   9  10
ENDBRANCH   8   9
ENDBRANCH   1   8
TORSDOF 9
ENDMDL
MODEL 5
REMARK VINA RESULT:    -3.009      1.845      6.444
REMARK INTER + INTRA:          -5.314
REMARK INTER:                  -4.858
REMARK INTRA:                  -0.456
REMARK UNBOUND:                -0.722
REMARK SMILES O=C([O-])CCCCCCCCC(=O)[O-]
REMARK SMILES IDX 7 1 6 2 5 3 4 4 2 5 1 6 3 7 8 8 9 9 10 10 11 11 12 12 13 13
REMARK SMILES IDX 14 14
REMARK H PARENT
REMARK Flexibility Score: inf
ROOT
ATOM      1  C   UNL     1      10.060   6.678   1.603  1.00  0.00     0.000 C 
ENDROOT
BRANCH   1   2
ATOM      2  C   UNL     1      10.056   5.970   2.966  1.00  0.00     0.000 C 
BRANCH   2   3
ATOM      3  C   UNL     1      10.516   4.503   2.879  1.00  0.00     0.006 C 
BRANCH   3   4
ATOM      4  C   UNL     1      10.586   3.946   1.448  1.00  0.00     0.053 C 
BRANCH   4   5
ATOM      5  C   UNL     1       9.678   2.771   1.258  1.00  0.00     0.041 C 
ATOM      6  O   UNL     1       9.179   2.187   2.256  1.00  0.00    -0.550 OA
ATOM      7  O   UNL     1       9.410   2.298  -0.021  1.00  0.00    -0.550 OA
ENDBRANCH   4   5
ENDBRANCH   3   4
ENDBRANCH   2   3
ENDBRANCH   1   2
BRANCH   1   8
ATOM      8  C   UNL     1       8.637   7.051   1.173  1.00  0.00     0.000 C 
BRANCH   8   9
ATOM      9  C   UNL     1       8.020   8.071   2.141  1.00  0.00     0.000 C 
BRANCH   9  10
ATOM     10  C   UNL     1       6.601   8.505   1.727  1.00  0.00     0.006 C 
BRANCH  10  11
ATOM     11  C   UNL     1       6.506   9.950   1.212  1.00  0.00     0.053 C 
BRANCH  11  12
ATOM     12  C   UNL     1       6.272  10.007  -0.267  1.00  0.00     0.041 C 
ATOM     13  O   UNL     1       6.680   9.076  -1.009  1.00  0.00    -0.550 OA
ATOM     14  O   UNL     1       5.636  11.107  -0.829  1.00  0.00    -0.550 OA
ENDBRANCH  11  12
ENDBRANCH  10  11
ENDBRANCH   9  10
ENDBRANCH   8   9
ENDBRANCH   1   8
TORSDOF 9
ENDMDL
MODEL 6
REMARK VINA RESULT:    -2.966     12.165     14.232
REMARK INTER + INTRA:          -5.249
REMARK INTER:                  -4.600
REMARK INTRA:                  -0.649
REMARK UNBOUND:                -0.722
REMARK SMILES O=C([O-])CCCCCCCCC(=O)[O-]
REMARK SMILES IDX 7 1 6 2 5 3 4 4 2 5 1 6 3 7 8 8 9 9 10 10 11 11 12 12 13 13
REMARK SMILES IDX 14 14
REMARK H PARENT
REMARK Flexibility Score: inf
ROOT
ATOM      1  C   UNL     1      -5.015  13.543  -3.261  1.00  0.00     0.000 C 
ENDROOT
BRANCH   1   2
ATOM      2  C   UNL     1      -6.182  13.915  -2.333  1.00  0.00     0.000 C 
BRANCH   2   3
ATOM      3  C   UNL     1      -5.880  13.628  -0.851  1.00  0.00     0.006 C 
BRANCH   3   4
ATOM      4  C   UNL     1      -4.558  12.884  -0.606  1.00  0.00     0.053 C 
BRANCH   4   5
ATOM      5  C   UNL     1      -3.625  13.666   0.266  1.00  0.00     0.041 C 
ATOM      6  O   UNL     1      -2.380  13.526   0.146  1.00  0.00    -0.550 OA
ATOM      7  O   UNL     1      -4.132  14.522   1.236  1.00  0.00    -0.550 OA
ENDBRANCH   4   5
ENDBRANCH   3   4
ENDBRANCH   2   3
ENDBRANCH   1   2
BRANCH   1   8
ATOM      8  C   UNL     1      -5.448  12.498  -4.295  1.00  0.00     0.000 C 
BRANCH   8   9
ATOM      9  C   UNL     1      -4.628  11.208  -4.149  1.00  0.00     0.000 C 
BRANCH   9  10
ATOM     10  C   UNL     1      -3.163  11.474  -3.753  1.00  0.00     0.006 C 
BRANCH  10  11
ATOM     11  C   UNL     1      -2.128  10.861  -4.710  1.00  0.00     0.053 C 
BRANCH  11  12
ATOM     12  C   UNL     1      -0.996  11.802  -4.990  1.00  0.00     0.041 C 
ATOM     13  O   UNL     1      -1.229  12.988  -5.341  1.00  0.00    -0.550 OA
ATOM     14  O   UNL     1       0.317  11.357  -4.900  1.00  0.00    -0.550 OA
ENDBRANCH  11  12
ENDBRANCH  10  11
ENDBRANCH   9  10
ENDBRANCH   8   9
ENDBRANCH   1   8
TORSDOF 9
ENDMDL
MODEL 7
REMARK VINA RESULT:    -2.947     13.478     15.423
REMARK INTER + INTRA:          -5.220
REMARK INTER:                  -4.772
REMARK INTRA:                  -0.448
REMARK UNBOUND:                -0.722
REMARK SMILES O=C([O-])CCCCCCCCC(=O)[O-]
REMARK SMILES IDX 7 1 6 2 5 3 4 4 2 5 1 6 3 7 8 8 9 9 10 10 11 11 12 12 13 13
REMARK SMILES IDX 14 14
REMARK H PARENT
REMARK Flexibility Score: inf
ROOT
ATOM      1  C   UNL     1      -3.498  10.335  -3.913  1.00  0.00     0.000 C 
ENDROOT
BRANCH   1   2
ATOM      2  C   UNL     1      -4.841  10.223  -4.648  1.00  0.00     0.000 C 
BRANCH   2   3
ATOM      3  C   UNL     1      -5.231   8.767  -4.961  1.00  0.00     0.006 C 
BRANCH   3   4
ATOM      4  C   UNL     1      -6.603   8.610  -5.636  1.00  0.00     0.053 C 
BRANCH   4   5
ATOM      5  C   UNL     1      -7.552   7.805  -4.802  1.00  0.00     0.041 C 
ATOM      6  O   UNL     1      -8.789   8.037  -4.848  1.00  0.00    -0.550 OA
ATOM      7  O   UNL     1      -7.067   6.823  -3.947  1.00  0.00    -0.550 OA
ENDBRANCH   4   5
ENDBRANCH   3   4
ENDBRANCH   2   3
ENDBRANCH   1   2
BRANCH   1   8
ATOM      8  C   UNL     1      -3.332  11.722  -3.282  1.00  0.00     0.000 C 
BRANCH   8   9
ATOM      9  C   UNL     1      -4.698  12.362  -2.993  1.00  0.00     0.000 C 
BRANCH   9  10
ATOM     10  C   UNL     1      -4.742  13.085  -1.633  1.00  0.00     0.006 C 
BRANCH  10  11
ATOM     11  C   UNL     1      -3.705  12.583  -0.615  1.00  0.00     0.053 C 
BRANCH  11  12
ATOM     12  C   UNL     1      -2.746  13.662  -0.212  1.00  0.00     0.041 C 
ATOM     13  O   UNL     1      -2.560  13.922   1.005  1.00  0.00    -0.550 OA
ATOM     14  O   UNL     1      -2.085  14.404  -1.184  1.00  0.00    -0.550 OA
ENDBRANCH  11  12
ENDBRANCH  10  11
ENDBRANCH   9  10
ENDBRANCH   8   9
ENDBRANCH   1   8
TORSDOF 9
ENDMDL
MODEL 8
REMARK VINA RESULT:    -2.947     13.686     14.947
REMARK INTER + INTRA:          -5.220
REMARK INTER:                  -4.698
REMARK INTRA:                  -0.521
REMARK UNBOUND:                -0.722
REMARK SMILES O=C([O-])CCCCCCCCC(=O)[O-]
REMARK SMILES IDX 7 1 6 2 5 3 4 4 2 5 1 6 3 7 8 8 9 9 10 10 11 11 12 12 13 13
REMARK SMILES IDX 14 14
REMARK H PARENT
REMARK Flexibility Score: inf
ROOT
ATOM      1  C   UNL     1      -3.931  12.472  -3.868  1.00  0.00     0.000 C 
ENDROOT
BRANCH   1   2
ATOM      2  C   UNL     1      -5.308  13.030  -3.478  1.00  0.00     0.000 C 
BRANCH   2   3
ATOM      3  C   UNL     1      -5.234  14.058  -2.335  1.00  0.00     0.006 C 
BRANCH   3   4
ATOM      4  C   UNL     1      -6.094  13.707  -1.110  1.00  0.00     0.053 C 
BRANCH   4   5
ATOM      5  C   UNL     1      -5.262  13.259   0.052  1.00  0.00     0.041 C 
ATOM      6  O   UNL     1      -4.124  12.757  -0.141  1.00  0.00    -0.550 OA
ATOM      7  O   UNL     1      -5.759  13.364   1.345  1.00  0.00    -0.550 OA
ENDBRANCH   4   5
ENDBRANCH   3   4
ENDBRANCH   2   3
ENDBRANCH   1   2
BRANCH   1   8
ATOM      8  C   UNL     1      -3.786  11.011  -3.428  1.00  0.00     0.000 C 
BRANCH   8   9
ATOM      9  C   UNL     1      -3.070  10.181  -4.504  1.00  0.00     0.000 C 
BRANCH   9  10
ATOM     10  C   UNL     1      -3.958   9.065  -5.085  1.00  0.00     0.006 C 
BRANCH  10  11
ATOM     11  C   UNL     1      -5.466   9.296  -4.904  1.00  0.00     0.053 C 
BRANCH  11  12
ATOM     12  C   UNL     1      -6.266   8.072  -5.232  1.00  0.00     0.041 C 
ATOM     13  O   UNL     1      -6.500   7.771  -6.431  1.00  0.00    -0.550 OA
ATOM     14  O   UNL     1      -6.783   7.284  -4.211  1.00  0.00    -0.550 OA
ENDBRANCH  11  12
ENDBRANCH  10  11
ENDBRANCH   9  10
ENDBRANCH   8   9
ENDBRANCH   1   8
TORSDOF 9
ENDMDL
MODEL 9
REMARK VINA RESULT:    -2.932     13.213     14.796
REMARK INTER + INTRA:          -5.197
REMARK INTER:                  -4.668
REMARK INTRA:                  -0.529
REMARK UNBOUND:                -0.722
REMARK SMILES O=C([O-])CCCCCCCCC(=O)[O-]
REMARK SMILES IDX 7 1 6 2 5 3 4 4 2 5 1 6 3 7 8 8 9 9 10 10 11 11 12 12 13 13
REMARK SMILES IDX 14 14
REMARK H PARENT
REMARK Flexibility Score: inf
ROOT
ATOM      1  C   UNL     1      -3.364  11.838  -3.478  1.00  0.00     0.000 C 
ENDROOT
BRANCH   1   2
ATOM      2  C   UNL     1      -3.472  10.351  -3.850  1.00  0.00     0.000 C 
BRANCH   2   3
ATOM      3  C   UNL     1      -4.745  10.027  -4.654  1.00  0.00     0.006 C 
BRANCH   3   4
ATOM      4  C   UNL     1      -4.810   8.586  -5.182  1.00  0.00     0.053 C 
BRANCH   4   5
ATOM      5  C   UNL     1      -3.744   8.310  -6.197  1.00  0.00     0.041 C 
ATOM      6  O   UNL     1      -3.031   7.276  -6.101  1.00  0.00    -0.550 OA
ATOM      7  O   UNL     1      -3.513   9.212  -7.228  1.00  0.00    -0.550 OA
ENDBRANCH   4   5
ENDBRANCH   3   4
ENDBRANCH   2   3
ENDBRANCH   1   2
BRANCH   1   8
ATOM      8  C   UNL     1      -4.736  12.520  -3.541  1.00  0.00     0.000 C 
BRANCH   8   9
ATOM      9  C   UNL     1      -5.078  13.189  -2.201  1.00  0.00     0.000 C 
BRANCH   9  10
ATOM     10  C   UNL     1      -4.296  12.588  -1.018  1.00  0.00     0.006 C 
BRANCH  10  11
ATOM     11  C   UNL     1      -4.150  13.530   0.188  1.00  0.00     0.053 C 
BRANCH  11  12
ATOM     12  C   UNL     1      -2.767  14.097   0.295  1.00  0.00     0.041 C 
ATOM     13  O   UNL     1      -2.095  14.326  -0.744  1.00  0.00    -0.550 OA
ATOM     14  O   UNL     1      -2.209  14.337   1.544  1.00  0.00    -0.550 OA
ENDBRANCH  11  12
ENDBRANCH  10  11
ENDBRANCH   9  10
ENDBRANCH   8   9
ENDBRANCH   1   8
TORSDOF 9
ENDMDL
