MODEL 1
REMARK VINA RESULT:    -3.468      0.000      0.000
REMARK INTER + INTRA:          -5.642
REMARK INTER:                  -5.292
REMARK INTRA:                  -0.349
REMARK UNBOUND:                -0.349
REMARK SMILES CC1=CCC[C@@H](C)C(=O)C[C@@H](C(C)C)C(=O)C1
REMARK SMILES IDX 8 1 9 2 6 3 7 4 5 5 4 6 3 7 2 8 1 9 10 11 11 12 15 13 16 14
REMARK SMILES IDX 17 15 12 17 13 18 14 19
REMARK H PARENT
REMARK Flexibility Score: 70.00
ROOT
ATOM      1  C   UNL     1      47.454  56.674  26.889  1.00  0.00     0.136 C 
ATOM      2  O   UNL     1      48.344  57.494  26.710  1.00  0.00    -0.299 OA
ENDROOT
BRANCH   1   3
ATOM      3  C   UNL     1      47.604  55.268  26.347  1.00  0.00     0.053 C 
ATOM      4  C   UNL     1      48.714  54.544  27.114  1.00  0.00     0.016 C 
BRANCH   3   5
ATOM      5  C   UNL     1      47.906  55.250  24.830  1.00  0.00     0.015 C 
BRANCH   5   6
ATOM      6  C   UNL     1      46.674  55.507  23.948  1.00  0.00     0.028 C 
BRANCH   6   7
ATOM      7  C   UNL     1      46.702  56.895  23.355  1.00  0.00    -0.028 C 
ATOM      8  C   UNL     1      45.754  57.840  23.548  1.00  0.00    -0.070 CG0
ATOM      9  C   UNL     1      45.941  59.179  22.881  1.00  0.00     0.039 C 
ATOM     10  G   UNL     1      44.526  57.611  24.411  1.00  0.00     0.000 G0
ENDBRANCH   6   7
ENDBRANCH   5   6
ENDBRANCH   3   5
ENDBRANCH   1   3
BRANCH   1  11
ATOM     11  C   UNL     1      46.244  57.066  27.703  1.00  0.00     0.087 C 
BRANCH  11  12
ATOM     12  C   UNL     1      44.896  56.879  26.955  1.00  0.00     0.066 C 
BRANCH  12  13
ATOM     13  C   UNL     1      44.731  57.950  25.881  1.00  0.00     0.140 C 
ATOM     14  O   UNL     1      44.682  59.123  26.223  1.00  0.00    -0.299 OA
BRANCH  13  15
ATOM     15  C   UNL     1      44.527  57.630  24.413  1.00  0.00     0.106 CG0
ATOM     16  G   UNL     1      45.756  57.845  23.549  1.00  0.00     0.000 G0
ENDBRANCH  13  15
ENDBRANCH  12  13
BRANCH  12  17
ATOM     17  C   UNL     1      43.686  56.912  27.944  1.00  0.00    -0.006 C 
ATOM     18  C   UNL     1      44.122  57.222  29.388  1.00  0.00     0.008 C 
ATOM     19  C   UNL     1      42.913  55.582  27.936  1.00  0.00     0.008 C 
ENDBRANCH  12  17
ENDBRANCH  11  12
ENDBRANCH   1  11
TORSDOF 1
ENDMDL
MODEL 2
REMARK VINA RESULT:    -3.321      2.067      4.154
REMARK INTER + INTRA:          -5.418
REMARK INTER:                  -5.151
REMARK INTRA:                  -0.267
REMARK UNBOUND:                -0.349
REMARK SMILES CC1=CCC[C@@H](C)C(=O)C[C@@H](C(C)C)C(=O)C1
REMARK SMILES IDX 8 1 9 2 6 3 7 4 5 5 4 6 3 7 2 8 1 9 10 11 11 12 15 13 16 14
REMARK SMILES IDX 17 15 12 17 13 18 14 19
REMARK H PARENT
REMARK Flexibility Score: 70.00
ROOT
ATOM      1  C   UNL     1      44.485  56.375  26.687  1.00  0.00     0.136 C 
ATOM      2  O   UNL     1      43.550  56.922  26.118  1.00  0.00    -0.299 OA
ENDROOT
BRANCH   1   3
ATOM      3  C   UNL     1      44.951  56.886  28.034  1.00  0.00     0.053 C 
ATOM      4  C   UNL     1      43.777  56.869  29.018  1.00  0.00     0.016 C 
BRANCH   3   5
ATOM      5  C   UNL     1      45.553  58.309  27.949  1.00  0.00     0.015 C 
BRANCH   5   6
ATOM      6  C   UNL     1      47.027  58.335  27.516  1.00  0.00     0.028 C 
BRANCH   6   7
ATOM      7  C   UNL     1      47.194  58.996  26.170  1.00  0.00    -0.028 C 
ATOM      8  C   UNL     1      47.761  58.418  25.087  1.00  0.00    -0.070 CG0
ATOM      9  C   UNL     1      47.845  59.224  23.815  1.00  0.00     0.039 C 
ATOM     10  G   UNL     1      48.301  57.000  25.097  1.00  0.00     0.000 G0
ENDBRANCH   6   7
ENDBRANCH   5   6
ENDBRANCH   3   5
ENDBRANCH   1   3
BRANCH   1  11
ATOM     11  C   UNL     1      45.119  55.158  26.059  1.00  0.00     0.087 C 
BRANCH  11  12
ATOM     12  C   UNL     1      46.670  55.152  26.124  1.00  0.00     0.066 C 
BRANCH  12  13
ATOM     13  C   UNL     1      47.254  55.912  24.937  1.00  0.00     0.140 C 
ATOM     14  O   UNL     1      46.922  55.581  23.807  1.00  0.00    -0.299 OA
BRANCH  13  15
ATOM     15  C   UNL     1      48.305  56.995  25.080  1.00  0.00     0.106 CG0
ATOM     16  G   UNL     1      47.748  58.407  25.095  1.00  0.00     0.000 G0
ENDBRANCH  13  15
ENDBRANCH  12  13
BRANCH  12  17
ATOM     17  C   UNL     1      47.234  53.695  26.167  1.00  0.00    -0.006 C 
ATOM     18  C   UNL     1      46.169  52.670  26.599  1.00  0.00     0.008 C 
ATOM     19  C   UNL     1      48.441  53.583  27.115  1.00  0.00     0.008 C 
ENDBRANCH  12  17
ENDBRANCH  11  12
ENDBRANCH   1  11
TORSDOF 1
ENDMDL
MODEL 3
REMARK VINA RESULT:    -3.235      2.223      4.016
REMARK INTER + INTRA:          -5.287
REMARK INTER:                  -5.041
REMARK INTRA:                  -0.246
REMARK UNBOUND:                -0.349
REMARK SMILES CC1=CCC[C@@H](C)C(=O)C[C@@H](C(C)C)C(=O)C1
REMARK SMILES IDX 8 1 9 2 6 3 7 4 5 5 4 6 3 7 2 8 1 9 10 11 11 12 15 13 16 14
REMARK SMILES IDX 17 15 12 17 13 18 14 19
REMARK H PARENT
REMARK Flexibility Score: 70.00
ROOT
ATOM      1  C   UNL     1      43.633  56.771  26.946  1.00  0.00     0.136 C 
ATOM      2  O   UNL     1      42.634  56.093  27.139  1.00  0.00    -0.299 OA
ENDROOT
BRANCH   1   3
ATOM      3  C   UNL     1      44.613  57.010  28.077  1.00  0.00     0.053 C 
ATOM      4  C   UNL     1      43.841  57.196  29.387  1.00  0.00     0.016 C 
BRANCH   3   5
ATOM      5  C   UNL     1      45.526  58.232  27.818  1.00  0.00     0.015 C 
BRANCH   5   6
ATOM      6  C   UNL     1      46.982  57.862  27.497  1.00  0.00     0.028 C 
BRANCH   6   7
ATOM      7  C   UNL     1      47.574  58.798  26.472  1.00  0.00    -0.028 C 
ATOM      8  C   UNL     1      47.733  58.512  25.160  1.00  0.00    -0.070 CG0
ATOM      9  C   UNL     1      48.342  59.567  24.272  1.00  0.00     0.039 C 
ATOM     10  G   UNL     1      47.316  57.186  24.550  1.00  0.00     0.000 G0
ENDBRANCH   6   7
ENDBRANCH   5   6
ENDBRANCH   3   5
ENDBRANCH   1   3
BRANCH   1  11
ATOM     11  C   UNL     1      43.903  57.309  25.562  1.00  0.00     0.087 C 
BRANCH  11  12
ATOM     12  C   UNL     1      44.774  56.371  24.682  1.00  0.00     0.066 C 
BRANCH  12  13
ATOM     13  C   UNL     1      45.896  57.161  24.014  1.00  0.00     0.140 C 
ATOM     14  O   UNL     1      45.660  57.743  22.965  1.00  0.00    -0.299 OA
BRANCH  13  15
ATOM     15  C   UNL     1      47.320  57.182  24.533  1.00  0.00     0.106 CG0
ATOM     16  G   UNL     1      47.737  58.501  25.159  1.00  0.00     0.000 G0
ENDBRANCH  13  15
ENDBRANCH  12  13
BRANCH  12  17
ATOM     17  C   UNL     1      43.912  55.636  23.605  1.00  0.00    -0.006 C 
ATOM     18  C   UNL     1      42.541  56.306  23.399  1.00  0.00     0.008 C 
ATOM     19  C   UNL     1      43.690  54.158  23.971  1.00  0.00     0.008 C 
ENDBRANCH  12  17
ENDBRANCH  11  12
ENDBRANCH   1  11
TORSDOF 1
ENDMDL
MODEL 4
REMARK VINA RESULT:    -3.227      2.436      4.812
REMARK INTER + INTRA:          -5.275
REMARK INTER:                  -4.819
REMARK INTRA:                  -0.456
REMARK UNBOUND:                -0.349
REMARK SMILES CC1=CCC[C@@H](C)C(=O)C[C@@H](C(C)C)C(=O)C1
REMARK SMILES IDX 8 1 9 2 6 3 7 4 5 5 4 6 3 7 2 8 1 9 10 11 11 12 15 13 16 14
REMARK SMILES IDX 17 15 12 17 13 18 14 19
REMARK H PARENT
REMARK Flexibility Score: 70.00
ROOT
ATOM      1  C   UNL     1      43.297  55.968  25.941  1.00  0.00     0.136 C 
ATOM      2  O   UNL     1      42.549  56.742  25.360  1.00  0.00    -0.299 OA
ENDROOT
BRANCH   1   3
ATOM      3  C   UNL     1      43.078  55.666  27.409  1.00  0.00     0.053 C 
ATOM      4  C   UNL     1      41.712  54.998  27.591  1.00  0.00     0.016 C 
BRANCH   3   5
ATOM      5  C   UNL     1      43.174  56.933  28.292  1.00  0.00     0.015 C 
BRANCH   5   6
ATOM      6  C   UNL     1      44.567  57.163  28.898  1.00  0.00     0.028 C 
BRANCH   6   7
ATOM      7  C   UNL     1      45.367  58.148  28.080  1.00  0.00    -0.028 C 
ATOM      8  C   UNL     1      46.486  57.848  27.383  1.00  0.00    -0.070 CG0
ATOM      9  C   UNL     1      47.162  58.956  26.615  1.00  0.00     0.039 C 
ATOM     10  G   UNL     1      47.077  56.450  27.334  1.00  0.00     0.000 G0
ENDBRANCH   6   7
ENDBRANCH   5   6
ENDBRANCH   3   5
ENDBRANCH   1   3
BRANCH   1  11
ATOM     11  C   UNL     1      44.393  55.280  25.164  1.00  0.00     0.087 C 
BRANCH  11  12
ATOM     12  C   UNL     1      45.522  54.693  26.054  1.00  0.00     0.066 C 
BRANCH  12  13
ATOM     13  C   UNL     1      46.712  55.647  26.100  1.00  0.00     0.140 C 
ATOM     14  O   UNL     1      47.451  55.712  25.128  1.00  0.00    -0.299 OA
BRANCH  13  15
ATOM     15  C   UNL     1      47.085  56.450  27.331  1.00  0.00     0.106 CG0
ATOM     16  G   UNL     1      46.491  57.846  27.370  1.00  0.00     0.000 G0
ENDBRANCH  13  15
ENDBRANCH  12  13
BRANCH  12  17
ATOM     17  C   UNL     1      45.975  53.285  25.547  1.00  0.00    -0.006 C 
ATOM     18  C   UNL     1      45.312  52.907  24.210  1.00  0.00     0.008 C 
ATOM     19  C   UNL     1      45.666  52.186  26.580  1.00  0.00     0.008 C 
ENDBRANCH  12  17
ENDBRANCH  11  12
ENDBRANCH   1  11
TORSDOF 1
ENDMDL
MODEL 5
REMARK VINA RESULT:    -3.208      2.206      4.788
REMARK INTER + INTRA:          -5.246
REMARK INTER:                  -4.870
REMARK INTRA:                  -0.376
REMARK UNBOUND:                -0.349
REMARK SMILES CC1=CCC[C@@H](C)C(=O)C[C@@H](C(C)C)C(=O)C1
REMARK SMILES IDX 8 1 9 2 6 3 7 4 5 5 4 6 3 7 2 8 1 9 10 11 11 12 15 13 16 14
REMARK SMILES IDX 17 15 12 17 13 18 14 19
REMARK H PARENT
REMARK Flexibility Score: 70.00
ROOT
ATOM      1  C   UNL     1      42.453  56.162  25.824  1.00  0.00     0.136 C 
ATOM      2  O   UNL     1      41.252  56.301  26.012  1.00  0.00    -0.299 OA
ENDROOT
BRANCH   1   3
ATOM      3  C   UNL     1      43.278  55.341  26.794  1.00  0.00     0.053 C 
ATOM      4  C   UNL     1      42.939  53.858  26.621  1.00  0.00     0.016 C 
BRANCH   3   5
ATOM      5  C   UNL     1      43.059  55.770  28.264  1.00  0.00     0.015 C 
BRANCH   5   6
ATOM      6  C   UNL     1      43.452  57.228  28.551  1.00  0.00     0.028 C 
BRANCH   6   7
ATOM      7  C   UNL     1      44.945  57.426  28.448  1.00  0.00    -0.028 C 
ATOM      8  C   UNL     1      45.565  58.175  27.509  1.00  0.00    -0.070 CG0
ATOM      9  C   UNL     1      47.069  58.268  27.555  1.00  0.00     0.039 C 
ATOM     10  G   UNL     1      44.813  58.929  26.427  1.00  0.00     0.000 G0
ENDBRANCH   6   7
ENDBRANCH   5   6
ENDBRANCH   3   5
ENDBRANCH   1   3
BRANCH   1  11
ATOM     11  C   UNL     1      43.080  56.763  24.590  1.00  0.00     0.087 C 
BRANCH  11  12
ATOM     12  C   UNL     1      44.622  56.918  24.679  1.00  0.00     0.066 C 
BRANCH  12  13
ATOM     13  C   UNL     1      44.991  58.357  25.030  1.00  0.00     0.140 C 
ATOM     14  O   UNL     1      45.523  59.052  24.176  1.00  0.00    -0.299 OA
BRANCH  13  15
ATOM     15  C   UNL     1      44.822  58.943  26.418  1.00  0.00     0.106 CG0
ATOM     16  G   UNL     1      45.564  58.192  27.509  1.00  0.00     0.000 G0
ENDBRANCH  13  15
ENDBRANCH  12  13
BRANCH  12  17
ATOM     17  C   UNL     1      45.317  56.490  23.346  1.00  0.00    -0.006 C 
ATOM     18  C   UNL     1      44.324  56.404  22.173  1.00  0.00     0.008 C 
ATOM     19  C   UNL     1      46.029  55.133  23.491  1.00  0.00     0.008 C 
ENDBRANCH  12  17
ENDBRANCH  11  12
ENDBRANCH   1  11
TORSDOF 1
ENDMDL
MODEL 6
REMARK VINA RESULT:    -3.171      2.409      4.188
REMARK INTER + INTRA:          -5.188
REMARK INTER:                  -4.859
REMARK INTRA:                  -0.329
REMARK UNBOUND:                -0.349
REMARK SMILES CC1=CCC[C@@H](C)C(=O)C[C@@H](C(C)C)C(=O)C1
REMARK SMILES IDX 8 1 9 2 6 3 7 4 5 5 4 6 3 7 2 8 1 9 10 11 11 12 15 13 16 14
REMARK SMILES IDX 17 15 12 17 13 18 14 19
REMARK H PARENT
REMARK Flexibility Score: 70.00
ROOT
ATOM      1  C   UNL     1      44.132  57.361  27.852  1.00  0.00     0.136 C 
ATOM      2  O   UNL     1      43.842  56.957  28.970  1.00  0.00    -0.299 OA
ENDROOT
BRANCH   1   3
ATOM      3  C   UNL     1      45.015  58.582  27.698  1.00  0.00     0.053 C 
ATOM      4  C   UNL     1      44.810  59.185  26.305  1.00  0.00     0.016 C 
BRANCH   3   5
ATOM      5  C   UNL     1      46.512  58.258  27.923  1.00  0.00     0.015 C 
BRANCH   5   6
ATOM      6  C   UNL     1      47.225  57.718  26.675  1.00  0.00     0.028 C 
BRANCH   6   7
ATOM      7  C   UNL     1      47.707  56.303  26.885  1.00  0.00    -0.028 C 
ATOM      8  C   UNL     1      47.169  55.206  26.304  1.00  0.00    -0.070 CG0
ATOM      9  C   UNL     1      47.778  53.864  26.623  1.00  0.00     0.039 C 
ATOM     10  G   UNL     1      45.996  55.274  25.344  1.00  0.00     0.000 G0
ENDBRANCH   6   7
ENDBRANCH   5   6
ENDBRANCH   3   5
ENDBRANCH   1   3
BRANCH   1  11
ATOM     11  C   UNL     1      43.650  56.596  26.644  1.00  0.00     0.087 C 
BRANCH  11  12
ATOM     12  C   UNL     1      43.748  55.054  26.797  1.00  0.00     0.066 C 
BRANCH  12  13
ATOM     13  C   UNL     1      44.760  54.485  25.806  1.00  0.00     0.140 C 
ATOM     14  O   UNL     1      44.630  53.329  25.431  1.00  0.00    -0.299 OA
BRANCH  13  15
ATOM     15  C   UNL     1      45.980  55.252  25.334  1.00  0.00     0.106 CG0
ATOM     16  G   UNL     1      47.150  55.222  26.300  1.00  0.00     0.000 G0
ENDBRANCH  13  15
ENDBRANCH  12  13
BRANCH  12  17
ATOM     17  C   UNL     1      42.356  54.371  26.601  1.00  0.00    -0.006 C 
ATOM     18  C   UNL     1      41.266  55.378  26.190  1.00  0.00     0.008 C 
ATOM     19  C   UNL     1      41.899  53.642  27.877  1.00  0.00     0.008 C 
ENDBRANCH  12  17
ENDBRANCH  11  12
ENDBRANCH   1  11
TORSDOF 1
ENDMDL
MODEL 7
REMARK VINA RESULT:    -3.101      1.133      1.647
REMARK INTER + INTRA:          -5.081
REMARK INTER:                  -5.095
REMARK INTRA:                   0.014
REMARK UNBOUND:                -0.349
REMARK SMILES CC1=CCC[C@@H](C)C(=O)C[C@@H](C(C)C)C(=O)C1
REMARK SMILES IDX 8 1 9 2 6 3 7 4 5 5 4 6 3 7 2 8 1 9 10 11 11 12 15 13 16 14
REMARK SMILES IDX 17 15 12 17 13 18 14 19
REMARK H PARENT
REMARK Flexibility Score: 70.00
ROOT
ATOM      1  C   UNL     1      47.426  57.632  26.857  1.00  0.00     0.136 C 
ATOM      2  O   UNL     1      48.168  58.602  26.787  1.00  0.00    -0.299 OA
ENDROOT
BRANCH   1   3
ATOM      3  C   UNL     1      47.807  56.340  26.163  1.00  0.00     0.053 C 
ATOM      4  C   UNL     1      48.892  55.627  26.975  1.00  0.00     0.016 C 
BRANCH   3   5
ATOM      5  C   UNL     1      48.293  56.571  24.713  1.00  0.00     0.015 C 
BRANCH   5   6
ATOM      6  C   UNL     1      47.157  56.650  23.681  1.00  0.00     0.028 C 
BRANCH   6   7
ATOM      7  C   UNL     1      46.145  55.550  23.893  1.00  0.00    -0.028 C 
ATOM      8  C   UNL     1      44.850  55.743  24.230  1.00  0.00    -0.070 CG0
ATOM      9  C   UNL     1      43.972  54.528  24.399  1.00  0.00     0.039 C 
ATOM     10  G   UNL     1      44.246  57.121  24.430  1.00  0.00     0.000 G0
ENDBRANCH   6   7
ENDBRANCH   5   6
ENDBRANCH   3   5
ENDBRANCH   1   3
BRANCH   1  11
ATOM     11  C   UNL     1      46.170  57.723  27.689  1.00  0.00     0.087 C 
BRANCH  11  12
ATOM     12  C   UNL     1      44.917  57.114  27.004  1.00  0.00     0.066 C 
BRANCH  12  13
ATOM     13  C   UNL     1      44.621  57.842  25.694  1.00  0.00     0.140 C 
ATOM     14  O   UNL     1      44.622  59.064  25.689  1.00  0.00    -0.299 OA
BRANCH  13  15
ATOM     15  C   UNL     1      44.230  57.126  24.417  1.00  0.00     0.106 CG0
ATOM     16  G   UNL     1      44.857  55.753  24.252  1.00  0.00     0.000 G0
ENDBRANCH  13  15
ENDBRANCH  12  13
BRANCH  12  17
ATOM     17  C   UNL     1      43.670  57.166  27.945  1.00  0.00    -0.006 C 
ATOM     18  C   UNL     1      44.065  57.192  29.433  1.00  0.00     0.008 C 
ATOM     19  C   UNL     1      42.730  55.971  27.704  1.00  0.00     0.008 C 
ENDBRANCH  12  17
ENDBRANCH  11  12
ENDBRANCH   1  11
TORSDOF 1
ENDMDL
MODEL 8
REMARK VINA RESULT:    -3.082      3.092      5.113
REMARK INTER + INTRA:          -5.053
REMARK INTER:                  -4.792
REMARK INTRA:                  -0.261
REMARK UNBOUND:                -0.349
REMARK SMILES CC1=CCC[C@@H](C)C(=O)C[C@@H](C(C)C)C(=O)C1
REMARK SMILES IDX 8 1 9 2 6 3 7 4 5 5 4 6 3 7 2 8 1 9 10 11 11 12 15 13 16 14
REMARK SMILES IDX 17 15 12 17 13 18 14 19
REMARK H PARENT
REMARK Flexibility Score: 70.00
ROOT
ATOM      1  C   UNL     1      41.310  55.331  27.489  1.00  0.00     0.136 C 
ATOM      2  O   UNL     1      40.770  56.347  27.073  1.00  0.00    -0.299 OA
ENDROOT
BRANCH   1   3
ATOM      3  C   UNL     1      40.550  54.021  27.492  1.00  0.00     0.053 C 
ATOM      4  C   UNL     1      41.456  52.909  28.026  1.00  0.00     0.016 C 
BRANCH   3   5
ATOM      5  C   UNL     1      40.016  53.646  26.089  1.00  0.00     0.015 C 
BRANCH   5   6
ATOM      6  C   UNL     1      41.032  52.891  25.219  1.00  0.00     0.028 C 
BRANCH   6   7
ATOM      7  C   UNL     1      41.674  53.805  24.203  1.00  0.00    -0.028 C 
ATOM      8  C   UNL     1      42.930  54.299  24.289  1.00  0.00    -0.070 CG0
ATOM      9  C   UNL     1      43.415  55.199  23.180  1.00  0.00     0.039 C 
ATOM     10  G   UNL     1      43.866  53.977  25.440  1.00  0.00     0.000 G0
ENDBRANCH   6   7
ENDBRANCH   5   6
ENDBRANCH   3   5
ENDBRANCH   1   3
BRANCH   1  11
ATOM     11  C   UNL     1      42.750  55.392  27.935  1.00  0.00     0.087 C 
BRANCH  11  12
ATOM     12  C   UNL     1      43.678  56.170  26.963  1.00  0.00     0.066 C 
BRANCH  12  13
ATOM     13  C   UNL     1      44.487  55.198  26.110  1.00  0.00     0.140 C 
ATOM     14  O   UNL     1      45.662  55.452  25.885  1.00  0.00    -0.299 OA
BRANCH  13  15
ATOM     15  C   UNL     1      43.884  53.978  25.442  1.00  0.00     0.106 CG0
ATOM     16  G   UNL     1      42.934  54.296  24.301  1.00  0.00     0.000 G0
ENDBRANCH  13  15
ENDBRANCH  12  13
BRANCH  12  17
ATOM     17  C   UNL     1      44.632  57.137  27.736  1.00  0.00    -0.006 C 
ATOM     18  C   UNL     1      44.192  57.345  29.197  1.00  0.00     0.008 C 
ATOM     19  C   UNL     1      44.723  58.511  27.047  1.00  0.00     0.008 C 
ENDBRANCH  12  17
ENDBRANCH  11  12
ENDBRANCH   1  11
TORSDOF 1
ENDMDL
MODEL 9
REMARK VINA RESULT:    -3.007      2.096      3.252
REMARK INTER + INTRA:          -4.938
REMARK INTER:                  -4.651
REMARK INTRA:                  -0.287
REMARK UNBOUND:                -0.349
REMARK SMILES CC1=CCC[C@@H](C)C(=O)C[C@@H](C(C)C)C(=O)C1
REMARK SMILES IDX 8 1 9 2 6 3 7 4 5 5 4 6 3 7 2 8 1 9 10 11 11 12 15 13 16 14
REMARK SMILES IDX 17 15 12 17 13 18 14 19
REMARK H PARENT
REMARK Flexibility Score: 70.00
ROOT
ATOM      1  C   UNL     1      45.358  58.266  25.709  1.00  0.00     0.136 C 
ATOM      2  O   UNL     1      45.166  59.472  25.627  1.00  0.00    -0.299 OA
ENDROOT
BRANCH   1   3
ATOM      3  C   UNL     1      46.771  57.723  25.664  1.00  0.00     0.053 C 
ATOM      4  C   UNL     1      47.684  58.610  26.515  1.00  0.00     0.016 C 
BRANCH   3   5
ATOM      5  C   UNL     1      47.319  57.625  24.220  1.00  0.00     0.015 C 
BRANCH   5   6
ATOM      6  C   UNL     1      46.444  56.782  23.280  1.00  0.00     0.028 C 
BRANCH   6   7
ATOM      7  C   UNL     1      46.726  55.308  23.441  1.00  0.00    -0.028 C 
ATOM      8  C   UNL     1      45.872  54.410  23.984  1.00  0.00    -0.070 CG0
ATOM      9  C   UNL     1      46.314  52.971  24.065  1.00  0.00     0.039 C 
ATOM     10  G   UNL     1      44.496  54.789  24.499  1.00  0.00     0.000 G0
ENDBRANCH   6   7
ENDBRANCH   5   6
ENDBRANCH   3   5
ENDBRANCH   1   3
BRANCH   1  11
ATOM     11  C   UNL     1      44.180  57.345  25.916  1.00  0.00     0.087 C 
BRANCH  11  12
ATOM     12  C   UNL     1      44.491  56.120  26.818  1.00  0.00     0.066 C 
BRANCH  12  13
ATOM     13  C   UNL     1      44.372  54.827  26.017  1.00  0.00     0.140 C 
ATOM     14  O   UNL     1      44.252  53.771  26.620  1.00  0.00    -0.299 OA
BRANCH  13  15
ATOM     15  C   UNL     1      44.494  54.772  24.507  1.00  0.00     0.106 CG0
ATOM     16  G   UNL     1      45.880  54.410  24.004  1.00  0.00     0.000 G0
ENDBRANCH  13  15
ENDBRANCH  12  13
BRANCH  12  17
ATOM     17  C   UNL     1      43.548  56.074  28.064  1.00  0.00    -0.006 C 
ATOM     18  C   UNL     1      42.062  56.179  27.673  1.00  0.00     0.008 C 
ATOM     19  C   UNL     1      43.876  57.198  29.063  1.00  0.00     0.008 C 
ENDBRANCH  12  17
ENDBRANCH  11  12
ENDBRANCH   1  11
TORSDOF 1
ENDMDL
