MODEL 1
REMARK VINA RESULT:    -4.356      0.000      0.000
REMARK INTER + INTRA:          -5.324
REMARK INTER:                  -5.247
REMARK INTRA:                  -0.077
REMARK UNBOUND:                -0.077
REMARK SMILES CC[C@H](C)[C@H]([NH3+])C(=O)[O-]
REMARK SMILES IDX 3 1 4 2 5 3 6 4 7 8 8 9 9 10 2 11 1 12
REMARK H PARENT 6 5 6 6 6 7
REMARK Flexibility Score: inf
ROOT
ATOM      1  C   UNL     1      25.279  37.360  23.495  1.00  0.00     0.050 C 
ATOM      2  C   UNL     1      24.389  36.318  24.193  1.00  0.00     0.014 C 
ENDROOT
BRANCH   1   3
ATOM      3  C   UNL     1      24.480  38.108  22.374  1.00  0.00     0.230 C 
BRANCH   3   4
ATOM      4  N   UNL     1      25.177  38.105  21.078  1.00  0.00    -0.350 N 
ATOM      5  H   UNL     1      25.482  37.138  20.828  1.00  0.00     0.345 HD
ATOM      6  H   UNL     1      24.524  38.435  20.330  1.00  0.00     0.345 HD
ATOM      7  H   UNL     1      26.010  38.736  21.093  1.00  0.00     0.345 HD
ENDBRANCH   3   4
BRANCH   3   8
ATOM      8  C   UNL     1      24.101  39.510  22.788  1.00  0.00     0.099 C 
ATOM      9  O   UNL     1      24.177  40.453  21.956  1.00  0.00    -0.544 OA
ATOM     10  O   UNL     1      23.697  39.788  24.090  1.00  0.00    -0.544 OA
ENDBRANCH   3   8
ENDBRANCH   1   3
BRANCH   1  11
ATOM     11  C   UNL     1      26.594  36.681  23.030  1.00  0.00     0.006 C 
ATOM     12  C   UNL     1      27.798  37.006  23.913  1.00  0.00     0.004 C 
ENDBRANCH   1  11
TORSDOF 4
ENDMDL
MODEL 2
REMARK VINA RESULT:    -4.284      2.637      4.058
REMARK INTER + INTRA:          -5.238
REMARK INTER:                  -5.170
REMARK INTRA:                  -0.068
REMARK UNBOUND:                -0.077
REMARK SMILES CC[C@H](C)[C@H]([NH3+])C(=O)[O-]
REMARK SMILES IDX 3 1 4 2 5 3 6 4 7 8 8 9 9 10 2 11 1 12
REMARK H PARENT 6 5 6 6 6 7
REMARK Flexibility Score: inf
ROOT
ATOM      1  C   UNL     1      23.733  39.246  23.544  1.00  0.00     0.050 C 
ATOM      2  C   UNL     1      23.021  39.753  22.278  1.00  0.00     0.014 C 
ENDROOT
BRANCH   1   3
ATOM      3  C   UNL     1      24.001  37.705  23.446  1.00  0.00     0.230 C 
BRANCH   3   4
ATOM      4  N   UNL     1      23.645  36.986  24.680  1.00  0.00    -0.350 N 
ATOM      5  H   UNL     1      24.276  36.165  24.821  1.00  0.00     0.345 HD
ATOM      6  H   UNL     1      23.765  37.623  25.502  1.00  0.00     0.345 HD
ATOM      7  H   UNL     1      22.653  36.658  24.657  1.00  0.00     0.345 HD
ENDBRANCH   3   4
BRANCH   3   8
ATOM      8  C   UNL     1      25.421  37.404  23.027  1.00  0.00     0.099 C 
ATOM      9  O   UNL     1      25.802  37.679  21.858  1.00  0.00    -0.544 OA
ATOM     10  O   UNL     1      26.313  36.794  23.904  1.00  0.00    -0.544 OA
ENDBRANCH   3   8
ENDBRANCH   1   3
BRANCH   1  11
ATOM     11  C   UNL     1      22.940  39.702  24.796  1.00  0.00     0.006 C 
ATOM     12  C   UNL     1      21.433  39.809  24.563  1.00  0.00     0.004 C 
ENDBRANCH   1  11
TORSDOF 4
ENDMDL
MODEL 3
REMARK VINA RESULT:    -4.216      2.536      4.028
REMARK INTER + INTRA:          -5.156
REMARK INTER:                  -5.004
REMARK INTRA:                  -0.152
REMARK UNBOUND:                -0.077
REMARK SMILES CC[C@H](C)[C@H]([NH3+])C(=O)[O-]
REMARK SMILES IDX 3 1 4 2 5 3 6 4 7 8 8 9 9 10 2 11 1 12
REMARK H PARENT 6 5 6 6 6 7
REMARK Flexibility Score: inf
ROOT
ATOM      1  C   UNL     1      23.728  39.065  23.155  1.00  0.00     0.050 C 
ATOM      2  C   UNL     1      24.066  40.123  22.091  1.00  0.00     0.014 C 
ENDROOT
BRANCH   1   3
ATOM      3  C   UNL     1      24.071  37.628  22.633  1.00  0.00     0.230 C 
BRANCH   3   4
ATOM      4  N   UNL     1      22.909  36.943  22.043  1.00  0.00    -0.350 N 
ATOM      5  H   UNL     1      22.089  37.588  21.996  1.00  0.00     0.345 HD
ATOM      6  H   UNL     1      23.137  36.648  21.065  1.00  0.00     0.345 HD
ATOM      7  H   UNL     1      22.648  36.094  22.593  1.00  0.00     0.345 HD
ENDBRANCH   3   4
BRANCH   3   8
ATOM      8  C   UNL     1      24.723  36.779  23.699  1.00  0.00     0.099 C 
ATOM      9  O   UNL     1      24.009  36.145  24.521  1.00  0.00    -0.544 OA
ATOM     10  O   UNL     1      26.108  36.709  23.812  1.00  0.00    -0.544 OA
ENDBRANCH   3   8
ENDBRANCH   1   3
BRANCH   1  11
ATOM     11  C   UNL     1      22.265  39.265  23.630  1.00  0.00     0.006 C 
ATOM     12  C   UNL     1      22.090  39.149  25.144  1.00  0.00     0.004 C 
ENDBRANCH   1  11
TORSDOF 4
ENDMDL
MODEL 4
REMARK VINA RESULT:    -4.204      2.029      2.743
REMARK INTER + INTRA:          -5.141
REMARK INTER:                  -5.068
REMARK INTRA:                  -0.073
REMARK UNBOUND:                -0.077
REMARK SMILES CC[C@H](C)[C@H]([NH3+])C(=O)[O-]
REMARK SMILES IDX 3 1 4 2 5 3 6 4 7 8 8 9 9 10 2 11 1 12
REMARK H PARENT 6 5 6 6 6 7
REMARK Flexibility Score: inf
ROOT
ATOM      1  C   UNL     1      25.558  37.023  23.116  1.00  0.00     0.050 C 
ATOM      2  C   UNL     1      26.982  36.858  23.676  1.00  0.00     0.014 C 
ENDROOT
BRANCH   1   3
ATOM      3  C   UNL     1      24.500  36.960  24.270  1.00  0.00     0.230 C 
BRANCH   3   4
ATOM      4  N   UNL     1      23.734  35.703  24.273  1.00  0.00    -0.350 N 
ATOM      5  H   UNL     1      24.143  35.023  23.595  1.00  0.00     0.345 HD
ATOM      6  H   UNL     1      23.779  35.270  25.225  1.00  0.00     0.345 HD
ATOM      7  H   UNL     1      22.731  35.869  24.032  1.00  0.00     0.345 HD
ENDBRANCH   3   4
BRANCH   3   8
ATOM      8  C   UNL     1      23.583  38.161  24.262  1.00  0.00     0.099 C 
ATOM      9  O   UNL     1      22.604  38.208  25.053  1.00  0.00    -0.544 OA
ATOM     10  O   UNL     1      23.782  39.209  23.369  1.00  0.00    -0.544 OA
ENDBRANCH   3   8
ENDBRANCH   1   3
BRANCH   1  11
ATOM     11  C   UNL     1      25.341  36.009  21.963  1.00  0.00     0.006 C 
ATOM     12  C   UNL     1      26.456  36.019  20.917  1.00  0.00     0.004 C 
ENDBRANCH   1  11
TORSDOF 4
ENDMDL
MODEL 5
REMARK VINA RESULT:    -4.166      2.043      2.188
REMARK INTER + INTRA:          -5.095
REMARK INTER:                  -5.023
REMARK INTRA:                  -0.072
REMARK UNBOUND:                -0.077
REMARK SMILES CC[C@H](C)[C@H]([NH3+])C(=O)[O-]
REMARK SMILES IDX 3 1 4 2 5 3 6 4 7 8 8 9 9 10 2 11 1 12
REMARK H PARENT 6 5 6 6 6 7
REMARK Flexibility Score: inf
ROOT
ATOM      1  C   UNL     1      24.792  36.651  23.910  1.00  0.00     0.050 C 
ATOM      2  C   UNL     1      24.128  35.676  22.923  1.00  0.00     0.014 C 
ENDROOT
BRANCH   1   3
ATOM      3  C   UNL     1      23.988  37.993  23.987  1.00  0.00     0.230 C 
BRANCH   3   4
ATOM      4  N   UNL     1      22.875  37.937  24.949  1.00  0.00    -0.350 N 
ATOM      5  H   UNL     1      23.225  37.681  25.899  1.00  0.00     0.345 HD
ATOM      6  H   UNL     1      22.426  38.880  25.019  1.00  0.00     0.345 HD
ATOM      7  H   UNL     1      22.149  37.246  24.651  1.00  0.00     0.345 HD
ENDBRANCH   3   4
BRANCH   3   8
ATOM      8  C   UNL     1      23.512  38.446  22.626  1.00  0.00     0.099 C 
ATOM      9  O   UNL     1      24.323  38.981  21.824  1.00  0.00    -0.544 OA
ATOM     10  O   UNL     1      22.179  38.311  22.251  1.00  0.00    -0.544 OA
ENDBRANCH   3   8
ENDBRANCH   1   3
BRANCH   1  11
ATOM     11  C   UNL     1      26.294  36.799  23.552  1.00  0.00     0.006 C 
ATOM     12  C   UNL     1      26.634  36.348  22.132  1.00  0.00     0.004 C 
ENDBRANCH   1  11
TORSDOF 4
ENDMDL
MODEL 6
REMARK VINA RESULT:    -4.157     16.186     16.759
REMARK INTER + INTRA:          -5.084
REMARK INTER:                  -5.007
REMARK INTRA:                  -0.077
REMARK UNBOUND:                -0.077
REMARK SMILES CC[C@H](C)[C@H]([NH3+])C(=O)[O-]
REMARK SMILES IDX 3 1 4 2 5 3 6 4 7 8 8 9 9 10 2 11 1 12
REMARK H PARENT 6 5 6 6 6 7
REMARK Flexibility Score: inf
ROOT
ATOM      1  C   UNL     1      17.658  53.247  24.511  1.00  0.00     0.050 C 
ATOM      2  C   UNL     1      17.188  54.395  25.421  1.00  0.00     0.014 C 
ENDROOT
BRANCH   1   3
ATOM      3  C   UNL     1      16.710  52.007  24.653  1.00  0.00     0.230 C 
BRANCH   3   4
ATOM      4  N   UNL     1      17.444  50.733  24.716  1.00  0.00    -0.350 N 
ATOM      5  H   UNL     1      17.290  50.178  23.845  1.00  0.00     0.345 HD
ATOM      6  H   UNL     1      18.470  50.925  24.793  1.00  0.00     0.345 HD
ATOM      7  H   UNL     1      17.151  50.165  25.543  1.00  0.00     0.345 HD
ENDBRANCH   3   4
BRANCH   3   8
ATOM      8  C   UNL     1      15.652  51.977  23.575  1.00  0.00     0.099 C 
ATOM      9  O   UNL     1      15.728  52.770  22.599  1.00  0.00    -0.544 OA
ATOM     10  O   UNL     1      14.571  51.106  23.656  1.00  0.00    -0.544 OA
ENDBRANCH   3   8
ENDBRANCH   1   3
BRANCH   1  11
ATOM     11  C   UNL     1      19.160  52.966  24.775  1.00  0.00     0.006 C 
ATOM     12  C   UNL     1      19.941  54.192  25.246  1.00  0.00     0.004 C 
ENDBRANCH   1  11
TORSDOF 4
ENDMDL
MODEL 7
REMARK VINA RESULT:    -4.109      3.278      4.027
REMARK INTER + INTRA:          -5.026
REMARK INTER:                  -5.030
REMARK INTRA:                   0.004
REMARK UNBOUND:                -0.077
REMARK SMILES CC[C@H](C)[C@H]([NH3+])C(=O)[O-]
REMARK SMILES IDX 3 1 4 2 5 3 6 4 7 8 8 9 9 10 2 11 1 12
REMARK H PARENT 6 5 6 6 6 7
REMARK Flexibility Score: inf
ROOT
ATOM      1  C   UNL     1      22.847  39.409  23.213  1.00  0.00     0.050 C 
ATOM      2  C   UNL     1      24.133  40.096  23.704  1.00  0.00     0.014 C 
ENDROOT
BRANCH   1   3
ATOM      3  C   UNL     1      22.448  38.235  24.170  1.00  0.00     0.230 C 
BRANCH   3   4
ATOM      4  N   UNL     1      22.421  38.638  25.586  1.00  0.00    -0.350 N 
ATOM      5  H   UNL     1      21.481  38.453  26.002  1.00  0.00     0.345 HD
ATOM      6  H   UNL     1      23.122  38.075  26.122  1.00  0.00     0.345 HD
ATOM      7  H   UNL     1      22.654  39.651  25.698  1.00  0.00     0.345 HD
ENDBRANCH   3   4
BRANCH   3   8
ATOM      8  C   UNL     1      23.317  37.017  23.964  1.00  0.00     0.099 C 
ATOM      9  O   UNL     1      24.459  36.964  24.493  1.00  0.00    -0.544 OA
ATOM     10  O   UNL     1      22.889  35.957  23.170  1.00  0.00    -0.544 OA
ENDBRANCH   3   8
ENDBRANCH   1   3
BRANCH   1  11
ATOM     11  C   UNL     1      23.013  39.019  21.721  1.00  0.00     0.006 C 
ATOM     12  C   UNL     1      24.461  39.059  21.233  1.00  0.00     0.004 C 
ENDBRANCH   1  11
TORSDOF 4
ENDMDL
MODEL 8
REMARK VINA RESULT:    -4.056      1.615      1.937
REMARK INTER + INTRA:          -4.962
REMARK INTER:                  -4.905
REMARK INTRA:                  -0.058
REMARK UNBOUND:                -0.077
REMARK SMILES CC[C@H](C)[C@H]([NH3+])C(=O)[O-]
REMARK SMILES IDX 3 1 4 2 5 3 6 4 7 8 8 9 9 10 2 11 1 12
REMARK H PARENT 6 5 6 6 6 7
REMARK Flexibility Score: inf
ROOT
ATOM      1  C   UNL     1      24.614  37.837  23.534  1.00  0.00     0.050 C 
ATOM      2  C   UNL     1      24.068  36.597  24.264  1.00  0.00     0.014 C 
ENDROOT
BRANCH   1   3
ATOM      3  C   UNL     1      23.439  38.716  22.985  1.00  0.00     0.230 C 
BRANCH   3   4
ATOM      4  N   UNL     1      23.908  39.855  22.180  1.00  0.00    -0.350 N 
ATOM      5  H   UNL     1      23.206  40.101  21.448  1.00  0.00     0.345 HD
ATOM      6  H   UNL     1      24.029  40.692  22.797  1.00  0.00     0.345 HD
ATOM      7  H   UNL     1      24.824  39.646  21.723  1.00  0.00     0.345 HD
ENDBRANCH   3   4
BRANCH   3   8
ATOM      8  C   UNL     1      22.510  39.170  24.087  1.00  0.00     0.099 C 
ATOM      9  O   UNL     1      21.353  38.680  24.173  1.00  0.00    -0.544 OA
ATOM     10  O   UNL     1      22.899  40.150  24.994  1.00  0.00    -0.544 OA
ENDBRANCH   3   8
ENDBRANCH   1   3
BRANCH   1  11
ATOM     11  C   UNL     1      25.657  37.390  22.477  1.00  0.00     0.006 C 
ATOM     12  C   UNL     1      26.912  36.760  23.080  1.00  0.00     0.004 C 
ENDBRANCH   1  11
TORSDOF 4
ENDMDL
MODEL 9
REMARK VINA RESULT:    -3.957      2.513      3.561
REMARK INTER + INTRA:          -4.844
REMARK INTER:                  -4.801
REMARK INTRA:                  -0.043
REMARK UNBOUND:                -0.077
REMARK SMILES CC[C@H](C)[C@H]([NH3+])C(=O)[O-]
REMARK SMILES IDX 3 1 4 2 5 3 6 4 7 8 8 9 9 10 2 11 1 12
REMARK H PARENT 6 5 6 6 6 7
REMARK Flexibility Score: inf
ROOT
ATOM      1  C   UNL     1      23.329  37.877  23.829  1.00  0.00     0.050 C 
ATOM      2  C   UNL     1      23.734  36.459  24.267  1.00  0.00     0.014 C 
ENDROOT
BRANCH   1   3
ATOM      3  C   UNL     1      24.522  38.594  23.109  1.00  0.00     0.230 C 
BRANCH   3   4
ATOM      4  N   UNL     1      24.136  39.883  22.512  1.00  0.00    -0.350 N 
ATOM      5  H   UNL     1      24.062  40.620  23.248  1.00  0.00     0.345 HD
ATOM      6  H   UNL     1      24.872  40.186  21.831  1.00  0.00     0.345 HD
ATOM      7  H   UNL     1      23.226  39.809  22.004  1.00  0.00     0.345 HD
ENDBRANCH   3   4
BRANCH   3   8
ATOM      8  C   UNL     1      25.190  37.698  22.093  1.00  0.00     0.099 C 
ATOM      9  O   UNL     1      24.592  37.409  21.022  1.00  0.00    -0.544 OA
ATOM     10  O   UNL     1      26.448  37.155  22.333  1.00  0.00    -0.544 OA
ENDBRANCH   3   8
ENDBRANCH   1   3
BRANCH   1  11
ATOM     11  C   UNL     1      22.735  38.638  25.043  1.00  0.00     0.006 C 
ATOM     12  C   UNL     1      21.438  39.382  24.726  1.00  0.00     0.004 C 
ENDBRANCH   1  11
TORSDOF 4
ENDMDL
