MODEL 1
REMARK VINA RESULT:    -3.992      0.000      0.000
REMARK INTER + INTRA:          -4.469
REMARK INTER:                  -4.342
REMARK INTRA:                  -0.127
REMARK UNBOUND:                -0.127
REMARK SMILES Cc1ccc(C(C)C)cc1O
REMARK SMILES IDX 1 1 2 2 10 3 9 4 5 5 4 6 3 7 11 8 6 10 7 11 8 12
REMARK H PARENT 11 9
REMARK Flexibility Score: inf
ROOT
ATOM      1  C   UNL     1      13.107  -4.671  -0.241  1.00  0.00     0.048 C 
ATOM      2  C   UNL     1      12.031  -4.444  -1.267  1.00  0.00    -0.009 A 
ATOM      3  C   UNL     1      12.327  -3.876  -2.525  1.00  0.00     0.118 A 
ATOM      4  C   UNL     1      11.303  -3.678  -3.458  1.00  0.00     0.050 A 
ATOM      5  C   UNL     1       9.976  -4.037  -3.161  1.00  0.00    -0.042 A 
ATOM      6  C   UNL     1       9.690  -4.600  -1.908  1.00  0.00     0.004 A 
ATOM      7  C   UNL     1      10.705  -4.802  -0.971  1.00  0.00     0.007 A 
ENDROOT
BRANCH   3   8
ATOM      8  O   UNL     1      13.625  -3.500  -2.880  1.00  0.00    -0.508 OA
ATOM      9  H   UNL     1      14.440  -4.059  -2.661  1.00  0.00     0.293 HD
ENDBRANCH   3   8
BRANCH   5  10
ATOM     10  C   UNL     1       8.861  -3.823  -4.169  1.00  0.00     0.013 C 
ATOM     11  C   UNL     1       7.538  -3.494  -3.469  1.00  0.00     0.012 C 
ATOM     12  C   UNL     1       8.709  -5.039  -5.091  1.00  0.00     0.012 C 
ENDBRANCH   5  10
TORSDOF 2
ENDMDL
MODEL 2
REMARK VINA RESULT:    -3.880      1.341      1.719
REMARK INTER + INTRA:          -4.347
REMARK INTER:                  -4.220
REMARK INTRA:                  -0.128
REMARK UNBOUND:                -0.127
REMARK SMILES Cc1ccc(C(C)C)cc1O
REMARK SMILES IDX 1 1 2 2 10 3 9 4 5 5 4 6 3 7 11 8 6 10 7 11 8 12
REMARK H PARENT 11 9
REMARK Flexibility Score: inf
ROOT
ATOM      1  C   UNL     1      14.161  -4.642  -1.868  1.00  0.00     0.048 C 
ATOM      2  C   UNL     1      12.668  -4.558  -2.026  1.00  0.00    -0.009 A 
ATOM      3  C   UNL     1      12.085  -3.888  -3.125  1.00  0.00     0.118 A 
ATOM      4  C   UNL     1      10.692  -3.828  -3.244  1.00  0.00     0.050 A 
ATOM      5  C   UNL     1       9.858  -4.426  -2.282  1.00  0.00    -0.042 A 
ATOM      6  C   UNL     1      10.445  -5.089  -1.193  1.00  0.00     0.004 A 
ATOM      7  C   UNL     1      11.834  -5.154  -1.066  1.00  0.00     0.007 A 
ENDROOT
BRANCH   3   8
ATOM      8  O   UNL     1      12.859  -3.276  -4.113  1.00  0.00    -0.508 OA
ATOM      9  H   UNL     1      12.607  -3.282  -5.093  1.00  0.00     0.293 HD
ENDBRANCH   3   8
BRANCH   5  10
ATOM     10  C   UNL     1       8.347  -4.363  -2.406  1.00  0.00     0.013 C 
ATOM     11  C   UNL     1       7.866  -2.917  -2.579  1.00  0.00     0.012 C 
ATOM     12  C   UNL     1       7.665  -5.032  -1.207  1.00  0.00     0.012 C 
ENDBRANCH   5  10
TORSDOF 2
ENDMDL
MODEL 3
REMARK VINA RESULT:    -3.775      1.620      4.523
REMARK INTER + INTRA:          -4.233
REMARK INTER:                  -4.124
REMARK INTRA:                  -0.109
REMARK UNBOUND:                -0.127
REMARK SMILES Cc1ccc(C(C)C)cc1O
REMARK SMILES IDX 1 1 2 2 10 3 9 4 5 5 4 6 3 7 11 8 6 10 7 11 8 12
REMARK H PARENT 11 9
REMARK Flexibility Score: inf
ROOT
ATOM      1  C   UNL     1       9.152  -3.817  -2.823  1.00  0.00     0.048 C 
ATOM      2  C   UNL     1      10.508  -4.306  -2.393  1.00  0.00    -0.009 A 
ATOM      3  C   UNL     1      11.690  -3.765  -2.945  1.00  0.00     0.118 A 
ATOM      4  C   UNL     1      12.937  -4.241  -2.524  1.00  0.00     0.050 A 
ATOM      5  C   UNL     1      13.033  -5.256  -1.554  1.00  0.00    -0.042 A 
ATOM      6  C   UNL     1      11.853  -5.788  -1.011  1.00  0.00     0.004 A 
ATOM      7  C   UNL     1      10.605  -5.319  -1.425  1.00  0.00     0.007 A 
ENDROOT
BRANCH   3   8
ATOM      8  O   UNL     1      11.661  -2.756  -3.910  1.00  0.00    -0.508 OA
ATOM      9  H   UNL     1      12.143  -1.873  -3.799  1.00  0.00     0.293 HD
ENDBRANCH   3   8
BRANCH   5  10
ATOM     10  C   UNL     1      14.382  -5.776  -1.094  1.00  0.00     0.013 C 
ATOM     11  C   UNL     1      14.738  -5.236   0.296  1.00  0.00     0.012 C 
ATOM     12  C   UNL     1      15.479  -5.444  -2.112  1.00  0.00     0.012 C 
ENDBRANCH   5  10
TORSDOF 2
ENDMDL
MODEL 4
REMARK VINA RESULT:    -3.735      1.943      3.272
REMARK INTER + INTRA:          -4.190
REMARK INTER:                  -4.062
REMARK INTRA:                  -0.127
REMARK UNBOUND:                -0.127
REMARK SMILES Cc1ccc(C(C)C)cc1O
REMARK SMILES IDX 1 1 2 2 10 3 9 4 5 5 4 6 3 7 11 8 6 10 7 11 8 12
REMARK H PARENT 11 9
REMARK Flexibility Score: inf
ROOT
ATOM      1  C   UNL     1      16.083  -5.449  -1.870  1.00  0.00     0.048 C 
ATOM      2  C   UNL     1      14.617  -5.146  -1.728  1.00  0.00    -0.009 A 
ATOM      3  C   UNL     1      14.042  -4.890  -0.464  1.00  0.00     0.118 A 
ATOM      4  C   UNL     1      12.674  -4.611  -0.365  1.00  0.00     0.050 A 
ATOM      5  C   UNL     1      11.858  -4.582  -1.510  1.00  0.00    -0.042 A 
ATOM      6  C   UNL     1      12.437  -4.839  -2.762  1.00  0.00     0.004 A 
ATOM      7  C   UNL     1      13.801  -5.117  -2.871  1.00  0.00     0.007 A 
ENDROOT
BRANCH   3   8
ATOM      8  O   UNL     1      14.799  -4.903   0.710  1.00  0.00    -0.508 OA
ATOM      9  H   UNL     1      14.784  -4.148   1.384  1.00  0.00     0.293 HD
ENDBRANCH   3   8
BRANCH   5  10
ATOM     10  C   UNL     1      10.374  -4.281  -1.409  1.00  0.00     0.013 C 
ATOM     11  C   UNL     1       9.625  -5.420  -0.706  1.00  0.00     0.012 C 
ATOM     12  C   UNL     1       9.772  -3.994  -2.789  1.00  0.00     0.012 C 
ENDBRANCH   5  10
TORSDOF 2
ENDMDL
MODEL 5
REMARK VINA RESULT:    -3.719      1.752      4.168
REMARK INTER + INTRA:          -4.172
REMARK INTER:                  -4.055
REMARK INTRA:                  -0.117
REMARK UNBOUND:                -0.127
REMARK SMILES Cc1ccc(C(C)C)cc1O
REMARK SMILES IDX 1 1 2 2 10 3 9 4 5 5 4 6 3 7 11 8 6 10 7 11 8 12
REMARK H PARENT 11 9
REMARK Flexibility Score: inf
ROOT
ATOM      1  C   UNL     1       7.085  -3.872  -2.979  1.00  0.00     0.048 C 
ATOM      2  C   UNL     1       8.526  -4.159  -2.659  1.00  0.00    -0.009 A 
ATOM      3  C   UNL     1       9.563  -3.764  -3.533  1.00  0.00     0.118 A 
ATOM      4  C   UNL     1      10.894  -4.046  -3.207  1.00  0.00     0.050 A 
ATOM      5  C   UNL     1      11.219  -4.720  -2.016  1.00  0.00    -0.042 A 
ATOM      6  C   UNL     1      10.183  -5.110  -1.153  1.00  0.00     0.004 A 
ATOM      7  C   UNL     1       8.852  -4.832  -1.470  1.00  0.00     0.007 A 
ENDROOT
BRANCH   3   8
ATOM      8  O   UNL     1       9.305  -3.091  -4.729  1.00  0.00    -0.508 OA
ATOM      9  H   UNL     1       9.105  -3.569  -5.599  1.00  0.00     0.293 HD
ENDBRANCH   3   8
BRANCH   5  10
ATOM     10  C   UNL     1      12.661  -5.029  -1.657  1.00  0.00     0.013 C 
ATOM     11  C   UNL     1      13.040  -4.407  -0.308  1.00  0.00     0.012 C 
ATOM     12  C   UNL     1      13.617  -4.569  -2.764  1.00  0.00     0.012 C 
ENDBRANCH   5  10
TORSDOF 2
ENDMDL
MODEL 6
REMARK VINA RESULT:    -3.606     16.583     17.980
REMARK INTER + INTRA:          -4.049
REMARK INTER:                  -3.922
REMARK INTRA:                  -0.127
REMARK UNBOUND:                -0.127
REMARK SMILES Cc1ccc(C(C)C)cc1O
REMARK SMILES IDX 1 1 2 2 10 3 9 4 5 5 4 6 3 7 11 8 6 10 7 11 8 12
REMARK H PARENT 11 9
REMARK Flexibility Score: inf
ROOT
ATOM      1  C   UNL     1      18.153  11.130  -4.784  1.00  0.00     0.048 C 
ATOM      2  C   UNL     1      18.408  11.227  -3.305  1.00  0.00    -0.009 A 
ATOM      3  C   UNL     1      17.761  10.365  -2.393  1.00  0.00     0.118 A 
ATOM      4  C   UNL     1      18.020  10.481  -1.023  1.00  0.00     0.050 A 
ATOM      5  C   UNL     1      18.919  11.447  -0.536  1.00  0.00    -0.042 A 
ATOM      6  C   UNL     1      19.556  12.301  -1.449  1.00  0.00     0.004 A 
ATOM      7  C   UNL     1      19.305  12.193  -2.818  1.00  0.00     0.007 A 
ENDROOT
BRANCH   3   8
ATOM      8  O   UNL     1      16.860   9.385  -2.814  1.00  0.00    -0.508 OA
ATOM      9  H   UNL     1      16.319   9.463  -3.666  1.00  0.00     0.293 HD
ENDBRANCH   3   8
BRANCH   5  10
ATOM     10  C   UNL     1      19.202  11.577   0.949  1.00  0.00     0.013 C 
ATOM     11  C   UNL     1      19.467  13.037   1.336  1.00  0.00     0.012 C 
ATOM     12  C   UNL     1      20.369  10.675   1.371  1.00  0.00     0.012 C 
ENDBRANCH   5  10
TORSDOF 2
ENDMDL
MODEL 7
REMARK VINA RESULT:    -3.550      1.327      2.013
REMARK INTER + INTRA:          -3.989
REMARK INTER:                  -3.878
REMARK INTRA:                  -0.111
REMARK UNBOUND:                -0.127
REMARK SMILES Cc1ccc(C(C)C)cc1O
REMARK SMILES IDX 1 1 2 2 10 3 9 4 5 5 4 6 3 7 11 8 6 10 7 11 8 12
REMARK H PARENT 11 9
REMARK Flexibility Score: inf
ROOT
ATOM      1  C   UNL     1      12.677  -4.198  -1.518  1.00  0.00     0.048 C 
ATOM      2  C   UNL     1      11.221  -4.224  -1.896  1.00  0.00    -0.009 A 
ATOM      3  C   UNL     1      10.750  -3.548  -3.043  1.00  0.00     0.118 A 
ATOM      4  C   UNL     1       9.390  -3.593  -3.368  1.00  0.00     0.050 A 
ATOM      5  C   UNL     1       8.478  -4.302  -2.565  1.00  0.00    -0.042 A 
ATOM      6  C   UNL     1       8.954  -4.970  -1.427  1.00  0.00     0.004 A 
ATOM      7  C   UNL     1      10.309  -4.932  -1.095  1.00  0.00     0.007 A 
ENDROOT
BRANCH   3   8
ATOM      8  O   UNL     1      11.606  -2.828  -3.880  1.00  0.00    -0.508 OA
ATOM      9  H   UNL     1      12.606  -2.979  -3.907  1.00  0.00     0.293 HD
ENDBRANCH   3   8
BRANCH   5  10
ATOM     10  C   UNL     1       7.002  -4.353  -2.913  1.00  0.00     0.013 C 
ATOM     11  C   UNL     1       6.760  -3.918  -4.363  1.00  0.00     0.012 C 
ATOM     12  C   UNL     1       6.175  -3.506  -1.938  1.00  0.00     0.012 C 
ENDBRANCH   5  10
TORSDOF 2
ENDMDL
MODEL 8
REMARK VINA RESULT:    -3.526      1.974      4.650
REMARK INTER + INTRA:          -3.963
REMARK INTER:                  -3.835
REMARK INTRA:                  -0.127
REMARK UNBOUND:                -0.127
REMARK SMILES Cc1ccc(C(C)C)cc1O
REMARK SMILES IDX 1 1 2 2 10 3 9 4 5 5 4 6 3 7 11 8 6 10 7 11 8 12
REMARK H PARENT 11 9
REMARK Flexibility Score: inf
ROOT
ATOM      1  C   UNL     1       8.251  -3.407  -3.381  1.00  0.00     0.048 C 
ATOM      2  C   UNL     1       9.552  -3.894  -2.804  1.00  0.00    -0.009 A 
ATOM      3  C   UNL     1       9.603  -4.513  -1.535  1.00  0.00     0.118 A 
ATOM      4  C   UNL     1      10.829  -4.956  -1.026  1.00  0.00     0.050 A 
ATOM      5  C   UNL     1      12.018  -4.793  -1.761  1.00  0.00    -0.042 A 
ATOM      6  C   UNL     1      11.958  -4.176  -3.020  1.00  0.00     0.004 A 
ATOM      7  C   UNL     1      10.739  -3.732  -3.536  1.00  0.00     0.007 A 
ENDROOT
BRANCH   3   8
ATOM      8  O   UNL     1       8.458  -4.705  -0.759  1.00  0.00    -0.508 OA
ATOM      9  H   UNL     1       8.256  -5.573  -0.280  1.00  0.00     0.293 HD
ENDBRANCH   3   8
BRANCH   5  10
ATOM     10  C   UNL     1      13.350  -5.271  -1.213  1.00  0.00     0.013 C 
ATOM     11  C   UNL     1      13.727  -4.511   0.064  1.00  0.00     0.012 C 
ATOM     12  C   UNL     1      14.456  -5.156  -2.269  1.00  0.00     0.012 C 
ENDBRANCH   5  10
TORSDOF 2
ENDMDL
MODEL 9
REMARK VINA RESULT:    -3.289     10.246     11.593
REMARK INTER + INTRA:          -3.704
REMARK INTER:                  -3.577
REMARK INTRA:                  -0.127
REMARK UNBOUND:                -0.127
REMARK SMILES Cc1ccc(C(C)C)cc1O
REMARK SMILES IDX 1 1 2 2 10 3 9 4 5 5 4 6 3 7 11 8 6 10 7 11 8 12
REMARK H PARENT 11 9
REMARK Flexibility Score: inf
ROOT
ATOM      1  C   UNL     1       5.422   6.417  -5.105  1.00  0.00     0.048 C 
ATOM      2  C   UNL     1       6.480   5.982  -6.081  1.00  0.00    -0.009 A 
ATOM      3  C   UNL     1       6.850   4.624  -6.203  1.00  0.00     0.118 A 
ATOM      4  C   UNL     1       7.839   4.252  -7.121  1.00  0.00     0.050 A 
ATOM      5  C   UNL     1       8.475   5.213  -7.928  1.00  0.00    -0.042 A 
ATOM      6  C   UNL     1       8.102   6.560  -7.799  1.00  0.00     0.004 A 
ATOM      7  C   UNL     1       7.117   6.940  -6.887  1.00  0.00     0.007 A 
ENDROOT
BRANCH   3   8
ATOM      8  O   UNL     1       6.255   3.624  -5.432  1.00  0.00    -0.508 OA
ATOM      9  H   UNL     1       6.097   2.684  -5.774  1.00  0.00     0.293 HD
ENDBRANCH   3   8
BRANCH   5  10
ATOM     10  C   UNL     1       9.548   4.814  -8.924  1.00  0.00     0.013 C 
ATOM     11  C   UNL     1      10.189   6.048  -9.570  1.00  0.00     0.012 C 
ATOM     12  C   UNL     1       8.989   3.863  -9.989  1.00  0.00     0.012 C 
ENDBRANCH   5  10
TORSDOF 2
ENDMDL
