MODEL 1
REMARK VINA RESULT:    -4.975      0.000      0.000
REMARK INTER + INTRA:          -4.975
REMARK INTER:                  -4.975
REMARK INTRA:                   0.000
REMARK UNBOUND:                 0.000
REMARK SMILES CC1=CC[C@]2(C)CCCC(C)(C)[C@@]23C[C@@H]13
REMARK SMILES IDX 1 1 2 2 3 3 4 4 5 5 7 6 8 7 9 8 10 9 13 10 15 11 14 12 11 13
REMARK SMILES IDX 12 14 6 15
REMARK H PARENT
REMARK Flexibility Score: inf
ROOT
ATOM      1  C   UNL     1      26.758  23.278  12.324  1.00  0.00     0.039 C 
ATOM      2  C   UNL     1      28.033  24.022  12.605  1.00  0.00    -0.074 C 
ATOM      3  C   UNL     1      29.083  23.372  13.117  1.00  0.00    -0.027 C 
ATOM      4  C   UNL     1      30.311  24.121  13.519  1.00  0.00     0.034 C 
ATOM      5  C   UNL     1      30.800  25.177  12.475  1.00  0.00    -0.022 C 
ATOM      6  C   UNL     1      31.852  26.037  13.250  1.00  0.00     0.008 C 
ATOM      7  C   UNL     1      32.123  27.396  12.635  1.00  0.00     0.001 C 
ATOM      8  C   UNL     1      30.834  28.206  12.654  1.00  0.00     0.007 C 
ATOM      9  C   UNL     1      29.770  27.632  11.688  1.00  0.00    -0.029 C 
ATOM     10  C   UNL     1      29.587  26.058  11.908  1.00  0.00    -0.012 C 
ATOM     11  C   UNL     1      28.171  25.455  12.158  1.00  0.00     0.022 C 
ATOM     12  C   UNL     1      28.741  25.452  10.757  1.00  0.00     0.017 C 
ATOM     13  C   UNL     1      30.224  27.945  10.231  1.00  0.00     0.012 C 
ATOM     14  C   UNL     1      28.467  28.424  11.950  1.00  0.00     0.012 C 
ATOM     15  C   UNL     1      31.539  24.443  11.325  1.00  0.00     0.012 C 
ENDROOT
TORSDOF 0
ENDMDL
MODEL 2
REMARK VINA RESULT:    -4.869      1.200      4.419
REMARK INTER + INTRA:          -4.869
REMARK INTER:                  -4.869
REMARK INTRA:                   0.000
REMARK UNBOUND:                 0.000
REMARK SMILES CC1=CC[C@]2(C)CCCC(C)(C)[C@@]23C[C@@H]13
REMARK SMILES IDX 1 1 2 2 3 3 4 4 5 5 7 6 8 7 9 8 10 9 13 10 15 11 14 12 11 13
REMARK SMILES IDX 12 14 6 15
REMARK H PARENT
REMARK Flexibility Score: inf
ROOT
ATOM      1  C   UNL     1      30.810  28.568  10.531  1.00  0.00     0.039 C 
ATOM      2  C   UNL     1      30.078  27.452  11.221  1.00  0.00    -0.074 C 
ATOM      3  C   UNL     1      28.751  27.351  11.097  1.00  0.00    -0.027 C 
ATOM      4  C   UNL     1      27.996  26.325  11.877  1.00  0.00     0.034 C 
ATOM      5  C   UNL     1      28.638  24.899  11.868  1.00  0.00    -0.022 C 
ATOM      6  C   UNL     1      27.882  24.122  12.997  1.00  0.00     0.008 C 
ATOM      7  C   UNL     1      28.616  22.900  13.512  1.00  0.00     0.001 C 
ATOM      8  C   UNL     1      29.933  23.345  14.130  1.00  0.00     0.007 C 
ATOM      9  C   UNL     1      30.924  23.880  13.069  1.00  0.00    -0.029 C 
ATOM     10  C   UNL     1      30.220  24.958  12.121  1.00  0.00    -0.012 C 
ATOM     11  C   UNL     1      30.861  26.364  11.910  1.00  0.00     0.022 C 
ATOM     12  C   UNL     1      31.126  25.270  10.901  1.00  0.00     0.017 C 
ATOM     13  C   UNL     1      31.449  22.667  12.246  1.00  0.00     0.012 C 
ATOM     14  C   UNL     1      32.125  24.469  13.849  1.00  0.00     0.012 C 
ATOM     15  C   UNL     1      28.315  24.210  10.516  1.00  0.00     0.012 C 
ENDROOT
TORSDOF 0
ENDMDL
MODEL 3
REMARK VINA RESULT:    -4.496      1.414      3.319
REMARK INTER + INTRA:          -4.496
REMARK INTER:                  -4.496
REMARK INTRA:                   0.000
REMARK UNBOUND:                 0.000
REMARK SMILES CC1=CC[C@]2(C)CCCC(C)(C)[C@@]23C[C@@H]13
REMARK SMILES IDX 1 1 2 2 3 3 4 4 5 5 7 6 8 7 9 8 10 9 13 10 15 11 14 12 11 13
REMARK SMILES IDX 12 14 6 15
REMARK H PARENT
REMARK Flexibility Score: inf
ROOT
ATOM      1  C   UNL     1      31.392  21.388  14.882  1.00  0.00     0.039 C 
ATOM      2  C   UNL     1      31.131  22.725  14.248  1.00  0.00    -0.074 C 
ATOM      3  C   UNL     1      32.124  23.613  14.135  1.00  0.00    -0.027 C 
ATOM      4  C   UNL     1      31.851  24.989  13.625  1.00  0.00     0.034 C 
ATOM      5  C   UNL     1      30.946  25.043  12.351  1.00  0.00    -0.022 C 
ATOM      6  C   UNL     1      30.535  26.548  12.224  1.00  0.00     0.008 C 
ATOM      7  C   UNL     1      29.303  26.789  11.375  1.00  0.00     0.001 C 
ATOM      8  C   UNL     1      28.117  26.091  12.027  1.00  0.00     0.007 C 
ATOM      9  C   UNL     1      28.241  24.550  11.966  1.00  0.00    -0.029 C 
ATOM     10  C   UNL     1      29.677  24.071  12.481  1.00  0.00    -0.012 C 
ATOM     11  C   UNL     1      29.796  22.992  13.600  1.00  0.00     0.022 C 
ATOM     12  C   UNL     1      29.891  22.571  12.151  1.00  0.00     0.017 C 
ATOM     13  C   UNL     1      27.996  24.106  10.494  1.00  0.00     0.012 C 
ATOM     14  C   UNL     1      27.083  23.984  12.824  1.00  0.00     0.012 C 
ATOM     15  C   UNL     1      31.802  24.677  11.109  1.00  0.00     0.012 C 
ENDROOT
TORSDOF 0
ENDMDL
MODEL 4
REMARK VINA RESULT:    -4.263      1.282      3.868
REMARK INTER + INTRA:          -4.263
REMARK INTER:                  -4.263
REMARK INTRA:                   0.000
REMARK UNBOUND:                 0.000
REMARK SMILES CC1=CC[C@]2(C)CCCC(C)(C)[C@@]23C[C@@H]13
REMARK SMILES IDX 1 1 2 2 3 3 4 4 5 5 7 6 8 7 9 8 10 9 13 10 15 11 14 12 11 13
REMARK SMILES IDX 12 14 6 15
REMARK H PARENT
REMARK Flexibility Score: inf
ROOT
ATOM      1  C   UNL     1      28.244  28.720  11.229  1.00  0.00     0.039 C 
ATOM      2  C   UNL     1      28.343  27.333  11.799  1.00  0.00    -0.074 C 
ATOM      3  C   UNL     1      27.258  26.554  11.846  1.00  0.00    -0.027 C 
ATOM      4  C   UNL     1      27.312  25.225  12.523  1.00  0.00     0.034 C 
ATOM      5  C   UNL     1      28.567  24.363  12.165  1.00  0.00    -0.022 C 
ATOM      6  C   UNL     1      28.569  23.213  13.227  1.00  0.00     0.008 C 
ATOM      7  C   UNL     1      29.910  22.529  13.403  1.00  0.00     0.001 C 
ATOM      8  C   UNL     1      30.920  23.553  13.901  1.00  0.00     0.007 C 
ATOM      9  C   UNL     1      31.250  24.617  12.828  1.00  0.00    -0.029 C 
ATOM     10  C   UNL     1      29.914  25.231  12.200  1.00  0.00    -0.012 C 
ATOM     11  C   UNL     1      29.695  26.774  12.162  1.00  0.00     0.022 C 
ATOM     12  C   UNL     1      30.252  26.074  10.943  1.00  0.00     0.017 C 
ATOM     13  C   UNL     1      32.125  23.939  11.732  1.00  0.00     0.012 C 
ATOM     14  C   UNL     1      32.125  25.686  13.526  1.00  0.00     0.012 C 
ATOM     15  C   UNL     1      28.355  23.721  10.768  1.00  0.00     0.012 C 
ENDROOT
TORSDOF 0
ENDMDL
MODEL 5
REMARK VINA RESULT:    -3.460      1.907      3.905
REMARK INTER + INTRA:          -3.460
REMARK INTER:                  -3.460
REMARK INTRA:                   0.000
REMARK UNBOUND:                 0.000
REMARK SMILES CC1=CC[C@]2(C)CCCC(C)(C)[C@@]23C[C@@H]13
REMARK SMILES IDX 1 1 2 2 3 3 4 4 5 5 7 6 8 7 9 8 10 9 13 10 15 11 14 12 11 13
REMARK SMILES IDX 12 14 6 15
REMARK H PARENT
REMARK Flexibility Score: inf
ROOT
ATOM      1  C   UNL     1      32.055  20.051  13.296  1.00  0.00     0.039 C 
ATOM      2  C   UNL     1      31.077  21.167  13.059  1.00  0.00    -0.074 C 
ATOM      3  C   UNL     1      29.934  21.208  13.749  1.00  0.00    -0.027 C 
ATOM      4  C   UNL     1      28.899  22.238  13.435  1.00  0.00     0.034 C 
ATOM      5  C   UNL     1      29.458  23.687  13.252  1.00  0.00    -0.022 C 
ATOM      6  C   UNL     1      28.274  24.485  12.610  1.00  0.00     0.008 C 
ATOM      7  C   UNL     1      28.693  25.760  11.904  1.00  0.00     0.001 C 
ATOM      8  C   UNL     1      29.619  25.398  10.752  1.00  0.00     0.007 C 
ATOM      9  C   UNL     1      30.981  24.855  11.246  1.00  0.00    -0.029 C 
ATOM     10  C   UNL     1      30.775  23.705  12.338  1.00  0.00    -0.012 C 
ATOM     11  C   UNL     1      31.467  22.318  12.166  1.00  0.00     0.022 C 
ATOM     12  C   UNL     1      32.125  23.373  13.027  1.00  0.00     0.017 C 
ATOM     13  C   UNL     1      31.790  26.048  11.834  1.00  0.00     0.012 C 
ATOM     14  C   UNL     1      31.735  24.353   9.991  1.00  0.00     0.012 C 
ATOM     15  C   UNL     1      29.741  24.297  14.650  1.00  0.00     0.012 C 
ENDROOT
TORSDOF 0
ENDMDL
MODEL 6
REMARK VINA RESULT:    -3.141      1.197      4.023
REMARK INTER + INTRA:          -3.141
REMARK INTER:                  -3.141
REMARK INTRA:                   0.000
REMARK UNBOUND:                 0.000
REMARK SMILES CC1=CC[C@]2(C)CCCC(C)(C)[C@@]23C[C@@H]13
REMARK SMILES IDX 1 1 2 2 3 3 4 4 5 5 7 6 8 7 9 8 10 9 13 10 15 11 14 12 11 13
REMARK SMILES IDX 12 14 6 15
REMARK H PARENT
REMARK Flexibility Score: inf
ROOT
ATOM      1  C   UNL     1      27.705  29.000  11.499  1.00  0.00     0.039 C 
ATOM      2  C   UNL     1      28.801  28.032  11.151  1.00  0.00    -0.074 C 
ATOM      3  C   UNL     1      29.970  28.488  10.692  1.00  0.00    -0.027 C 
ATOM      4  C   UNL     1      31.020  27.536  10.224  1.00  0.00     0.034 C 
ATOM      5  C   UNL     1      31.265  26.318  11.173  1.00  0.00    -0.022 C 
ATOM      6  C   UNL     1      32.125  25.324  10.324  1.00  0.00     0.008 C 
ATOM      7  C   UNL     1      32.098  23.893  10.822  1.00  0.00     0.001 C 
ATOM      8  C   UNL     1      30.669  23.375  10.740  1.00  0.00     0.007 C 
ATOM      9  C   UNL     1      29.735  24.076  11.756  1.00  0.00    -0.029 C 
ATOM     10  C   UNL     1      29.887  25.665  11.669  1.00  0.00    -0.012 C 
ATOM     11  C   UNL     1      28.631  26.570  11.476  1.00  0.00     0.022 C 
ATOM     12  C   UNL     1      29.170  26.337  12.870  1.00  0.00     0.017 C 
ATOM     13  C   UNL     1      30.095  23.555  13.179  1.00  0.00     0.012 C 
ATOM     14  C   UNL     1      28.299  23.597  11.433  1.00  0.00     0.012 C 
ATOM     15  C   UNL     1      32.125  26.784  12.378  1.00  0.00     0.012 C 
ENDROOT
TORSDOF 0
ENDMDL
MODEL 7
REMARK VINA RESULT:    -3.110      1.819      4.702
REMARK INTER + INTRA:          -3.110
REMARK INTER:                  -3.110
REMARK INTRA:                   0.000
REMARK UNBOUND:                 0.000
REMARK SMILES CC1=CC[C@]2(C)CCCC(C)(C)[C@@]23C[C@@H]13
REMARK SMILES IDX 1 1 2 2 3 3 4 4 5 5 7 6 8 7 9 8 10 9 13 10 15 11 14 12 11 13
REMARK SMILES IDX 12 14 6 15
REMARK H PARENT
REMARK Flexibility Score: inf
ROOT
ATOM      1  C   UNL     1      31.942  29.467   8.590  1.00  0.00     0.039 C 
ATOM      2  C   UNL     1      31.959  28.611   9.825  1.00  0.00    -0.074 C 
ATOM      3  C   UNL     1      31.980  29.184  11.032  1.00  0.00    -0.027 C 
ATOM      4  C   UNL     1      32.124  28.350  12.262  1.00  0.00     0.034 C 
ATOM      5  C   UNL     1      31.214  27.079  12.296  1.00  0.00    -0.022 C 
ATOM      6  C   UNL     1      31.782  26.221  13.476  1.00  0.00     0.008 C 
ATOM      7  C   UNL     1      31.399  24.755  13.422  1.00  0.00     0.001 C 
ATOM      8  C   UNL     1      31.977  24.146  12.153  1.00  0.00     0.007 C 
ATOM      9  C   UNL     1      31.292  24.694  10.878  1.00  0.00    -0.029 C 
ATOM     10  C   UNL     1      31.238  26.292  10.900  1.00  0.00    -0.012 C 
ATOM     11  C   UNL     1      31.788  27.119   9.697  1.00  0.00     0.022 C 
ATOM     12  C   UNL     1      30.309  26.812   9.772  1.00  0.00     0.017 C 
ATOM     13  C   UNL     1      29.861  24.086  10.801  1.00  0.00     0.012 C 
ATOM     14  C   UNL     1      32.098  24.143   9.676  1.00  0.00     0.012 C 
ATOM     15  C   UNL     1      29.769  27.505  12.670  1.00  0.00     0.012 C 
ENDROOT
TORSDOF 0
ENDMDL
MODEL 8
REMARK VINA RESULT:    -3.021      1.304      2.117
REMARK INTER + INTRA:          -3.021
REMARK INTER:                  -3.021
REMARK INTRA:                   0.000
REMARK UNBOUND:                 0.000
REMARK SMILES CC1=CC[C@]2(C)CCCC(C)(C)[C@@]23C[C@@H]13
REMARK SMILES IDX 1 1 2 2 3 3 4 4 5 5 7 6 8 7 9 8 10 9 13 10 15 11 14 12 11 13
REMARK SMILES IDX 12 14 6 15
REMARK H PARENT
REMARK Flexibility Score: inf
ROOT
ATOM      1  C   UNL     1      26.062  23.591  11.156  1.00  0.00     0.039 C 
ATOM      2  C   UNL     1      27.286  23.838  11.991  1.00  0.00    -0.074 C 
ATOM      3  C   UNL     1      27.472  23.147  13.120  1.00  0.00    -0.027 C 
ATOM      4  C   UNL     1      28.617  23.469  14.023  1.00  0.00     0.034 C 
ATOM      5  C   UNL     1      29.985  23.667  13.293  1.00  0.00    -0.022 C 
ATOM      6  C   UNL     1      30.915  24.315  14.372  1.00  0.00     0.008 C 
ATOM      7  C   UNL     1      32.123  25.035  13.805  1.00  0.00     0.001 C 
ATOM      8  C   UNL     1      31.641  26.185  12.932  1.00  0.00     0.007 C 
ATOM      9  C   UNL     1      30.941  25.687  11.645  1.00  0.00    -0.029 C 
ATOM     10  C   UNL     1      29.835  24.583  11.986  1.00  0.00    -0.012 C 
ATOM     11  C   UNL     1      28.372  24.743  11.468  1.00  0.00     0.022 C 
ATOM     12  C   UNL     1      29.348  23.893  10.684  1.00  0.00     0.017 C 
ATOM     13  C   UNL     1      32.033  25.112  10.695  1.00  0.00     0.012 C 
ATOM     14  C   UNL     1      30.340  26.939  10.961  1.00  0.00     0.012 C 
ATOM     15  C   UNL     1      30.570  22.276  12.934  1.00  0.00     0.012 C 
ENDROOT
TORSDOF 0
ENDMDL
MODEL 9
REMARK VINA RESULT:    -2.871      1.843      4.309
REMARK INTER + INTRA:          -2.871
REMARK INTER:                  -2.871
REMARK INTRA:                   0.000
REMARK UNBOUND:                 0.000
REMARK SMILES CC1=CC[C@]2(C)CCCC(C)(C)[C@@]23C[C@@H]13
REMARK SMILES IDX 1 1 2 2 3 3 4 4 5 5 7 6 8 7 9 8 10 9 13 10 15 11 14 12 11 13
REMARK SMILES IDX 12 14 6 15
REMARK H PARENT
REMARK Flexibility Score: inf
ROOT
ATOM      1  C   UNL     1      26.041  23.747  13.764  1.00  0.00     0.039 C 
ATOM      2  C   UNL     1      27.259  23.719  12.884  1.00  0.00    -0.074 C 
ATOM      3  C   UNL     1      27.362  24.574  11.863  1.00  0.00    -0.027 C 
ATOM      4  C   UNL     1      28.504  24.474  10.907  1.00  0.00     0.034 C 
ATOM      5  C   UNL     1      29.902  24.285  11.580  1.00  0.00    -0.022 C 
ATOM      6  C   UNL     1      30.851  23.872  10.406  1.00  0.00     0.008 C 
ATOM      7  C   UNL     1      32.125  23.178  10.848  1.00  0.00     0.001 C 
ATOM      8  C   UNL     1      31.755  21.882  11.555  1.00  0.00     0.007 C 
ATOM      9  C   UNL     1      31.053  22.137  12.910  1.00  0.00    -0.029 C 
ATOM     10  C   UNL     1      29.857  23.186  12.746  1.00  0.00    -0.012 C 
ATOM     11  C   UNL     1      28.425  22.839  13.258  1.00  0.00     0.022 C 
ATOM     12  C   UNL     1      29.352  23.644  14.140  1.00  0.00     0.017 C 
ATOM     13  C   UNL     1      32.121  22.658  13.916  1.00  0.00     0.012 C 
ATOM     14  C   UNL     1      30.567  20.757  13.418  1.00  0.00     0.012 C 
ATOM     15  C   UNL     1      30.388  25.655  12.125  1.00  0.00     0.012 C 
ENDROOT
TORSDOF 0
ENDMDL
