MODEL 1
REMARK VINA RESULT:    -4.411      0.000      0.000
REMARK INTER + INTRA:          -4.078
REMARK INTER:                  -6.474
REMARK INTRA:                   2.396
REMARK UNBOUND:                 2.396
REMARK SMILES Cc1cc2c(C(C)C)c(O)c(O)c(C=O)c2c(O)c1-c1c(C)cc2c(C(C)C)c(O)c(O)c(C=O)c2c1O
REMARK SMILES IDX 1 1 2 2 3 3 4 4 16 5 13 6 11 7 9 8 5 9 17 10 19 11 20 12
REMARK SMILES IDX 37 13 21 14 36 15 23 16 22 17 24 18 33 19 25 20 31 21 29 22
REMARK SMILES IDX 38 23 34 25 35 26 26 27 27 28 28 29 32 30 30 32 18 34 6 36
REMARK SMILES IDX 7 37 8 38 14 39 15 40 10 41 12 43
REMARK H PARENT 38 24 32 31 30 33 18 35 10 42 12 44
REMARK Flexibility Score: inf
ROOT
ATOM      1  C   UNL     1      -7.753  35.526  -2.173  1.00  0.00     0.045 C 
ATOM      2  C   UNL     1      -7.759  34.484  -1.080  1.00  0.00    -0.039 A 
ATOM      3  C   UNL     1      -8.100  33.166  -1.392  1.00  0.00     0.013 A 
ATOM      4  C   UNL     1      -8.110  32.143  -0.423  1.00  0.00    -0.006 A 
ATOM      5  C   UNL     1      -7.768  32.479   0.923  1.00  0.00     0.039 A 
ATOM      6  C   UNL     1      -7.692  31.442   1.898  1.00  0.00     0.072 A 
ATOM      7  C   UNL     1      -8.105  30.140   1.574  1.00  0.00     0.169 A 
ATOM      8  C   UNL     1      -8.565  29.839   0.280  1.00  0.00     0.162 A 
ATOM      9  C   UNL     1      -8.476  30.798  -0.758  1.00  0.00     0.008 A 
ATOM     10  C   UNL     1      -7.543  33.847   1.260  1.00  0.00     0.132 A 
ATOM     11  C   UNL     1      -7.495  34.832   0.253  1.00  0.00     0.031 A 
ENDROOT
BRANCH  11  12
ATOM     12  C   UNL     1      -7.182  36.243   0.604  1.00  0.00     0.031 A 
ATOM     13  C   UNL     1      -6.080  36.897   0.011  1.00  0.00     0.132 A 
ATOM     14  C   UNL     1      -7.974  36.914   1.546  1.00  0.00    -0.039 A 
ATOM     15  C   UNL     1      -5.779  38.255   0.343  1.00  0.00     0.039 A 
ATOM     16  C   UNL     1      -7.666  38.229   1.892  1.00  0.00     0.013 A 
ATOM     17  C   UNL     1      -9.125  36.219   2.234  1.00  0.00     0.045 C 
ATOM     18  C   UNL     1      -6.616  38.940   1.279  1.00  0.00    -0.006 A 
ATOM     19  C   UNL     1      -4.652  38.941  -0.203  1.00  0.00     0.072 A 
ATOM     20  C   UNL     1      -6.364  40.311   1.603  1.00  0.00     0.008 A 
ATOM     21  C   UNL     1      -4.332  40.235   0.251  1.00  0.00     0.169 A 
ATOM     22  C   UNL     1      -5.144  40.887   1.175  1.00  0.00     0.162 A 
BRANCH  13  23
ATOM     23  O   UNL     1      -5.279  36.193  -0.894  1.00  0.00    -0.507 OA
ATOM     24  H   UNL     1      -5.169  36.444  -1.869  1.00  0.00     0.293 HD
ENDBRANCH  13  23
BRANCH  19  25
ATOM     25  C   UNL     1      -3.790  38.332  -1.235  1.00  0.00     0.264 C 
ATOM     26  O   UNL     1      -3.300  39.037  -2.158  1.00  0.00    -0.298 OA
ENDBRANCH  19  25
BRANCH  20  27
ATOM     27  C   UNL     1      -7.383  41.221   2.317  1.00  0.00     0.017 C 
ATOM     28  C   UNL     1      -8.197  42.075   1.334  1.00  0.00     0.012 C 
ATOM     29  C   UNL     1      -6.800  42.046   3.485  1.00  0.00     0.012 C 
ENDBRANCH  20  27
BRANCH  21  30
ATOM     30  O   UNL     1      -3.210  40.928  -0.218  1.00  0.00    -0.504 OA
ATOM     31  H   UNL     1      -2.415  41.175   0.354  1.00  0.00     0.293 HD
ENDBRANCH  21  30
BRANCH  22  32
ATOM     32  O   UNL     1      -4.694  42.125   1.648  1.00  0.00    -0.504 OA
ATOM     33  H   UNL     1      -5.238  42.977   1.611  1.00  0.00     0.293 HD
ENDBRANCH  22  32
ENDBRANCH  11  12
BRANCH  10  34
ATOM     34  O   UNL     1      -7.412  34.232   2.600  1.00  0.00    -0.507 OA
ATOM     35  H   UNL     1      -6.552  34.574   3.008  1.00  0.00     0.293 HD
ENDBRANCH  10  34
BRANCH   9  36
ATOM     36  C   UNL     1      -8.823  30.331  -2.187  1.00  0.00     0.017 C 
ATOM     37  C   UNL     1      -9.124  31.509  -3.123  1.00  0.00     0.012 C 
ATOM     38  C   UNL     1      -7.816  29.322  -2.782  1.00  0.00     0.012 C 
ENDBRANCH   9  36
BRANCH   6  39
ATOM     39  C   UNL     1      -7.073  31.661   3.229  1.00  0.00     0.264 C 
ATOM     40  O   UNL     1      -5.822  31.628   3.379  1.00  0.00    -0.298 OA
ENDBRANCH   6  39
BRANCH   8  41
ATOM     41  O   UNL     1      -9.123  28.585   0.002  1.00  0.00    -0.504 OA
ATOM     42  H   UNL     1      -8.691  27.705   0.244  1.00  0.00     0.293 HD
ENDBRANCH   8  41
BRANCH   7  43
ATOM     43  O   UNL     1      -8.002  29.141   2.551  1.00  0.00    -0.504 OA
ATOM     44  H   UNL     1      -8.789  28.757   3.055  1.00  0.00     0.293 HD
ENDBRANCH   7  43
TORSDOF 11
ENDMDL
MODEL 2
REMARK VINA RESULT:    -2.631      0.715      9.312
REMARK INTER + INTRA:          -1.465
REMARK INTER:                  -4.499
REMARK INTRA:                   3.033
REMARK UNBOUND:                 2.396
REMARK SMILES Cc1cc2c(C(C)C)c(O)c(O)c(C=O)c2c(O)c1-c1c(C)cc2c(C(C)C)c(O)c(O)c(C=O)c2c1O
REMARK SMILES IDX 1 1 2 2 3 3 4 4 16 5 13 6 11 7 9 8 5 9 17 10 19 11 20 12
REMARK SMILES IDX 37 13 21 14 36 15 23 16 22 17 24 18 33 19 25 20 31 21 29 22
REMARK SMILES IDX 38 23 34 25 35 26 26 27 27 28 28 29 32 30 30 32 18 34 6 36
REMARK SMILES IDX 7 37 8 38 14 39 15 40 10 41 12 43
REMARK H PARENT 38 24 32 31 30 33 18 35 10 42 12 44
REMARK Flexibility Score: inf
ROOT
ATOM      1  C   UNL     1      -9.119  35.801   2.668  1.00  0.00     0.045 C 
ATOM      2  C   UNL     1      -7.944  36.537   2.071  1.00  0.00    -0.039 A 
ATOM      3  C   UNL     1      -7.679  37.847   2.476  1.00  0.00     0.013 A 
ATOM      4  C   UNL     1      -6.589  38.585   1.970  1.00  0.00    -0.006 A 
ATOM      5  C   UNL     1      -5.740  37.965   1.002  1.00  0.00     0.039 A 
ATOM      6  C   UNL     1      -4.587  38.664   0.542  1.00  0.00     0.072 A 
ATOM      7  C   UNL     1      -4.382  40.003   0.914  1.00  0.00     0.169 A 
ATOM      8  C   UNL     1      -5.291  40.654   1.766  1.00  0.00     0.162 A 
ATOM      9  C   UNL     1      -6.339  39.933   2.387  1.00  0.00     0.008 A 
ATOM     10  C   UNL     1      -6.088  36.675   0.501  1.00  0.00     0.132 A 
ATOM     11  C   UNL     1      -7.157  35.952   1.067  1.00  0.00     0.031 A 
ENDROOT
BRANCH  11  12
ATOM     12  C   UNL     1      -7.464  34.577   0.591  1.00  0.00     0.031 A 
ATOM     13  C   UNL     1      -7.496  33.498   1.502  1.00  0.00     0.132 A 
ATOM     14  C   UNL     1      -7.697  34.352  -0.773  1.00  0.00    -0.039 A 
ATOM     15  C   UNL     1      -7.795  32.176   1.048  1.00  0.00     0.039 A 
ATOM     16  C   UNL     1      -7.962  33.059  -1.222  1.00  0.00     0.013 A 
ATOM     17  C   UNL     1      -7.616  35.480  -1.774  1.00  0.00     0.045 C 
ATOM     18  C   UNL     1      -8.066  31.965  -0.341  1.00  0.00    -0.006 A 
ATOM     19  C   UNL     1      -7.799  31.052   1.928  1.00  0.00     0.072 A 
ATOM     20  C   UNL     1      -8.406  30.661  -0.820  1.00  0.00     0.008 A 
ATOM     21  C   UNL     1      -7.978  29.755   1.408  1.00  0.00     0.169 A 
ATOM     22  C   UNL     1      -8.225  29.560   0.051  1.00  0.00     0.162 A 
BRANCH  13  23
ATOM     23  O   UNL     1      -7.217  33.740   2.851  1.00  0.00    -0.507 OA
ATOM     24  H   UNL     1      -6.717  34.553   3.190  1.00  0.00     0.293 HD
ENDBRANCH  13  23
BRANCH  19  25
ATOM     25  C   UNL     1      -7.609  31.197   3.385  1.00  0.00     0.264 C 
ATOM     26  O   UNL     1      -6.451  31.222   3.881  1.00  0.00    -0.298 OA
ENDBRANCH  19  25
BRANCH  20  27
ATOM     27  C   UNL     1      -9.038  30.395  -2.201  1.00  0.00     0.017 C 
ATOM     28  C   UNL     1      -8.437  29.164  -2.894  1.00  0.00     0.012 C 
ATOM     29  C   UNL     1      -9.104  31.630  -3.125  1.00  0.00     0.012 C 
ENDBRANCH  20  27
BRANCH  21  30
ATOM     30  O   UNL     1      -7.941  28.618   2.223  1.00  0.00    -0.504 OA
ATOM     31  H   UNL     1      -7.091  28.199   2.576  1.00  0.00     0.293 HD
ENDBRANCH  21  30
BRANCH  22  32
ATOM     32  O   UNL     1      -8.287  28.235  -0.395  1.00  0.00    -0.504 OA
ATOM     33  H   UNL     1      -7.616  27.521  -0.143  1.00  0.00     0.293 HD
ENDBRANCH  22  32
ENDBRANCH  11  12
BRANCH  10  34
ATOM     34  O   UNL     1      -5.400  36.133  -0.592  1.00  0.00    -0.507 OA
ATOM     35  H   UNL     1      -5.054  35.182  -0.626  1.00  0.00     0.293 HD
ENDBRANCH  10  34
BRANCH   9  36
ATOM     36  C   UNL     1      -7.175  40.674   3.453  1.00  0.00     0.017 C 
ATOM     37  C   UNL     1      -6.299  41.267   4.565  1.00  0.00     0.012 C 
ATOM     38  C   UNL     1      -8.187  41.684   2.869  1.00  0.00     0.012 C 
ENDBRANCH   9  36
BRANCH   6  39
ATOM     39  C   UNL     1      -3.516  37.988  -0.230  1.00  0.00     0.264 C 
ATOM     40  O   UNL     1      -3.358  38.213  -1.460  1.00  0.00    -0.298 OA
ENDBRANCH   6  39
BRANCH   8  41
ATOM     41  O   UNL     1      -5.172  42.027   2.009  1.00  0.00    -0.504 OA
ATOM     42  H   UNL     1      -5.101  42.728   1.285  1.00  0.00     0.293 HD
ENDBRANCH   8  41
BRANCH   7  43
ATOM     43  O   UNL     1      -3.230  40.656   0.457  1.00  0.00    -0.504 OA
ATOM     44  H   UNL     1      -3.057  40.893  -0.509  1.00  0.00     0.293 HD
ENDBRANCH   7  43
TORSDOF 11
ENDMDL
MODEL 3
REMARK VINA RESULT:    -2.111      1.661      3.142
REMARK INTER + INTRA:          -0.703
REMARK INTER:                  -3.854
REMARK INTRA:                   3.152
REMARK UNBOUND:                 2.396
REMARK SMILES Cc1cc2c(C(C)C)c(O)c(O)c(C=O)c2c(O)c1-c1c(C)cc2c(C(C)C)c(O)c(O)c(C=O)c2c1O
REMARK SMILES IDX 1 1 2 2 3 3 4 4 16 5 13 6 11 7 9 8 5 9 17 10 19 11 20 12
REMARK SMILES IDX 37 13 21 14 36 15 23 16 22 17 24 18 33 19 25 20 31 21 29 22
REMARK SMILES IDX 38 23 34 25 35 26 26 27 27 28 28 29 32 30 30 32 18 34 6 36
REMARK SMILES IDX 7 37 8 38 14 39 15 40 10 41 12 43
REMARK H PARENT 38 24 32 31 30 33 18 35 10 42 12 44
REMARK Flexibility Score: inf
ROOT
ATOM      1  C   UNL     1      -7.243  34.632   3.938  1.00  0.00     0.045 C 
ATOM      2  C   UNL     1      -7.567  33.838   2.696  1.00  0.00    -0.039 A 
ATOM      3  C   UNL     1      -7.645  32.446   2.773  1.00  0.00     0.013 A 
ATOM      4  C   UNL     1      -7.958  31.647   1.655  1.00  0.00    -0.006 A 
ATOM      5  C   UNL     1      -8.192  32.294   0.402  1.00  0.00     0.039 A 
ATOM      6  C   UNL     1      -8.591  31.510  -0.718  1.00  0.00     0.072 A 
ATOM      7  C   UNL     1      -8.595  30.108  -0.630  1.00  0.00     0.169 A 
ATOM      8  C   UNL     1      -8.239  29.468   0.569  1.00  0.00     0.162 A 
ATOM      9  C   UNL     1      -8.020  30.218   1.749  1.00  0.00     0.008 A 
ATOM     10  C   UNL     1      -7.989  33.703   0.302  1.00  0.00     0.132 A 
ATOM     11  C   UNL     1      -7.722  34.471   1.453  1.00  0.00     0.031 A 
ENDROOT
BRANCH  11  12
ATOM     12  C   UNL     1      -7.590  35.948   1.351  1.00  0.00     0.031 A 
ATOM     13  C   UNL     1      -6.760  36.523   0.364  1.00  0.00     0.132 A 
ATOM     14  C   UNL     1      -8.274  36.768   2.259  1.00  0.00    -0.039 A 
ATOM     15  C   UNL     1      -6.634  37.944   0.261  1.00  0.00     0.039 A 
ATOM     16  C   UNL     1      -8.132  38.153   2.178  1.00  0.00     0.013 A 
ATOM     17  C   UNL     1      -9.125  36.176   3.357  1.00  0.00     0.045 C 
ATOM     18  C   UNL     1      -7.366  38.771   1.170  1.00  0.00    -0.006 A 
ATOM     19  C   UNL     1      -5.777  38.565  -0.697  1.00  0.00     0.072 A 
ATOM     20  C   UNL     1      -7.292  40.197   1.068  1.00  0.00     0.008 A 
ATOM     21  C   UNL     1      -5.596  39.962  -0.674  1.00  0.00     0.169 A 
ATOM     22  C   UNL     1      -6.301  40.757   0.226  1.00  0.00     0.162 A 
BRANCH  13  23
ATOM     23  O   UNL     1      -6.053  35.683  -0.502  1.00  0.00    -0.507 OA
ATOM     24  H   UNL     1      -5.114  35.870  -0.833  1.00  0.00     0.293 HD
ENDBRANCH  13  23
BRANCH  19  25
ATOM     25  C   UNL     1      -5.052  37.787  -1.721  1.00  0.00     0.264 C 
ATOM     26  O   UNL     1      -5.236  38.013  -2.947  1.00  0.00    -0.298 OA
ENDBRANCH  19  25
BRANCH  20  27
ATOM     27  C   UNL     1      -8.283  41.155   1.757  1.00  0.00     0.017 C 
ATOM     28  C   UNL     1      -9.002  42.073   0.758  1.00  0.00     0.012 C 
ATOM     29  C   UNL     1      -7.701  41.923   2.963  1.00  0.00     0.012 C 
ENDBRANCH  20  27
BRANCH  21  30
ATOM     30  O   UNL     1      -4.729  40.611  -1.560  1.00  0.00    -0.504 OA
ATOM     31  H   UNL     1      -3.751  40.379  -1.670  1.00  0.00     0.293 HD
ENDBRANCH  21  30
BRANCH  22  32
ATOM     32  O   UNL     1      -5.982  42.119   0.250  1.00  0.00    -0.504 OA
ATOM     33  H   UNL     1      -5.112  42.491   0.607  1.00  0.00     0.293 HD
ENDBRANCH  22  32
ENDBRANCH  11  12
BRANCH  10  34
ATOM     34  O   UNL     1      -8.006  34.331  -0.950  1.00  0.00    -0.507 OA
ATOM     35  H   UNL     1      -8.237  35.306  -1.088  1.00  0.00     0.293 HD
ENDBRANCH  10  34
BRANCH   9  36
ATOM     36  C   UNL     1      -7.821  29.433   3.063  1.00  0.00     0.017 C 
ATOM     37  C   UNL     1      -7.226  30.308   4.175  1.00  0.00     0.012 C 
ATOM     38  C   UNL     1      -9.065  28.634   3.514  1.00  0.00     0.012 C 
ENDBRANCH   9  36
BRANCH   6  39
ATOM     39  C   UNL     1      -9.125  32.127  -1.957  1.00  0.00     0.264 C 
ATOM     40  O   UNL     1      -8.527  31.999  -3.059  1.00  0.00    -0.298 OA
ENDBRANCH   6  39
BRANCH   8  41
ATOM     41  O   UNL     1      -8.091  28.076   0.610  1.00  0.00    -0.504 OA
ATOM     42  H   UNL     1      -7.400  27.594   1.167  1.00  0.00     0.293 HD
ENDBRANCH   8  41
BRANCH   7  43
ATOM     43  O   UNL     1      -9.009  29.368  -1.745  1.00  0.00    -0.504 OA
ATOM     44  H   UNL     1      -8.470  29.270  -2.594  1.00  0.00     0.293 HD
ENDBRANCH   7  43
TORSDOF 11
ENDMDL
MODEL 4
REMARK VINA RESULT:    -1.983      1.485      9.064
REMARK INTER + INTRA:          -0.515
REMARK INTER:                  -2.416
REMARK INTRA:                   1.901
REMARK UNBOUND:                 2.396
REMARK SMILES Cc1cc2c(C(C)C)c(O)c(O)c(C=O)c2c(O)c1-c1c(C)cc2c(C(C)C)c(O)c(O)c(C=O)c2c1O
REMARK SMILES IDX 1 1 2 2 3 3 4 4 16 5 13 6 11 7 9 8 5 9 17 10 19 11 20 12
REMARK SMILES IDX 37 13 21 14 36 15 23 16 22 17 24 18 33 19 25 20 31 21 29 22
REMARK SMILES IDX 38 23 34 25 35 26 26 27 27 28 28 29 32 30 30 32 18 34 6 36
REMARK SMILES IDX 7 37 8 38 14 39 15 40 10 41 12 43
REMARK H PARENT 38 24 32 31 30 33 18 35 10 42 12 44
REMARK Flexibility Score: inf
ROOT
ATOM      1  C   UNL     1      -4.438  35.231  -1.819  1.00  0.00     0.045 C 
ATOM      2  C   UNL     1      -5.227  36.257  -1.044  1.00  0.00    -0.039 A 
ATOM      3  C   UNL     1      -4.739  37.562  -0.940  1.00  0.00     0.013 A 
ATOM      4  C   UNL     1      -5.434  38.572  -0.245  1.00  0.00    -0.006 A 
ATOM      5  C   UNL     1      -6.674  38.237   0.380  1.00  0.00     0.039 A 
ATOM      6  C   UNL     1      -7.430  39.263   1.015  1.00  0.00     0.072 A 
ATOM      7  C   UNL     1      -6.885  40.549   1.163  1.00  0.00     0.169 A 
ATOM      8  C   UNL     1      -5.606  40.844   0.659  1.00  0.00     0.162 A 
ATOM      9  C   UNL     1      -4.911  39.903  -0.138  1.00  0.00     0.008 A 
ATOM     10  C   UNL     1      -7.105  36.876   0.377  1.00  0.00     0.132 A 
ATOM     11  C   UNL     1      -6.406  35.906  -0.369  1.00  0.00     0.031 A 
ENDROOT
BRANCH  11  12
ATOM     12  C   UNL     1      -6.907  34.507  -0.430  1.00  0.00     0.031 A 
ATOM     13  C   UNL     1      -7.034  33.743   0.750  1.00  0.00     0.132 A 
ATOM     14  C   UNL     1      -7.228  33.941  -1.671  1.00  0.00    -0.039 A 
ATOM     15  C   UNL     1      -7.519  32.399   0.695  1.00  0.00     0.039 A 
ATOM     16  C   UNL     1      -7.676  32.622  -1.731  1.00  0.00     0.013 A 
ATOM     17  C   UNL     1      -7.050  34.719  -2.953  1.00  0.00     0.045 C 
ATOM     18  C   UNL     1      -7.878  31.845  -0.574  1.00  0.00    -0.006 A 
ATOM     19  C   UNL     1      -7.625  31.579   1.859  1.00  0.00     0.072 A 
ATOM     20  C   UNL     1      -8.402  30.516  -0.658  1.00  0.00     0.008 A 
ATOM     21  C   UNL     1      -7.992  30.226   1.732  1.00  0.00     0.169 A 
ATOM     22  C   UNL     1      -8.323  29.691   0.489  1.00  0.00     0.162 A 
BRANCH  13  23
ATOM     23  O   UNL     1      -6.665  34.315   1.973  1.00  0.00    -0.507 OA
ATOM     24  H   UNL     1      -6.943  35.242   2.272  1.00  0.00     0.293 HD
ENDBRANCH  13  23
BRANCH  19  25
ATOM     25  C   UNL     1      -7.353  32.102   3.213  1.00  0.00     0.264 C 
ATOM     26  O   UNL     1      -6.314  31.756   3.836  1.00  0.00    -0.298 OA
ENDBRANCH  19  25
BRANCH  20  27
ATOM     27  C   UNL     1      -9.125  29.960  -1.901  1.00  0.00     0.017 C 
ATOM     28  C   UNL     1      -8.681  28.532  -2.248  1.00  0.00     0.012 C 
ATOM     29  C   UNL     1      -9.117  30.903  -3.124  1.00  0.00     0.012 C 
ENDBRANCH  20  27
BRANCH  21  30
ATOM     30  O   UNL     1      -8.062  29.370   2.837  1.00  0.00    -0.504 OA
ATOM     31  H   UNL     1      -8.616  28.525   2.867  1.00  0.00     0.293 HD
ENDBRANCH  21  30
BRANCH  22  32
ATOM     32  O   UNL     1      -8.573  28.315   0.440  1.00  0.00    -0.504 OA
ATOM     33  H   UNL     1      -9.334  27.896  -0.077  1.00  0.00     0.293 HD
ENDBRANCH  22  32
ENDBRANCH  11  12
BRANCH  10  34
ATOM     34  O   UNL     1      -8.201  36.481   1.154  1.00  0.00    -0.507 OA
ATOM     35  H   UNL     1      -8.831  35.730   0.901  1.00  0.00     0.293 HD
ENDBRANCH  10  34
BRANCH   9  36
ATOM     36  C   UNL     1      -3.603  40.370  -0.809  1.00  0.00     0.017 C 
ATOM     37  C   UNL     1      -2.363  39.991   0.014  1.00  0.00     0.012 C 
ATOM     38  C   UNL     1      -3.486  39.984  -2.300  1.00  0.00     0.012 C 
ENDBRANCH   9  36
BRANCH   6  39
ATOM     39  C   UNL     1      -8.841  39.058   1.428  1.00  0.00     0.264 C 
ATOM     40  O   UNL     1      -9.125  38.488   2.515  1.00  0.00    -0.298 OA
ENDBRANCH   6  39
BRANCH   8  41
ATOM     41  O   UNL     1      -5.001  42.073   0.944  1.00  0.00    -0.504 OA
ATOM     42  H   UNL     1      -4.178  42.182   1.519  1.00  0.00     0.293 HD
ENDBRANCH   8  41
BRANCH   7  43
ATOM     43  O   UNL     1      -7.661  41.540   1.778  1.00  0.00    -0.504 OA
ATOM     44  H   UNL     1      -8.509  41.357   2.296  1.00  0.00     0.293 HD
ENDBRANCH   7  43
TORSDOF 11
ENDMDL
MODEL 5
REMARK VINA RESULT:    -1.711      1.585      2.407
REMARK INTER + INTRA:          -0.114
REMARK INTER:                  -3.642
REMARK INTRA:                   3.528
REMARK UNBOUND:                 2.396
REMARK SMILES Cc1cc2c(C(C)C)c(O)c(O)c(C=O)c2c(O)c1-c1c(C)cc2c(C(C)C)c(O)c(O)c(C=O)c2c1O
REMARK SMILES IDX 1 1 2 2 3 3 4 4 16 5 13 6 11 7 9 8 5 9 17 10 19 11 20 12
REMARK SMILES IDX 37 13 21 14 36 15 23 16 22 17 24 18 33 19 25 20 31 21 29 22
REMARK SMILES IDX 38 23 34 25 35 26 26 27 27 28 28 29 32 30 30 32 18 34 6 36
REMARK SMILES IDX 7 37 8 38 14 39 15 40 10 41 12 43
REMARK H PARENT 38 24 32 31 30 33 18 35 10 42 12 44
REMARK Flexibility Score: inf
ROOT
ATOM      1  C   UNL     1      -8.270  33.072  -1.744  1.00  0.00     0.045 C 
ATOM      2  C   UNL     1      -8.116  32.384  -0.409  1.00  0.00    -0.039 A 
ATOM      3  C   UNL     1      -8.434  31.028  -0.297  1.00  0.00     0.013 A 
ATOM      4  C   UNL     1      -8.298  30.322   0.916  1.00  0.00    -0.006 A 
ATOM      5  C   UNL     1      -7.830  31.029   2.065  1.00  0.00     0.039 A 
ATOM      6  C   UNL     1      -7.608  30.314   3.276  1.00  0.00     0.072 A 
ATOM      7  C   UNL     1      -7.998  28.969   3.380  1.00  0.00     0.169 A 
ATOM      8  C   UNL     1      -8.580  28.308   2.284  1.00  0.00     0.162 A 
ATOM      9  C   UNL     1      -8.641  28.934   1.016  1.00  0.00     0.008 A 
ATOM     10  C   UNL     1      -7.627  32.439   1.976  1.00  0.00     0.132 A 
ATOM     11  C   UNL     1      -7.728  33.098   0.734  1.00  0.00     0.031 A 
ENDROOT
BRANCH  11  12
ATOM     12  C   UNL     1      -7.439  34.554   0.635  1.00  0.00     0.031 A 
ATOM     13  C   UNL     1      -6.467  35.028  -0.272  1.00  0.00     0.132 A 
ATOM     14  C   UNL     1      -8.120  35.453   1.469  1.00  0.00    -0.039 A 
ATOM     15  C   UNL     1      -6.190  36.427  -0.372  1.00  0.00     0.039 A 
ATOM     16  C   UNL     1      -7.832  36.815   1.392  1.00  0.00     0.013 A 
ATOM     17  C   UNL     1      -9.125  34.965   2.485  1.00  0.00     0.045 C 
ATOM     18  C   UNL     1      -6.917  37.337   0.458  1.00  0.00    -0.006 A 
ATOM     19  C   UNL     1      -5.188  36.944  -1.248  1.00  0.00     0.072 A 
ATOM     20  C   UNL     1      -6.690  38.746   0.355  1.00  0.00     0.008 A 
ATOM     21  C   UNL     1      -4.871  38.316  -1.217  1.00  0.00     0.169 A 
ATOM     22  C   UNL     1      -5.573  39.192  -0.393  1.00  0.00     0.162 A 
BRANCH  13  23
ATOM     23  O   UNL     1      -5.769  34.108  -1.062  1.00  0.00    -0.507 OA
ATOM     24  H   UNL     1      -5.820  33.103  -0.942  1.00  0.00     0.293 HD
ENDBRANCH  13  23
BRANCH  19  25
ATOM     25  C   UNL     1      -4.453  36.081  -2.194  1.00  0.00     0.264 C 
ATOM     26  O   UNL     1      -3.532  35.324  -1.787  1.00  0.00    -0.298 OA
ENDBRANCH  19  25
BRANCH  20  27
ATOM     27  C   UNL     1      -7.640  39.810   0.940  1.00  0.00     0.017 C 
ATOM     28  C   UNL     1      -7.909  39.596   2.437  1.00  0.00     0.012 C 
ATOM     29  C   UNL     1      -8.933  40.034   0.126  1.00  0.00     0.012 C 
ENDBRANCH  20  27
BRANCH  21  30
ATOM     30  O   UNL     1      -3.863  38.862  -2.021  1.00  0.00    -0.504 OA
ATOM     31  H   UNL     1      -3.009  39.268  -1.665  1.00  0.00     0.293 HD
ENDBRANCH  21  30
BRANCH  22  32
ATOM     32  O   UNL     1      -5.123  40.516  -0.349  1.00  0.00    -0.504 OA
ATOM     33  H   UNL     1      -5.226  41.122   0.454  1.00  0.00     0.293 HD
ENDBRANCH  22  32
ENDBRANCH  11  12
BRANCH  10  34
ATOM     34  O   UNL     1      -7.372  33.191   3.129  1.00  0.00    -0.507 OA
ATOM     35  H   UNL     1      -6.913  34.093   3.125  1.00  0.00     0.293 HD
ENDBRANCH  10  34
BRANCH   9  36
ATOM     36  C   UNL     1      -9.117  28.076  -0.176  1.00  0.00     0.017 C 
ATOM     37  C   UNL     1      -8.735  28.699  -1.526  1.00  0.00     0.012 C 
ATOM     38  C   UNL     1      -8.744  26.581  -0.066  1.00  0.00     0.012 C 
ENDBRANCH   9  36
BRANCH   6  39
ATOM     39  C   UNL     1      -6.861  30.907   4.413  1.00  0.00     0.264 C 
ATOM     40  O   UNL     1      -5.738  30.453   4.763  1.00  0.00    -0.298 OA
ENDBRANCH   6  39
BRANCH   8  41
ATOM     41  O   UNL     1      -9.111  27.022   2.435  1.00  0.00    -0.504 OA
ATOM     42  H   UNL     1      -8.973  26.442   3.251  1.00  0.00     0.293 HD
ENDBRANCH   8  41
BRANCH   7  43
ATOM     43  O   UNL     1      -7.751  28.290   4.580  1.00  0.00    -0.504 OA
ATOM     44  H   UNL     1      -6.965  28.477   5.188  1.00  0.00     0.293 HD
ENDBRANCH   7  43
TORSDOF 11
ENDMDL
