MODEL 1
REMARK VINA RESULT:    -3.014      0.000      0.000
REMARK INTER + INTRA:          -3.587
REMARK INTER:                  -3.542
REMARK INTRA:                  -0.045
REMARK UNBOUND:                -0.045
REMARK SMILES CCCCC(=O)[O-]
REMARK SMILES IDX 4 1 5 2 6 3 7 4 3 5 2 6 1 7
REMARK H PARENT
REMARK Flexibility Score: inf
ROOT
ATOM      1  C   UNL     1      15.873  15.635  29.370  1.00  0.00     0.053 C 
ENDROOT
BRANCH   1   2
ATOM      2  C   UNL     1      16.371  15.401  27.976  1.00  0.00     0.041 C 
ATOM      3  O   UNL     1      15.933  16.096  27.022  1.00  0.00    -0.550 OA
ATOM      4  O   UNL     1      17.343  14.439  27.735  1.00  0.00    -0.550 OA
ENDBRANCH   1   2
BRANCH   1   5
ATOM      5  C   UNL     1      16.996  15.559  30.419  1.00  0.00     0.006 C 
BRANCH   5   6
ATOM      6  C   UNL     1      16.990  14.261  31.246  1.00  0.00    -0.003 C 
ATOM      7  C   UNL     1      18.221  14.108  32.136  1.00  0.00     0.004 C 
ENDBRANCH   5   6
ENDBRANCH   1   5
TORSDOF 3
ENDMDL
MODEL 2
REMARK VINA RESULT:    -2.987      0.168      1.226
REMARK INTER + INTRA:          -3.556
REMARK INTER:                  -3.513
REMARK INTRA:                  -0.043
REMARK UNBOUND:                -0.045
REMARK SMILES CCCCC(=O)[O-]
REMARK SMILES IDX 4 1 5 2 6 3 7 4 3 5 2 6 1 7
REMARK H PARENT
REMARK Flexibility Score: inf
ROOT
ATOM      1  C   UNL     1      15.913  15.624  29.321  1.00  0.00     0.053 C 
ENDROOT
BRANCH   1   2
ATOM      2  C   UNL     1      16.515  15.478  27.957  1.00  0.00     0.041 C 
ATOM      3  O   UNL     1      17.531  14.754  27.786  1.00  0.00    -0.550 OA
ATOM      4  O   UNL     1      15.935  16.114  26.866  1.00  0.00    -0.550 OA
ENDBRANCH   1   2
BRANCH   1   5
ATOM      5  C   UNL     1      16.967  15.564  30.441  1.00  0.00     0.006 C 
BRANCH   5   6
ATOM      6  C   UNL     1      16.974  14.236  31.219  1.00  0.00    -0.003 C 
ATOM      7  C   UNL     1      18.184  14.082  32.137  1.00  0.00     0.004 C 
ENDBRANCH   5   6
ENDBRANCH   1   5
TORSDOF 3
ENDMDL
MODEL 3
REMARK VINA RESULT:    -2.941      1.009      1.137
REMARK INTER + INTRA:          -3.501
REMARK INTER:                  -3.455
REMARK INTRA:                  -0.046
REMARK UNBOUND:                -0.045
REMARK SMILES CCCCC(=O)[O-]
REMARK SMILES IDX 4 1 5 2 6 3 7 4 3 5 2 6 1 7
REMARK H PARENT
REMARK Flexibility Score: inf
ROOT
ATOM      1  C   UNL     1      16.218  16.007  29.725  1.00  0.00     0.053 C 
ENDROOT
BRANCH   1   2
ATOM      2  C   UNL     1      15.740  15.442  28.422  1.00  0.00     0.041 C 
ATOM      3  O   UNL     1      14.659  14.799  28.369  1.00  0.00    -0.550 OA
ATOM      4  O   UNL     1      16.470  15.654  27.260  1.00  0.00    -0.550 OA
ENDBRANCH   1   2
BRANCH   1   5
ATOM      5  C   UNL     1      17.414  15.230  30.303  1.00  0.00     0.006 C 
BRANCH   5   6
ATOM      6  C   UNL     1      17.014  14.111  31.282  1.00  0.00    -0.003 C 
ATOM      7  C   UNL     1      18.130  13.734  32.254  1.00  0.00     0.004 C 
ENDBRANCH   5   6
ENDBRANCH   1   5
TORSDOF 3
ENDMDL
MODEL 4
REMARK VINA RESULT:    -2.626      2.916      4.074
REMARK INTER + INTRA:          -3.131
REMARK INTER:                  -3.065
REMARK INTRA:                  -0.066
REMARK UNBOUND:                -0.045
REMARK SMILES CCCCC(=O)[O-]
REMARK SMILES IDX 4 1 5 2 6 3 7 4 3 5 2 6 1 7
REMARK H PARENT
REMARK Flexibility Score: inf
ROOT
ATOM      1  C   UNL     1      18.297  14.092  32.070  1.00  0.00     0.053 C 
ENDROOT
BRANCH   1   2
ATOM      2  C   UNL     1      19.423  13.566  31.233  1.00  0.00     0.041 C 
ATOM      3  O   UNL     1      20.423  14.291  30.986  1.00  0.00    -0.550 OA
ATOM      4  O   UNL     1      19.386  12.263  30.752  1.00  0.00    -0.550 OA
ENDBRANCH   1   2
BRANCH   1   5
ATOM      5  C   UNL     1      17.028  14.367  31.246  1.00  0.00     0.006 C 
BRANCH   5   6
ATOM      6  C   UNL     1      17.144  15.584  30.310  1.00  0.00    -0.003 C 
ATOM      7  C   UNL     1      15.940  15.750  29.386  1.00  0.00     0.004 C 
ENDBRANCH   5   6
ENDBRANCH   1   5
TORSDOF 3
ENDMDL
MODEL 5
REMARK VINA RESULT:    -2.593      1.360      1.963
REMARK INTER + INTRA:          -3.093
REMARK INTER:                  -3.064
REMARK INTRA:                  -0.029
REMARK UNBOUND:                -0.045
REMARK SMILES CCCCC(=O)[O-]
REMARK SMILES IDX 4 1 5 2 6 3 7 4 3 5 2 6 1 7
REMARK H PARENT
REMARK Flexibility Score: inf
ROOT
ATOM      1  C   UNL     1      16.820  14.922  27.648  1.00  0.00     0.053 C 
ENDROOT
BRANCH   1   2
ATOM      2  C   UNL     1      16.909  15.744  26.398  1.00  0.00     0.041 C 
ATOM      3  O   UNL     1      15.925  16.435  26.022  1.00  0.00    -0.550 OA
ATOM      4  O   UNL     1      18.088  15.773  25.665  1.00  0.00    -0.550 OA
ENDBRANCH   1   2
BRANCH   1   5
ATOM      5  C   UNL     1      15.914  15.565  28.713  1.00  0.00     0.006 C 
BRANCH   5   6
ATOM      6  C   UNL     1      16.647  15.928  30.017  1.00  0.00    -0.003 C 
ATOM      7  C   UNL     1      16.987  14.712  30.876  1.00  0.00     0.004 C 
ENDBRANCH   5   6
ENDBRANCH   1   5
TORSDOF 3
ENDMDL
MODEL 6
REMARK VINA RESULT:    -2.580      1.998      3.443
REMARK INTER + INTRA:          -3.077
REMARK INTER:                  -2.935
REMARK INTRA:                  -0.143
REMARK UNBOUND:                -0.045
REMARK SMILES CCCCC(=O)[O-]
REMARK SMILES IDX 4 1 5 2 6 3 7 4 3 5 2 6 1 7
REMARK H PARENT
REMARK Flexibility Score: inf
ROOT
ATOM      1  C   UNL     1      17.403  14.755  31.109  1.00  0.00     0.053 C 
ENDROOT
BRANCH   1   2
ATOM      2  C   UNL     1      18.039  13.687  30.271  1.00  0.00     0.041 C 
ATOM      3  O   UNL     1      17.666  12.489  30.381  1.00  0.00    -0.550 OA
ATOM      4  O   UNL     1      19.018  14.018  29.344  1.00  0.00    -0.550 OA
ENDBRANCH   1   2
BRANCH   1   5
ATOM      5  C   UNL     1      16.760  15.866  30.261  1.00  0.00     0.006 C 
BRANCH   5   6
ATOM      6  C   UNL     1      15.674  15.363  29.294  1.00  0.00    -0.003 C 
ATOM      7  C   UNL     1      15.976  15.682  27.831  1.00  0.00     0.004 C 
ENDBRANCH   5   6
ENDBRANCH   1   5
TORSDOF 3
ENDMDL
MODEL 7
REMARK VINA RESULT:    -2.553      1.786      2.489
REMARK INTER + INTRA:          -3.045
REMARK INTER:                  -3.025
REMARK INTRA:                  -0.020
REMARK UNBOUND:                -0.045
REMARK SMILES CCCCC(=O)[O-]
REMARK SMILES IDX 4 1 5 2 6 3 7 4 3 5 2 6 1 7
REMARK H PARENT
REMARK Flexibility Score: inf
ROOT
ATOM      1  C   UNL     1      17.379  15.036  30.720  1.00  0.00     0.053 C 
ENDROOT
BRANCH   1   2
ATOM      2  C   UNL     1      16.068  15.017  29.995  1.00  0.00     0.041 C 
ATOM      3  O   UNL     1      15.113  14.322  30.431  1.00  0.00    -0.550 OA
ATOM      4  O   UNL     1      15.889  15.793  28.857  1.00  0.00    -0.550 OA
ENDBRANCH   1   2
BRANCH   1   5
ATOM      5  C   UNL     1      17.452  13.980  31.837  1.00  0.00     0.006 C 
BRANCH   5   6
ATOM      6  C   UNL     1      18.775  13.994  32.623  1.00  0.00    -0.003 C 
ATOM      7  C   UNL     1      19.331  12.597  32.892  1.00  0.00     0.004 C 
ENDBRANCH   5   6
ENDBRANCH   1   5
TORSDOF 3
ENDMDL
MODEL 8
REMARK VINA RESULT:    -2.459      3.344      3.943
REMARK INTER + INTRA:          -2.935
REMARK INTER:                  -2.888
REMARK INTRA:                  -0.047
REMARK UNBOUND:                -0.045
REMARK SMILES CCCCC(=O)[O-]
REMARK SMILES IDX 4 1 5 2 6 3 7 4 3 5 2 6 1 7
REMARK H PARENT
REMARK Flexibility Score: inf
ROOT
ATOM      1  C   UNL     1      14.717  14.090  30.064  1.00  0.00     0.053 C 
ENDROOT
BRANCH   1   2
ATOM      2  C   UNL     1      13.406  13.839  30.743  1.00  0.00     0.041 C 
ATOM      3  O   UNL     1      13.304  12.930  31.609  1.00  0.00    -0.550 OA
ATOM      4  O   UNL     1      12.303  14.630  30.446  1.00  0.00    -0.550 OA
ENDBRANCH   1   2
BRANCH   1   5
ATOM      5  C   UNL     1      15.920  13.692  30.937  1.00  0.00     0.006 C 
BRANCH   5   6
ATOM      6  C   UNL     1      17.067  14.719  30.923  1.00  0.00    -0.003 C 
ATOM      7  C   UNL     1      16.738  15.979  30.127  1.00  0.00     0.004 C 
ENDBRANCH   5   6
ENDBRANCH   1   5
TORSDOF 3
ENDMDL
MODEL 9
REMARK VINA RESULT:    -2.417     10.521     11.162
REMARK INTER + INTRA:          -2.885
REMARK INTER:                  -2.771
REMARK INTRA:                  -0.115
REMARK UNBOUND:                -0.045
REMARK SMILES CCCCC(=O)[O-]
REMARK SMILES IDX 4 1 5 2 6 3 7 4 3 5 2 6 1 7
REMARK H PARENT
REMARK Flexibility Score: inf
ROOT
ATOM      1  C   UNL     1       7.439  19.630  26.755  1.00  0.00     0.053 C 
ENDROOT
BRANCH   1   2
ATOM      2  C   UNL     1       6.020  19.271  26.434  1.00  0.00     0.041 C 
ATOM      3  O   UNL     1       5.445  19.786  25.440  1.00  0.00    -0.550 OA
ATOM      4  O   UNL     1       5.342  18.342  27.213  1.00  0.00    -0.550 OA
ENDBRANCH   1   2
BRANCH   1   5
ATOM      5  C   UNL     1       8.385  18.419  26.686  1.00  0.00     0.006 C 
BRANCH   5   6
ATOM      6  C   UNL     1       8.620  17.893  25.259  1.00  0.00    -0.003 C 
ATOM      7  C   UNL     1       8.321  16.402  25.110  1.00  0.00     0.004 C 
ENDBRANCH   5   6
ENDBRANCH   1   5
TORSDOF 3
ENDMDL
