MODEL 1
REMARK VINA RESULT:    -3.896      0.000      0.000
REMARK INTER + INTRA:          -8.163
REMARK INTER:                  -7.313
REMARK INTRA:                  -0.850
REMARK UNBOUND:                -0.850
REMARK SMILES O=C([O-])CCCCCCCCCCCCCCC(=O)[O-]
REMARK SMILES IDX 10 1 9 2 8 3 7 4 6 5 5 6 4 7 2 8 1 9 3 10 11 11 12 12 13 13
REMARK SMILES IDX 14 14 15 15 16 16 17 17 18 18 19 19 20 20
REMARK H PARENT
REMARK Flexibility Score: inf
ROOT
ATOM      1  C   UNL     1      15.385  -5.838  10.828  1.00  0.00     0.000 C 
ENDROOT
BRANCH   1   2
ATOM      2  C   UNL     1      16.010  -6.238   9.477  1.00  0.00     0.000 C 
BRANCH   2   3
ATOM      3  C   UNL     1      17.495  -6.645   9.574  1.00  0.00     0.000 C 
BRANCH   3   4
ATOM      4  C   UNL     1      18.265  -6.357   8.276  1.00  0.00     0.000 C 
BRANCH   4   5
ATOM      5  C   UNL     1      17.589  -5.243   7.469  1.00  0.00     0.000 C 
BRANCH   5   6
ATOM      6  C   UNL     1      18.308  -3.902   7.673  1.00  0.00     0.006 C 
BRANCH   6   7
ATOM      7  C   UNL     1      19.785  -3.966   7.261  1.00  0.00     0.053 C 
BRANCH   7   8
ATOM      8  C   UNL     1      20.607  -2.937   7.975  1.00  0.00     0.041 C 
ATOM      9  O   UNL     1      20.479  -1.716   7.691  1.00  0.00    -0.550 OA
ATOM     10  O   UNL     1      21.539  -3.327   8.928  1.00  0.00    -0.550 OA
ENDBRANCH   7   8
ENDBRANCH   6   7
ENDBRANCH   5   6
ENDBRANCH   4   5
ENDBRANCH   3   4
ENDBRANCH   2   3
ENDBRANCH   1   2
BRANCH   1  11
ATOM     11  C   UNL     1      16.379  -5.704  11.994  1.00  0.00     0.000 C 
BRANCH  11  12
ATOM     12  C   UNL     1      15.856  -6.326  13.300  1.00  0.00     0.000 C 
BRANCH  12  13
ATOM     13  C   UNL     1      16.043  -5.399  14.512  1.00  0.00     0.000 C 
BRANCH  13  14
ATOM     14  C   UNL     1      15.919  -3.912  14.148  1.00  0.00     0.000 C 
BRANCH  14  15
ATOM     15  C   UNL     1      15.684  -3.059  15.403  1.00  0.00     0.000 C 
BRANCH  15  16
ATOM     16  C   UNL     1      15.107  -1.671  15.077  1.00  0.00     0.006 C 
BRANCH  16  17
ATOM     17  C   UNL     1      16.163  -0.707  14.521  1.00  0.00     0.053 C 
BRANCH  17  18
ATOM     18  C   UNL     1      16.289   0.493  15.404  1.00  0.00     0.041 C 
ATOM     19  O   UNL     1      16.013   1.639  14.960  1.00  0.00    -0.550 OA
ATOM     20  O   UNL     1      16.663   0.343  16.733  1.00  0.00    -0.550 OA
ENDBRANCH  17  18
ENDBRANCH  16  17
ENDBRANCH  15  16
ENDBRANCH  14  15
ENDBRANCH  13  14
ENDBRANCH  12  13
ENDBRANCH  11  12
ENDBRANCH   1  11
TORSDOF 15
ENDMDL
MODEL 2
REMARK VINA RESULT:    -3.875      7.033     10.671
REMARK INTER + INTRA:          -8.124
REMARK INTER:                  -7.244
REMARK INTRA:                  -0.880
REMARK UNBOUND:                -0.850
REMARK SMILES O=C([O-])CCCCCCCCCCCCCCC(=O)[O-]
REMARK SMILES IDX 10 1 9 2 8 3 7 4 6 5 5 6 4 7 2 8 1 9 3 10 11 11 12 12 13 13
REMARK SMILES IDX 14 14 15 15 16 16 17 17 18 18 19 19 20 20
REMARK H PARENT
REMARK Flexibility Score: inf
ROOT
ATOM      1  C   UNL     1      16.187   6.249  14.309  1.00  0.00     0.000 C 
ENDROOT
BRANCH   1   2
ATOM      2  C   UNL     1      15.042   6.511  13.310  1.00  0.00     0.000 C 
BRANCH   2   3
ATOM      3  C   UNL     1      15.131   7.881  12.606  1.00  0.00     0.000 C 
BRANCH   3   4
ATOM      4  C   UNL     1      16.565   8.432  12.581  1.00  0.00     0.000 C 
BRANCH   4   5
ATOM      5  C   UNL     1      17.300   8.002  11.307  1.00  0.00     0.000 C 
BRANCH   5   6
ATOM      6  C   UNL     1      17.639   9.217  10.431  1.00  0.00     0.006 C 
BRANCH   6   7
ATOM      7  C   UNL     1      18.792   8.929   9.460  1.00  0.00     0.053 C 
BRANCH   7   8
ATOM      8  C   UNL     1      19.596  10.160   9.170  1.00  0.00     0.041 C 
ATOM      9  O   UNL     1      20.426  10.165   8.223  1.00  0.00    -0.550 OA
ATOM     10  O   UNL     1      19.453  11.289   9.966  1.00  0.00    -0.550 OA
ENDBRANCH   7   8
ENDBRANCH   6   7
ENDBRANCH   5   6
ENDBRANCH   4   5
ENDBRANCH   3   4
ENDBRANCH   2   3
ENDBRANCH   1   2
BRANCH   1  11
ATOM     11  C   UNL     1      16.959   4.936  14.090  1.00  0.00     0.000 C 
BRANCH  11  12
ATOM     12  C   UNL     1      16.057   3.693  14.177  1.00  0.00     0.000 C 
BRANCH  12  13
ATOM     13  C   UNL     1      15.501   3.465  15.592  1.00  0.00     0.000 C 
BRANCH  13  14
ATOM     14  C   UNL     1      15.077   2.009  15.838  1.00  0.00     0.000 C 
BRANCH  14  15
ATOM     15  C   UNL     1      16.054   1.308  16.793  1.00  0.00     0.000 C 
BRANCH  15  16
ATOM     16  C   UNL     1      16.666   0.035  16.185  1.00  0.00     0.006 C 
BRANCH  16  17
ATOM     17  C   UNL     1      16.183  -0.227  14.752  1.00  0.00     0.053 C 
BRANCH  17  18
ATOM     18  C   UNL     1      15.465  -1.537  14.676  1.00  0.00     0.041 C 
ATOM     19  O   UNL     1      15.341  -2.128  13.570  1.00  0.00    -0.550 OA
ATOM     20  O   UNL     1      14.976  -2.131  15.832  1.00  0.00    -0.550 OA
ENDBRANCH  17  18
ENDBRANCH  16  17
ENDBRANCH  15  16
ENDBRANCH  14  15
ENDBRANCH  13  14
ENDBRANCH  12  13
ENDBRANCH  11  12
ENDBRANCH   1  11
TORSDOF 15
ENDMDL
MODEL 3
REMARK VINA RESULT:    -3.820      1.936      2.510
REMARK INTER + INTRA:          -8.019
REMARK INTER:                  -6.995
REMARK INTRA:                  -1.024
REMARK UNBOUND:                -0.850
REMARK SMILES O=C([O-])CCCCCCCCCCCCCCC(=O)[O-]
REMARK SMILES IDX 10 1 9 2 8 3 7 4 6 5 5 6 4 7 2 8 1 9 3 10 11 11 12 12 13 13
REMARK SMILES IDX 14 14 15 15 16 16 17 17 18 18 19 19 20 20
REMARK H PARENT
REMARK Flexibility Score: inf
ROOT
ATOM      1  C   UNL     1      16.938  -6.074  12.533  1.00  0.00     0.000 C 
ENDROOT
BRANCH   1   2
ATOM      2  C   UNL     1      15.717  -6.696  11.826  1.00  0.00     0.000 C 
BRANCH   2   3
ATOM      3  C   UNL     1      15.262  -5.921  10.572  1.00  0.00     0.000 C 
BRANCH   3   4
ATOM      4  C   UNL     1      15.108  -6.834   9.346  1.00  0.00     0.000 C 
BRANCH   4   5
ATOM      5  C   UNL     1      16.202  -6.556   8.309  1.00  0.00     0.000 C 
BRANCH   5   6
ATOM      6  C   UNL     1      17.034  -5.327   8.703  1.00  0.00     0.006 C 
BRANCH   6   7
ATOM      7  C   UNL     1      17.598  -4.591   7.480  1.00  0.00     0.053 C 
BRANCH   7   8
ATOM      8  C   UNL     1      18.423  -5.498   6.617  1.00  0.00     0.041 C 
ATOM      9  O   UNL     1      18.101  -5.694   5.416  1.00  0.00    -0.550 OA
ATOM     10  O   UNL     1      19.526  -6.152   7.150  1.00  0.00    -0.550 OA
ENDBRANCH   7   8
ENDBRANCH   6   7
ENDBRANCH   5   6
ENDBRANCH   4   5
ENDBRANCH   3   4
ENDBRANCH   2   3
ENDBRANCH   1   2
BRANCH   1  11
ATOM     11  C   UNL     1      17.001  -6.305  14.052  1.00  0.00     0.000 C 
BRANCH  11  12
ATOM     12  C   UNL     1      15.608  -6.378  14.703  1.00  0.00     0.000 C 
BRANCH  12  13
ATOM     13  C   UNL     1      15.222  -5.074  15.418  1.00  0.00     0.000 C 
BRANCH  13  14
ATOM     14  C   UNL     1      16.248  -3.951  15.204  1.00  0.00     0.000 C 
BRANCH  14  15
ATOM     15  C   UNL     1      15.756  -2.955  14.143  1.00  0.00     0.000 C 
BRANCH  15  16
ATOM     16  C   UNL     1      15.292  -1.621  14.752  1.00  0.00     0.006 C 
BRANCH  16  17
ATOM     17  C   UNL     1      16.351  -0.517  14.633  1.00  0.00     0.053 C 
BRANCH  17  18
ATOM     18  C   UNL     1      17.210  -0.485  15.857  1.00  0.00     0.041 C 
ATOM     19  O   UNL     1      18.260  -1.179  15.912  1.00  0.00    -0.550 OA
ATOM     20  O   UNL     1      16.880   0.349  16.917  1.00  0.00    -0.550 OA
ENDBRANCH  17  18
ENDBRANCH  16  17
ENDBRANCH  15  16
ENDBRANCH  14  15
ENDBRANCH  13  14
ENDBRANCH  12  13
ENDBRANCH  11  12
ENDBRANCH   1  11
TORSDOF 15
ENDMDL
MODEL 4
REMARK VINA RESULT:    -3.786     13.547     16.367
REMARK INTER + INTRA:          -7.956
REMARK INTER:                  -6.641
REMARK INTRA:                  -1.315
REMARK UNBOUND:                -0.850
REMARK SMILES O=C([O-])CCCCCCCCCCCCCCC(=O)[O-]
REMARK SMILES IDX 10 1 9 2 8 3 7 4 6 5 5 6 4 7 2 8 1 9 3 10 11 11 12 12 13 13
REMARK SMILES IDX 14 14 15 15 16 16 17 17 18 18 19 19 20 20
REMARK H PARENT
REMARK Flexibility Score: inf
ROOT
ATOM      1  C   UNL     1      23.555  10.508   5.001  1.00  0.00     0.000 C 
ENDROOT
BRANCH   1   2
ATOM      2  C   UNL     1      23.897  11.608   3.976  1.00  0.00     0.000 C 
BRANCH   2   3
ATOM      3  C   UNL     1      24.137  12.995   4.608  1.00  0.00     0.000 C 
BRANCH   3   4
ATOM      4  C   UNL     1      25.140  12.941   5.771  1.00  0.00     0.000 C 
BRANCH   4   5
ATOM      5  C   UNL     1      26.568  12.721   5.258  1.00  0.00     0.000 C 
BRANCH   5   6
ATOM      6  C   UNL     1      27.338  11.757   6.172  1.00  0.00     0.006 C 
BRANCH   6   7
ATOM      7  C   UNL     1      27.814  10.504   5.424  1.00  0.00     0.053 C 
BRANCH   7   8
ATOM      8  C   UNL     1      26.908   9.335   5.665  1.00  0.00     0.041 C 
ATOM      9  O   UNL     1      26.448   8.680   4.692  1.00  0.00    -0.550 OA
ATOM     10  O   UNL     1      26.544   8.991   6.960  1.00  0.00    -0.550 OA
ENDBRANCH   7   8
ENDBRANCH   6   7
ENDBRANCH   5   6
ENDBRANCH   4   5
ENDBRANCH   3   4
ENDBRANCH   2   3
ENDBRANCH   1   2
BRANCH   1  11
ATOM     11  C   UNL     1      22.182  10.651   5.679  1.00  0.00     0.000 C 
BRANCH  11  12
ATOM     12  C   UNL     1      22.287  10.897   7.194  1.00  0.00     0.000 C 
BRANCH  12  13
ATOM     13  C   UNL     1      21.272  11.938   7.694  1.00  0.00     0.000 C 
BRANCH  13  14
ATOM     14  C   UNL     1      20.527  11.484   8.958  1.00  0.00     0.000 C 
BRANCH  14  15
ATOM     15  C   UNL     1      20.421   9.953   9.011  1.00  0.00     0.000 C 
BRANCH  15  16
ATOM     16  C   UNL     1      18.989   9.449   8.762  1.00  0.00     0.006 C 
BRANCH  16  17
ATOM     17  C   UNL     1      18.626   8.242   9.637  1.00  0.00     0.053 C 
BRANCH  17  18
ATOM     18  C   UNL     1      17.649   8.642  10.696  1.00  0.00     0.041 C 
ATOM     19  O   UNL     1      17.232   9.829  10.759  1.00  0.00    -0.550 OA
ATOM     20  O   UNL     1      17.158   7.693  11.584  1.00  0.00    -0.550 OA
ENDBRANCH  17  18
ENDBRANCH  16  17
ENDBRANCH  15  16
ENDBRANCH  14  15
ENDBRANCH  13  14
ENDBRANCH  12  13
ENDBRANCH  11  12
ENDBRANCH   1  11
TORSDOF 15
ENDMDL
MODEL 5
REMARK VINA RESULT:    -3.762      7.489     11.756
REMARK INTER + INTRA:          -7.912
REMARK INTER:                  -6.073
REMARK INTRA:                  -1.839
REMARK UNBOUND:                -0.850
REMARK SMILES O=C([O-])CCCCCCCCCCCCCCC(=O)[O-]
REMARK SMILES IDX 10 1 9 2 8 3 7 4 6 5 5 6 4 7 2 8 1 9 3 10 11 11 12 12 13 13
REMARK SMILES IDX 14 14 15 15 16 16 17 17 18 18 19 19 20 20
REMARK H PARENT
REMARK Flexibility Score: inf
ROOT
ATOM      1  C   UNL     1      28.036   1.748   9.346  1.00  0.00     0.000 C 
ENDROOT
BRANCH   1   2
ATOM      2  C   UNL     1      27.464   0.725  10.348  1.00  0.00     0.000 C 
BRANCH   2   3
ATOM      3  C   UNL     1      26.190   0.011   9.850  1.00  0.00     0.000 C 
BRANCH   3   4
ATOM      4  C   UNL     1      26.337  -1.518   9.860  1.00  0.00     0.000 C 
BRANCH   4   5
ATOM      5  C   UNL     1      25.541  -2.156   8.716  1.00  0.00     0.000 C 
BRANCH   5   6
ATOM      6  C   UNL     1      24.602  -3.252   9.242  1.00  0.00     0.006 C 
BRANCH   6   7
ATOM      7  C   UNL     1      23.652  -2.731  10.328  1.00  0.00     0.053 C 
BRANCH   7   8
ATOM      8  C   UNL     1      23.387  -3.765  11.379  1.00  0.00     0.041 C 
ATOM      9  O   UNL     1      22.307  -4.412  11.372  1.00  0.00    -0.550 OA
ATOM     10  O   UNL     1      24.317  -3.989  12.386  1.00  0.00    -0.550 OA
ENDBRANCH   7   8
ENDBRANCH   6   7
ENDBRANCH   5   6
ENDBRANCH   4   5
ENDBRANCH   3   4
ENDBRANCH   2   3
ENDBRANCH   1   2
BRANCH   1  11
ATOM     11  C   UNL     1      28.772   1.140   8.140  1.00  0.00     0.000 C 
BRANCH  11  12
ATOM     12  C   UNL     1      28.584   1.960   6.851  1.00  0.00     0.000 C 
BRANCH  12  13
ATOM     13  C   UNL     1      28.039   1.114   5.689  1.00  0.00     0.000 C 
BRANCH  13  14
ATOM     14  C   UNL     1      27.007   0.072   6.144  1.00  0.00     0.000 C 
BRANCH  14  15
ATOM     15  C   UNL     1      25.585   0.506   5.758  1.00  0.00     0.000 C 
BRANCH  15  16
ATOM     16  C   UNL     1      24.939   1.424   6.810  1.00  0.00     0.006 C 
BRANCH  16  17
ATOM     17  C   UNL     1      24.674   2.838   6.278  1.00  0.00     0.053 C 
BRANCH  17  18
ATOM     18  C   UNL     1      23.274   2.948   5.765  1.00  0.00     0.041 C 
ATOM     19  O   UNL     1      22.318   2.458   6.422  1.00  0.00    -0.550 OA
ATOM     20  O   UNL     1      23.017   3.635   4.585  1.00  0.00    -0.550 OA
ENDBRANCH  17  18
ENDBRANCH  16  17
ENDBRANCH  15  16
ENDBRANCH  14  15
ENDBRANCH  13  14
ENDBRANCH  12  13
ENDBRANCH  11  12
ENDBRANCH   1  11
TORSDOF 15
ENDMDL
MODEL 6
REMARK VINA RESULT:    -3.707      5.958      7.548
REMARK INTER + INTRA:          -7.808
REMARK INTER:                  -5.520
REMARK INTRA:                  -2.289
REMARK UNBOUND:                -0.850
REMARK SMILES O=C([O-])CCCCCCCCCCCCCCC(=O)[O-]
REMARK SMILES IDX 10 1 9 2 8 3 7 4 6 5 5 6 4 7 2 8 1 9 3 10 11 11 12 12 13 13
REMARK SMILES IDX 14 14 15 15 16 16 17 17 18 18 19 19 20 20
REMARK H PARENT
REMARK Flexibility Score: inf
ROOT
ATOM      1  C   UNL     1      14.605  -3.092  16.490  1.00  0.00     0.000 C 
ENDROOT
BRANCH   1   2
ATOM      2  C   UNL     1      15.602  -2.924  15.326  1.00  0.00     0.000 C 
BRANCH   2   3
ATOM      3  C   UNL     1      15.288  -1.728  14.405  1.00  0.00     0.000 C 
BRANCH   3   4
ATOM      4  C   UNL     1      16.290  -0.576  14.581  1.00  0.00     0.000 C 
BRANCH   4   5
ATOM      5  C   UNL     1      17.469  -1.001  15.464  1.00  0.00     0.000 C 
BRANCH   5   6
ATOM      6  C   UNL     1      17.497  -0.194  16.770  1.00  0.00     0.006 C 
BRANCH   6   7
ATOM      7  C   UNL     1      17.505  -1.097  18.011  1.00  0.00     0.053 C 
BRANCH   7   8
ATOM      8  C   UNL     1      18.517  -2.195  17.894  1.00  0.00     0.041 C 
ATOM      9  O   UNL     1      18.154  -3.400  17.957  1.00  0.00    -0.550 OA
ATOM     10  O   UNL     1      19.864  -1.889  17.749  1.00  0.00    -0.550 OA
ENDBRANCH   7   8
ENDBRANCH   6   7
ENDBRANCH   5   6
ENDBRANCH   4   5
ENDBRANCH   3   4
ENDBRANCH   2   3
ENDBRANCH   1   2
BRANCH   1  11
ATOM     11  C   UNL     1      13.688  -1.884  16.744  1.00  0.00     0.000 C 
BRANCH  11  12
ATOM     12  C   UNL     1      13.880  -1.272  18.143  1.00  0.00     0.000 C 
BRANCH  12  13
ATOM     13  C   UNL     1      13.211   0.105  18.282  1.00  0.00     0.000 C 
BRANCH  13  14
ATOM     14  C   UNL     1      14.183   1.267  18.033  1.00  0.00     0.000 C 
BRANCH  14  15
ATOM     15  C   UNL     1      14.258   1.608  16.537  1.00  0.00     0.000 C 
BRANCH  15  16
ATOM     16  C   UNL     1      14.851   3.002  16.275  1.00  0.00     0.006 C 
BRANCH  16  17
ATOM     17  C   UNL     1      15.703   3.053  15.000  1.00  0.00     0.053 C 
BRANCH  17  18
ATOM     18  C   UNL     1      16.069   4.466  14.674  1.00  0.00     0.041 C 
ATOM     19  O   UNL     1      15.427   5.421  15.185  1.00  0.00    -0.550 OA
ATOM     20  O   UNL     1      17.151   4.730  13.845  1.00  0.00    -0.550 OA
ENDBRANCH  17  18
ENDBRANCH  16  17
ENDBRANCH  15  16
ENDBRANCH  14  15
ENDBRANCH  13  14
ENDBRANCH  12  13
ENDBRANCH  11  12
ENDBRANCH   1  11
TORSDOF 15
ENDMDL
MODEL 7
REMARK VINA RESULT:    -3.653      9.903     11.838
REMARK INTER + INTRA:          -7.706
REMARK INTER:                  -5.981
REMARK INTRA:                  -1.725
REMARK UNBOUND:                -0.850
REMARK SMILES O=C([O-])CCCCCCCCCCCCCCC(=O)[O-]
REMARK SMILES IDX 10 1 9 2 8 3 7 4 6 5 5 6 4 7 2 8 1 9 3 10 11 11 12 12 13 13
REMARK SMILES IDX 14 14 15 15 16 16 17 17 18 18 19 19 20 20
REMARK H PARENT
REMARK Flexibility Score: inf
ROOT
ATOM      1  C   UNL     1      18.480   7.425   4.025  1.00  0.00     0.000 C 
ENDROOT
BRANCH   1   2
ATOM      2  C   UNL     1      18.682   6.850   5.442  1.00  0.00     0.000 C 
BRANCH   2   3
ATOM      3  C   UNL     1      18.691   5.308   5.492  1.00  0.00     0.000 C 
BRANCH   3   4
ATOM      4  C   UNL     1      19.758   4.700   4.568  1.00  0.00     0.000 C 
BRANCH   4   5
ATOM      5  C   UNL     1      19.694   3.169   4.583  1.00  0.00     0.000 C 
BRANCH   5   6
ATOM      6  C   UNL     1      20.940   2.572   5.254  1.00  0.00     0.006 C 
BRANCH   6   7
ATOM      7  C   UNL     1      22.156   3.503   5.153  1.00  0.00     0.053 C 
BRANCH   7   8
ATOM      8  C   UNL     1      23.410   2.834   5.628  1.00  0.00     0.041 C 
ATOM      9  O   UNL     1      24.348   3.520   6.112  1.00  0.00    -0.550 OA
ATOM     10  O   UNL     1      23.555   1.459   5.505  1.00  0.00    -0.550 OA
ENDBRANCH   7   8
ENDBRANCH   6   7
ENDBRANCH   5   6
ENDBRANCH   4   5
ENDBRANCH   3   4
ENDBRANCH   2   3
ENDBRANCH   1   2
BRANCH   1  11
ATOM     11  C   UNL     1      17.203   6.956   3.306  1.00  0.00     0.000 C 
BRANCH  11  12
ATOM     12  C   UNL     1      17.497   6.231   1.981  1.00  0.00     0.000 C 
BRANCH  12  13
ATOM     13  C   UNL     1      16.809   4.859   1.894  1.00  0.00     0.000 C 
BRANCH  13  14
ATOM     14  C   UNL     1      15.762   4.648   2.998  1.00  0.00     0.000 C 
BRANCH  14  15
ATOM     15  C   UNL     1      15.864   3.233   3.586  1.00  0.00     0.000 C 
BRANCH  15  16
ATOM     16  C   UNL     1      14.732   2.920   4.578  1.00  0.00     0.006 C 
BRANCH  16  17
ATOM     17  C   UNL     1      14.748   3.842   5.804  1.00  0.00     0.053 C 
BRANCH  17  18
ATOM     18  C   UNL     1      13.374   4.361   6.084  1.00  0.00     0.041 C 
ATOM     19  O   UNL     1      12.792   5.100   5.246  1.00  0.00    -0.550 OA
ATOM     20  O   UNL     1      12.713   3.988   7.247  1.00  0.00    -0.550 OA
ENDBRANCH  17  18
ENDBRANCH  16  17
ENDBRANCH  15  16
ENDBRANCH  14  15
ENDBRANCH  13  14
ENDBRANCH  12  13
ENDBRANCH  11  12
ENDBRANCH   1  11
TORSDOF 15
ENDMDL
MODEL 8
REMARK VINA RESULT:    -3.625     10.405     12.790
REMARK INTER + INTRA:          -7.654
REMARK INTER:                  -5.422
REMARK INTRA:                  -2.232
REMARK UNBOUND:                -0.850
REMARK SMILES O=C([O-])CCCCCCCCCCCCCCC(=O)[O-]
REMARK SMILES IDX 10 1 9 2 8 3 7 4 6 5 5 6 4 7 2 8 1 9 3 10 11 11 12 12 13 13
REMARK SMILES IDX 14 14 15 15 16 16 17 17 18 18 19 19 20 20
REMARK H PARENT
REMARK Flexibility Score: inf
ROOT
ATOM      1  C   UNL     1      27.974  -1.087   6.516  1.00  0.00     0.000 C 
ENDROOT
BRANCH   1   2
ATOM      2  C   UNL     1      28.917   0.100   6.237  1.00  0.00     0.000 C 
BRANCH   2   3
ATOM      3  C   UNL     1      28.189   1.453   6.093  1.00  0.00     0.000 C 
BRANCH   3   4
ATOM      4  C   UNL     1      26.713   1.283   5.704  1.00  0.00     0.000 C 
BRANCH   4   5
ATOM      5  C   UNL     1      25.833   2.325   6.404  1.00  0.00     0.000 C 
BRANCH   5   6
ATOM      6  C   UNL     1      24.348   1.947   6.306  1.00  0.00     0.006 C 
BRANCH   6   7
ATOM      7  C   UNL     1      23.464   3.152   5.962  1.00  0.00     0.053 C 
BRANCH   7   8
ATOM      8  C   UNL     1      22.038   2.750   5.737  1.00  0.00     0.041 C 
ATOM      9  O   UNL     1      21.226   3.559   5.215  1.00  0.00    -0.550 OA
ATOM     10  O   UNL     1      21.597   1.495   6.136  1.00  0.00    -0.550 OA
ENDBRANCH   7   8
ENDBRANCH   6   7
ENDBRANCH   5   6
ENDBRANCH   4   5
ENDBRANCH   3   4
ENDBRANCH   2   3
ENDBRANCH   1   2
BRANCH   1  11
ATOM     11  C   UNL     1      27.871  -1.507   7.992  1.00  0.00     0.000 C 
BRANCH  11  12
ATOM     12  C   UNL     1      26.436  -1.416   8.540  1.00  0.00     0.000 C 
BRANCH  12  13
ATOM     13  C   UNL     1      26.114  -0.030   9.122  1.00  0.00     0.000 C 
BRANCH  13  14
ATOM     14  C   UNL     1      27.210   0.489  10.064  1.00  0.00     0.000 C 
BRANCH  14  15
ATOM     15  C   UNL     1      27.702   1.874   9.621  1.00  0.00     0.000 C 
BRANCH  15  16
ATOM     16  C   UNL     1      29.112   2.198  10.142  1.00  0.00     0.006 C 
BRANCH  16  17
ATOM     17  C   UNL     1      30.218   1.717   9.194  1.00  0.00     0.053 C 
BRANCH  17  18
ATOM     18  C   UNL     1      30.844   2.880   8.491  1.00  0.00     0.041 C 
ATOM     19  O   UNL     1      30.630   4.054   8.895  1.00  0.00    -0.550 OA
ATOM     20  O   UNL     1      31.704   2.666   7.422  1.00  0.00    -0.550 OA
ENDBRANCH  17  18
ENDBRANCH  16  17
ENDBRANCH  15  16
ENDBRANCH  14  15
ENDBRANCH  13  14
ENDBRANCH  12  13
ENDBRANCH  11  12
ENDBRANCH   1  11
TORSDOF 15
ENDMDL
MODEL 9
REMARK VINA RESULT:    -3.607      6.615     10.473
REMARK INTER + INTRA:          -7.621
REMARK INTER:                  -5.671
REMARK INTRA:                  -1.951
REMARK UNBOUND:                -0.850
REMARK SMILES O=C([O-])CCCCCCCCCCCCCCC(=O)[O-]
REMARK SMILES IDX 10 1 9 2 8 3 7 4 6 5 5 6 4 7 2 8 1 9 3 10 11 11 12 12 13 13
REMARK SMILES IDX 14 14 15 15 16 16 17 17 18 18 19 19 20 20
REMARK H PARENT
REMARK Flexibility Score: inf
ROOT
ATOM      1  C   UNL     1      21.769  -0.398   4.736  1.00  0.00     0.000 C 
ENDROOT
BRANCH   1   2
ATOM      2  C   UNL     1      23.251  -0.714   4.451  1.00  0.00     0.000 C 
BRANCH   2   3
ATOM      3  C   UNL     1      23.838  -1.816   5.358  1.00  0.00     0.000 C 
BRANCH   3   4
ATOM      4  C   UNL     1      23.015  -2.016   6.640  1.00  0.00     0.000 C 
BRANCH   4   5
ATOM      5  C   UNL     1      23.901  -2.498   7.794  1.00  0.00     0.000 C 
BRANCH   5   6
ATOM      6  C   UNL     1      23.370  -3.813   8.383  1.00  0.00     0.006 C 
BRANCH   6   7
ATOM      7  C   UNL     1      22.097  -3.605   9.215  1.00  0.00     0.053 C 
BRANCH   7   8
ATOM      8  C   UNL     1      22.400  -3.488  10.677  1.00  0.00     0.041 C 
ATOM      9  O   UNL     1      22.693  -2.369  11.176  1.00  0.00    -0.550 OA
ATOM     10  O   UNL     1      22.393  -4.619  11.483  1.00  0.00    -0.550 OA
ENDBRANCH   7   8
ENDBRANCH   6   7
ENDBRANCH   5   6
ENDBRANCH   4   5
ENDBRANCH   3   4
ENDBRANCH   2   3
ENDBRANCH   1   2
BRANCH   1  11
ATOM     11  C   UNL     1      21.418   1.099   4.784  1.00  0.00     0.000 C 
BRANCH  11  12
ATOM     12  C   UNL     1      22.045   1.821   5.990  1.00  0.00     0.000 C 
BRANCH  12  13
ATOM     13  C   UNL     1      22.935   3.003   5.572  1.00  0.00     0.000 C 
BRANCH  13  14
ATOM     14  C   UNL     1      24.340   2.937   6.188  1.00  0.00     0.000 C 
BRANCH  14  15
ATOM     15  C   UNL     1      25.317   2.215   5.248  1.00  0.00     0.000 C 
BRANCH  15  16
ATOM     16  C   UNL     1      26.121   1.115   5.961  1.00  0.00     0.006 C 
BRANCH  16  17
ATOM     17  C   UNL     1      25.555   0.771   7.345  1.00  0.00     0.053 C 
BRANCH  17  18
ATOM     18  C   UNL     1      26.586   1.005   8.403  1.00  0.00     0.041 C 
ATOM     19  O   UNL     1      26.475   0.452   9.529  1.00  0.00    -0.550 OA
ATOM     20  O   UNL     1      27.696   1.794   8.130  1.00  0.00    -0.550 OA
ENDBRANCH  17  18
ENDBRANCH  16  17
ENDBRANCH  15  16
ENDBRANCH  14  15
ENDBRANCH  13  14
ENDBRANCH  12  13
ENDBRANCH  11  12
ENDBRANCH   1  11
TORSDOF 15
ENDMDL
