MODEL 1
REMARK VINA RESULT:    -4.390      0.000      0.000
REMARK INTER + INTRA:          -8.934
REMARK INTER:                  -7.726
REMARK INTRA:                  -1.208
REMARK UNBOUND:                -1.208
REMARK SMILES CCCCCCC=CCCCCCCCC(=O)[O-]
REMARK SMILES IDX 10 1 11 2 12 3 13 4 14 5 15 6 16 7 17 8 18 9 9 10 8 11 7 12
REMARK SMILES IDX 6 13 5 14 4 15 3 16 2 17 1 18
REMARK H PARENT
REMARK Flexibility Score: inf
ROOT
ATOM      1  C   UNL     1      -5.178   6.357  -1.361  1.00  0.00     0.004 C 
ENDROOT
BRANCH   1   2
ATOM      2  C   UNL     1      -6.395   5.445  -1.609  1.00  0.00     0.000 C 
BRANCH   2   3
ATOM      3  C   UNL     1      -6.624   5.049  -3.081  1.00  0.00     0.000 C 
BRANCH   3   4
ATOM      4  C   UNL     1      -5.464   4.280  -3.739  1.00  0.00     0.000 C 
BRANCH   4   5
ATOM      5  C   UNL     1      -5.049   4.872  -5.096  1.00  0.00     0.006 C 
BRANCH   5   6
ATOM      6  C   UNL     1      -4.076   6.049  -4.942  1.00  0.00     0.053 C 
BRANCH   6   7
ATOM      7  C   UNL     1      -3.159   6.173  -6.119  1.00  0.00     0.041 C 
ATOM      8  O   UNL     1      -2.513   7.236  -6.310  1.00  0.00    -0.550 OA
ATOM      9  O   UNL     1      -2.994   5.102  -6.989  1.00  0.00    -0.550 OA
ENDBRANCH   6   7
ENDBRANCH   5   6
ENDBRANCH   4   5
ENDBRANCH   3   4
ENDBRANCH   2   3
ENDBRANCH   1   2
BRANCH   1  10
ATOM     10  C   UNL     1      -4.769   6.487   0.118  1.00  0.00     0.027 C 
BRANCH  10  11
ATOM     11  C   UNL     1      -3.273   6.464   0.333  1.00  0.00    -0.031 C 
ATOM     12  C   UNL     1      -2.649   6.002   1.432  1.00  0.00    -0.031 C 
BRANCH  12  13
ATOM     13  C   UNL     1      -3.331   5.462   2.666  1.00  0.00     0.027 C 
BRANCH  13  14
ATOM     14  C   UNL     1      -3.604   3.953   2.555  1.00  0.00     0.004 C 
BRANCH  14  15
ATOM     15  C   UNL     1      -5.097   3.564   2.567  1.00  0.00     0.000 C 
BRANCH  15  16
ATOM     16  C   UNL     1      -5.612   2.893   1.278  1.00  0.00    -0.000 C 
BRANCH  16  17
ATOM     17  C   UNL     1      -6.150   1.464   1.462  1.00  0.00    -0.003 C 
ATOM     18  C   UNL     1      -5.041   0.420   1.581  1.00  0.00     0.004 C 
ENDBRANCH  16  17
ENDBRANCH  15  16
ENDBRANCH  14  15
ENDBRANCH  13  14
ENDBRANCH  12  13
ENDBRANCH  10  11
ENDBRANCH   1  10
TORSDOF 13
ENDMDL
MODEL 2
REMARK VINA RESULT:    -4.374      1.068      3.098
REMARK INTER + INTRA:          -8.906
REMARK INTER:                  -7.683
REMARK INTRA:                  -1.223
REMARK UNBOUND:                -1.208
REMARK SMILES CCCCCCC=CCCCCCCCC(=O)[O-]
REMARK SMILES IDX 10 1 11 2 12 3 13 4 14 5 15 6 16 7 17 8 18 9 9 10 8 11 7 12
REMARK SMILES IDX 6 13 5 14 4 15 3 16 2 17 1 18
REMARK H PARENT
REMARK Flexibility Score: inf
ROOT
ATOM      1  C   UNL     1      -6.255   4.659  -0.928  1.00  0.00     0.004 C 
ENDROOT
BRANCH   1   2
ATOM      2  C   UNL     1      -5.831   6.052  -1.434  1.00  0.00     0.000 C 
BRANCH   2   3
ATOM      3  C   UNL     1      -5.652   6.164  -2.961  1.00  0.00     0.000 C 
BRANCH   3   4
ATOM      4  C   UNL     1      -5.612   4.822  -3.714  1.00  0.00     0.000 C 
BRANCH   4   5
ATOM      5  C   UNL     1      -4.663   4.845  -4.924  1.00  0.00     0.006 C 
BRANCH   5   6
ATOM      6  C   UNL     1      -3.734   6.067  -4.908  1.00  0.00     0.053 C 
BRANCH   6   7
ATOM      7  C   UNL     1      -2.993   6.220  -6.200  1.00  0.00     0.041 C 
ATOM      8  O   UNL     1      -2.367   7.284  -6.449  1.00  0.00    -0.550 OA
ATOM      9  O   UNL     1      -2.967   5.176  -7.117  1.00  0.00    -0.550 OA
ENDBRANCH   6   7
ENDBRANCH   5   6
ENDBRANCH   4   5
ENDBRANCH   3   4
ENDBRANCH   2   3
ENDBRANCH   1   2
BRANCH   1  10
ATOM     10  C   UNL     1      -6.202   4.492   0.602  1.00  0.00     0.027 C 
BRANCH  10  11
ATOM     11  C   UNL     1      -5.902   3.079   1.044  1.00  0.00    -0.031 C 
ATOM     12  C   UNL     1      -5.244   2.733   2.166  1.00  0.00    -0.031 C 
BRANCH  12  13
ATOM     13  C   UNL     1      -4.649   3.697   3.164  1.00  0.00     0.027 C 
BRANCH  13  14
ATOM     14  C   UNL     1      -3.126   3.524   3.289  1.00  0.00     0.004 C 
BRANCH  14  15
ATOM     15  C   UNL     1      -2.333   4.842   3.400  1.00  0.00     0.000 C 
BRANCH  15  16
ATOM     16  C   UNL     1      -1.777   5.389   2.069  1.00  0.00    -0.000 C 
BRANCH  16  17
ATOM     17  C   UNL     1      -2.829   6.012   1.136  1.00  0.00    -0.003 C 
ATOM     18  C   UNL     1      -3.226   7.429   1.547  1.00  0.00     0.004 C 
ENDBRANCH  16  17
ENDBRANCH  15  16
ENDBRANCH  14  15
ENDBRANCH  13  14
ENDBRANCH  12  13
ENDBRANCH  10  11
ENDBRANCH   1  10
TORSDOF 13
ENDMDL
MODEL 3
REMARK VINA RESULT:    -4.349     14.774     17.883
REMARK INTER + INTRA:          -8.862
REMARK INTER:                  -7.013
REMARK INTRA:                  -1.849
REMARK UNBOUND:                -1.208
REMARK SMILES CCCCCCC=CCCCCCCCC(=O)[O-]
REMARK SMILES IDX 10 1 11 2 12 3 13 4 14 5 15 6 16 7 17 8 18 9 9 10 8 11 7 12
REMARK SMILES IDX 6 13 5 14 4 15 3 16 2 17 1 18
REMARK H PARENT
REMARK Flexibility Score: inf
ROOT
ATOM      1  C   UNL     1       6.283  -3.175 -12.835  1.00  0.00     0.004 C 
ENDROOT
BRANCH   1   2
ATOM      2  C   UNL     1       5.605  -2.120 -13.732  1.00  0.00     0.000 C 
BRANCH   2   3
ATOM      3  C   UNL     1       5.603  -0.687 -13.166  1.00  0.00     0.000 C 
BRANCH   3   4
ATOM      4  C   UNL     1       4.730   0.319 -13.937  1.00  0.00     0.000 C 
BRANCH   4   5
ATOM      5  C   UNL     1       5.307   1.745 -13.922  1.00  0.00     0.006 C 
BRANCH   5   6
ATOM      6  C   UNL     1       4.207   2.814 -13.861  1.00  0.00     0.053 C 
BRANCH   6   7
ATOM      7  C   UNL     1       4.308   3.648 -12.622  1.00  0.00     0.041 C 
ATOM      8  O   UNL     1       5.343   3.600 -11.908  1.00  0.00    -0.550 OA
ATOM      9  O   UNL     1       3.270   4.503 -12.271  1.00  0.00    -0.550 OA
ENDBRANCH   6   7
ENDBRANCH   5   6
ENDBRANCH   4   5
ENDBRANCH   3   4
ENDBRANCH   2   3
ENDBRANCH   1   2
BRANCH   1  10
ATOM     10  C   UNL     1       6.405  -2.769 -11.355  1.00  0.00     0.027 C 
BRANCH  10  11
ATOM     11  C   UNL     1       7.759  -3.074 -10.757  1.00  0.00    -0.031 C 
ATOM     12  C   UNL     1       8.863  -2.316 -10.893  1.00  0.00    -0.031 C 
BRANCH  12  13
ATOM     13  C   UNL     1       8.958  -1.045 -11.702  1.00  0.00     0.027 C 
BRANCH  13  14
ATOM     14  C   UNL     1       9.470  -1.311 -13.128  1.00  0.00     0.004 C 
BRANCH  14  15
ATOM     15  C   UNL     1      10.496  -2.457 -13.243  1.00  0.00     0.000 C 
BRANCH  15  16
ATOM     16  C   UNL     1      10.216  -3.482 -14.361  1.00  0.00    -0.000 C 
BRANCH  16  17
ATOM     17  C   UNL     1       9.264  -4.624 -13.968  1.00  0.00    -0.003 C 
ATOM     18  C   UNL     1       9.787  -5.461 -12.802  1.00  0.00     0.004 C 
ENDBRANCH  16  17
ENDBRANCH  15  16
ENDBRANCH  14  15
ENDBRANCH  13  14
ENDBRANCH  12  13
ENDBRANCH  10  11
ENDBRANCH   1  10
TORSDOF 13
ENDMDL
MODEL 4
REMARK VINA RESULT:    -4.341     15.506     17.979
REMARK INTER + INTRA:          -8.848
REMARK INTER:                  -6.409
REMARK INTRA:                  -2.439
REMARK UNBOUND:                -1.208
REMARK SMILES CCCCCCC=CCCCCCCCC(=O)[O-]
REMARK SMILES IDX 10 1 11 2 12 3 13 4 14 5 15 6 16 7 17 8 18 9 9 10 8 11 7 12
REMARK SMILES IDX 6 13 5 14 4 15 3 16 2 17 1 18
REMARK H PARENT
REMARK Flexibility Score: inf
ROOT
ATOM      1  C   UNL     1       6.089  -2.147 -12.111  1.00  0.00     0.004 C 
ENDROOT
BRANCH   1   2
ATOM      2  C   UNL     1       5.667  -2.680 -13.495  1.00  0.00     0.000 C 
BRANCH   2   3
ATOM      3  C   UNL     1       5.222  -1.601 -14.501  1.00  0.00     0.000 C 
BRANCH   3   4
ATOM      4  C   UNL     1       4.744  -0.280 -13.872  1.00  0.00     0.000 C 
BRANCH   4   5
ATOM      5  C   UNL     1       5.243   0.959 -14.636  1.00  0.00     0.006 C 
BRANCH   5   6
ATOM      6  C   UNL     1       5.748   2.058 -13.692  1.00  0.00     0.053 C 
BRANCH   6   7
ATOM      7  C   UNL     1       4.641   2.962 -13.246  1.00  0.00     0.041 C 
ATOM      8  O   UNL     1       4.705   3.539 -12.128  1.00  0.00    -0.550 OA
ATOM      9  O   UNL     1       3.552   3.193 -14.077  1.00  0.00    -0.550 OA
ENDBRANCH   6   7
ENDBRANCH   5   6
ENDBRANCH   4   5
ENDBRANCH   3   4
ENDBRANCH   2   3
ENDBRANCH   1   2
BRANCH   1  10
ATOM     10  C   UNL     1       6.385  -3.242 -11.070  1.00  0.00     0.027 C 
BRANCH  10  11
ATOM     11  C   UNL     1       7.834  -3.292 -10.645  1.00  0.00    -0.031 C 
ATOM     12  C   UNL     1       8.821  -3.929 -11.303  1.00  0.00    -0.031 C 
BRANCH  12  13
ATOM     13  C   UNL     1       8.649  -4.744 -12.562  1.00  0.00     0.027 C 
BRANCH  13  14
ATOM     14  C   UNL     1       9.111  -3.974 -13.811  1.00  0.00     0.004 C 
BRANCH  14  15
ATOM     15  C   UNL     1       9.671  -2.565 -13.530  1.00  0.00     0.000 C 
BRANCH  15  16
ATOM     16  C   UNL     1       9.100  -1.441 -14.419  1.00  0.00    -0.000 C 
BRANCH  16  17
ATOM     17  C   UNL     1       8.757  -0.139 -13.676  1.00  0.00    -0.003 C 
ATOM     18  C   UNL     1       9.127  -0.184 -12.194  1.00  0.00     0.004 C 
ENDBRANCH  16  17
ENDBRANCH  15  16
ENDBRANCH  14  15
ENDBRANCH  13  14
ENDBRANCH  12  13
ENDBRANCH  10  11
ENDBRANCH   1  10
TORSDOF 13
ENDMDL
MODEL 5
REMARK VINA RESULT:    -4.318     16.604     19.080
REMARK INTER + INTRA:          -8.808
REMARK INTER:                  -6.169
REMARK INTRA:                  -2.638
REMARK UNBOUND:                -1.208
REMARK SMILES CCCCCCC=CCCCCCCCC(=O)[O-]
REMARK SMILES IDX 10 1 11 2 12 3 13 4 14 5 15 6 16 7 17 8 18 9 9 10 8 11 7 12
REMARK SMILES IDX 6 13 5 14 4 15 3 16 2 17 1 18
REMARK H PARENT
REMARK Flexibility Score: inf
ROOT
ATOM      1  C   UNL     1       8.508  -2.581 -10.790  1.00  0.00     0.004 C 
ENDROOT
BRANCH   1   2
ATOM      2  C   UNL     1       7.635  -1.681 -11.687  1.00  0.00     0.000 C 
BRANCH   2   3
ATOM      3  C   UNL     1       6.225  -2.229 -11.986  1.00  0.00     0.000 C 
BRANCH   3   4
ATOM      4  C   UNL     1       5.793  -2.148 -13.461  1.00  0.00     0.000 C 
BRANCH   4   5
ATOM      5  C   UNL     1       6.595  -1.109 -14.262  1.00  0.00     0.006 C 
BRANCH   5   6
ATOM      6  C   UNL     1       5.729   0.081 -14.697  1.00  0.00     0.053 C 
BRANCH   6   7
ATOM      7  C   UNL     1       5.694   1.155 -13.654  1.00  0.00     0.041 C 
ATOM      8  O   UNL     1       4.622   1.770 -13.414  1.00  0.00    -0.550 OA
ATOM      9  O   UNL     1       6.838   1.458 -12.927  1.00  0.00    -0.550 OA
ENDBRANCH   6   7
ENDBRANCH   5   6
ENDBRANCH   4   5
ENDBRANCH   3   4
ENDBRANCH   2   3
ENDBRANCH   1   2
BRANCH   1  10
ATOM     10  C   UNL     1       8.061  -4.054 -10.738  1.00  0.00     0.027 C 
BRANCH  10  11
ATOM     11  C   UNL     1       9.070  -5.010 -11.330  1.00  0.00    -0.031 C 
ATOM     12  C   UNL     1       9.125  -5.389 -12.621  1.00  0.00    -0.031 C 
BRANCH  12  13
ATOM     13  C   UNL     1       8.161  -4.960 -13.701  1.00  0.00     0.027 C 
BRANCH  13  14
ATOM     14  C   UNL     1       8.839  -4.065 -14.752  1.00  0.00     0.004 C 
BRANCH  14  15
ATOM     15  C   UNL     1      10.182  -3.451 -14.308  1.00  0.00     0.000 C 
BRANCH  15  16
ATOM     16  C   UNL     1      10.251  -1.911 -14.361  1.00  0.00    -0.000 C 
BRANCH  16  17
ATOM     17  C   UNL     1      11.031  -1.258 -13.208  1.00  0.00    -0.003 C 
ATOM     18  C   UNL     1      10.636   0.199 -12.971  1.00  0.00     0.004 C 
ENDBRANCH  16  17
ENDBRANCH  15  16
ENDBRANCH  14  15
ENDBRANCH  13  14
ENDBRANCH  12  13
ENDBRANCH  10  11
ENDBRANCH   1  10
TORSDOF 13
ENDMDL
MODEL 6
REMARK VINA RESULT:    -4.312     15.700     17.558
REMARK INTER + INTRA:          -8.796
REMARK INTER:                  -6.857
REMARK INTRA:                  -1.939
REMARK UNBOUND:                -1.208
REMARK SMILES CCCCCCC=CCCCCCCCC(=O)[O-]
REMARK SMILES IDX 10 1 11 2 12 3 13 4 14 5 15 6 16 7 17 8 18 9 9 10 8 11 7 12
REMARK SMILES IDX 6 13 5 14 4 15 3 16 2 17 1 18
REMARK H PARENT
REMARK Flexibility Score: inf
ROOT
ATOM      1  C   UNL     1       4.524   0.927 -13.827  1.00  0.00     0.004 C 
ENDROOT
BRANCH   1   2
ATOM      2  C   UNL     1       5.347  -0.071 -14.665  1.00  0.00     0.000 C 
BRANCH   2   3
ATOM      3  C   UNL     1       5.298  -1.530 -14.174  1.00  0.00     0.000 C 
BRANCH   3   4
ATOM      4  C   UNL     1       6.649  -2.269 -14.184  1.00  0.00     0.000 C 
BRANCH   4   5
ATOM      5  C   UNL     1       6.782  -3.286 -13.039  1.00  0.00     0.006 C 
BRANCH   5   6
ATOM      6  C   UNL     1       6.410  -2.680 -11.679  1.00  0.00     0.053 C 
BRANCH   6   7
ATOM      7  C   UNL     1       6.770  -3.589 -10.545  1.00  0.00     0.041 C 
ATOM      8  O   UNL     1       7.970  -3.702 -10.179  1.00  0.00    -0.550 OA
ATOM      9  O   UNL     1       5.777  -4.290  -9.872  1.00  0.00    -0.550 OA
ENDBRANCH   6   7
ENDBRANCH   5   6
ENDBRANCH   4   5
ENDBRANCH   3   4
ENDBRANCH   2   3
ENDBRANCH   1   2
BRANCH   1  10
ATOM     10  C   UNL     1       4.441   2.345 -14.423  1.00  0.00     0.027 C 
BRANCH  10  11
ATOM     11  C   UNL     1       4.245   3.424 -13.384  1.00  0.00    -0.031 C 
ATOM     12  C   UNL     1       5.213   4.217 -12.889  1.00  0.00    -0.031 C 
BRANCH  12  13
ATOM     13  C   UNL     1       6.677   4.143 -13.250  1.00  0.00     0.027 C 
BRANCH  13  14
ATOM     14  C   UNL     1       7.429   3.117 -12.386  1.00  0.00     0.004 C 
BRANCH  14  15
ATOM     15  C   UNL     1       8.129   1.994 -13.178  1.00  0.00     0.000 C 
BRANCH  15  16
ATOM     16  C   UNL     1       8.185   0.625 -12.470  1.00  0.00    -0.000 C 
BRANCH  16  17
ATOM     17  C   UNL     1       9.476  -0.175 -12.709  1.00  0.00    -0.003 C 
ATOM     18  C   UNL     1       9.822  -1.109 -11.550  1.00  0.00     0.004 C 
ENDBRANCH  16  17
ENDBRANCH  15  16
ENDBRANCH  14  15
ENDBRANCH  13  14
ENDBRANCH  12  13
ENDBRANCH  10  11
ENDBRANCH   1  10
TORSDOF 13
ENDMDL
MODEL 7
REMARK VINA RESULT:    -4.309      2.115      3.232
REMARK INTER + INTRA:          -8.791
REMARK INTER:                  -7.851
REMARK INTRA:                  -0.940
REMARK UNBOUND:                -1.208
REMARK SMILES CCCCCCC=CCCCCCCCC(=O)[O-]
REMARK SMILES IDX 10 1 11 2 12 3 13 4 14 5 15 6 16 7 17 8 18 9 9 10 8 11 7 12
REMARK SMILES IDX 6 13 5 14 4 15 3 16 2 17 1 18
REMARK H PARENT
REMARK Flexibility Score: inf
ROOT
ATOM      1  C   UNL     1      -5.293   6.135  -3.427  1.00  0.00     0.004 C 
ENDROOT
BRANCH   1   2
ATOM      2  C   UNL     1      -5.394   4.652  -3.836  1.00  0.00     0.000 C 
BRANCH   2   3
ATOM      3  C   UNL     1      -6.336   4.367  -5.022  1.00  0.00     0.000 C 
BRANCH   3   4
ATOM      4  C   UNL     1      -6.565   5.554  -5.975  1.00  0.00     0.000 C 
BRANCH   4   5
ATOM      5  C   UNL     1      -5.550   5.598  -7.129  1.00  0.00     0.006 C 
BRANCH   5   6
ATOM      6  C   UNL     1      -4.571   6.773  -6.994  1.00  0.00     0.053 C 
BRANCH   6   7
ATOM      7  C   UNL     1      -3.153   6.306  -6.876  1.00  0.00     0.041 C 
ATOM      8  O   UNL     1      -2.266   7.080  -6.430  1.00  0.00    -0.550 OA
ATOM      9  O   UNL     1      -2.815   5.006  -7.231  1.00  0.00    -0.550 OA
ENDBRANCH   6   7
ENDBRANCH   5   6
ENDBRANCH   4   5
ENDBRANCH   3   4
ENDBRANCH   2   3
ENDBRANCH   1   2
BRANCH   1  10
ATOM     10  C   UNL     1      -6.006   6.483  -2.107  1.00  0.00     0.027 C 
BRANCH  10  11
ATOM     11  C   UNL     1      -5.890   5.402  -1.058  1.00  0.00    -0.031 C 
ATOM     12  C   UNL     1      -5.238   5.517   0.114  1.00  0.00    -0.031 C 
BRANCH  12  13
ATOM     13  C   UNL     1      -4.468   6.731   0.573  1.00  0.00     0.027 C 
BRANCH  13  14
ATOM     14  C   UNL     1      -3.011   6.387   0.923  1.00  0.00     0.004 C 
BRANCH  14  15
ATOM     15  C   UNL     1      -2.833   5.572   2.220  1.00  0.00     0.000 C 
BRANCH  15  16
ATOM     16  C   UNL     1      -1.415   5.015   2.458  1.00  0.00    -0.000 C 
BRANCH  16  17
ATOM     17  C   UNL     1      -1.289   4.051   3.650  1.00  0.00    -0.003 C 
ATOM     18  C   UNL     1       0.157   3.841   4.096  1.00  0.00     0.004 C 
ENDBRANCH  16  17
ENDBRANCH  15  16
ENDBRANCH  14  15
ENDBRANCH  13  14
ENDBRANCH  12  13
ENDBRANCH  10  11
ENDBRANCH   1  10
TORSDOF 13
ENDMDL
MODEL 8
REMARK VINA RESULT:    -4.285     15.639     18.332
REMARK INTER + INTRA:          -8.750
REMARK INTER:                  -6.695
REMARK INTRA:                  -2.055
REMARK UNBOUND:                -1.208
REMARK SMILES CCCCCCC=CCCCCCCCC(=O)[O-]
REMARK SMILES IDX 10 1 11 2 12 3 13 4 14 5 15 6 16 7 17 8 18 9 9 10 8 11 7 12
REMARK SMILES IDX 6 13 5 14 4 15 3 16 2 17 1 18
REMARK H PARENT
REMARK Flexibility Score: inf
ROOT
ATOM      1  C   UNL     1       9.855  -1.878 -12.868  1.00  0.00     0.004 C 
ENDROOT
BRANCH   1   2
ATOM      2  C   UNL     1       9.736  -3.011 -13.906  1.00  0.00     0.000 C 
BRANCH   2   3
ATOM      3  C   UNL     1       8.439  -3.839 -13.823  1.00  0.00     0.000 C 
BRANCH   3   4
ATOM      4  C   UNL     1       7.142  -3.046 -14.066  1.00  0.00     0.000 C 
BRANCH   4   5
ATOM      5  C   UNL     1       6.088  -3.275 -12.969  1.00  0.00     0.006 C 
BRANCH   5   6
ATOM      6  C   UNL     1       6.452  -2.564 -11.658  1.00  0.00     0.053 C 
BRANCH   6   7
ATOM      7  C   UNL     1       6.810  -3.537 -10.578  1.00  0.00     0.041 C 
ATOM      8  O   UNL     1       8.013  -3.694 -10.240  1.00  0.00    -0.550 OA
ATOM      9  O   UNL     1       5.813  -4.248  -9.922  1.00  0.00    -0.550 OA
ENDBRANCH   6   7
ENDBRANCH   5   6
ENDBRANCH   4   5
ENDBRANCH   3   4
ENDBRANCH   2   3
ENDBRANCH   1   2
BRANCH   1  10
ATOM     10  C   UNL     1       9.624  -0.466 -13.436  1.00  0.00     0.027 C 
BRANCH  10  11
ATOM     11  C   UNL     1       8.773   0.409 -12.545  1.00  0.00    -0.031 C 
ATOM     12  C   UNL     1       7.556   0.893 -12.855  1.00  0.00    -0.031 C 
BRANCH  12  13
ATOM     13  C   UNL     1       6.840   0.684 -14.167  1.00  0.00     0.027 C 
BRANCH  13  14
ATOM     14  C   UNL     1       5.393   0.204 -13.960  1.00  0.00     0.004 C 
BRANCH  14  15
ATOM     15  C   UNL     1       4.312   1.265 -14.254  1.00  0.00     0.000 C 
BRANCH  15  16
ATOM     16  C   UNL     1       4.828   2.713 -14.377  1.00  0.00    -0.000 C 
BRANCH  16  17
ATOM     17  C   UNL     1       4.450   3.636 -13.206  1.00  0.00    -0.003 C 
ATOM     18  C   UNL     1       5.656   4.061 -12.369  1.00  0.00     0.004 C 
ENDBRANCH  16  17
ENDBRANCH  15  16
ENDBRANCH  14  15
ENDBRANCH  13  14
ENDBRANCH  12  13
ENDBRANCH  10  11
ENDBRANCH   1  10
TORSDOF 13
ENDMDL
MODEL 9
REMARK VINA RESULT:    -4.238      1.086      1.843
REMARK INTER + INTRA:          -8.666
REMARK INTER:                  -7.055
REMARK INTRA:                  -1.611
REMARK UNBOUND:                -1.208
REMARK SMILES CCCCCCC=CCCCCCCCC(=O)[O-]
REMARK SMILES IDX 10 1 11 2 12 3 13 4 14 5 15 6 16 7 17 8 18 9 9 10 8 11 7 12
REMARK SMILES IDX 6 13 5 14 4 15 3 16 2 17 1 18
REMARK H PARENT
REMARK Flexibility Score: inf
ROOT
ATOM      1  C   UNL     1      -4.109   6.444  -0.100  1.00  0.00     0.004 C 
ENDROOT
BRANCH   1   2
ATOM      2  C   UNL     1      -5.600   6.748   0.150  1.00  0.00     0.000 C 
BRANCH   2   3
ATOM      3  C   UNL     1      -6.584   5.946  -0.723  1.00  0.00     0.000 C 
BRANCH   3   4
ATOM      4  C   UNL     1      -5.929   4.973  -1.721  1.00  0.00     0.000 C 
BRANCH   4   5
ATOM      5  C   UNL     1      -6.033   5.453  -3.178  1.00  0.00     0.006 C 
BRANCH   5   6
ATOM      6  C   UNL     1      -4.804   6.267  -3.609  1.00  0.00     0.053 C 
BRANCH   6   7
ATOM      7  C   UNL     1      -4.156   5.693  -4.831  1.00  0.00     0.041 C 
ATOM      8  O   UNL     1      -4.148   4.449  -5.019  1.00  0.00    -0.550 OA
ATOM      9  O   UNL     1      -3.586   6.536  -5.777  1.00  0.00    -0.550 OA
ENDBRANCH   6   7
ENDBRANCH   5   6
ENDBRANCH   4   5
ENDBRANCH   3   4
ENDBRANCH   2   3
ENDBRANCH   1   2
BRANCH   1  10
ATOM     10  C   UNL     1      -3.177   6.821   1.066  1.00  0.00     0.027 C 
BRANCH  10  11
ATOM     11  C   UNL     1      -2.361   5.660   1.585  1.00  0.00    -0.031 C 
ATOM     12  C   UNL     1      -2.748   4.799   2.544  1.00  0.00    -0.031 C 
BRANCH  12  13
ATOM     13  C   UNL     1      -4.050   4.863   3.305  1.00  0.00     0.027 C 
BRANCH  13  14
ATOM     14  C   UNL     1      -4.908   3.608   3.080  1.00  0.00     0.004 C 
BRANCH  14  15
ATOM     15  C   UNL     1      -5.267   3.326   1.606  1.00  0.00     0.000 C 
BRANCH  15  16
ATOM     16  C   UNL     1      -6.361   2.262   1.387  1.00  0.00    -0.000 C 
BRANCH  16  17
ATOM     17  C   UNL     1      -6.116   0.924   2.104  1.00  0.00    -0.003 C 
ATOM     18  C   UNL     1      -5.209  -0.018   1.313  1.00  0.00     0.004 C 
ENDBRANCH  16  17
ENDBRANCH  15  16
ENDBRANCH  14  15
ENDBRANCH  13  14
ENDBRANCH  12  13
ENDBRANCH  10  11
ENDBRANCH   1  10
TORSDOF 13
ENDMDL
