MODEL 1
REMARK VINA RESULT:    -5.304      0.000      0.000
REMARK INTER + INTRA:          -6.356
REMARK INTER:                  -6.079
REMARK INTRA:                  -0.276
REMARK UNBOUND:                -0.276
REMARK SMILES COc1ccc(C(C)=O)c(O)c1
REMARK SMILES IDX 6 1 10 2 12 3 3 4 4 5 5 6 7 7 8 8 9 9 11 10 2 12 1 13
REMARK H PARENT 11 11
REMARK Flexibility Score: inf
ROOT
ATOM      1  C   UNL     1     -13.292   1.887  -9.369  1.00  0.00     0.059 A 
ATOM      2  C   UNL     1     -12.392   0.809  -9.563  1.00  0.00     0.130 A 
ATOM      3  C   UNL     1     -12.852  -0.392 -10.117  1.00  0.00     0.093 A 
ATOM      4  C   UNL     1     -14.208  -0.556 -10.453  1.00  0.00     0.122 A 
ATOM      5  C   UNL     1     -15.097   0.497 -10.231  1.00  0.00     0.047 A 
ATOM      6  C   UNL     1     -14.647   1.706  -9.695  1.00  0.00     0.019 A 
ENDROOT
BRANCH   1   7
ATOM      7  C   UNL     1     -12.841   3.206  -8.867  1.00  0.00     0.163 C 
ATOM      8  C   UNL     1     -13.826   4.263  -8.474  1.00  0.00     0.093 C 
ATOM      9  O   UNL     1     -11.611   3.483  -8.843  1.00  0.00    -0.294 OA
ENDBRANCH   1   7
BRANCH   2  10
ATOM     10  O   UNL     1     -11.046   0.882  -9.194  1.00  0.00    -0.507 OA
ATOM     11  H   UNL     1     -10.362   0.181  -9.445  1.00  0.00     0.293 HD
ENDBRANCH   2  10
BRANCH   4  12
ATOM     12  O   UNL     1     -14.709  -1.746 -11.003  1.00  0.00    -0.497 OA
ATOM     13  C   UNL     1     -15.078  -2.891 -10.242  1.00  0.00     0.278 C 
ENDBRANCH   4  12
TORSDOF 3
ENDMDL
MODEL 2
REMARK VINA RESULT:    -5.216      5.466      7.676
REMARK INTER + INTRA:          -6.254
REMARK INTER:                  -5.940
REMARK INTRA:                  -0.314
REMARK UNBOUND:                -0.276
REMARK SMILES COc1ccc(C(C)=O)c(O)c1
REMARK SMILES IDX 6 1 10 2 12 3 3 4 4 5 5 6 7 7 8 8 9 9 11 10 2 12 1 13
REMARK H PARENT 11 11
REMARK Flexibility Score: inf
ROOT
ATOM      1  C   UNL     1     -10.658  -5.265  -7.402  1.00  0.00     0.059 A 
ATOM      2  C   UNL     1     -11.179  -5.349  -8.717  1.00  0.00     0.130 A 
ATOM      3  C   UNL     1     -10.984  -4.291  -9.614  1.00  0.00     0.093 A 
ATOM      4  C   UNL     1     -10.304  -3.127  -9.215  1.00  0.00     0.122 A 
ATOM      5  C   UNL     1      -9.819  -3.035  -7.909  1.00  0.00     0.047 A 
ATOM      6  C   UNL     1      -9.992  -4.090  -7.011  1.00  0.00     0.019 A 
ENDROOT
BRANCH   1   7
ATOM      7  C   UNL     1     -10.761  -6.388  -6.442  1.00  0.00     0.163 C 
ATOM      8  C   UNL     1     -11.335  -6.187  -5.073  1.00  0.00     0.093 C 
ATOM      9  O   UNL     1     -10.288  -7.518  -6.742  1.00  0.00    -0.294 OA
ENDBRANCH   1   7
BRANCH   2  10
ATOM     10  O   UNL     1     -11.918  -6.450  -9.160  1.00  0.00    -0.507 OA
ATOM     11  H   UNL     1     -12.568  -6.408  -9.933  1.00  0.00     0.293 HD
ENDBRANCH   2  10
BRANCH   4  12
ATOM     12  O   UNL     1     -10.095  -2.043 -10.081  1.00  0.00    -0.497 OA
ATOM     13  C   UNL     1     -10.917  -0.882 -10.131  1.00  0.00     0.278 C 
ENDBRANCH   4  12
TORSDOF 3
ENDMDL
MODEL 3
REMARK VINA RESULT:    -5.162      5.174      6.546
REMARK INTER + INTRA:          -6.193
REMARK INTER:                  -6.030
REMARK INTRA:                  -0.163
REMARK UNBOUND:                -0.276
REMARK SMILES COc1ccc(C(C)=O)c(O)c1
REMARK SMILES IDX 6 1 10 2 12 3 3 4 4 5 5 6 7 7 8 8 9 9 11 10 2 12 1 13
REMARK H PARENT 11 11
REMARK Flexibility Score: inf
ROOT
ATOM      1  C   UNL     1     -10.414  -3.487  -9.022  1.00  0.00     0.059 A 
ATOM      2  C   UNL     1      -9.794  -3.554  -7.749  1.00  0.00     0.130 A 
ATOM      3  C   UNL     1     -10.101  -4.608  -6.879  1.00  0.00     0.093 A 
ATOM      4  C   UNL     1     -11.045  -5.586  -7.240  1.00  0.00     0.122 A 
ATOM      5  C   UNL     1     -11.675  -5.500  -8.483  1.00  0.00     0.047 A 
ATOM      6  C   UNL     1     -11.365  -4.463  -9.365  1.00  0.00     0.019 A 
ENDROOT
BRANCH   1   7
ATOM      7  C   UNL     1     -10.062  -2.443 -10.013  1.00  0.00     0.163 C 
ATOM      8  C   UNL     1     -10.805  -1.144 -10.066  1.00  0.00     0.093 C 
ATOM      9  O   UNL     1      -9.179  -2.673 -10.883  1.00  0.00    -0.294 OA
ENDBRANCH   1   7
BRANCH   2  10
ATOM     10  O   UNL     1      -8.896  -2.581  -7.302  1.00  0.00    -0.507 OA
ATOM     11  H   UNL     1      -9.152  -1.838  -6.666  1.00  0.00     0.293 HD
ENDBRANCH   2  10
BRANCH   4  12
ATOM     12  O   UNL     1     -11.385  -6.653  -6.393  1.00  0.00    -0.497 OA
ATOM     13  C   UNL     1     -10.618  -7.843  -6.253  1.00  0.00     0.278 C 
ENDBRANCH   4  12
TORSDOF 3
ENDMDL
MODEL 4
REMARK VINA RESULT:    -4.893      6.434      7.531
REMARK INTER + INTRA:          -5.885
REMARK INTER:                  -5.544
REMARK INTRA:                  -0.341
REMARK UNBOUND:                -0.276
REMARK SMILES COc1ccc(C(C)=O)c(O)c1
REMARK SMILES IDX 6 1 10 2 12 3 3 4 4 5 5 6 7 7 8 8 9 9 11 10 2 12 1 13
REMARK H PARENT 11 11
REMARK Flexibility Score: inf
ROOT
ATOM      1  C   UNL     1     -10.794  -5.055  -7.618  1.00  0.00     0.059 A 
ATOM      2  C   UNL     1     -11.624  -5.656  -8.597  1.00  0.00     0.130 A 
ATOM      3  C   UNL     1     -12.686  -6.478  -8.201  1.00  0.00     0.093 A 
ATOM      4  C   UNL     1     -12.921  -6.743  -6.840  1.00  0.00     0.122 A 
ATOM      5  C   UNL     1     -12.083  -6.172  -5.880  1.00  0.00     0.047 A 
ATOM      6  C   UNL     1     -11.031  -5.338  -6.262  1.00  0.00     0.019 A 
ENDROOT
BRANCH   1   7
ATOM      7  C   UNL     1      -9.711  -4.110  -7.979  1.00  0.00     0.163 C 
ATOM      8  C   UNL     1      -9.568  -2.793  -7.282  1.00  0.00     0.093 C 
ATOM      9  O   UNL     1      -8.941  -4.374  -8.943  1.00  0.00    -0.294 OA
ENDBRANCH   1   7
BRANCH   2  10
ATOM     10  O   UNL     1     -11.408  -5.487  -9.968  1.00  0.00    -0.507 OA
ATOM     11  H   UNL     1     -12.087  -5.070 -10.590  1.00  0.00     0.293 HD
ENDBRANCH   2  10
BRANCH   4  12
ATOM     12  O   UNL     1     -13.971  -7.566  -6.403  1.00  0.00    -0.497 OA
ATOM     13  C   UNL     1     -15.034  -7.135  -5.561  1.00  0.00     0.278 C 
ENDBRANCH   4  12
TORSDOF 3
ENDMDL
MODEL 5
REMARK VINA RESULT:    -4.732     14.854     16.541
REMARK INTER + INTRA:          -5.700
REMARK INTER:                  -5.368
REMARK INTRA:                  -0.332
REMARK UNBOUND:                -0.276
REMARK SMILES COc1ccc(C(C)=O)c(O)c1
REMARK SMILES IDX 6 1 10 2 12 3 3 4 4 5 5 6 7 7 8 8 9 9 11 10 2 12 1 13
REMARK H PARENT 11 11
REMARK Flexibility Score: inf
ROOT
ATOM      1  C   UNL     1     -12.294   4.567   6.925  1.00  0.00     0.059 A 
ATOM      2  C   UNL     1     -12.211   4.111   5.586  1.00  0.00     0.130 A 
ATOM      3  C   UNL     1     -13.021   4.689   4.600  1.00  0.00     0.093 A 
ATOM      4  C   UNL     1     -13.944   5.698   4.930  1.00  0.00     0.122 A 
ATOM      5  C   UNL     1     -14.044   6.124   6.256  1.00  0.00     0.047 A 
ATOM      6  C   UNL     1     -13.230   5.567   7.244  1.00  0.00     0.019 A 
ENDROOT
BRANCH   1   7
ATOM      7  C   UNL     1     -11.401   4.050   7.988  1.00  0.00     0.163 C 
ATOM      8  C   UNL     1     -10.442   4.953   8.700  1.00  0.00     0.093 C 
ATOM      9  O   UNL     1     -11.381   2.817   8.249  1.00  0.00    -0.294 OA
ENDBRANCH   1   7
BRANCH   2  10
ATOM     10  O   UNL     1     -11.362   3.069   5.202  1.00  0.00    -0.507 OA
ATOM     11  H   UNL     1     -10.429   3.217   4.841  1.00  0.00     0.293 HD
ENDBRANCH   2  10
BRANCH   4  12
ATOM     12  O   UNL     1     -14.778   6.297   3.973  1.00  0.00    -0.497 OA
ATOM     13  C   UNL     1     -14.400   6.555   2.625  1.00  0.00     0.278 C 
ENDBRANCH   4  12
TORSDOF 3
ENDMDL
MODEL 6
REMARK VINA RESULT:    -4.714      5.510      7.098
REMARK INTER + INTRA:          -5.679
REMARK INTER:                  -5.380
REMARK INTRA:                  -0.300
REMARK UNBOUND:                -0.276
REMARK SMILES COc1ccc(C(C)=O)c(O)c1
REMARK SMILES IDX 6 1 10 2 12 3 3 4 4 5 5 6 7 7 8 8 9 9 11 10 2 12 1 13
REMARK H PARENT 11 11
REMARK Flexibility Score: inf
ROOT
ATOM      1  C   UNL     1     -10.396  -3.982  -8.588  1.00  0.00     0.059 A 
ATOM      2  C   UNL     1     -11.210  -5.129  -8.762  1.00  0.00     0.130 A 
ATOM      3  C   UNL     1     -11.560  -5.911  -7.654  1.00  0.00     0.093 A 
ATOM      4  C   UNL     1     -11.085  -5.590  -6.370  1.00  0.00     0.122 A 
ATOM      5  C   UNL     1     -10.259  -4.477  -6.207  1.00  0.00     0.047 A 
ATOM      6  C   UNL     1      -9.917  -3.680  -7.301  1.00  0.00     0.019 A 
ENDROOT
BRANCH   1   7
ATOM      7  C   UNL     1     -10.067  -3.074  -9.711  1.00  0.00     0.163 C 
ATOM      8  C   UNL     1     -10.677  -1.710  -9.808  1.00  0.00     0.093 C 
ATOM      9  O   UNL     1      -9.326  -3.475 -10.649  1.00  0.00    -0.294 OA
ENDBRANCH   1   7
BRANCH   2  10
ATOM     10  O   UNL     1     -11.664  -5.540 -10.019  1.00  0.00    -0.507 OA
ATOM     11  H   UNL     1     -11.453  -6.445 -10.417  1.00  0.00     0.293 HD
ENDBRANCH   2  10
BRANCH   4  12
ATOM     12  O   UNL     1     -11.407  -6.352  -5.236  1.00  0.00    -0.497 OA
ATOM     13  C   UNL     1     -12.388  -7.384  -5.212  1.00  0.00     0.278 C 
ENDBRANCH   4  12
TORSDOF 3
ENDMDL
MODEL 7
REMARK VINA RESULT:    -4.562     14.750     16.582
REMARK INTER + INTRA:          -5.506
REMARK INTER:                  -5.164
REMARK INTRA:                  -0.341
REMARK UNBOUND:                -0.276
REMARK SMILES COc1ccc(C(C)=O)c(O)c1
REMARK SMILES IDX 6 1 10 2 12 3 3 4 4 5 5 6 7 7 8 8 9 9 11 10 2 12 1 13
REMARK H PARENT 11 11
REMARK Flexibility Score: inf
ROOT
ATOM      1  C   UNL     1     -11.925   5.114   6.460  1.00  0.00     0.059 A 
ATOM      2  C   UNL     1     -12.376   6.453   6.578  1.00  0.00     0.130 A 
ATOM      3  C   UNL     1     -13.288   6.965   5.645  1.00  0.00     0.093 A 
ATOM      4  C   UNL     1     -13.737   6.177   4.571  1.00  0.00     0.122 A 
ATOM      5  C   UNL     1     -13.267   4.869   4.442  1.00  0.00     0.047 A 
ATOM      6  C   UNL     1     -12.371   4.341   5.375  1.00  0.00     0.019 A 
ENDROOT
BRANCH   1   7
ATOM      7  C   UNL     1     -11.029   4.496   7.466  1.00  0.00     0.163 C 
ATOM      8  C   UNL     1     -11.337   3.155   8.056  1.00  0.00     0.093 C 
ATOM      9  O   UNL     1     -10.033   5.136   7.898  1.00  0.00    -0.294 OA
ENDBRANCH   1   7
BRANCH   2  10
ATOM     10  O   UNL     1     -11.922   7.310   7.583  1.00  0.00    -0.507 OA
ATOM     11  H   UNL     1     -10.959   7.345   7.891  1.00  0.00     0.293 HD
ENDBRANCH   2  10
BRANCH   4  12
ATOM     12  O   UNL     1     -14.644   6.657   3.613  1.00  0.00    -0.497 OA
ATOM     13  C   UNL     1     -14.385   6.706   2.214  1.00  0.00     0.278 C 
ENDBRANCH   4  12
TORSDOF 3
ENDMDL
MODEL 8
REMARK VINA RESULT:    -4.448     14.961     16.546
REMARK INTER + INTRA:          -5.374
REMARK INTER:                  -5.038
REMARK INTRA:                  -0.337
REMARK UNBOUND:                -0.276
REMARK SMILES COc1ccc(C(C)=O)c(O)c1
REMARK SMILES IDX 6 1 10 2 12 3 3 4 4 5 5 6 7 7 8 8 9 9 11 10 2 12 1 13
REMARK H PARENT 11 11
REMARK Flexibility Score: inf
ROOT
ATOM      1  C   UNL     1     -13.979   5.964   5.308  1.00  0.00     0.059 A 
ATOM      2  C   UNL     1     -13.248   4.771   5.080  1.00  0.00     0.130 A 
ATOM      3  C   UNL     1     -12.784   4.019   6.167  1.00  0.00     0.093 A 
ATOM      4  C   UNL     1     -13.006   4.451   7.486  1.00  0.00     0.122 A 
ATOM      5  C   UNL     1     -13.701   5.642   7.706  1.00  0.00     0.047 A 
ATOM      6  C   UNL     1     -14.183   6.391   6.631  1.00  0.00     0.019 A 
ENDROOT
BRANCH   1   7
ATOM      7  C   UNL     1     -14.565   6.751   4.197  1.00  0.00     0.163 C 
ATOM      8  C   UNL     1     -14.593   8.247   4.240  1.00  0.00     0.093 C 
ATOM      9  O   UNL     1     -15.125   6.160   3.234  1.00  0.00    -0.294 OA
ENDBRANCH   1   7
BRANCH   2  10
ATOM     10  O   UNL     1     -12.938   4.318   3.794  1.00  0.00    -0.507 OA
ATOM     11  H   UNL     1     -13.590   3.813   3.211  1.00  0.00     0.293 HD
ENDBRANCH   2  10
BRANCH   4  12
ATOM     12  O   UNL     1     -12.552   3.729   8.601  1.00  0.00    -0.497 OA
ATOM     13  C   UNL     1     -11.195   3.361   8.822  1.00  0.00     0.278 C 
ENDBRANCH   4  12
TORSDOF 3
ENDMDL
