MODEL 1
REMARK VINA RESULT:    -6.412      0.000      0.000
REMARK INTER + INTRA:         -11.348
REMARK INTER:                  -8.848
REMARK INTRA:                  -2.500
REMARK UNBOUND:                -2.500
REMARK SMILES CC[C@H](CC[C@@H](C)[C@@H]1CC[C@@H]2C3=CC[C@H]4C[C@H](O)CC[C@]4(C)[C@H]3CC[C@]21C)C(C)C
REMARK SMILES IDX 5 1 4 2 3 3 2 4 1 5 28 6 29 7 30 8 6 9 7 10 8 11 9 12 26 13
REMARK SMILES IDX 10 14 11 15 25 16 27 17 12 18 24 19 23 20 13 21 21 22 14 23
REMARK SMILES IDX 15 24 20 25 22 26 16 27 19 28 17 29 18 30
REMARK H PARENT 18 31
REMARK Flexibility Score: inf
ROOT
ATOM      1  C   UNL     1     118.240 119.036 130.355  1.00  0.00     0.004 C 
ENDROOT
BRANCH   1   2
ATOM      2  C   UNL     1     116.955 119.012 129.501  1.00  0.00     0.004 C 
BRANCH   2   3
ATOM      3  C   UNL     1     115.763 119.756 130.162  1.00  0.00    -0.009 C 
BRANCH   3   4
ATOM      4  C   UNL     1     116.101 120.363 131.558  1.00  0.00     0.000 C 
ATOM      5  C   UNL     1     115.108 120.060 132.681  1.00  0.00     0.004 C 
ENDBRANCH   3   4
BRANCH   3   6
ATOM      6  C   UNL     1     115.039 120.713 129.153  1.00  0.00    -0.014 C 
ATOM      7  C   UNL     1     115.120 122.189 129.573  1.00  0.00     0.007 C 
ATOM      8  C   UNL     1     115.454 120.548 127.679  1.00  0.00     0.007 C 
ENDBRANCH   3   6
ENDBRANCH   2   3
ENDBRANCH   1   2
BRANCH   1   9
ATOM      9  C   UNL     1     119.419 119.776 129.670  1.00  0.00    -0.011 C 
ATOM     10  C   UNL     1     120.261 118.789 128.832  1.00  0.00     0.008 C 
BRANCH   9  11
ATOM     11  C   UNL     1     118.884 121.021 128.872  1.00  0.00    -0.002 C 
ATOM     12  C   UNL     1     119.230 121.105 127.362  1.00  0.00     0.005 C 
ATOM     13  C   UNL     1     119.239 122.422 129.434  1.00  0.00    -0.023 C 
ATOM     14  C   UNL     1     119.234 122.605 127.006  1.00  0.00     0.009 C 
ATOM     15  C   UNL     1     118.746 123.304 128.276  1.00  0.00     0.021 C 
ATOM     16  C   UNL     1     118.478 122.807 130.743  1.00  0.00     0.008 C 
ATOM     17  C   UNL     1     120.777 122.562 129.659  1.00  0.00     0.012 C 
ATOM     18  C   UNL     1     119.057 124.765 128.524  1.00  0.00    -0.067 C 
ATOM     19  C   UNL     1     117.953 124.271 130.768  1.00  0.00     0.009 C 
ATOM     20  C   UNL     1     118.827 125.276 129.952  1.00  0.00     0.021 C 
ATOM     21  C   UNL     1     119.361 125.603 127.508  1.00  0.00    -0.027 C 
ATOM     22  C   UNL     1     118.302 126.756 129.962  1.00  0.00    -0.023 C 
ATOM     23  C   UNL     1     119.375 127.105 127.648  1.00  0.00     0.031 C 
ATOM     24  C   UNL     1     119.325 127.582 129.113  1.00  0.00     0.002 C 
ATOM     25  C   UNL     1     118.301 127.315 131.418  1.00  0.00     0.010 C 
ATOM     26  C   UNL     1     116.861 126.830 129.376  1.00  0.00     0.012 C 
ATOM     27  C   UNL     1     119.090 129.107 129.185  1.00  0.00     0.036 C 
ATOM     28  C   UNL     1     118.063 128.832 131.478  1.00  0.00     0.032 C 
ATOM     29  C   UNL     1     119.086 129.610 130.635  1.00  0.00     0.114 C 
BRANCH  29  30
ATOM     30  O   UNL     1     120.374 129.485 131.182  1.00  0.00    -0.393 OA
ATOM     31  H   UNL     1     120.327 128.758 131.858  1.00  0.00     0.210 HD
ENDBRANCH  29  30
ENDBRANCH   9  11
ENDBRANCH   1   9
TORSDOF 7
ENDMDL
MODEL 2
REMARK VINA RESULT:    -6.367      3.155      9.223
REMARK INTER + INTRA:         -11.286
REMARK INTER:                 -10.149
REMARK INTRA:                  -1.137
REMARK UNBOUND:                -2.500
REMARK SMILES CC[C@H](CC[C@@H](C)[C@@H]1CC[C@@H]2C3=CC[C@H]4C[C@H](O)CC[C@]4(C)[C@H]3CC[C@]21C)C(C)C
REMARK SMILES IDX 5 1 4 2 3 3 2 4 1 5 28 6 29 7 30 8 6 9 7 10 8 11 9 12 26 13
REMARK SMILES IDX 10 14 11 15 25 16 27 17 12 18 24 19 23 20 13 21 21 22 14 23
REMARK SMILES IDX 15 24 20 25 22 26 16 27 19 28 17 29 18 30
REMARK H PARENT 18 31
REMARK Flexibility Score: inf
ROOT
ATOM      1  C   UNL     1     119.627 130.360 128.595  1.00  0.00     0.004 C 
ENDROOT
BRANCH   1   2
ATOM      2  C   UNL     1     119.697 131.845 129.011  1.00  0.00     0.004 C 
BRANCH   2   3
ATOM      3  C   UNL     1     120.479 132.730 128.003  1.00  0.00    -0.009 C 
BRANCH   3   4
ATOM      4  C   UNL     1     119.676 133.971 127.506  1.00  0.00     0.000 C 
ATOM      5  C   UNL     1     118.616 133.701 126.436  1.00  0.00     0.004 C 
ENDBRANCH   3   4
BRANCH   3   6
ATOM      6  C   UNL     1     121.945 133.008 128.483  1.00  0.00    -0.014 C 
ATOM      7  C   UNL     1     122.000 133.704 129.851  1.00  0.00     0.007 C 
ATOM      8  C   UNL     1     122.886 131.788 128.460  1.00  0.00     0.007 C 
ENDBRANCH   3   6
ENDBRANCH   2   3
ENDBRANCH   1   2
BRANCH   1   9
ATOM      9  C   UNL     1     119.864 129.380 129.774  1.00  0.00    -0.011 C 
ATOM     10  C   UNL     1     120.349 130.147 131.024  1.00  0.00     0.008 C 
BRANCH   9  11
ATOM     11  C   UNL     1     118.585 128.494 130.004  1.00  0.00    -0.002 C 
ATOM     12  C   UNL     1     117.822 128.676 131.342  1.00  0.00     0.005 C 
ATOM     13  C   UNL     1     118.756 126.960 129.855  1.00  0.00    -0.023 C 
ATOM     14  C   UNL     1     117.123 127.330 131.622  1.00  0.00     0.009 C 
ATOM     15  C   UNL     1     117.387 126.491 130.372  1.00  0.00     0.021 C 
ATOM     16  C   UNL     1     118.954 126.470 128.385  1.00  0.00     0.008 C 
ATOM     17  C   UNL     1     119.926 126.437 130.745  1.00  0.00     0.012 C 
ATOM     18  C   UNL     1     117.304 124.979 130.422  1.00  0.00    -0.067 C 
ATOM     19  C   UNL     1     118.146 125.190 128.025  1.00  0.00     0.009 C 
ATOM     20  C   UNL     1     117.909 124.226 129.230  1.00  0.00     0.021 C 
ATOM     21  C   UNL     1     116.595 124.344 131.381  1.00  0.00    -0.027 C 
ATOM     22  C   UNL     1     117.087 122.935 128.881  1.00  0.00    -0.023 C 
ATOM     23  C   UNL     1     116.225 122.883 131.307  1.00  0.00     0.031 C 
ATOM     24  C   UNL     1     116.988 122.114 130.211  1.00  0.00     0.002 C 
ATOM     25  C   UNL     1     117.853 122.079 127.827  1.00  0.00     0.010 C 
ATOM     26  C   UNL     1     115.683 123.313 128.322  1.00  0.00     0.012 C 
ATOM     27  C   UNL     1     116.393 120.702 130.016  1.00  0.00     0.036 C 
ATOM     28  C   UNL     1     117.250 120.677 127.638  1.00  0.00     0.032 C 
ATOM     29  C   UNL     1     117.171 119.901 128.963  1.00  0.00     0.114 C 
BRANCH  29  30
ATOM     30  O   UNL     1     118.459 119.613 129.444  1.00  0.00    -0.393 OA
ATOM     31  H   UNL     1     119.045 120.363 129.156  1.00  0.00     0.210 HD
ENDBRANCH  29  30
ENDBRANCH   9  11
ENDBRANCH   1   9
TORSDOF 7
ENDMDL
MODEL 3
REMARK VINA RESULT:    -6.324      3.009      8.781
REMARK INTER + INTRA:         -11.228
REMARK INTER:                 -11.050
REMARK INTRA:                  -0.178
REMARK UNBOUND:                -2.500
REMARK SMILES CC[C@H](CC[C@@H](C)[C@@H]1CC[C@@H]2C3=CC[C@H]4C[C@H](O)CC[C@]4(C)[C@H]3CC[C@]21C)C(C)C
REMARK SMILES IDX 5 1 4 2 3 3 2 4 1 5 28 6 29 7 30 8 6 9 7 10 8 11 9 12 26 13
REMARK SMILES IDX 10 14 11 15 25 16 27 17 12 18 24 19 23 20 13 21 21 22 14 23
REMARK SMILES IDX 15 24 20 25 22 26 16 27 19 28 17 29 18 30
REMARK H PARENT 18 31
REMARK Flexibility Score: inf
ROOT
ATOM      1  C   UNL     1     120.303 128.922 128.662  1.00  0.00     0.004 C 
ENDROOT
BRANCH   1   2
ATOM      2  C   UNL     1     121.115 130.127 129.181  1.00  0.00     0.004 C 
BRANCH   2   3
ATOM      3  C   UNL     1     120.850 131.435 128.388  1.00  0.00    -0.009 C 
BRANCH   3   4
ATOM      4  C   UNL     1     119.448 132.060 128.662  1.00  0.00     0.000 C 
ATOM      5  C   UNL     1     118.881 132.949 127.555  1.00  0.00     0.004 C 
ENDBRANCH   3   4
BRANCH   3   6
ATOM      6  C   UNL     1     122.068 132.420 128.461  1.00  0.00    -0.014 C 
ATOM      7  C   UNL     1     121.983 133.381 129.657  1.00  0.00     0.007 C 
ATOM      8  C   UNL     1     123.456 131.755 128.401  1.00  0.00     0.007 C 
ENDBRANCH   3   6
ENDBRANCH   2   3
ENDBRANCH   1   2
BRANCH   1   9
ATOM      9  C   UNL     1     119.474 128.217 129.768  1.00  0.00    -0.011 C 
ATOM     10  C   UNL     1     118.375 129.161 130.302  1.00  0.00     0.008 C 
BRANCH   9  11
ATOM     11  C   UNL     1     118.948 126.830 129.246  1.00  0.00    -0.002 C 
ATOM     12  C   UNL     1     118.003 126.840 128.017  1.00  0.00     0.005 C 
ATOM     13  C   UNL     1     118.240 125.913 130.278  1.00  0.00    -0.023 C 
ATOM     14  C   UNL     1     117.128 125.576 128.138  1.00  0.00     0.009 C 
ATOM     15  C   UNL     1     117.704 124.822 129.337  1.00  0.00     0.021 C 
ATOM     16  C   UNL     1     119.194 125.269 131.334  1.00  0.00     0.008 C 
ATOM     17  C   UNL     1     117.088 126.673 131.005  1.00  0.00     0.012 C 
ATOM     18  C   UNL     1     116.869 123.807 130.089  1.00  0.00    -0.067 C 
ATOM     19  C   UNL     1     118.904 123.767 131.623  1.00  0.00     0.009 C 
ATOM     20  C   UNL     1     117.405 123.364 131.457  1.00  0.00     0.021 C 
ATOM     21  C   UNL     1     115.801 123.209 129.514  1.00  0.00    -0.027 C 
ATOM     22  C   UNL     1     117.101 121.849 131.737  1.00  0.00    -0.023 C 
ATOM     23  C   UNL     1     115.129 121.986 130.087  1.00  0.00     0.031 C 
ATOM     24  C   UNL     1     115.558 121.674 131.534  1.00  0.00     0.002 C 
ATOM     25  C   UNL     1     117.449 121.497 133.215  1.00  0.00     0.010 C 
ATOM     26  C   UNL     1     117.923 120.938 130.777  1.00  0.00     0.012 C 
ATOM     27  C   UNL     1     115.036 120.289 131.974  1.00  0.00     0.036 C 
ATOM     28  C   UNL     1     116.928 120.114 133.642  1.00  0.00     0.032 C 
ATOM     29  C   UNL     1     115.412 119.980 133.430  1.00  0.00     0.114 C 
BRANCH  29  30
ATOM     30  O   UNL     1     114.715 120.844 134.292  1.00  0.00    -0.393 OA
ATOM     31  H   UNL     1     115.171 120.796 135.173  1.00  0.00     0.210 HD
ENDBRANCH  29  30
ENDBRANCH   9  11
ENDBRANCH   1   9
TORSDOF 7
ENDMDL
MODEL 4
REMARK VINA RESULT:    -6.163      1.116      2.251
REMARK INTER + INTRA:         -11.005
REMARK INTER:                  -9.660
REMARK INTRA:                  -1.345
REMARK UNBOUND:                -2.500
REMARK SMILES CC[C@H](CC[C@@H](C)[C@@H]1CC[C@@H]2C3=CC[C@H]4C[C@H](O)CC[C@]4(C)[C@H]3CC[C@]21C)C(C)C
REMARK SMILES IDX 5 1 4 2 3 3 2 4 1 5 28 6 29 7 30 8 6 9 7 10 8 11 9 12 26 13
REMARK SMILES IDX 10 14 11 15 25 16 27 17 12 18 24 19 23 20 13 21 21 22 14 23
REMARK SMILES IDX 15 24 20 25 22 26 16 27 19 28 17 29 18 30
REMARK H PARENT 18 31
REMARK Flexibility Score: inf
ROOT
ATOM      1  C   UNL     1     117.356 119.665 130.884  1.00  0.00     0.004 C 
ENDROOT
BRANCH   1   2
ATOM      2  C   UNL     1     117.543 120.114 132.348  1.00  0.00     0.004 C 
BRANCH   2   3
ATOM      3  C   UNL     1     116.360 120.963 132.887  1.00  0.00    -0.009 C 
BRANCH   3   4
ATOM      4  C   UNL     1     115.039 120.779 132.080  1.00  0.00     0.000 C 
ATOM      5  C   UNL     1     114.494 122.029 131.388  1.00  0.00     0.004 C 
ENDBRANCH   3   4
BRANCH   3   6
ATOM      6  C   UNL     1     116.232 120.865 134.447  1.00  0.00    -0.014 C 
ATOM      7  C   UNL     1     114.773 120.901 134.926  1.00  0.00     0.007 C 
ATOM      8  C   UNL     1     116.983 119.686 135.094  1.00  0.00     0.007 C 
ENDBRANCH   3   6
ENDBRANCH   2   3
ENDBRANCH   1   2
BRANCH   1   9
ATOM      9  C   UNL     1     118.580 119.976 129.983  1.00  0.00    -0.011 C 
ATOM     10  C   UNL     1     119.013 118.714 129.206  1.00  0.00     0.008 C 
BRANCH   9  11
ATOM     11  C   UNL     1     118.281 121.230 129.082  1.00  0.00    -0.002 C 
ATOM     12  C   UNL     1     118.795 121.197 127.619  1.00  0.00     0.005 C 
ATOM     13  C   UNL     1     118.733 122.611 129.626  1.00  0.00    -0.023 C 
ATOM     14  C   UNL     1     119.010 122.667 127.208  1.00  0.00     0.009 C 
ATOM     15  C   UNL     1     118.473 123.480 128.386  1.00  0.00     0.021 C 
ATOM     16  C   UNL     1     117.885 123.144 130.825  1.00  0.00     0.008 C 
ATOM     17  C   UNL     1     120.243 122.592 130.018  1.00  0.00     0.012 C 
ATOM     18  C   UNL     1     118.921 124.909 128.610  1.00  0.00    -0.067 C 
ATOM     19  C   UNL     1     117.532 124.657 130.732  1.00  0.00     0.009 C 
ATOM     20  C   UNL     1     118.599 125.516 129.982  1.00  0.00     0.021 C 
ATOM     21  C   UNL     1     119.428 125.655 127.603  1.00  0.00    -0.027 C 
ATOM     22  C   UNL     1     118.250 127.043 129.875  1.00  0.00    -0.023 C 
ATOM     23  C   UNL     1     119.600 127.152 127.685  1.00  0.00     0.031 C 
ATOM     24  C   UNL     1     119.447 127.706 129.115  1.00  0.00     0.002 C 
ATOM     25  C   UNL     1     118.157 127.673 131.298  1.00  0.00     0.010 C 
ATOM     26  C   UNL     1     116.899 127.246 129.127  1.00  0.00     0.012 C 
ATOM     27  C   UNL     1     119.384 129.249 129.101  1.00  0.00     0.036 C 
ATOM     28  C   UNL     1     118.090 129.209 131.272  1.00  0.00     0.032 C 
ATOM     29  C   UNL     1     119.280 129.824 130.520  1.00  0.00     0.114 C 
BRANCH  29  30
ATOM     30  O   UNL     1     120.479 129.586 131.214  1.00  0.00    -0.393 OA
ATOM     31  H   UNL     1     120.360 128.729 131.703  1.00  0.00     0.210 HD
ENDBRANCH  29  30
ENDBRANCH   9  11
ENDBRANCH   1   9
TORSDOF 7
ENDMDL
MODEL 5
REMARK VINA RESULT:    -5.922      3.373      8.173
REMARK INTER + INTRA:         -10.673
REMARK INTER:                  -9.571
REMARK INTRA:                  -1.102
REMARK UNBOUND:                -2.500
REMARK SMILES CC[C@H](CC[C@@H](C)[C@@H]1CC[C@@H]2C3=CC[C@H]4C[C@H](O)CC[C@]4(C)[C@H]3CC[C@]21C)C(C)C
REMARK SMILES IDX 5 1 4 2 3 3 2 4 1 5 28 6 29 7 30 8 6 9 7 10 8 11 9 12 26 13
REMARK SMILES IDX 10 14 11 15 25 16 27 17 12 18 24 19 23 20 13 21 21 22 14 23
REMARK SMILES IDX 15 24 20 25 22 26 16 27 19 28 17 29 18 30
REMARK H PARENT 18 31
REMARK Flexibility Score: inf
ROOT
ATOM      1  C   UNL     1     117.329 125.841 130.523  1.00  0.00     0.004 C 
ENDROOT
BRANCH   1   2
ATOM      2  C   UNL     1     118.478 126.867 130.617  1.00  0.00     0.004 C 
BRANCH   2   3
ATOM      3  C   UNL     1     118.022 128.328 130.357  1.00  0.00    -0.009 C 
BRANCH   3   4
ATOM      4  C   UNL     1     117.088 128.898 131.466  1.00  0.00     0.000 C 
ATOM      5  C   UNL     1     117.526 128.646 132.909  1.00  0.00     0.004 C 
ENDBRANCH   3   4
BRANCH   3   6
ATOM      6  C   UNL     1     119.218 129.246 129.926  1.00  0.00    -0.014 C 
ATOM      7  C   UNL     1     120.046 128.644 128.781  1.00  0.00     0.007 C 
ATOM      8  C   UNL     1     118.843 130.707 129.610  1.00  0.00     0.007 C 
ENDBRANCH   3   6
ENDBRANCH   2   3
ENDBRANCH   1   2
BRANCH   1   9
ATOM      9  C   UNL     1     117.028 125.386 129.071  1.00  0.00    -0.011 C 
ATOM     10  C   UNL     1     116.457 126.560 128.246  1.00  0.00     0.008 C 
BRANCH   9  11
ATOM     11  C   UNL     1     118.299 124.704 128.445  1.00  0.00    -0.002 C 
ATOM     12  C   UNL     1     119.044 125.472 127.322  1.00  0.00     0.005 C 
ATOM     13  C   UNL     1     118.123 123.267 127.886  1.00  0.00    -0.023 C 
ATOM     14  C   UNL     1     119.731 124.401 126.453  1.00  0.00     0.009 C 
ATOM     15  C   UNL     1     119.482 123.086 127.192  1.00  0.00     0.021 C 
ATOM     16  C   UNL     1     117.944 122.165 128.979  1.00  0.00     0.008 C 
ATOM     17  C   UNL     1     116.938 123.201 126.874  1.00  0.00     0.012 C 
ATOM     18  C   UNL     1     119.556 121.761 126.462  1.00  0.00    -0.067 C 
ATOM     19  C   UNL     1     118.752 120.863 128.708  1.00  0.00     0.009 C 
ATOM     20  C   UNL     1     118.966 120.548 127.194  1.00  0.00     0.021 C 
ATOM     21  C   UNL     1     120.248 121.630 125.308  1.00  0.00    -0.027 C 
ATOM     22  C   UNL     1     119.787 119.241 126.908  1.00  0.00    -0.023 C 
ATOM     23  C   UNL     1     120.613 120.294 124.708  1.00  0.00     0.031 C 
ATOM     24  C   UNL     1     119.862 119.111 125.349  1.00  0.00     0.002 C 
ATOM     25  C   UNL     1     119.032 117.999 127.472  1.00  0.00     0.010 C 
ATOM     26  C   UNL     1     121.201 119.329 127.555  1.00  0.00     0.012 C 
ATOM     27  C   UNL     1     120.453 117.765 124.875  1.00  0.00     0.036 C 
ATOM     28  C   UNL     1     119.631 116.665 126.997  1.00  0.00     0.032 C 
ATOM     29  C   UNL     1     119.687 116.573 125.464  1.00  0.00     0.114 C 
BRANCH  29  30
ATOM     30  O   UNL     1     118.390 116.531 124.924  1.00  0.00    -0.393 OA
ATOM     31  H   UNL     1     117.766 116.746 125.666  1.00  0.00     0.210 HD
ENDBRANCH  29  30
ENDBRANCH   9  11
ENDBRANCH   1   9
TORSDOF 7
ENDMDL
MODEL 6
REMARK VINA RESULT:    -5.784      3.236      6.772
REMARK INTER + INTRA:         -10.482
REMARK INTER:                  -8.395
REMARK INTRA:                  -2.087
REMARK UNBOUND:                -2.500
REMARK SMILES CC[C@H](CC[C@@H](C)[C@@H]1CC[C@@H]2C3=CC[C@H]4C[C@H](O)CC[C@]4(C)[C@H]3CC[C@]21C)C(C)C
REMARK SMILES IDX 5 1 4 2 3 3 2 4 1 5 28 6 29 7 30 8 6 9 7 10 8 11 9 12 26 13
REMARK SMILES IDX 10 14 11 15 25 16 27 17 12 18 24 19 23 20 13 21 21 22 14 23
REMARK SMILES IDX 15 24 20 25 22 26 16 27 19 28 17 29 18 30
REMARK H PARENT 18 31
REMARK Flexibility Score: inf
ROOT
ATOM      1  C   UNL     1     116.171 123.560 131.464  1.00  0.00     0.004 C 
ENDROOT
BRANCH   1   2
ATOM      2  C   UNL     1     115.460 122.332 130.858  1.00  0.00     0.004 C 
BRANCH   2   3
ATOM      3  C   UNL     1     115.706 121.022 131.655  1.00  0.00    -0.009 C 
BRANCH   3   4
ATOM      4  C   UNL     1     116.371 119.892 130.811  1.00  0.00     0.000 C 
ATOM      5  C   UNL     1     115.548 119.356 129.640  1.00  0.00     0.004 C 
ENDBRANCH   3   4
BRANCH   3   6
ATOM      6  C   UNL     1     116.350 121.302 133.057  1.00  0.00    -0.014 C 
ATOM      7  C   UNL     1     115.497 120.773 134.219  1.00  0.00     0.007 C 
ATOM      8  C   UNL     1     117.814 120.846 133.210  1.00  0.00     0.007 C 
ENDBRANCH   3   6
ENDBRANCH   2   3
ENDBRANCH   1   2
BRANCH   1   9
ATOM      9  C   UNL     1     117.251 124.168 130.531  1.00  0.00    -0.011 C 
ATOM     10  C   UNL     1     117.623 125.593 130.994  1.00  0.00     0.008 C 
BRANCH   9  11
ATOM     11  C   UNL     1     118.469 123.182 130.402  1.00  0.00    -0.002 C 
ATOM     12  C   UNL     1     119.783 123.570 131.130  1.00  0.00     0.005 C 
ATOM     13  C   UNL     1     118.916 122.800 128.966  1.00  0.00    -0.023 C 
ATOM     14  C   UNL     1     120.925 122.906 130.337  1.00  0.00     0.009 C 
ATOM     15  C   UNL     1     120.218 122.049 129.286  1.00  0.00     0.021 C 
ATOM     16  C   UNL     1     117.933 121.845 128.215  1.00  0.00     0.008 C 
ATOM     17  C   UNL     1     119.174 124.073 128.102  1.00  0.00     0.012 C 
ATOM     18  C   UNL     1     120.935 121.624 128.022  1.00  0.00    -0.067 C 
ATOM     19  C   UNL     1     118.635 120.700 127.429  1.00  0.00     0.009 C 
ATOM     20  C   UNL     1     120.054 121.069 126.894  1.00  0.00     0.021 C 
ATOM     21  C   UNL     1     122.284 121.586 127.956  1.00  0.00    -0.027 C 
ATOM     22  C   UNL     1     120.775 119.919 126.107  1.00  0.00    -0.023 C 
ATOM     23  C   UNL     1     123.040 120.890 126.851  1.00  0.00     0.031 C 
ATOM     24  C   UNL     1     122.153 120.506 125.651  1.00  0.00     0.002 C 
ATOM     25  C   UNL     1     119.954 119.541 124.836  1.00  0.00     0.010 C 
ATOM     26  C   UNL     1     120.946 118.660 127.008  1.00  0.00     0.012 C 
ATOM     27  C   UNL     1     122.919 119.586 124.676  1.00  0.00     0.036 C 
ATOM     28  C   UNL     1     120.724 118.622 123.874  1.00  0.00     0.032 C 
ATOM     29  C   UNL     1     122.069 119.231 123.448  1.00  0.00     0.114 C 
BRANCH  29  30
ATOM     30  O   UNL     1     121.865 120.381 122.667  1.00  0.00    -0.393 OA
ATOM     31  H   UNL     1     121.578 121.101 123.290  1.00  0.00     0.210 HD
ENDBRANCH  29  30
ENDBRANCH   9  11
ENDBRANCH   1   9
TORSDOF 7
ENDMDL
MODEL 7
REMARK VINA RESULT:    -5.781      3.918      6.763
REMARK INTER + INTRA:         -10.478
REMARK INTER:                  -8.001
REMARK INTRA:                  -2.477
REMARK UNBOUND:                -2.500
REMARK SMILES CC[C@H](CC[C@@H](C)[C@@H]1CC[C@@H]2C3=CC[C@H]4C[C@H](O)CC[C@]4(C)[C@H]3CC[C@]21C)C(C)C
REMARK SMILES IDX 5 1 4 2 3 3 2 4 1 5 28 6 29 7 30 8 6 9 7 10 8 11 9 12 26 13
REMARK SMILES IDX 10 14 11 15 25 16 27 17 12 18 24 19 23 20 13 21 21 22 14 23
REMARK SMILES IDX 15 24 20 25 22 26 16 27 19 28 17 29 18 30
REMARK H PARENT 18 31
REMARK Flexibility Score: inf
ROOT
ATOM      1  C   UNL     1     117.085 119.847 134.775  1.00  0.00     0.004 C 
ENDROOT
BRANCH   1   2
ATOM      2  C   UNL     1     118.221 120.874 134.969  1.00  0.00     0.004 C 
BRANCH   2   3
ATOM      3  C   UNL     1     119.625 120.221 135.092  1.00  0.00    -0.009 C 
BRANCH   3   4
ATOM      4  C   UNL     1     119.612 118.672 134.922  1.00  0.00     0.000 C 
ATOM      5  C   UNL     1     120.674 118.089 133.989  1.00  0.00     0.004 C 
ENDBRANCH   3   4
BRANCH   3   6
ATOM      6  C   UNL     1     120.705 120.995 134.259  1.00  0.00    -0.014 C 
ATOM      7  C   UNL     1     120.126 122.213 133.523  1.00  0.00     0.007 C 
ATOM      8  C   UNL     1     121.977 121.387 135.035  1.00  0.00     0.007 C 
ENDBRANCH   3   6
ENDBRANCH   2   3
ENDBRANCH   1   2
BRANCH   1   9
ATOM      9  C   UNL     1     116.171 120.164 133.562  1.00  0.00    -0.011 C 
ATOM     10  C   UNL     1     114.774 120.612 134.043  1.00  0.00     0.008 C 
BRANCH   9  11
ATOM     11  C   UNL     1     116.888 121.178 132.597  1.00  0.00    -0.002 C 
ATOM     12  C   UNL     1     116.122 122.475 132.227  1.00  0.00     0.005 C 
ATOM     13  C   UNL     1     117.393 120.621 131.240  1.00  0.00    -0.023 C 
ATOM     14  C   UNL     1     116.651 122.906 130.845  1.00  0.00     0.009 C 
ATOM     15  C   UNL     1     117.793 121.934 130.549  1.00  0.00     0.021 C 
ATOM     16  C   UNL     1     118.640 119.686 131.348  1.00  0.00     0.008 C 
ATOM     17  C   UNL     1     116.249 119.885 130.476  1.00  0.00     0.012 C 
ATOM     18  C   UNL     1     118.256 121.690 129.127  1.00  0.00    -0.067 C 
ATOM     19  C   UNL     1     119.724 119.942 130.261  1.00  0.00     0.009 C 
ATOM     20  C   UNL     1     119.156 120.467 128.905  1.00  0.00     0.021 C 
ATOM     21  C   UNL     1     118.020 122.589 128.146  1.00  0.00    -0.027 C 
ATOM     22  C   UNL     1     120.241 120.738 127.803  1.00  0.00    -0.023 C 
ATOM     23  C   UNL     1     118.711 122.552 126.805  1.00  0.00     0.031 C 
ATOM     24  C   UNL     1     119.459 121.231 126.540  1.00  0.00     0.002 C 
ATOM     25  C   UNL     1     120.980 119.413 127.442  1.00  0.00     0.010 C 
ATOM     26  C   UNL     1     121.275 121.792 128.299  1.00  0.00     0.012 C 
ATOM     27  C   UNL     1     120.343 121.345 125.279  1.00  0.00     0.036 C 
ATOM     28  C   UNL     1     121.860 119.539 126.188  1.00  0.00     0.032 C 
ATOM     29  C   UNL     1     121.059 120.024 124.969  1.00  0.00     0.114 C 
BRANCH  29  30
ATOM     30  O   UNL     1     120.118 119.056 124.581  1.00  0.00    -0.393 OA
ATOM     31  H   UNL     1     119.357 119.128 125.216  1.00  0.00     0.210 HD
ENDBRANCH  29  30
ENDBRANCH   9  11
ENDBRANCH   1   9
TORSDOF 7
ENDMDL
MODEL 8
REMARK VINA RESULT:    -5.764      3.660      6.618
REMARK INTER + INTRA:         -10.454
REMARK INTER:                  -8.273
REMARK INTRA:                  -2.181
REMARK UNBOUND:                -2.500
REMARK SMILES CC[C@H](CC[C@@H](C)[C@@H]1CC[C@@H]2C3=CC[C@H]4C[C@H](O)CC[C@]4(C)[C@H]3CC[C@]21C)C(C)C
REMARK SMILES IDX 5 1 4 2 3 3 2 4 1 5 28 6 29 7 30 8 6 9 7 10 8 11 9 12 26 13
REMARK SMILES IDX 10 14 11 15 25 16 27 17 12 18 24 19 23 20 13 21 21 22 14 23
REMARK SMILES IDX 15 24 20 25 22 26 16 27 19 28 17 29 18 30
REMARK H PARENT 18 31
REMARK Flexibility Score: inf
ROOT
ATOM      1  C   UNL     1     115.704 121.367 127.944  1.00  0.00     0.004 C 
ENDROOT
BRANCH   1   2
ATOM      2  C   UNL     1     114.981 121.386 129.307  1.00  0.00     0.004 C 
BRANCH   2   3
ATOM      3  C   UNL     1     115.510 120.315 130.300  1.00  0.00    -0.009 C 
BRANCH   3   4
ATOM      4  C   UNL     1     116.647 119.425 129.712  1.00  0.00     0.000 C 
ATOM      5  C   UNL     1     118.024 119.579 130.359  1.00  0.00     0.004 C 
ENDBRANCH   3   4
BRANCH   3   6
ATOM      6  C   UNL     1     115.775 120.917 131.723  1.00  0.00    -0.014 C 
ATOM      7  C   UNL     1     115.731 122.452 131.736  1.00  0.00     0.007 C 
ATOM      8  C   UNL     1     114.898 120.342 132.852  1.00  0.00     0.007 C 
ENDBRANCH   3   6
ENDBRANCH   2   3
ENDBRANCH   1   2
BRANCH   1   9
ATOM      9  C   UNL     1     116.480 122.675 127.641  1.00  0.00    -0.011 C 
ATOM     10  C   UNL     1     115.633 123.906 128.030  1.00  0.00     0.008 C 
BRANCH   9  11
ATOM     11  C   UNL     1     117.905 122.624 128.305  1.00  0.00    -0.002 C 
ATOM     12  C   UNL     1     118.362 123.868 129.111  1.00  0.00     0.005 C 
ATOM     13  C   UNL     1     119.103 122.296 127.376  1.00  0.00    -0.023 C 
ATOM     14  C   UNL     1     119.902 123.878 129.045  1.00  0.00     0.009 C 
ATOM     15  C   UNL     1     120.267 122.571 128.340  1.00  0.00     0.021 C 
ATOM     16  C   UNL     1     119.162 120.811 126.895  1.00  0.00     0.008 C 
ATOM     17  C   UNL     1     119.131 123.250 126.141  1.00  0.00     0.012 C 
ATOM     18  C   UNL     1     121.605 122.411 127.649  1.00  0.00    -0.067 C 
ATOM     19  C   UNL     1     120.587 120.187 126.930  1.00  0.00     0.009 C 
ATOM     20  C   UNL     1     121.739 121.215 126.697  1.00  0.00     0.021 C 
ATOM     21  C   UNL     1     122.666 123.181 127.980  1.00  0.00    -0.027 C 
ATOM     22  C   UNL     1     123.183 120.598 126.738  1.00  0.00    -0.023 C 
ATOM     23  C   UNL     1     124.080 122.868 127.558  1.00  0.00     0.031 C 
ATOM     24  C   UNL     1     124.167 121.785 126.465  1.00  0.00     0.002 C 
ATOM     25  C   UNL     1     123.349 119.545 125.601  1.00  0.00     0.010 C 
ATOM     26  C   UNL     1     123.451 119.923 128.116  1.00  0.00     0.012 C 
ATOM     27  C   UNL     1     125.628 121.333 126.256  1.00  0.00     0.036 C 
ATOM     28  C   UNL     1     124.807 119.099 125.404  1.00  0.00     0.032 C 
ATOM     29  C   UNL     1     125.742 120.289 125.136  1.00  0.00     0.114 C 
BRANCH  29  30
ATOM     30  O   UNL     1     125.440 120.887 123.901  1.00  0.00    -0.393 OA
ATOM     31  H   UNL     1     126.277 121.317 123.581  1.00  0.00     0.210 HD
ENDBRANCH  29  30
ENDBRANCH   9  11
ENDBRANCH   1   9
TORSDOF 7
ENDMDL
MODEL 9
REMARK VINA RESULT:    -5.607      3.605      6.691
REMARK INTER + INTRA:         -10.237
REMARK INTER:                  -8.049
REMARK INTRA:                  -2.188
REMARK UNBOUND:                -2.500
REMARK SMILES CC[C@H](CC[C@@H](C)[C@@H]1CC[C@@H]2C3=CC[C@H]4C[C@H](O)CC[C@]4(C)[C@H]3CC[C@]21C)C(C)C
REMARK SMILES IDX 5 1 4 2 3 3 2 4 1 5 28 6 29 7 30 8 6 9 7 10 8 11 9 12 26 13
REMARK SMILES IDX 10 14 11 15 25 16 27 17 12 18 24 19 23 20 13 21 21 22 14 23
REMARK SMILES IDX 15 24 20 25 22 26 16 27 19 28 17 29 18 30
REMARK H PARENT 18 31
REMARK Flexibility Score: inf
ROOT
ATOM      1  C   UNL     1     115.644 123.404 128.109  1.00  0.00     0.004 C 
ENDROOT
BRANCH   1   2
ATOM      2  C   UNL     1     116.073 122.059 128.733  1.00  0.00     0.004 C 
BRANCH   2   3
ATOM      3  C   UNL     1     116.167 122.101 130.282  1.00  0.00    -0.009 C 
BRANCH   3   4
ATOM      4  C   UNL     1     114.785 122.008 130.996  1.00  0.00     0.000 C 
ATOM      5  C   UNL     1     114.676 120.975 132.118  1.00  0.00     0.004 C 
ENDBRANCH   3   4
BRANCH   3   6
ATOM      6  C   UNL     1     117.287 121.148 130.827  1.00  0.00    -0.014 C 
ATOM      7  C   UNL     1     117.879 120.243 129.735  1.00  0.00     0.007 C 
ATOM      8  C   UNL     1     118.411 121.842 131.620  1.00  0.00     0.007 C 
ENDBRANCH   3   6
ENDBRANCH   2   3
ENDBRANCH   1   2
BRANCH   1   9
ATOM      9  C   UNL     1     116.840 124.305 127.707  1.00  0.00    -0.011 C 
ATOM     10  C   UNL     1     116.516 125.789 127.990  1.00  0.00     0.008 C 
BRANCH   9  11
ATOM     11  C   UNL     1     118.160 123.783 128.384  1.00  0.00    -0.002 C 
ATOM     12  C   UNL     1     118.860 124.720 129.402  1.00  0.00     0.005 C 
ATOM     13  C   UNL     1     119.297 123.313 127.438  1.00  0.00    -0.023 C 
ATOM     14  C   UNL     1     120.355 124.345 129.373  1.00  0.00     0.009 C 
ATOM     15  C   UNL     1     120.427 123.120 128.461  1.00  0.00     0.021 C 
ATOM     16  C   UNL     1     119.014 121.960 126.710  1.00  0.00     0.008 C 
ATOM     17  C   UNL     1     119.643 124.414 126.388  1.00  0.00     0.012 C 
ATOM     18  C   UNL     1     121.725 122.734 127.783  1.00  0.00    -0.067 C 
ATOM     19  C   UNL     1     120.233 120.994 126.667  1.00  0.00     0.009 C 
ATOM     20  C   UNL     1     121.618 121.714 126.641  1.00  0.00     0.021 C 
ATOM     21  C   UNL     1     122.920 123.142 128.264  1.00  0.00    -0.027 C 
ATOM     22  C   UNL     1     122.856 120.749 126.607  1.00  0.00    -0.023 C 
ATOM     23  C   UNL     1     124.236 122.548 127.826  1.00  0.00     0.031 C 
ATOM     24  C   UNL     1     124.121 121.671 126.564  1.00  0.00     0.002 C 
ATOM     25  C   UNL     1     122.828 119.886 125.308  1.00  0.00     0.010 C 
ATOM     26  C   UNL     1     122.857 119.813 127.852  1.00  0.00     0.012 C 
ATOM     27  C   UNL     1     125.434 120.898 126.312  1.00  0.00     0.036 C 
ATOM     28  C   UNL     1     124.138 119.118 125.069  1.00  0.00     0.032 C 
ATOM     29  C   UNL     1     125.356 120.054 125.032  1.00  0.00     0.114 C 
BRANCH  29  30
ATOM     30  O   UNL     1     125.294 120.901 123.912  1.00  0.00    -0.393 OA
ATOM     31  H   UNL     1     125.598 121.797 124.215  1.00  0.00     0.210 HD
ENDBRANCH  29  30
ENDBRANCH   9  11
ENDBRANCH   1   9
TORSDOF 7
ENDMDL
