MODEL 1
REMARK VINA RESULT:    -4.360      0.000      0.000
REMARK INTER + INTRA:          -6.005
REMARK INTER:                  -6.144
REMARK INTRA:                   0.139
REMARK UNBOUND:                 0.139
REMARK SMILES CC1=CCC(=C(C)C)C(=O)CC(C)=CCC1
REMARK SMILES IDX 12 1 14 2 13 3 15 4 16 5 2 6 1 7 3 8 11 10 9 11 10 12 5 13
REMARK SMILES IDX 6 14 7 15 8 16 4 17
REMARK H PARENT
REMARK Flexibility Score: 60.00
ROOT
ATOM      1  C   UNL     1     -13.129  14.380 -30.418  1.00  0.00    -0.070 C 
ATOM      2  C   UNL     1     -12.274  14.493 -29.375  1.00  0.00    -0.027 C 
ATOM      3  C   UNL     1     -13.972  15.577 -30.777  1.00  0.00     0.039 C 
ENDROOT
BRANCH   2   4
ATOM      4  C   UNL     1     -11.470  13.360 -28.791  1.00  0.00     0.032 C 
BRANCH   4   5
ATOM      5  C   UNL     1     -12.132  12.863 -27.500  1.00  0.00     0.034 C 
BRANCH   5   6
ATOM      6  C   UNL     1     -12.764  11.495 -27.661  1.00  0.00    -0.077 C 
ATOM      7  C   UNL     1     -11.914  10.273 -27.416  1.00  0.00     0.039 C 
ATOM      8  C   UNL     1     -14.077  11.304 -27.945  1.00  0.00    -0.023 CG0
ATOM      9  G   UNL     1     -15.111  12.362 -28.286  1.00  0.00     0.000 G0
ENDBRANCH   5   6
ENDBRANCH   4   5
ENDBRANCH   2   4
BRANCH   1  10
ATOM     10  C   UNL     1     -13.264  13.122 -31.252  1.00  0.00     0.111 C 
BRANCH  10  11
ATOM     11  C   UNL     1     -14.356  12.217 -30.733  1.00  0.00     0.163 C 
ATOM     12  O   UNL     1     -14.369  11.031 -31.159  1.00  0.00    -0.294 OA
BRANCH  11  13
ATOM     13  C   UNL     1     -15.392  12.647 -29.735  1.00  0.00    -0.002 C 
ATOM     14  C   UNL     1     -16.604  13.124 -30.153  1.00  0.00    -0.069 C 
ATOM     15  C   UNL     1     -17.752  13.347 -29.195  1.00  0.00     0.039 C 
ATOM     16  C   UNL     1     -16.848  13.504 -31.597  1.00  0.00     0.039 C 
BRANCH  13  17
ATOM     17  C   UNL     1     -15.121  12.365 -28.261  1.00  0.00     0.066 CG0
ATOM     18  G   UNL     1     -14.066  11.316 -27.957  1.00  0.00     0.000 G0
ENDBRANCH  13  17
ENDBRANCH  11  13
ENDBRANCH  10  11
ENDBRANCH   1  10
TORSDOF 0
ENDMDL
MODEL 2
REMARK VINA RESULT:    -4.102      1.705      3.931
REMARK INTER + INTRA:          -5.642
REMARK INTER:                  -5.505
REMARK INTRA:                  -0.137
REMARK UNBOUND:                 0.139
REMARK SMILES CC1=CCC(=C(C)C)C(=O)CC(C)=CCC1
REMARK SMILES IDX 12 1 14 2 13 3 15 4 16 5 2 6 1 7 3 8 11 10 9 11 10 12 5 13
REMARK SMILES IDX 6 14 7 15 8 16 4 17
REMARK H PARENT
REMARK Flexibility Score: 60.00
ROOT
ATOM      1  C   UNL     1     -14.565  14.900 -30.520  1.00  0.00    -0.070 C 
ATOM      2  C   UNL     1     -15.881  14.789 -30.226  1.00  0.00    -0.027 C 
ATOM      3  C   UNL     1     -14.010  16.276 -30.785  1.00  0.00     0.039 C 
ENDROOT
BRANCH   2   4
ATOM      4  C   UNL     1     -16.627  13.487 -30.080  1.00  0.00     0.032 C 
BRANCH   4   5
ATOM      5  C   UNL     1     -16.712  13.098 -28.600  1.00  0.00     0.034 C 
BRANCH   5   6
ATOM      6  C   UNL     1     -16.414  11.631 -28.368  1.00  0.00    -0.077 C 
ATOM      7  C   UNL     1     -17.474  10.615 -28.714  1.00  0.00     0.039 C 
ATOM      8  C   UNL     1     -15.216  11.168 -27.932  1.00  0.00    -0.023 CG0
ATOM      9  G   UNL     1     -14.023  11.986 -27.470  1.00  0.00     0.000 G0
ENDBRANCH   5   6
ENDBRANCH   4   5
ENDBRANCH   2   4
BRANCH   1  10
ATOM     10  C   UNL     1     -13.621  13.715 -30.575  1.00  0.00     0.111 C 
BRANCH  10  11
ATOM     11  C   UNL     1     -12.902  13.507 -29.264  1.00  0.00     0.163 C 
ATOM     12  O   UNL     1     -12.287  14.497 -28.783  1.00  0.00    -0.294 OA
BRANCH  11  13
ATOM     13  C   UNL     1     -12.905  12.209 -28.508  1.00  0.00    -0.002 C 
ATOM     14  C   UNL     1     -11.859  11.335 -28.626  1.00  0.00    -0.069 C 
ATOM     15  C   UNL     1     -11.710  10.137 -27.716  1.00  0.00     0.039 C 
ATOM     16  C   UNL     1     -10.818  11.490 -29.712  1.00  0.00     0.039 C 
BRANCH  13  17
ATOM     17  C   UNL     1     -14.007  11.988 -27.478  1.00  0.00     0.066 CG0
ATOM     18  G   UNL     1     -15.206  11.176 -27.935  1.00  0.00     0.000 G0
ENDBRANCH  13  17
ENDBRANCH  11  13
ENDBRANCH  10  11
ENDBRANCH   1  10
TORSDOF 0
ENDMDL
MODEL 3
REMARK VINA RESULT:    -4.034      1.535      3.736
REMARK INTER + INTRA:          -5.547
REMARK INTER:                  -5.761
REMARK INTRA:                   0.214
REMARK UNBOUND:                 0.139
REMARK SMILES CC1=CCC(=C(C)C)C(=O)CC(C)=CCC1
REMARK SMILES IDX 12 1 14 2 13 3 15 4 16 5 2 6 1 7 3 8 11 10 9 11 10 12 5 13
REMARK SMILES IDX 6 14 7 15 8 16 4 17
REMARK H PARENT
REMARK Flexibility Score: 60.00
ROOT
ATOM      1  C   UNL     1     -13.114  12.038 -27.939  1.00  0.00    -0.070 C 
ATOM      2  C   UNL     1     -14.072  11.660 -27.062  1.00  0.00    -0.027 C 
ATOM      3  C   UNL     1     -12.097  13.054 -27.485  1.00  0.00     0.039 C 
ENDROOT
BRANCH   2   4
ATOM      4  C   UNL     1     -15.245  10.773 -27.393  1.00  0.00     0.032 C 
BRANCH   4   5
ATOM      5  C   UNL     1     -16.534  11.603 -27.420  1.00  0.00     0.034 C 
BRANCH   5   6
ATOM      6  C   UNL     1     -17.133  11.698 -28.808  1.00  0.00    -0.077 C 
ATOM      7  C   UNL     1     -18.163  10.676 -29.222  1.00  0.00     0.039 C 
ATOM      8  C   UNL     1     -16.851  12.697 -29.682  1.00  0.00    -0.023 CG0
ATOM      9  G   UNL     1     -15.818  13.798 -29.520  1.00  0.00     0.000 G0
ENDBRANCH   5   6
ENDBRANCH   4   5
ENDBRANCH   2   4
BRANCH   1  10
ATOM     10  C   UNL     1     -13.001  11.478 -29.343  1.00  0.00     0.111 C 
BRANCH  10  11
ATOM     11  C   UNL     1     -13.992  12.118 -30.286  1.00  0.00     0.163 C 
ATOM     12  O   UNL     1     -14.463  11.392 -31.204  1.00  0.00    -0.294 OA
BRANCH  11  13
ATOM     13  C   UNL     1     -14.453  13.542 -30.171  1.00  0.00    -0.002 C 
ATOM     14  C   UNL     1     -13.747  14.552 -30.767  1.00  0.00    -0.069 C 
ATOM     15  C   UNL     1     -14.294  15.957 -30.874  1.00  0.00     0.039 C 
ATOM     16  C   UNL     1     -12.353  14.327 -31.309  1.00  0.00     0.039 C 
BRANCH  13  17
ATOM     17  C   UNL     1     -15.814  13.800 -29.534  1.00  0.00     0.066 CG0
ATOM     18  G   UNL     1     -16.852  12.703 -29.688  1.00  0.00     0.000 G0
ENDBRANCH  13  17
ENDBRANCH  11  13
ENDBRANCH  10  11
ENDBRANCH   1  10
TORSDOF 0
ENDMDL
MODEL 4
REMARK VINA RESULT:    -3.950      2.616      4.157
REMARK INTER + INTRA:          -5.428
REMARK INTER:                  -5.529
REMARK INTRA:                   0.101
REMARK UNBOUND:                 0.139
REMARK SMILES CC1=CCC(=C(C)C)C(=O)CC(C)=CCC1
REMARK SMILES IDX 12 1 14 2 13 3 15 4 16 5 2 6 1 7 3 8 11 10 9 11 10 12 5 13
REMARK SMILES IDX 6 14 7 15 8 16 4 17
REMARK H PARENT
REMARK Flexibility Score: 60.00
ROOT
ATOM      1  C   UNL     1     -13.034  11.593 -29.407  1.00  0.00    -0.070 C 
ATOM      2  C   UNL     1     -11.992  11.196 -30.174  1.00  0.00    -0.027 C 
ATOM      3  C   UNL     1     -14.116  10.587 -29.105  1.00  0.00     0.039 C 
ENDROOT
BRANCH   2   4
ATOM      4  C   UNL     1     -10.907  12.104 -30.692  1.00  0.00     0.032 C 
BRANCH   4   5
ATOM      5  C   UNL     1     -11.008  12.220 -32.217  1.00  0.00     0.034 C 
BRANCH   5   6
ATOM      6  C   UNL     1     -11.445  13.599 -32.667  1.00  0.00    -0.077 C 
ATOM      7  C   UNL     1     -10.392  14.576 -33.127  1.00  0.00     0.039 C 
ATOM      8  C   UNL     1     -12.743  13.986 -32.750  1.00  0.00    -0.023 CG0
ATOM      9  G   UNL     1     -13.967  13.210 -32.297  1.00  0.00     0.000 G0
ENDBRANCH   5   6
ENDBRANCH   4   5
ENDBRANCH   2   4
BRANCH   1  10
ATOM     10  C   UNL     1     -13.157  12.986 -28.824  1.00  0.00     0.111 C 
BRANCH  10  11
ATOM     11  C   UNL     1     -13.670  13.979 -29.840  1.00  0.00     0.163 C 
ATOM     12  O   UNL     1     -13.267  15.169 -29.734  1.00  0.00    -0.294 OA
BRANCH  11  13
ATOM     13  C   UNL     1     -14.599  13.618 -30.963  1.00  0.00    -0.002 C 
ATOM     14  C   UNL     1     -15.949  13.799 -30.832  1.00  0.00    -0.069 C 
ATOM     15  C   UNL     1     -16.892  13.671 -32.007  1.00  0.00     0.039 C 
ATOM     16  C   UNL     1     -16.581  14.086 -29.489  1.00  0.00     0.039 C 
BRANCH  13  17
ATOM     17  C   UNL     1     -13.981  13.226 -32.300  1.00  0.00     0.066 CG0
ATOM     18  G   UNL     1     -12.742  13.994 -32.724  1.00  0.00     0.000 G0
ENDBRANCH  13  17
ENDBRANCH  11  13
ENDBRANCH  10  11
ENDBRANCH   1  10
TORSDOF 0
ENDMDL
MODEL 5
REMARK VINA RESULT:    -3.927      1.913      3.559
REMARK INTER + INTRA:          -5.395
REMARK INTER:                  -5.912
REMARK INTRA:                   0.516
REMARK UNBOUND:                 0.139
REMARK SMILES CC1=CCC(=C(C)C)C(=O)CC(C)=CCC1
REMARK SMILES IDX 12 1 14 2 13 3 15 4 16 5 2 6 1 7 3 8 11 10 9 11 10 12 5 13
REMARK SMILES IDX 6 14 7 15 8 16 4 17
REMARK H PARENT
REMARK Flexibility Score: 60.00
ROOT
ATOM      1  C   UNL     1     -16.692  11.209 -28.515  1.00  0.00    -0.070 C 
ATOM      2  C   UNL     1     -16.014  10.194 -27.930  1.00  0.00    -0.027 C 
ATOM      3  C   UNL     1     -17.672  10.870 -29.610  1.00  0.00     0.039 C 
ENDROOT
BRANCH   2   4
ATOM      4  C   UNL     1     -14.899  10.364 -26.930  1.00  0.00     0.032 C 
BRANCH   4   5
ATOM      5  C   UNL     1     -13.554  10.451 -27.660  1.00  0.00     0.034 C 
BRANCH   5   6
ATOM      6  C   UNL     1     -13.059  11.876 -27.796  1.00  0.00    -0.077 C 
ATOM      7  C   UNL     1     -12.291  12.487 -26.650  1.00  0.00     0.039 C 
ATOM      8  C   UNL     1     -13.204  12.617 -28.923  1.00  0.00    -0.023 CG0
ATOM      9  G   UNL     1     -13.980  12.249 -30.175  1.00  0.00     0.000 G0
ENDBRANCH   5   6
ENDBRANCH   4   5
ENDBRANCH   2   4
BRANCH   1  10
ATOM     10  C   UNL     1     -16.532  12.660 -28.110  1.00  0.00     0.111 C 
BRANCH  10  11
ATOM     11  C   UNL     1     -16.035  13.512 -29.254  1.00  0.00     0.163 C 
ATOM     12  O   UNL     1     -16.243  14.754 -29.177  1.00  0.00    -0.294 OA
BRANCH  11  13
ATOM     13  C   UNL     1     -15.299  12.965 -30.442  1.00  0.00    -0.002 C 
ATOM     14  C   UNL     1     -15.728  13.239 -31.712  1.00  0.00    -0.069 C 
ATOM     15  C   UNL     1     -14.895  12.909 -32.929  1.00  0.00     0.039 C 
ATOM     16  C   UNL     1     -17.090  13.845 -31.972  1.00  0.00     0.039 C 
BRANCH  13  17
ATOM     17  C   UNL     1     -13.970  12.260 -30.194  1.00  0.00     0.066 CG0
ATOM     18  G   UNL     1     -13.235  12.633 -28.919  1.00  0.00     0.000 G0
ENDBRANCH  13  17
ENDBRANCH  11  13
ENDBRANCH  10  11
ENDBRANCH   1  10
TORSDOF 0
ENDMDL
MODEL 6
REMARK VINA RESULT:    -3.880      1.652      4.294
REMARK INTER + INTRA:          -5.329
REMARK INTER:                  -5.464
REMARK INTRA:                   0.135
REMARK UNBOUND:                 0.139
REMARK SMILES CC1=CCC(=C(C)C)C(=O)CC(C)=CCC1
REMARK SMILES IDX 12 1 14 2 13 3 15 4 16 5 2 6 1 7 3 8 11 10 9 11 10 12 5 13
REMARK SMILES IDX 6 14 7 15 8 16 4 17
REMARK H PARENT
REMARK Flexibility Score: 60.00
ROOT
ATOM      1  C   UNL     1     -16.050  12.933 -29.271  1.00  0.00    -0.070 C 
ATOM      2  C   UNL     1     -16.100  14.119 -29.920  1.00  0.00    -0.027 C 
ATOM      3  C   UNL     1     -16.607  12.865 -27.872  1.00  0.00     0.039 C 
ENDROOT
BRANCH   2   4
ATOM      4  C   UNL     1     -15.461  14.400 -31.256  1.00  0.00     0.032 C 
BRANCH   4   5
ATOM      5  C   UNL     1     -14.170  15.202 -31.058  1.00  0.00     0.034 C 
BRANCH   5   6
ATOM      6  C   UNL     1     -12.930  14.393 -31.377  1.00  0.00    -0.077 C 
ATOM      7  C   UNL     1     -12.424  14.374 -32.798  1.00  0.00     0.039 C 
ATOM      8  C   UNL     1     -12.200  13.738 -30.439  1.00  0.00    -0.023 CG0
ATOM      9  G   UNL     1     -12.531  13.564 -28.968  1.00  0.00     0.000 G0
ENDBRANCH   5   6
ENDBRANCH   4   5
ENDBRANCH   2   4
BRANCH   1  10
ATOM     10  C   UNL     1     -15.482  11.670 -29.887  1.00  0.00     0.111 C 
BRANCH  10  11
ATOM     11  C   UNL     1     -14.000  11.535 -29.631  1.00  0.00     0.163 C 
ATOM     12  O   UNL     1     -13.356  10.754 -30.383  1.00  0.00    -0.294 OA
BRANCH  11  13
ATOM     13  C   UNL     1     -13.266  12.291 -28.562  1.00  0.00    -0.002 C 
ATOM     14  C   UNL     1     -13.129  11.762 -27.307  1.00  0.00    -0.069 C 
ATOM     15  C   UNL     1     -12.209  12.373 -26.275  1.00  0.00     0.039 C 
ATOM     16  C   UNL     1     -13.935  10.560 -26.864  1.00  0.00     0.039 C 
BRANCH  13  17
ATOM     17  C   UNL     1     -12.530  13.563 -28.966  1.00  0.00     0.066 CG0
ATOM     18  G   UNL     1     -12.194  13.710 -30.440  1.00  0.00     0.000 G0
ENDBRANCH  13  17
ENDBRANCH  11  13
ENDBRANCH  10  11
ENDBRANCH   1  10
TORSDOF 0
ENDMDL
MODEL 7
REMARK VINA RESULT:    -3.794      2.139      3.568
REMARK INTER + INTRA:          -5.207
REMARK INTER:                  -5.435
REMARK INTRA:                   0.228
REMARK UNBOUND:                 0.139
REMARK SMILES CC1=CCC(=C(C)C)C(=O)CC(C)=CCC1
REMARK SMILES IDX 12 1 14 2 13 3 15 4 16 5 2 6 1 7 3 8 11 10 9 11 10 12 5 13
REMARK SMILES IDX 6 14 7 15 8 16 4 17
REMARK H PARENT
REMARK Flexibility Score: 60.00
ROOT
ATOM      1  C   UNL     1     -13.904  14.978 -31.367  1.00  0.00    -0.070 C 
ATOM      2  C   UNL     1     -12.771  15.140 -32.087  1.00  0.00    -0.027 C 
ATOM      3  C   UNL     1     -14.303  16.076 -30.414  1.00  0.00     0.039 C 
ENDROOT
BRANCH   2   4
ATOM      4  C   UNL     1     -12.150  14.088 -32.970  1.00  0.00     0.032 C 
BRANCH   4   5
ATOM      5  C   UNL     1     -10.764  13.712 -32.437  1.00  0.00     0.034 C 
BRANCH   5   6
ATOM      6  C   UNL     1     -10.709  12.292 -31.912  1.00  0.00    -0.077 C 
ATOM      7  C   UNL     1     -10.059  11.230 -32.765  1.00  0.00     0.039 C 
ATOM      8  C   UNL     1     -11.149  11.929 -30.681  1.00  0.00    -0.023 CG0
ATOM      9  G   UNL     1     -11.883  12.794 -29.672  1.00  0.00     0.000 G0
ENDBRANCH   5   6
ENDBRANCH   4   5
ENDBRANCH   2   4
BRANCH   1  10
ATOM     10  C   UNL     1     -14.800  13.762 -31.486  1.00  0.00     0.111 C 
BRANCH  10  11
ATOM     11  C   UNL     1     -14.188  12.545 -30.832  1.00  0.00     0.163 C 
ATOM     12  O   UNL     1     -14.345  11.439 -31.417  1.00  0.00    -0.294 OA
BRANCH  11  13
ATOM     13  C   UNL     1     -13.396  12.593 -29.558  1.00  0.00    -0.002 C 
ATOM     14  C   UNL     1     -13.988  12.296 -28.360  1.00  0.00    -0.069 C 
ATOM     15  C   UNL     1     -13.184  12.105 -27.094  1.00  0.00     0.039 C 
ATOM     16  C   UNL     1     -15.491  12.192 -28.227  1.00  0.00     0.039 C 
BRANCH  13  17
ATOM     17  C   UNL     1     -11.889  12.800 -29.663  1.00  0.00     0.066 CG0
ATOM     18  G   UNL     1     -11.155  11.922 -30.661  1.00  0.00     0.000 G0
ENDBRANCH  13  17
ENDBRANCH  11  13
ENDBRANCH  10  11
ENDBRANCH   1  10
TORSDOF 0
ENDMDL
MODEL 8
REMARK VINA RESULT:    -3.712      1.885      3.728
REMARK INTER + INTRA:          -5.093
REMARK INTER:                  -5.534
REMARK INTRA:                   0.441
REMARK UNBOUND:                 0.139
REMARK SMILES CC1=CCC(=C(C)C)C(=O)CC(C)=CCC1
REMARK SMILES IDX 12 1 14 2 13 3 15 4 16 5 2 6 1 7 3 8 11 10 9 11 10 12 5 13
REMARK SMILES IDX 6 14 7 15 8 16 4 17
REMARK H PARENT
REMARK Flexibility Score: 60.00
ROOT
ATOM      1  C   UNL     1     -12.060  13.166 -29.007  1.00  0.00    -0.070 C 
ATOM      2  C   UNL     1     -11.871  13.945 -30.097  1.00  0.00    -0.027 C 
ATOM      3  C   UNL     1     -11.383  13.567 -27.722  1.00  0.00     0.039 C 
ENDROOT
BRANCH   2   4
ATOM      4  C   UNL     1     -12.348  13.615 -31.488  1.00  0.00     0.032 C 
BRANCH   4   5
ATOM      5  C   UNL     1     -13.243  14.743 -32.014  1.00  0.00     0.034 C 
BRANCH   5   6
ATOM      6  C   UNL     1     -14.201  15.262 -30.962  1.00  0.00    -0.077 C 
ATOM      7  C   UNL     1     -14.048  16.684 -30.483  1.00  0.00     0.039 C 
ATOM      8  C   UNL     1     -15.242  14.541 -30.474  1.00  0.00    -0.023 CG0
ATOM      9  G   UNL     1     -15.568  13.085 -30.755  1.00  0.00     0.000 G0
ENDBRANCH   5   6
ENDBRANCH   4   5
ENDBRANCH   2   4
BRANCH   1  10
ATOM     10  C   UNL     1     -12.933  11.927 -29.010  1.00  0.00     0.111 C 
BRANCH  10  11
ATOM     11  C   UNL     1     -14.359  12.241 -28.624  1.00  0.00     0.163 C 
ATOM     12  O   UNL     1     -14.559  12.643 -27.446  1.00  0.00    -0.294 OA
BRANCH  11  13
ATOM     13  C   UNL     1     -15.523  12.122 -29.565  1.00  0.00    -0.002 C 
ATOM     14  C   UNL     1     -16.578  11.304 -29.265  1.00  0.00    -0.069 C 
ATOM     15  C   UNL     1     -17.863  11.330 -30.059  1.00  0.00     0.039 C 
ATOM     16  C   UNL     1     -16.496  10.287 -28.148  1.00  0.00     0.039 C 
BRANCH  13  17
ATOM     17  C   UNL     1     -15.574  13.071 -30.757  1.00  0.00     0.066 CG0
ATOM     18  G   UNL     1     -15.238  14.525 -30.478  1.00  0.00     0.000 G0
ENDBRANCH  13  17
ENDBRANCH  11  13
ENDBRANCH  10  11
ENDBRANCH   1  10
TORSDOF 0
ENDMDL
MODEL 9
REMARK VINA RESULT:    -3.598      1.796      3.500
REMARK INTER + INTRA:          -4.932
REMARK INTER:                  -5.267
REMARK INTRA:                   0.335
REMARK UNBOUND:                 0.139
REMARK SMILES CC1=CCC(=C(C)C)C(=O)CC(C)=CCC1
REMARK SMILES IDX 12 1 14 2 13 3 15 4 16 5 2 6 1 7 3 8 11 10 9 11 10 12 5 13
REMARK SMILES IDX 6 14 7 15 8 16 4 17
REMARK H PARENT
REMARK Flexibility Score: 60.00
ROOT
ATOM      1  C   UNL     1     -14.620  10.273 -27.310  1.00  0.00    -0.070 C 
ATOM      2  C   UNL     1     -13.297  10.305 -27.591  1.00  0.00    -0.027 C 
ATOM      3  C   UNL     1     -15.035  10.150 -25.866  1.00  0.00     0.039 C 
ENDROOT
BRANCH   2   4
ATOM      4  C   UNL     1     -12.709  10.277 -28.979  1.00  0.00     0.032 C 
BRANCH   4   5
ATOM      5  C   UNL     1     -11.735  11.447 -29.156  1.00  0.00     0.034 C 
BRANCH   5   6
ATOM      6  C   UNL     1     -12.342  12.774 -28.746  1.00  0.00    -0.077 C 
ATOM      7  C   UNL     1     -11.672  13.568 -27.652  1.00  0.00     0.039 C 
ATOM      8  C   UNL     1     -13.419  13.328 -29.358  1.00  0.00    -0.023 CG0
ATOM      9  G   UNL     1     -14.290  12.704 -30.434  1.00  0.00     0.000 G0
ENDBRANCH   5   6
ENDBRANCH   4   5
ENDBRANCH   2   4
BRANCH   1  10
ATOM     10  C   UNL     1     -15.700  10.377 -28.368  1.00  0.00     0.111 C 
BRANCH  10  11
ATOM     11  C   UNL     1     -16.040  11.813 -28.687  1.00  0.00     0.163 C 
ATOM     12  O   UNL     1     -16.557  12.500 -27.764  1.00  0.00    -0.294 OA
BRANCH  11  13
ATOM     13  C   UNL     1     -15.775  12.457 -30.017  1.00  0.00    -0.002 C 
ATOM     14  C   UNL     1     -16.807  12.949 -30.769  1.00  0.00    -0.069 C 
ATOM     15  C   UNL     1     -16.571  13.805 -31.992  1.00  0.00     0.039 C 
ATOM     16  C   UNL     1     -18.247  12.619 -30.445  1.00  0.00     0.039 C 
BRANCH  13  17
ATOM     17  C   UNL     1     -14.323  12.708 -30.410  1.00  0.00     0.066 CG0
ATOM     18  G   UNL     1     -13.433  13.330 -29.349  1.00  0.00     0.000 G0
ENDBRANCH  13  17
ENDBRANCH  11  13
ENDBRANCH  10  11
ENDBRANCH   1  10
TORSDOF 0
ENDMDL
