MODEL 1
REMARK VINA RESULT:    -5.622      0.000      0.000
REMARK INTER + INTRA:          -9.628
REMARK INTER:                  -8.580
REMARK INTRA:                  -1.048
REMARK UNBOUND:                -1.048
REMARK SMILES CC(=O)CCC=C(C)CCC=C(C)CCC=C(C)C
REMARK SMILES IDX 10 1 11 2 12 3 13 4 14 5 15 6 16 7 18 8 17 9 19 10 9 11 7 12
REMARK SMILES IDX 6 13 8 14 5 15 4 16 2 17 3 18 1 19
REMARK H PARENT
REMARK Flexibility Score: inf
ROOT
ATOM      1  C   UNL     1     -26.577  16.797 -31.158  1.00  0.00     0.032 C 
ENDROOT
BRANCH   1   2
ATOM      2  C   UNL     1     -25.467  15.808 -30.896  1.00  0.00    -0.028 C 
ATOM      3  C   UNL     1     -25.640  14.480 -30.704  1.00  0.00    -0.077 C 
ATOM      4  C   UNL     1     -24.416  13.619 -30.537  1.00  0.00     0.039 C 
BRANCH   3   5
ATOM      5  C   UNL     1     -27.010  13.830 -30.616  1.00  0.00     0.034 C 
BRANCH   5   6
ATOM      6  C   UNL     1     -26.978  12.543 -29.778  1.00  0.00     0.032 C 
BRANCH   6   7
ATOM      7  C   UNL     1     -27.839  11.458 -30.380  1.00  0.00    -0.028 C 
ATOM      8  C   UNL     1     -29.863  10.114 -30.748  1.00  0.00     0.039 C 
ATOM      9  C   UNL     1     -29.114  11.198 -30.017  1.00  0.00    -0.080 C 
ATOM     10  C   UNL     1     -29.795  11.946 -28.893  1.00  0.00     0.039 C 
ENDBRANCH   6   7
ENDBRANCH   5   6
ENDBRANCH   3   5
ENDBRANCH   1   2
BRANCH   1  11
ATOM     11  C   UNL     1     -26.180  17.827 -32.228  1.00  0.00     0.034 C 
BRANCH  11  12
ATOM     12  C   UNL     1     -27.343  18.166 -33.144  1.00  0.00    -0.077 C 
ATOM     13  C   UNL     1     -27.351  19.252 -33.950  1.00  0.00    -0.028 C 
ATOM     14  C   UNL     1     -28.528  17.235 -33.188  1.00  0.00     0.039 C 
BRANCH  13  15
ATOM     15  C   UNL     1     -26.276  20.309 -33.985  1.00  0.00     0.035 C 
BRANCH  15  16
ATOM     16  C   UNL     1     -25.247  19.999 -35.079  1.00  0.00     0.079 C 
BRANCH  16  17
ATOM     17  C   UNL     1     -23.903  19.692 -34.473  1.00  0.00     0.130 C 
ATOM     18  O   UNL     1     -23.281  18.713 -34.855  1.00  0.00    -0.300 OA
ATOM     19  C   UNL     1     -23.313  20.558 -33.399  1.00  0.00     0.087 C 
ENDBRANCH  16  17
ENDBRANCH  15  16
ENDBRANCH  13  15
ENDBRANCH  11  12
ENDBRANCH   1  11
TORSDOF 9
ENDMDL
MODEL 2
REMARK VINA RESULT:    -5.555      9.726     13.657
REMARK INTER + INTRA:          -9.526
REMARK INTER:                  -7.918
REMARK INTRA:                  -1.609
REMARK UNBOUND:                -1.048
REMARK SMILES CC(=O)CCC=C(C)CCC=C(C)CCC=C(C)C
REMARK SMILES IDX 10 1 11 2 12 3 13 4 14 5 15 6 16 7 18 8 17 9 19 10 9 11 7 12
REMARK SMILES IDX 6 13 8 14 5 15 4 16 2 17 3 18 1 19
REMARK H PARENT
REMARK Flexibility Score: inf
ROOT
ATOM      1  C   UNL     1     -16.663  13.847 -29.669  1.00  0.00     0.032 C 
ENDROOT
BRANCH   1   2
ATOM      2  C   UNL     1     -16.542  13.170 -31.012  1.00  0.00    -0.028 C 
ATOM      3  C   UNL     1     -15.497  13.309 -31.860  1.00  0.00    -0.077 C 
ATOM      4  C   UNL     1     -15.496  12.496 -33.129  1.00  0.00     0.039 C 
BRANCH   3   5
ATOM      5  C   UNL     1     -14.349  14.270 -31.606  1.00  0.00     0.034 C 
BRANCH   5   6
ATOM      6  C   UNL     1     -13.076  13.535 -31.163  1.00  0.00     0.032 C 
BRANCH   6   7
ATOM      7  C   UNL     1     -11.826  14.231 -31.647  1.00  0.00    -0.028 C 
ATOM      8  C   UNL     1      -9.947  14.727 -33.150  1.00  0.00     0.039 C 
ATOM      9  C   UNL     1     -11.151  13.904 -32.770  1.00  0.00    -0.080 C 
ATOM     10  C   UNL     1     -11.555  12.732 -33.635  1.00  0.00     0.039 C 
ENDBRANCH   6   7
ENDBRANCH   5   6
ENDBRANCH   3   5
ENDBRANCH   1   2
BRANCH   1  11
ATOM     11  C   UNL     1     -17.142  12.871 -28.582  1.00  0.00     0.034 C 
BRANCH  11  12
ATOM     12  C   UNL     1     -16.287  11.617 -28.532  1.00  0.00    -0.077 C 
ATOM     13  C   UNL     1     -16.805  10.370 -28.608  1.00  0.00    -0.028 C 
ATOM     14  C   UNL     1     -14.790  11.763 -28.426  1.00  0.00     0.039 C 
BRANCH  13  15
ATOM     15  C   UNL     1     -18.277  10.049 -28.659  1.00  0.00     0.035 C 
BRANCH  15  16
ATOM     16  C   UNL     1     -18.860  10.393 -30.034  1.00  0.00     0.079 C 
BRANCH  16  17
ATOM     17  C   UNL     1     -20.178  11.107 -29.890  1.00  0.00     0.130 C 
ATOM     18  O   UNL     1     -21.153  10.493 -29.483  1.00  0.00    -0.300 OA
ATOM     19  C   UNL     1     -20.326  12.556 -30.248  1.00  0.00     0.087 C 
ENDBRANCH  16  17
ENDBRANCH  15  16
ENDBRANCH  13  15
ENDBRANCH  11  12
ENDBRANCH   1  11
TORSDOF 9
ENDMDL
MODEL 3
REMARK VINA RESULT:    -5.385      2.721      7.579
REMARK INTER + INTRA:          -9.267
REMARK INTER:                  -7.951
REMARK INTRA:                  -1.316
REMARK UNBOUND:                -1.048
REMARK SMILES CC(=O)CCC=C(C)CCC=C(C)CCC=C(C)C
REMARK SMILES IDX 10 1 11 2 12 3 13 4 14 5 15 6 16 7 18 8 17 9 19 10 9 11 7 12
REMARK SMILES IDX 6 13 8 14 5 15 4 16 2 17 3 18 1 19
REMARK H PARENT
REMARK Flexibility Score: inf
ROOT
ATOM      1  C   UNL     1     -28.938  18.664 -33.779  1.00  0.00     0.032 C 
ENDROOT
BRANCH   1   2
ATOM      2  C   UNL     1     -28.532  20.040 -33.307  1.00  0.00    -0.028 C 
ATOM      3  C   UNL     1     -27.727  20.887 -33.988  1.00  0.00    -0.077 C 
ATOM      4  C   UNL     1     -27.487  22.259 -33.413  1.00  0.00     0.039 C 
BRANCH   3   5
ATOM      5  C   UNL     1     -27.029  20.504 -35.281  1.00  0.00     0.034 C 
BRANCH   5   6
ATOM      6  C   UNL     1     -25.513  20.349 -35.088  1.00  0.00     0.032 C 
BRANCH   6   7
ATOM      7  C   UNL     1     -25.181  19.255 -34.101  1.00  0.00    -0.028 C 
ATOM      8  C   UNL     1     -23.913  18.098 -32.343  1.00  0.00     0.039 C 
ATOM      9  C   UNL     1     -24.080  19.235 -33.318  1.00  0.00    -0.080 C 
ATOM     10  C   UNL     1     -23.014  20.302 -33.408  1.00  0.00     0.039 C 
ENDBRANCH   6   7
ENDBRANCH   5   6
ENDBRANCH   3   5
ENDBRANCH   1   2
BRANCH   1  11
ATOM     11  C   UNL     1     -28.257  17.558 -32.957  1.00  0.00     0.034 C 
BRANCH  11  12
ATOM     12  C   UNL     1     -28.965  16.224 -33.110  1.00  0.00    -0.077 C 
ATOM     13  C   UNL     1     -28.623  15.124 -32.399  1.00  0.00    -0.028 C 
ATOM     14  C   UNL     1     -30.123  16.122 -34.069  1.00  0.00     0.039 C 
BRANCH  13  15
ATOM     15  C   UNL     1     -27.458  15.041 -31.445  1.00  0.00     0.035 C 
BRANCH  15  16
ATOM     16  C   UNL     1     -27.360  13.641 -30.830  1.00  0.00     0.079 C 
BRANCH  16  17
ATOM     17  C   UNL     1     -25.923  13.271 -30.573  1.00  0.00     0.130 C 
ATOM     18  O   UNL     1     -25.662  12.191 -30.068  1.00  0.00    -0.300 OA
ATOM     19  C   UNL     1     -24.802  14.208 -30.912  1.00  0.00     0.087 C 
ENDBRANCH  16  17
ENDBRANCH  15  16
ENDBRANCH  13  15
ENDBRANCH  11  12
ENDBRANCH   1  11
TORSDOF 9
ENDMDL
MODEL 4
REMARK VINA RESULT:    -5.339      9.812     12.452
REMARK INTER + INTRA:          -9.197
REMARK INTER:                  -7.164
REMARK INTRA:                  -2.033
REMARK UNBOUND:                -1.048
REMARK SMILES CC(=O)CCC=C(C)CCC=C(C)CCC=C(C)C
REMARK SMILES IDX 10 1 11 2 12 3 13 4 14 5 15 6 16 7 18 8 17 9 19 10 9 11 7 12
REMARK SMILES IDX 6 13 8 14 5 15 4 16 2 17 3 18 1 19
REMARK H PARENT
REMARK Flexibility Score: inf
ROOT
ATOM      1  C   UNL     1     -16.849  12.473 -32.117  1.00  0.00     0.032 C 
ENDROOT
BRANCH   1   2
ATOM      2  C   UNL     1     -18.215  12.725 -31.525  1.00  0.00    -0.028 C 
ATOM      3  C   UNL     1     -18.882  11.868 -30.719  1.00  0.00    -0.077 C 
ATOM      4  C   UNL     1     -20.203  12.310 -30.146  1.00  0.00     0.039 C 
BRANCH   3   5
ATOM      5  C   UNL     1     -18.375  10.473 -30.397  1.00  0.00     0.034 C 
BRANCH   5   6
ATOM      6  C   UNL     1     -18.509  10.148 -28.902  1.00  0.00     0.032 C 
BRANCH   6   7
ATOM      7  C   UNL     1     -17.163  10.055 -28.223  1.00  0.00    -0.028 C 
ATOM      8  C   UNL     1     -15.159  10.854 -27.048  1.00  0.00     0.039 C 
ATOM      9  C   UNL     1     -16.468  11.112 -27.748  1.00  0.00    -0.080 C 
ATOM     10  C   UNL     1     -16.955  12.533 -27.917  1.00  0.00     0.039 C 
ENDBRANCH   6   7
ENDBRANCH   5   6
ENDBRANCH   3   5
ENDBRANCH   1   2
BRANCH   1  11
ATOM     11  C   UNL     1     -15.743  13.173 -31.312  1.00  0.00     0.034 C 
BRANCH  11  12
ATOM     12  C   UNL     1     -14.549  12.262 -31.082  1.00  0.00    -0.077 C 
ATOM     13  C   UNL     1     -13.275  12.715 -31.042  1.00  0.00    -0.028 C 
ATOM     14  C   UNL     1     -14.792  10.792 -30.853  1.00  0.00     0.039 C 
BRANCH  13  15
ATOM     15  C   UNL     1     -12.857  14.139 -31.308  1.00  0.00     0.035 C 
BRANCH  15  16
ATOM     16  C   UNL     1     -12.488  14.329 -32.783  1.00  0.00     0.079 C 
BRANCH  16  17
ATOM     17  C   UNL     1     -11.221  13.585 -33.114  1.00  0.00     0.130 C 
ATOM     18  O   UNL     1     -11.265  12.632 -33.876  1.00  0.00    -0.300 OA
ATOM     19  C   UNL     1      -9.903  13.981 -32.517  1.00  0.00     0.087 C 
ENDBRANCH  16  17
ENDBRANCH  15  16
ENDBRANCH  13  15
ENDBRANCH  11  12
ENDBRANCH   1  11
TORSDOF 9
ENDMDL
MODEL 5
REMARK VINA RESULT:    -5.214     10.375     14.027
REMARK INTER + INTRA:          -9.006
REMARK INTER:                  -7.647
REMARK INTRA:                  -1.359
REMARK UNBOUND:                -1.048
REMARK SMILES CC(=O)CCC=C(C)CCC=C(C)CCC=C(C)C
REMARK SMILES IDX 10 1 11 2 12 3 13 4 14 5 15 6 16 7 18 8 17 9 19 10 9 11 7 12
REMARK SMILES IDX 6 13 8 14 5 15 4 16 2 17 3 18 1 19
REMARK H PARENT
REMARK Flexibility Score: inf
ROOT
ATOM      1  C   UNL     1     -16.776  13.916 -29.719  1.00  0.00     0.032 C 
ENDROOT
BRANCH   1   2
ATOM      2  C   UNL     1     -16.551  13.335 -31.095  1.00  0.00    -0.028 C 
ATOM      3  C   UNL     1     -15.343  13.171 -31.680  1.00  0.00    -0.077 C 
ATOM      4  C   UNL     1     -15.289  12.499 -33.027  1.00  0.00     0.039 C 
BRANCH   3   5
ATOM      5  C   UNL     1     -14.049  13.665 -31.056  1.00  0.00     0.034 C 
BRANCH   5   6
ATOM      6  C   UNL     1     -13.134  14.335 -32.092  1.00  0.00     0.032 C 
BRANCH   6   7
ATOM      7  C   UNL     1     -12.263  13.329 -32.807  1.00  0.00    -0.028 C 
ATOM      8  C   UNL     1     -10.185  12.204 -33.478  1.00  0.00     0.039 C 
ATOM      9  C   UNL     1     -10.914  13.304 -32.750  1.00  0.00    -0.080 C 
ATOM     10  C   UNL     1     -10.124  14.351 -32.000  1.00  0.00     0.039 C 
ENDBRANCH   6   7
ENDBRANCH   5   6
ENDBRANCH   3   5
ENDBRANCH   1   2
BRANCH   1  11
ATOM     11  C   UNL     1     -17.354  12.872 -28.750  1.00  0.00     0.034 C 
BRANCH  11  12
ATOM     12  C   UNL     1     -18.303  11.916 -29.449  1.00  0.00    -0.077 C 
ATOM     13  C   UNL     1     -18.093  10.580 -29.505  1.00  0.00    -0.028 C 
ATOM     14  C   UNL     1     -19.555  12.468 -30.082  1.00  0.00     0.039 C 
BRANCH  13  15
ATOM     15  C   UNL     1     -16.868   9.877 -28.977  1.00  0.00     0.035 C 
BRANCH  15  16
ATOM     16  C   UNL     1     -15.735   9.914 -30.007  1.00  0.00     0.079 C 
BRANCH  16  17
ATOM     17  C   UNL     1     -14.445  10.350 -29.364  1.00  0.00     0.130 C 
ATOM     18  O   UNL     1     -13.417  10.360 -30.024  1.00  0.00    -0.300 OA
ATOM     19  C   UNL     1     -14.389  10.761 -27.922  1.00  0.00     0.087 C 
ENDBRANCH  16  17
ENDBRANCH  15  16
ENDBRANCH  13  15
ENDBRANCH  11  12
ENDBRANCH   1  11
TORSDOF 9
ENDMDL
MODEL 6
REMARK VINA RESULT:    -5.192      9.256     11.600
REMARK INTER + INTRA:          -8.972
REMARK INTER:                  -7.576
REMARK INTRA:                  -1.396
REMARK UNBOUND:                -1.048
REMARK SMILES CC(=O)CCC=C(C)CCC=C(C)CCC=C(C)C
REMARK SMILES IDX 10 1 11 2 12 3 13 4 14 5 15 6 16 7 18 8 17 9 19 10 9 11 7 12
REMARK SMILES IDX 6 13 8 14 5 15 4 16 2 17 3 18 1 19
REMARK H PARENT
REMARK Flexibility Score: inf
ROOT
ATOM      1  C   UNL     1     -16.776  13.303 -29.362  1.00  0.00     0.032 C 
ENDROOT
BRANCH   1   2
ATOM      2  C   UNL     1     -16.723  12.240 -28.291  1.00  0.00    -0.028 C 
ATOM      3  C   UNL     1     -16.980  10.927 -28.488  1.00  0.00    -0.077 C 
ATOM      4  C   UNL     1     -16.802   9.984 -27.327  1.00  0.00     0.039 C 
BRANCH   3   5
ATOM      5  C   UNL     1     -17.473  10.371 -29.813  1.00  0.00     0.034 C 
BRANCH   5   6
ATOM      6  C   UNL     1     -19.003  10.245 -29.846  1.00  0.00     0.032 C 
BRANCH   6   7
ATOM      7  C   UNL     1     -19.666  11.547 -30.229  1.00  0.00    -0.028 C 
ATOM      8  C   UNL     1     -21.506  13.142 -30.556  1.00  0.00     0.039 C 
ATOM      9  C   UNL     1     -20.998  11.771 -30.193  1.00  0.00    -0.080 C 
ATOM     10  C   UNL     1     -21.983  10.686 -29.822  1.00  0.00     0.039 C 
ENDBRANCH   6   7
ENDBRANCH   5   6
ENDBRANCH   3   5
ENDBRANCH   1   2
BRANCH   1  11
ATOM     11  C   UNL     1     -15.422  13.462 -30.072  1.00  0.00     0.034 C 
BRANCH  11  12
ATOM     12  C   UNL     1     -15.524  13.157 -31.556  1.00  0.00    -0.077 C 
ATOM     13  C   UNL     1     -14.475  12.719 -32.291  1.00  0.00    -0.028 C 
ATOM     14  C   UNL     1     -16.858  13.314 -32.240  1.00  0.00     0.039 C 
BRANCH  13  15
ATOM     15  C   UNL     1     -13.066  12.564 -31.776  1.00  0.00     0.035 C 
BRANCH  15  16
ATOM     16  C   UNL     1     -12.255  13.840 -32.026  1.00  0.00     0.079 C 
BRANCH  16  17
ATOM     17  C   UNL     1     -11.144  13.580 -33.008  1.00  0.00     0.130 C 
ATOM     18  O   UNL     1     -11.089  12.504 -33.583  1.00  0.00    -0.300 OA
ATOM     19  C   UNL     1     -10.090  14.611 -33.288  1.00  0.00     0.087 C 
ENDBRANCH  16  17
ENDBRANCH  15  16
ENDBRANCH  13  15
ENDBRANCH  11  12
ENDBRANCH   1  11
TORSDOF 9
ENDMDL
MODEL 7
REMARK VINA RESULT:    -5.127      5.237      7.778
REMARK INTER + INTRA:          -8.873
REMARK INTER:                  -8.264
REMARK INTRA:                  -0.609
REMARK UNBOUND:                -1.048
REMARK SMILES CC(=O)CCC=C(C)CCC=C(C)CCC=C(C)C
REMARK SMILES IDX 10 1 11 2 12 3 13 4 14 5 15 6 16 7 18 8 17 9 19 10 9 11 7 12
REMARK SMILES IDX 6 13 8 14 5 15 4 16 2 17 3 18 1 19
REMARK H PARENT
REMARK Flexibility Score: inf
ROOT
ATOM      1  C   UNL     1     -21.887  12.203 -30.435  1.00  0.00     0.032 C 
ENDROOT
BRANCH   1   2
ATOM      2  C   UNL     1     -22.844  13.302 -30.832  1.00  0.00    -0.028 C 
ATOM      3  C   UNL     1     -24.144  13.369 -30.464  1.00  0.00    -0.077 C 
ATOM      4  C   UNL     1     -24.940  14.579 -30.880  1.00  0.00     0.039 C 
BRANCH   3   5
ATOM      5  C   UNL     1     -24.840  12.267 -29.685  1.00  0.00     0.034 C 
BRANCH   5   6
ATOM      6  C   UNL     1     -25.957  11.605 -30.507  1.00  0.00     0.032 C 
BRANCH   6   7
ATOM      7  C   UNL     1     -27.326  12.070 -30.072  1.00  0.00    -0.028 C 
ATOM      8  C   UNL     1     -29.344  12.178 -28.675  1.00  0.00     0.039 C 
ATOM      9  C   UNL     1     -28.006  11.574 -29.016  1.00  0.00    -0.080 C 
ATOM     10  C   UNL     1     -27.475  10.426 -28.188  1.00  0.00     0.039 C 
ENDBRANCH   6   7
ENDBRANCH   5   6
ENDBRANCH   3   5
ENDBRANCH   1   2
BRANCH   1  11
ATOM     11  C   UNL     1     -20.448  12.725 -30.299  1.00  0.00     0.034 C 
BRANCH  11  12
ATOM     12  C   UNL     1     -19.443  11.591 -30.200  1.00  0.00    -0.077 C 
ATOM     13  C   UNL     1     -18.242  11.616 -30.822  1.00  0.00    -0.028 C 
ATOM     14  C   UNL     1     -19.778  10.397 -29.343  1.00  0.00     0.039 C 
BRANCH  13  15
ATOM     15  C   UNL     1     -17.778  12.703 -31.758  1.00  0.00     0.035 C 
BRANCH  15  16
ATOM     16  C   UNL     1     -16.259  12.885 -31.666  1.00  0.00     0.079 C 
BRANCH  16  17
ATOM     17  C   UNL     1     -15.913  13.998 -30.712  1.00  0.00     0.130 C 
ATOM     18  O   UNL     1     -16.579  14.151 -29.700  1.00  0.00    -0.300 OA
ATOM     19  C   UNL     1     -14.773  14.934 -30.984  1.00  0.00     0.087 C 
ENDBRANCH  16  17
ENDBRANCH  15  16
ENDBRANCH  13  15
ENDBRANCH  11  12
ENDBRANCH   1  11
TORSDOF 9
ENDMDL
MODEL 8
REMARK VINA RESULT:    -4.965      5.608      8.319
REMARK INTER + INTRA:          -8.626
REMARK INTER:                  -7.648
REMARK INTRA:                  -0.977
REMARK UNBOUND:                -1.048
REMARK SMILES CC(=O)CCC=C(C)CCC=C(C)CCC=C(C)C
REMARK SMILES IDX 10 1 11 2 12 3 13 4 14 5 15 6 16 7 18 8 17 9 19 10 9 11 7 12
REMARK SMILES IDX 6 13 8 14 5 15 4 16 2 17 3 18 1 19
REMARK H PARENT
REMARK Flexibility Score: inf
ROOT
ATOM      1  C   UNL     1     -22.899  10.345 -29.853  1.00  0.00     0.032 C 
ENDROOT
BRANCH   1   2
ATOM      2  C   UNL     1     -23.833  10.089 -28.695  1.00  0.00    -0.028 C 
ATOM      3  C   UNL     1     -25.175  10.256 -28.728  1.00  0.00    -0.077 C 
ATOM      4  C   UNL     1     -25.971   9.877 -27.507  1.00  0.00     0.039 C 
BRANCH   3   5
ATOM      5  C   UNL     1     -25.905  10.839 -29.926  1.00  0.00     0.034 C 
BRANCH   5   6
ATOM      6  C   UNL     1     -26.135  12.350 -29.775  1.00  0.00     0.032 C 
BRANCH   6   7
ATOM      7  C   UNL     1     -27.397  12.799 -30.471  1.00  0.00    -0.028 C 
ATOM      8  C   UNL     1     -29.802  13.218 -30.753  1.00  0.00     0.039 C 
ATOM      9  C   UNL     1     -28.642  12.673 -29.960  1.00  0.00    -0.080 C 
ATOM     10  C   UNL     1     -28.900  11.988 -28.638  1.00  0.00     0.039 C 
ENDBRANCH   6   7
ENDBRANCH   5   6
ENDBRANCH   3   5
ENDBRANCH   1   2
BRANCH   1  11
ATOM     11  C   UNL     1     -21.447  10.528 -29.383  1.00  0.00     0.034 C 
BRANCH  11  12
ATOM     12  C   UNL     1     -20.743  11.638 -30.143  1.00  0.00    -0.077 C 
ATOM     13  C   UNL     1     -19.436  11.581 -30.485  1.00  0.00    -0.028 C 
ATOM     14  C   UNL     1     -21.541  12.845 -30.569  1.00  0.00     0.039 C 
BRANCH  13  15
ATOM     15  C   UNL     1     -18.488  10.478 -30.088  1.00  0.00     0.035 C 
BRANCH  15  16
ATOM     16  C   UNL     1     -17.847  10.777 -28.729  1.00  0.00     0.079 C 
BRANCH  16  17
ATOM     17  C   UNL     1     -16.895  11.940 -28.833  1.00  0.00     0.130 C 
ATOM     18  O   UNL     1     -17.185  13.002 -28.306  1.00  0.00    -0.300 OA
ATOM     19  C   UNL     1     -15.602  11.826 -29.583  1.00  0.00     0.087 C 
ENDBRANCH  16  17
ENDBRANCH  15  16
ENDBRANCH  13  15
ENDBRANCH  11  12
ENDBRANCH   1  11
TORSDOF 9
ENDMDL
