MODEL 1
REMARK VINA RESULT:    -2.911      0.000      0.000
REMARK INTER + INTRA:         -12.815
REMARK INTER:                  -7.336
REMARK INTRA:                  -5.478
REMARK UNBOUND:                -5.478
REMARK SMILES CCCCCCCCCCCCCCCCCCCCCCCCCCCC(=O)[O-]
REMARK SMILES IDX 15 1 16 2 17 3 18 4 19 5 20 6 21 7 22 8 23 9 24 10 25 11
REMARK SMILES IDX 26 12 27 13 28 14 29 15 30 16 14 17 13 18 12 19 11 20 10 21
REMARK SMILES IDX 9 22 8 23 7 24 6 25 5 26 4 27 3 28 2 29 1 30
REMARK H PARENT
REMARK Flexibility Score: inf
ROOT
ATOM      1  C   UNL     1      56.106  26.000  50.446  1.00  0.00     0.000 C 
ENDROOT
BRANCH   1   2
ATOM      2  C   UNL     1      57.087  25.651  51.581  1.00  0.00     0.000 C 
BRANCH   2   3
ATOM      3  C   UNL     1      58.490  25.271  51.065  1.00  0.00     0.000 C 
BRANCH   3   4
ATOM      4  C   UNL     1      59.068  26.251  50.025  1.00  0.00     0.000 C 
BRANCH   4   5
ATOM      5  C   UNL     1      59.540  27.604  50.585  1.00  0.00     0.000 C 
BRANCH   5   6
ATOM      6  C   UNL     1      58.929  28.846  49.906  1.00  0.00     0.000 C 
BRANCH   6   7
ATOM      7  C   UNL     1      58.022  29.705  50.805  1.00  0.00     0.000 C 
BRANCH   7   8
ATOM      8  C   UNL     1      58.006  29.224  52.268  1.00  0.00     0.000 C 
BRANCH   8   9
ATOM      9  C   UNL     1      57.857  30.380  53.273  1.00  0.00     0.000 C 
BRANCH   9  10
ATOM     10  C   UNL     1      56.931  31.530  52.826  1.00  0.00     0.000 C 
BRANCH  10  11
ATOM     11  C   UNL     1      56.881  32.717  53.810  1.00  0.00     0.000 C 
BRANCH  11  12
ATOM     12  C   UNL     1      55.455  33.011  54.309  1.00  0.00     0.006 C 
BRANCH  12  13
ATOM     13  C   UNL     1      55.253  32.593  55.771  1.00  0.00     0.053 C 
BRANCH  13  14
ATOM     14  C   UNL     1      54.845  33.749  56.634  1.00  0.00     0.041 C 
ATOM     15  O   UNL     1      53.957  33.603  57.516  1.00  0.00    -0.550 OA
ATOM     16  O   UNL     1      55.466  34.983  56.479  1.00  0.00    -0.550 OA
ENDBRANCH  13  14
ENDBRANCH  12  13
ENDBRANCH  11  12
ENDBRANCH  10  11
ENDBRANCH   9  10
ENDBRANCH   8   9
ENDBRANCH   7   8
ENDBRANCH   6   7
ENDBRANCH   5   6
ENDBRANCH   4   5
ENDBRANCH   3   4
ENDBRANCH   2   3
ENDBRANCH   1   2
BRANCH   1  17
ATOM     17  C   UNL     1      55.410  27.353  50.659  1.00  0.00     0.000 C 
BRANCH  17  18
ATOM     18  C   UNL     1      53.927  27.332  50.244  1.00  0.00     0.000 C 
BRANCH  18  19
ATOM     19  C   UNL     1      53.263  28.715  50.345  1.00  0.00     0.000 C 
BRANCH  19  20
ATOM     20  C   UNL     1      54.253  29.817  50.754  1.00  0.00     0.000 C 
BRANCH  20  21
ATOM     21  C   UNL     1      53.650  30.730  51.829  1.00  0.00     0.000 C 
BRANCH  21  22
ATOM     22  C   UNL     1      53.013  29.901  52.956  1.00  0.00    -0.000 C 
BRANCH  22  23
ATOM     23  C   UNL     1      54.021  29.511  54.049  1.00  0.00    -0.000 C 
BRANCH  23  24
ATOM     24  C   UNL     1      54.290  27.996  54.095  1.00  0.00    -0.000 C 
BRANCH  24  25
ATOM     25  C   UNL     1      55.729  27.664  54.530  1.00  0.00    -0.000 C 
BRANCH  25  26
ATOM     26  C   UNL     1      55.845  26.981  55.907  1.00  0.00    -0.000 C 
BRANCH  26  27
ATOM     27  C   UNL     1      56.444  27.860  57.023  1.00  0.00    -0.000 C 
BRANCH  27  28
ATOM     28  C   UNL     1      56.559  29.356  56.682  1.00  0.00    -0.000 C 
BRANCH  28  29
ATOM     29  C   UNL     1      57.530  30.105  57.605  1.00  0.00    -0.003 C 
ATOM     30  C   UNL     1      58.505  30.961  56.801  1.00  0.00     0.004 C 
ENDBRANCH  28  29
ENDBRANCH  27  28
ENDBRANCH  26  27
ENDBRANCH  25  26
ENDBRANCH  24  25
ENDBRANCH  23  24
ENDBRANCH  22  23
ENDBRANCH  21  22
ENDBRANCH  20  21
ENDBRANCH  19  20
ENDBRANCH  18  19
ENDBRANCH  17  18
ENDBRANCH   1  17
TORSDOF 26
ENDMDL
MODEL 2
REMARK VINA RESULT:    -2.911      3.178      4.643
REMARK INTER + INTRA:         -12.814
REMARK INTER:                  -6.979
REMARK INTRA:                  -5.835
REMARK UNBOUND:                -5.478
REMARK SMILES CCCCCCCCCCCCCCCCCCCCCCCCCCCC(=O)[O-]
REMARK SMILES IDX 15 1 16 2 17 3 18 4 19 5 20 6 21 7 22 8 23 9 24 10 25 11
REMARK SMILES IDX 26 12 27 13 28 14 29 15 30 16 14 17 13 18 12 19 11 20 10 21
REMARK SMILES IDX 9 22 8 23 7 24 6 25 5 26 4 27 3 28 2 29 1 30
REMARK H PARENT
REMARK Flexibility Score: inf
ROOT
ATOM      1  C   UNL     1      57.207  25.606  50.987  1.00  0.00     0.000 C 
ENDROOT
BRANCH   1   2
ATOM      2  C   UNL     1      58.704  25.354  50.726  1.00  0.00     0.000 C 
BRANCH   2   3
ATOM      3  C   UNL     1      59.621  26.142  51.685  1.00  0.00     0.000 C 
BRANCH   3   4
ATOM      4  C   UNL     1      60.533  27.169  50.985  1.00  0.00     0.000 C 
BRANCH   4   5
ATOM      5  C   UNL     1      59.929  27.846  49.742  1.00  0.00     0.000 C 
BRANCH   5   6
ATOM      6  C   UNL     1      59.217  29.189  50.005  1.00  0.00     0.000 C 
BRANCH   6   7
ATOM      7  C   UNL     1      57.742  29.074  50.432  1.00  0.00     0.000 C 
BRANCH   7   8
ATOM      8  C   UNL     1      57.392  29.991  51.617  1.00  0.00     0.000 C 
BRANCH   8   9
ATOM      9  C   UNL     1      57.476  29.270  52.974  1.00  0.00     0.000 C 
BRANCH   9  10
ATOM     10  C   UNL     1      58.850  29.332  53.673  1.00  0.00     0.000 C 
BRANCH  10  11
ATOM     11  C   UNL     1      59.367  30.764  53.919  1.00  0.00     0.000 C 
BRANCH  11  12
ATOM     12  C   UNL     1      60.494  31.160  52.949  1.00  0.00     0.006 C 
BRANCH  12  13
ATOM     13  C   UNL     1      61.577  30.079  52.843  1.00  0.00     0.053 C 
BRANCH  13  14
ATOM     14  C   UNL     1      62.482  30.305  51.670  1.00  0.00     0.041 C 
ATOM     15  O   UNL     1      63.395  29.478  51.402  1.00  0.00    -0.550 OA
ATOM     16  O   UNL     1      62.300  31.417  50.857  1.00  0.00    -0.550 OA
ENDBRANCH  13  14
ENDBRANCH  12  13
ENDBRANCH  11  12
ENDBRANCH  10  11
ENDBRANCH   9  10
ENDBRANCH   8   9
ENDBRANCH   7   8
ENDBRANCH   6   7
ENDBRANCH   5   6
ENDBRANCH   4   5
ENDBRANCH   3   4
ENDBRANCH   2   3
ENDBRANCH   1   2
BRANCH   1  17
ATOM     17  C   UNL     1      56.882  25.748  52.482  1.00  0.00     0.000 C 
BRANCH  17  18
ATOM     18  C   UNL     1      55.368  25.807  52.759  1.00  0.00     0.000 C 
BRANCH  18  19
ATOM     19  C   UNL     1      54.533  25.203  51.620  1.00  0.00     0.000 C 
BRANCH  19  20
ATOM     20  C   UNL     1      53.323  26.075  51.248  1.00  0.00     0.000 C 
BRANCH  20  21
ATOM     21  C   UNL     1      53.608  26.910  49.993  1.00  0.00     0.000 C 
BRANCH  21  22
ATOM     22  C   UNL     1      54.325  28.220  50.360  1.00  0.00    -0.000 C 
BRANCH  22  23
ATOM     23  C   UNL     1      53.351  29.389  50.577  1.00  0.00    -0.000 C 
BRANCH  23  24
ATOM     24  C   UNL     1      53.540  30.073  51.943  1.00  0.00    -0.000 C 
BRANCH  24  25
ATOM     25  C   UNL     1      53.780  29.064  53.081  1.00  0.00    -0.000 C 
BRANCH  25  26
ATOM     26  C   UNL     1      54.011  29.699  54.467  1.00  0.00    -0.000 C 
BRANCH  26  27
ATOM     27  C   UNL     1      54.306  31.212  54.449  1.00  0.00    -0.000 C 
BRANCH  27  28
ATOM     28  C   UNL     1      55.613  31.628  55.148  1.00  0.00    -0.000 C 
BRANCH  28  29
ATOM     29  C   UNL     1      56.303  32.816  54.464  1.00  0.00    -0.003 C 
ATOM     30  C   UNL     1      55.831  32.971  53.021  1.00  0.00     0.004 C 
ENDBRANCH  28  29
ENDBRANCH  27  28
ENDBRANCH  26  27
ENDBRANCH  25  26
ENDBRANCH  24  25
ENDBRANCH  23  24
ENDBRANCH  22  23
ENDBRANCH  21  22
ENDBRANCH  20  21
ENDBRANCH  19  20
ENDBRANCH  18  19
ENDBRANCH  17  18
ENDBRANCH   1  17
TORSDOF 26
ENDMDL
MODEL 3
REMARK VINA RESULT:    -2.871      3.627      6.350
REMARK INTER + INTRA:         -12.714
REMARK INTER:                  -7.513
REMARK INTRA:                  -5.201
REMARK UNBOUND:                -5.478
REMARK SMILES CCCCCCCCCCCCCCCCCCCCCCCCCCCC(=O)[O-]
REMARK SMILES IDX 15 1 16 2 17 3 18 4 19 5 20 6 21 7 22 8 23 9 24 10 25 11
REMARK SMILES IDX 26 12 27 13 28 14 29 15 30 16 14 17 13 18 12 19 11 20 10 21
REMARK SMILES IDX 9 22 8 23 7 24 6 25 5 26 4 27 3 28 2 29 1 30
REMARK H PARENT
REMARK Flexibility Score: inf
ROOT
ATOM      1  C   UNL     1      54.297  26.328  49.934  1.00  0.00     0.000 C 
ENDROOT
BRANCH   1   2
ATOM      2  C   UNL     1      52.952  27.075  49.861  1.00  0.00     0.000 C 
BRANCH   2   3
ATOM      3  C   UNL     1      53.072  28.565  50.242  1.00  0.00     0.000 C 
BRANCH   3   4
ATOM      4  C   UNL     1      54.475  28.982  50.728  1.00  0.00     0.000 C 
BRANCH   4   5
ATOM      5  C   UNL     1      54.689  30.495  50.904  1.00  0.00     0.000 C 
BRANCH   5   6
ATOM      6  C   UNL     1      56.059  30.903  51.482  1.00  0.00     0.000 C 
BRANCH   6   7
ATOM      7  C   UNL     1      56.203  30.735  53.005  1.00  0.00     0.000 C 
BRANCH   7   8
ATOM      8  C   UNL     1      57.124  31.793  53.638  1.00  0.00     0.000 C 
BRANCH   8   9
ATOM      9  C   UNL     1      58.602  31.600  53.255  1.00  0.00     0.000 C 
BRANCH   9  10
ATOM     10  C   UNL     1      59.158  30.176  53.457  1.00  0.00     0.000 C 
BRANCH  10  11
ATOM     11  C   UNL     1      60.698  30.091  53.430  1.00  0.00     0.000 C 
BRANCH  11  12
ATOM     12  C   UNL     1      61.342  31.277  52.689  1.00  0.00     0.006 C 
BRANCH  12  13
ATOM     13  C   UNL     1      61.798  30.901  51.275  1.00  0.00     0.053 C 
BRANCH  13  14
ATOM     14  C   UNL     1      63.286  30.737  51.190  1.00  0.00     0.041 C 
ATOM     15  O   UNL     1      63.943  30.358  52.196  1.00  0.00    -0.550 OA
ATOM     16  O   UNL     1      63.943  30.978  49.989  1.00  0.00    -0.550 OA
ENDBRANCH  13  14
ENDBRANCH  12  13
ENDBRANCH  11  12
ENDBRANCH  10  11
ENDBRANCH   9  10
ENDBRANCH   8   9
ENDBRANCH   7   8
ENDBRANCH   6   7
ENDBRANCH   5   6
ENDBRANCH   4   5
ENDBRANCH   3   4
ENDBRANCH   2   3
ENDBRANCH   1   2
BRANCH   1  17
ATOM     17  C   UNL     1      54.202  25.011  50.719  1.00  0.00     0.000 C 
BRANCH  17  18
ATOM     18  C   UNL     1      53.878  25.228  52.209  1.00  0.00     0.000 C 
BRANCH  18  19
ATOM     19  C   UNL     1      55.138  25.284  53.087  1.00  0.00     0.000 C 
BRANCH  19  20
ATOM     20  C   UNL     1      55.491  26.715  53.523  1.00  0.00     0.000 C 
BRANCH  20  21
ATOM     21  C   UNL     1      56.872  27.128  52.999  1.00  0.00     0.000 C 
BRANCH  21  22
ATOM     22  C   UNL     1      57.485  26.014  52.136  1.00  0.00    -0.000 C 
BRANCH  22  23
ATOM     23  C   UNL     1      57.881  26.500  50.733  1.00  0.00    -0.000 C 
BRANCH  23  24
ATOM     24  C   UNL     1      57.909  28.035  50.623  1.00  0.00    -0.000 C 
BRANCH  24  25
ATOM     25  C   UNL     1      59.263  28.567  50.118  1.00  0.00    -0.000 C 
BRANCH  25  26
ATOM     26  C   UNL     1      60.212  27.489  49.560  1.00  0.00    -0.000 C 
BRANCH  26  27
ATOM     27  C   UNL     1      61.551  27.345  50.311  1.00  0.00    -0.000 C 
BRANCH  27  28
ATOM     28  C   UNL     1      61.423  27.061  51.818  1.00  0.00    -0.000 C 
BRANCH  28  29
ATOM     29  C   UNL     1      61.941  25.669  52.209  1.00  0.00    -0.003 C 
ATOM     30  C   UNL     1      60.927  24.585  51.856  1.00  0.00     0.004 C 
ENDBRANCH  28  29
ENDBRANCH  27  28
ENDBRANCH  26  27
ENDBRANCH  25  26
ENDBRANCH  24  25
ENDBRANCH  23  24
ENDBRANCH  22  23
ENDBRANCH  21  22
ENDBRANCH  20  21
ENDBRANCH  19  20
ENDBRANCH  18  19
ENDBRANCH  17  18
ENDBRANCH   1  17
TORSDOF 26
ENDMDL
MODEL 4
REMARK VINA RESULT:    -2.869      3.944      6.822
REMARK INTER + INTRA:         -12.709
REMARK INTER:                  -8.055
REMARK INTRA:                  -4.654
REMARK UNBOUND:                -5.478
REMARK SMILES CCCCCCCCCCCCCCCCCCCCCCCCCCCC(=O)[O-]
REMARK SMILES IDX 15 1 16 2 17 3 18 4 19 5 20 6 21 7 22 8 23 9 24 10 25 11
REMARK SMILES IDX 26 12 27 13 28 14 29 15 30 16 14 17 13 18 12 19 11 20 10 21
REMARK SMILES IDX 9 22 8 23 7 24 6 25 5 26 4 27 3 28 2 29 1 30
REMARK H PARENT
REMARK Flexibility Score: inf
ROOT
ATOM      1  C   UNL     1      57.340  26.336  53.221  1.00  0.00     0.000 C 
ENDROOT
BRANCH   1   2
ATOM      2  C   UNL     1      58.703  26.404  53.935  1.00  0.00     0.000 C 
BRANCH   2   3
ATOM      3  C   UNL     1      59.263  27.839  54.022  1.00  0.00     0.000 C 
BRANCH   3   4
ATOM      4  C   UNL     1      60.713  27.984  53.520  1.00  0.00     0.000 C 
BRANCH   4   5
ATOM      5  C   UNL     1      61.668  26.849  53.929  1.00  0.00     0.000 C 
BRANCH   5   6
ATOM      6  C   UNL     1      62.236  26.015  52.762  1.00  0.00     0.000 C 
BRANCH   6   7
ATOM      7  C   UNL     1      63.574  26.518  52.190  1.00  0.00     0.000 C 
BRANCH   7   8
ATOM      8  C   UNL     1      63.423  27.167  50.802  1.00  0.00     0.000 C 
BRANCH   8   9
ATOM      9  C   UNL     1      63.875  28.638  50.780  1.00  0.00     0.000 C 
BRANCH   9  10
ATOM     10  C   UNL     1      62.970  29.596  49.980  1.00  0.00     0.000 C 
BRANCH  10  11
ATOM     11  C   UNL     1      62.177  30.591  50.853  1.00  0.00     0.000 C 
BRANCH  11  12
ATOM     12  C   UNL     1      63.007  31.828  51.241  1.00  0.00     0.006 C 
BRANCH  12  13
ATOM     13  C   UNL     1      63.639  32.510  50.021  1.00  0.00     0.053 C 
BRANCH  13  14
ATOM     14  C   UNL     1      62.977  33.817  49.704  1.00  0.00     0.041 C 
ATOM     15  O   UNL     1      63.169  34.823  50.438  1.00  0.00    -0.550 OA
ATOM     16  O   UNL     1      62.168  33.930  48.580  1.00  0.00    -0.550 OA
ENDBRANCH  13  14
ENDBRANCH  12  13
ENDBRANCH  11  12
ENDBRANCH  10  11
ENDBRANCH   9  10
ENDBRANCH   8   9
ENDBRANCH   7   8
ENDBRANCH   6   7
ENDBRANCH   5   6
ENDBRANCH   4   5
ENDBRANCH   3   4
ENDBRANCH   2   3
ENDBRANCH   1   2
BRANCH   1  17
ATOM     17  C   UNL     1      57.377  25.468  51.954  1.00  0.00     0.000 C 
BRANCH  17  18
ATOM     18  C   UNL     1      58.790  25.359  51.349  1.00  0.00     0.000 C 
BRANCH  18  19
ATOM     19  C   UNL     1      58.914  26.083  49.998  1.00  0.00     0.000 C 
BRANCH  19  20
ATOM     20  C   UNL     1      59.893  27.265  50.050  1.00  0.00     0.000 C 
BRANCH  20  21
ATOM     21  C   UNL     1      59.204  28.572  49.637  1.00  0.00     0.000 C 
BRANCH  21  22
ATOM     22  C   UNL     1      58.620  29.292  50.863  1.00  0.00    -0.000 C 
BRANCH  22  23
ATOM     23  C   UNL     1      57.083  29.271  50.886  1.00  0.00    -0.000 C 
BRANCH  23  24
ATOM     24  C   UNL     1      56.492  30.232  51.934  1.00  0.00    -0.000 C 
BRANCH  24  25
ATOM     25  C   UNL     1      55.027  30.601  51.638  1.00  0.00    -0.000 C 
BRANCH  25  26
ATOM     26  C   UNL     1      54.364  29.769  50.524  1.00  0.00    -0.000 C 
BRANCH  26  27
ATOM     27  C   UNL     1      53.118  28.971  50.959  1.00  0.00    -0.000 C 
BRANCH  27  28
ATOM     28  C   UNL     1      53.083  27.508  50.484  1.00  0.00    -0.000 C 
BRANCH  28  29
ATOM     29  C   UNL     1      54.483  26.925  50.245  1.00  0.00    -0.003 C 
ATOM     30  C   UNL     1      54.403  25.546  49.597  1.00  0.00     0.004 C 
ENDBRANCH  28  29
ENDBRANCH  27  28
ENDBRANCH  26  27
ENDBRANCH  25  26
ENDBRANCH  24  25
ENDBRANCH  23  24
ENDBRANCH  22  23
ENDBRANCH  21  22
ENDBRANCH  20  21
ENDBRANCH  19  20
ENDBRANCH  18  19
ENDBRANCH  17  18
ENDBRANCH   1  17
TORSDOF 26
ENDMDL
MODEL 5
REMARK VINA RESULT:    -2.849      2.255      5.466
REMARK INTER + INTRA:         -12.658
REMARK INTER:                  -6.658
REMARK INTRA:                  -6.000
REMARK UNBOUND:                -5.478
REMARK SMILES CCCCCCCCCCCCCCCCCCCCCCCCCCCC(=O)[O-]
REMARK SMILES IDX 15 1 16 2 17 3 18 4 19 5 20 6 21 7 22 8 23 9 24 10 25 11
REMARK SMILES IDX 26 12 27 13 28 14 29 15 30 16 14 17 13 18 12 19 11 20 10 21
REMARK SMILES IDX 9 22 8 23 7 24 6 25 5 26 4 27 3 28 2 29 1 30
REMARK H PARENT
REMARK Flexibility Score: inf
ROOT
ATOM      1  C   UNL     1      59.164  29.162  50.428  1.00  0.00     0.000 C 
ENDROOT
BRANCH   1   2
ATOM      2  C   UNL     1      57.722  29.516  50.837  1.00  0.00     0.000 C 
BRANCH   2   3
ATOM      3  C   UNL     1      56.755  28.319  50.719  1.00  0.00     0.000 C 
BRANCH   3   4
ATOM      4  C   UNL     1      55.264  28.710  50.695  1.00  0.00     0.000 C 
BRANCH   4   5
ATOM      5  C   UNL     1      54.292  27.578  50.321  1.00  0.00     0.000 C 
BRANCH   5   6
ATOM      6  C   UNL     1      54.942  26.196  50.111  1.00  0.00     0.000 C 
BRANCH   6   7
ATOM      7  C   UNL     1      55.169  25.377  51.394  1.00  0.00     0.000 C 
BRANCH   7   8
ATOM      8  C   UNL     1      54.134  25.687  52.490  1.00  0.00     0.000 C 
BRANCH   8   9
ATOM      9  C   UNL     1      54.780  26.169  53.801  1.00  0.00     0.000 C 
BRANCH   9  10
ATOM     10  C   UNL     1      54.537  27.651  54.153  1.00  0.00     0.000 C 
BRANCH  10  11
ATOM     11  C   UNL     1      55.828  28.472  54.348  1.00  0.00     0.000 C 
BRANCH  11  12
ATOM     12  C   UNL     1      55.789  29.341  55.617  1.00  0.00     0.006 C 
BRANCH  12  13
ATOM     13  C   UNL     1      56.824  28.899  56.658  1.00  0.00     0.053 C 
BRANCH  13  14
ATOM     14  C   UNL     1      56.204  28.091  57.758  1.00  0.00     0.041 C 
ATOM     15  O   UNL     1      56.162  26.833  57.679  1.00  0.00    -0.550 OA
ATOM     16  O   UNL     1      55.696  28.727  58.884  1.00  0.00    -0.550 OA
ENDBRANCH  13  14
ENDBRANCH  12  13
ENDBRANCH  11  12
ENDBRANCH  10  11
ENDBRANCH   9  10
ENDBRANCH   8   9
ENDBRANCH   7   8
ENDBRANCH   6   7
ENDBRANCH   5   6
ENDBRANCH   4   5
ENDBRANCH   3   4
ENDBRANCH   2   3
ENDBRANCH   1   2
BRANCH   1  17
ATOM     17  C   UNL     1      59.249  27.855  49.625  1.00  0.00     0.000 C 
BRANCH  17  18
ATOM     18  C   UNL     1      60.001  26.741  50.378  1.00  0.00     0.000 C 
BRANCH  18  19
ATOM     19  C   UNL     1      59.112  25.524  50.678  1.00  0.00     0.000 C 
BRANCH  19  20
ATOM     20  C   UNL     1      59.042  25.199  52.178  1.00  0.00     0.000 C 
BRANCH  20  21
ATOM     21  C   UNL     1      58.382  26.341  52.962  1.00  0.00     0.000 C 
BRANCH  21  22
ATOM     22  C   UNL     1      59.250  26.753  54.161  1.00  0.00    -0.000 C 
BRANCH  22  23
ATOM     23  C   UNL     1      60.191  27.925  53.837  1.00  0.00    -0.000 C 
BRANCH  23  24
ATOM     24  C   UNL     1      59.920  29.162  54.711  1.00  0.00    -0.000 C 
BRANCH  24  25
ATOM     25  C   UNL     1      59.699  30.438  53.877  1.00  0.00    -0.000 C 
BRANCH  25  26
ATOM     26  C   UNL     1      58.600  31.376  54.413  1.00  0.00    -0.000 C 
BRANCH  26  27
ATOM     27  C   UNL     1      57.776  32.100  53.328  1.00  0.00    -0.000 C 
BRANCH  27  28
ATOM     28  C   UNL     1      56.261  32.162  53.596  1.00  0.00    -0.000 C 
BRANCH  28  29
ATOM     29  C   UNL     1      55.425  32.083  52.311  1.00  0.00    -0.003 C 
ATOM     30  C   UNL     1      54.010  31.594  52.603  1.00  0.00     0.004 C 
ENDBRANCH  28  29
ENDBRANCH  27  28
ENDBRANCH  26  27
ENDBRANCH  25  26
ENDBRANCH  24  25
ENDBRANCH  23  24
ENDBRANCH  22  23
ENDBRANCH  21  22
ENDBRANCH  20  21
ENDBRANCH  19  20
ENDBRANCH  18  19
ENDBRANCH  17  18
ENDBRANCH   1  17
TORSDOF 26
ENDMDL
MODEL 6
REMARK VINA RESULT:    -2.816      4.978      7.371
REMARK INTER + INTRA:         -12.576
REMARK INTER:                  -7.221
REMARK INTRA:                  -5.354
REMARK UNBOUND:                -5.478
REMARK SMILES CCCCCCCCCCCCCCCCCCCCCCCCCCCC(=O)[O-]
REMARK SMILES IDX 15 1 16 2 17 3 18 4 19 5 20 6 21 7 22 8 23 9 24 10 25 11
REMARK SMILES IDX 26 12 27 13 28 14 29 15 30 16 14 17 13 18 12 19 11 20 10 21
REMARK SMILES IDX 9 22 8 23 7 24 6 25 5 26 4 27 3 28 2 29 1 30
REMARK H PARENT
REMARK Flexibility Score: inf
ROOT
ATOM      1  C   UNL     1      58.151  28.690  50.799  1.00  0.00     0.000 C 
ENDROOT
BRANCH   1   2
ATOM      2  C   UNL     1      59.203  28.818  49.681  1.00  0.00     0.000 C 
BRANCH   2   3
ATOM      3  C   UNL     1      60.186  27.629  49.644  1.00  0.00     0.000 C 
BRANCH   3   4
ATOM      4  C   UNL     1      59.798  26.459  50.570  1.00  0.00     0.000 C 
BRANCH   4   5
ATOM      5  C   UNL     1      60.840  26.094  51.641  1.00  0.00     0.000 C 
BRANCH   5   6
ATOM      6  C   UNL     1      61.083  24.583  51.834  1.00  0.00     0.000 C 
BRANCH   6   7
ATOM      7  C   UNL     1      59.817  23.709  51.819  1.00  0.00     0.000 C 
BRANCH   7   8
ATOM      8  C   UNL     1      59.496  23.101  53.195  1.00  0.00     0.000 C 
BRANCH   8   9
ATOM      9  C   UNL     1      58.126  22.402  53.233  1.00  0.00     0.000 C 
BRANCH   9  10
ATOM     10  C   UNL     1      57.428  22.388  54.609  1.00  0.00     0.000 C 
BRANCH  10  11
ATOM     11  C   UNL     1      55.891  22.507  54.537  1.00  0.00     0.000 C 
BRANCH  11  12
ATOM     12  C   UNL     1      55.188  21.144  54.658  1.00  0.00     0.006 C 
BRANCH  12  13
ATOM     13  C   UNL     1      55.010  20.457  53.299  1.00  0.00     0.053 C 
BRANCH  13  14
ATOM     14  C   UNL     1      55.874  19.239  53.168  1.00  0.00     0.041 C 
ATOM     15  O   UNL     1      55.873  18.569  52.100  1.00  0.00    -0.550 OA
ATOM     16  O   UNL     1      56.701  18.859  54.218  1.00  0.00    -0.550 OA
ENDBRANCH  13  14
ENDBRANCH  12  13
ENDBRANCH  11  12
ENDBRANCH  10  11
ENDBRANCH   9  10
ENDBRANCH   8   9
ENDBRANCH   7   8
ENDBRANCH   6   7
ENDBRANCH   5   6
ENDBRANCH   4   5
ENDBRANCH   3   4
ENDBRANCH   2   3
ENDBRANCH   1   2
BRANCH   1  17
ATOM     17  C   UNL     1      57.085  29.794  50.739  1.00  0.00     0.000 C 
BRANCH  17  18
ATOM     18  C   UNL     1      56.333  29.970  52.071  1.00  0.00     0.000 C 
BRANCH  18  19
ATOM     19  C   UNL     1      54.940  29.320  52.056  1.00  0.00     0.000 C 
BRANCH  19  20
ATOM     20  C   UNL     1      54.267  29.398  50.678  1.00  0.00     0.000 C 
BRANCH  20  21
ATOM     21  C   UNL     1      53.946  27.997  50.139  1.00  0.00     0.000 C 
BRANCH  21  22
ATOM     22  C   UNL     1      54.474  26.912  51.092  1.00  0.00    -0.000 C 
BRANCH  22  23
ATOM     23  C   UNL     1      55.528  26.007  50.434  1.00  0.00    -0.000 C 
BRANCH  23  24
ATOM     24  C   UNL     1      56.567  25.479  51.439  1.00  0.00    -0.000 C 
BRANCH  24  25
ATOM     25  C   UNL     1      56.183  25.780  52.900  1.00  0.00    -0.000 C 
BRANCH  25  26
ATOM     26  C   UNL     1      57.131  26.752  53.629  1.00  0.00    -0.000 C 
BRANCH  26  27
ATOM     27  C   UNL     1      58.246  26.078  54.454  1.00  0.00    -0.000 C 
BRANCH  27  28
ATOM     28  C   UNL     1      59.402  27.008  54.866  1.00  0.00    -0.000 C 
BRANCH  28  29
ATOM     29  C   UNL     1      59.124  28.483  54.544  1.00  0.00    -0.003 C 
ATOM     30  C   UNL     1      60.246  29.084  53.702  1.00  0.00     0.004 C 
ENDBRANCH  28  29
ENDBRANCH  27  28
ENDBRANCH  26  27
ENDBRANCH  25  26
ENDBRANCH  24  25
ENDBRANCH  23  24
ENDBRANCH  22  23
ENDBRANCH  21  22
ENDBRANCH  20  21
ENDBRANCH  19  20
ENDBRANCH  18  19
ENDBRANCH  17  18
ENDBRANCH   1  17
TORSDOF 26
ENDMDL
MODEL 7
REMARK VINA RESULT:    -2.790      3.717      5.535
REMARK INTER + INTRA:         -12.509
REMARK INTER:                  -6.955
REMARK INTRA:                  -5.554
REMARK UNBOUND:                -5.478
REMARK SMILES CCCCCCCCCCCCCCCCCCCCCCCCCCCC(=O)[O-]
REMARK SMILES IDX 15 1 16 2 17 3 18 4 19 5 20 6 21 7 22 8 23 9 24 10 25 11
REMARK SMILES IDX 26 12 27 13 28 14 29 15 30 16 14 17 13 18 12 19 11 20 10 21
REMARK SMILES IDX 9 22 8 23 7 24 6 25 5 26 4 27 3 28 2 29 1 30
REMARK H PARENT
REMARK Flexibility Score: inf
ROOT
ATOM      1  C   UNL     1      56.599  30.931  52.218  1.00  0.00     0.000 C 
ENDROOT
BRANCH   1   2
ATOM      2  C   UNL     1      57.767  29.943  52.038  1.00  0.00     0.000 C 
BRANCH   2   3
ATOM      3  C   UNL     1      57.810  29.314  50.630  1.00  0.00     0.000 C 
BRANCH   3   4
ATOM      4  C   UNL     1      59.220  29.242  50.013  1.00  0.00     0.000 C 
BRANCH   4   5
ATOM      5  C   UNL     1      59.703  27.830  49.637  1.00  0.00     0.000 C 
BRANCH   5   6
ATOM      6  C   UNL     1      61.156  27.504  50.037  1.00  0.00     0.000 C 
BRANCH   6   7
ATOM      7  C   UNL     1      61.982  28.703  50.537  1.00  0.00     0.000 C 
BRANCH   7   8
ATOM      8  C   UNL     1      62.401  28.565  52.011  1.00  0.00     0.000 C 
BRANCH   8   9
ATOM      9  C   UNL     1      61.506  29.377  52.963  1.00  0.00     0.000 C 
BRANCH   9  10
ATOM     10  C   UNL     1      60.620  28.543  53.911  1.00  0.00     0.000 C 
BRANCH  10  11
ATOM     11  C   UNL     1      60.512  27.054  53.524  1.00  0.00     0.000 C 
BRANCH  11  12
ATOM     12  C   UNL     1      59.061  26.616  53.259  1.00  0.00     0.006 C 
BRANCH  12  13
ATOM     13  C   UNL     1      58.932  25.097  53.094  1.00  0.00     0.053 C 
BRANCH  13  14
ATOM     14  C   UNL     1      59.490  24.624  51.786  1.00  0.00     0.041 C 
ATOM     15  O   UNL     1      58.849  24.808  50.716  1.00  0.00    -0.550 OA
ATOM     16  O   UNL     1      60.733  24.003  51.746  1.00  0.00    -0.550 OA
ENDBRANCH  13  14
ENDBRANCH  12  13
ENDBRANCH  11  12
ENDBRANCH  10  11
ENDBRANCH   9  10
ENDBRANCH   8   9
ENDBRANCH   7   8
ENDBRANCH   6   7
ENDBRANCH   5   6
ENDBRANCH   4   5
ENDBRANCH   3   4
ENDBRANCH   2   3
ENDBRANCH   1   2
BRANCH   1  17
ATOM     17  C   UNL     1      55.587  30.867  51.063  1.00  0.00     0.000 C 
BRANCH  17  18
ATOM     18  C   UNL     1      54.246  30.235  51.481  1.00  0.00     0.000 C 
BRANCH  18  19
ATOM     19  C   UNL     1      53.673  29.297  50.407  1.00  0.00     0.000 C 
BRANCH  19  20
ATOM     20  C   UNL     1      53.681  27.824  50.844  1.00  0.00     0.000 C 
BRANCH  20  21
ATOM     21  C   UNL     1      54.882  27.076  50.251  1.00  0.00     0.000 C 
BRANCH  21  22
ATOM     22  C   UNL     1      55.818  26.576  51.363  1.00  0.00    -0.000 C 
BRANCH  22  23
ATOM     23  C   UNL     1      55.150  25.538  52.278  1.00  0.00    -0.000 C 
BRANCH  23  24
ATOM     24  C   UNL     1      55.215  25.928  53.766  1.00  0.00    -0.000 C 
BRANCH  24  25
ATOM     25  C   UNL     1      55.617  27.400  53.974  1.00  0.00    -0.000 C 
BRANCH  25  26
ATOM     26  C   UNL     1      54.487  28.310  54.493  1.00  0.00    -0.000 C 
BRANCH  26  27
ATOM     27  C   UNL     1      54.793  29.039  55.817  1.00  0.00    -0.000 C 
BRANCH  27  28
ATOM     28  C   UNL     1      55.772  30.220  55.698  1.00  0.00    -0.000 C 
BRANCH  28  29
ATOM     29  C   UNL     1      55.061  31.579  55.633  1.00  0.00    -0.003 C 
ATOM     30  C   UNL     1      53.821  31.596  56.521  1.00  0.00     0.004 C 
ENDBRANCH  28  29
ENDBRANCH  27  28
ENDBRANCH  26  27
ENDBRANCH  25  26
ENDBRANCH  24  25
ENDBRANCH  23  24
ENDBRANCH  22  23
ENDBRANCH  21  22
ENDBRANCH  20  21
ENDBRANCH  19  20
ENDBRANCH  18  19
ENDBRANCH  17  18
ENDBRANCH   1  17
TORSDOF 26
ENDMDL
MODEL 8
REMARK VINA RESULT:    -2.758      2.305      3.913
REMARK INTER + INTRA:         -12.428
REMARK INTER:                  -7.367
REMARK INTRA:                  -5.061
REMARK UNBOUND:                -5.478
REMARK SMILES CCCCCCCCCCCCCCCCCCCCCCCCCCCC(=O)[O-]
REMARK SMILES IDX 15 1 16 2 17 3 18 4 19 5 20 6 21 7 22 8 23 9 24 10 25 11
REMARK SMILES IDX 26 12 27 13 28 14 29 15 30 16 14 17 13 18 12 19 11 20 10 21
REMARK SMILES IDX 9 22 8 23 7 24 6 25 5 26 4 27 3 28 2 29 1 30
REMARK H PARENT
REMARK Flexibility Score: inf
ROOT
ATOM      1  C   UNL     1      55.580  29.398  51.851  1.00  0.00     0.000 C 
ENDROOT
BRANCH   1   2
ATOM      2  C   UNL     1      56.621  29.698  50.756  1.00  0.00     0.000 C 
BRANCH   2   3
ATOM      3  C   UNL     1      57.992  29.050  51.038  1.00  0.00     0.000 C 
BRANCH   3   4
ATOM      4  C   UNL     1      58.907  28.942  49.802  1.00  0.00     0.000 C 
BRANCH   4   5
ATOM      5  C   UNL     1      59.643  27.600  49.643  1.00  0.00     0.000 C 
BRANCH   5   6
ATOM      6  C   UNL     1      61.142  27.627  50.003  1.00  0.00     0.000 C 
BRANCH   6   7
ATOM      7  C   UNL     1      61.483  27.137  51.422  1.00  0.00     0.000 C 
BRANCH   7   8
ATOM      8  C   UNL     1      61.865  28.286  52.373  1.00  0.00     0.000 C 
BRANCH   8   9
ATOM      9  C   UNL     1      62.296  29.560  51.625  1.00  0.00     0.000 C 
BRANCH   9  10
ATOM     10  C   UNL     1      61.491  30.831  51.966  1.00  0.00     0.000 C 
BRANCH  10  11
ATOM     11  C   UNL     1      60.348  30.601  52.975  1.00  0.00     0.000 C 
BRANCH  11  12
ATOM     12  C   UNL     1      60.135  31.803  53.912  1.00  0.00     0.006 C 
BRANCH  12  13
ATOM     13  C   UNL     1      58.773  31.761  54.613  1.00  0.00     0.053 C 
BRANCH  13  14
ATOM     14  C   UNL     1      57.807  32.745  54.024  1.00  0.00     0.041 C 
ATOM     15  O   UNL     1      57.825  33.952  54.389  1.00  0.00    -0.550 OA
ATOM     16  O   UNL     1      56.904  32.333  53.052  1.00  0.00    -0.550 OA
ENDBRANCH  13  14
ENDBRANCH  12  13
ENDBRANCH  11  12
ENDBRANCH  10  11
ENDBRANCH   9  10
ENDBRANCH   8   9
ENDBRANCH   7   8
ENDBRANCH   6   7
ENDBRANCH   5   6
ENDBRANCH   4   5
ENDBRANCH   3   4
ENDBRANCH   2   3
ENDBRANCH   1   2
BRANCH   1  17
ATOM     17  C   UNL     1      54.169  29.877  51.476  1.00  0.00     0.000 C 
BRANCH  17  18
ATOM     18  C   UNL     1      53.527  29.025  50.366  1.00  0.00     0.000 C 
BRANCH  18  19
ATOM     19  C   UNL     1      53.303  27.566  50.793  1.00  0.00     0.000 C 
BRANCH  19  20
ATOM     20  C   UNL     1      53.425  26.582  49.620  1.00  0.00     0.000 C 
BRANCH  20  21
ATOM     21  C   UNL     1      54.409  25.450  49.947  1.00  0.00     0.000 C 
BRANCH  21  22
ATOM     22  C   UNL     1      55.779  26.017  50.352  1.00  0.00    -0.000 C 
BRANCH  22  23
ATOM     23  C   UNL     1      56.206  25.586  51.763  1.00  0.00    -0.000 C 
BRANCH  23  24
ATOM     24  C   UNL     1      57.714  25.294  51.863  1.00  0.00    -0.000 C 
BRANCH  24  25
ATOM     25  C   UNL     1      58.400  26.098  52.983  1.00  0.00    -0.000 C 
BRANCH  25  26
ATOM     26  C   UNL     1      57.438  26.877  53.900  1.00  0.00    -0.000 C 
BRANCH  26  27
ATOM     27  C   UNL     1      58.074  27.437  55.188  1.00  0.00    -0.000 C 
BRANCH  27  28
ATOM     28  C   UNL     1      59.584  27.719  55.098  1.00  0.00    -0.000 C 
BRANCH  28  29
ATOM     29  C   UNL     1      60.079  28.670  56.197  1.00  0.00    -0.003 C 
ATOM     30  C   UNL     1      61.152  28.008  57.057  1.00  0.00     0.004 C 
ENDBRANCH  28  29
ENDBRANCH  27  28
ENDBRANCH  26  27
ENDBRANCH  25  26
ENDBRANCH  24  25
ENDBRANCH  23  24
ENDBRANCH  22  23
ENDBRANCH  21  22
ENDBRANCH  20  21
ENDBRANCH  19  20
ENDBRANCH  18  19
ENDBRANCH  17  18
ENDBRANCH   1  17
TORSDOF 26
ENDMDL
MODEL 9
REMARK VINA RESULT:    -2.733      1.800      4.890
REMARK INTER + INTRA:         -12.365
REMARK INTER:                  -7.277
REMARK INTRA:                  -5.088
REMARK UNBOUND:                -5.478
REMARK SMILES CCCCCCCCCCCCCCCCCCCCCCCCCCCC(=O)[O-]
REMARK SMILES IDX 15 1 16 2 17 3 18 4 19 5 20 6 21 7 22 8 23 9 24 10 25 11
REMARK SMILES IDX 26 12 27 13 28 14 29 15 30 16 14 17 13 18 12 19 11 20 10 21
REMARK SMILES IDX 9 22 8 23 7 24 6 25 5 26 4 27 3 28 2 29 1 30
REMARK H PARENT
REMARK Flexibility Score: inf
ROOT
ATOM      1  C   UNL     1      55.545  30.328  50.748  1.00  0.00     0.000 C 
ENDROOT
BRANCH   1   2
ATOM      2  C   UNL     1      54.578  29.286  51.342  1.00  0.00     0.000 C 
BRANCH   2   3
ATOM      3  C   UNL     1      53.481  28.852  50.349  1.00  0.00     0.000 C 
BRANCH   3   4
ATOM      4  C   UNL     1      53.400  27.329  50.122  1.00  0.00     0.000 C 
BRANCH   4   5
ATOM      5  C   UNL     1      54.754  26.611  49.987  1.00  0.00     0.000 C 
BRANCH   5   6
ATOM      6  C   UNL     1      55.082  25.608  51.111  1.00  0.00     0.000 C 
BRANCH   6   7
ATOM      7  C   UNL     1      56.565  25.541  51.517  1.00  0.00     0.000 C 
BRANCH   7   8
ATOM      8  C   UNL     1      56.774  25.684  53.035  1.00  0.00     0.000 C 
BRANCH   8   9
ATOM      9  C   UNL     1      55.770  26.650  53.687  1.00  0.00     0.000 C 
BRANCH   9  10
ATOM     10  C   UNL     1      56.385  27.910  54.330  1.00  0.00     0.000 C 
BRANCH  10  11
ATOM     11  C   UNL     1      55.357  29.009  54.669  1.00  0.00     0.000 C 
BRANCH  11  12
ATOM     12  C   UNL     1      55.993  30.210  55.393  1.00  0.00     0.006 C 
BRANCH  12  13
ATOM     13  C   UNL     1      56.266  31.383  54.445  1.00  0.00     0.053 C 
BRANCH  13  14
ATOM     14  C   UNL     1      55.103  32.327  54.371  1.00  0.00     0.041 C 
ATOM     15  O   UNL     1      55.104  33.393  55.043  1.00  0.00    -0.550 OA
ATOM     16  O   UNL     1      54.028  32.040  53.538  1.00  0.00    -0.550 OA
ENDBRANCH  13  14
ENDBRANCH  12  13
ENDBRANCH  11  12
ENDBRANCH  10  11
ENDBRANCH   9  10
ENDBRANCH   8   9
ENDBRANCH   7   8
ENDBRANCH   6   7
ENDBRANCH   5   6
ENDBRANCH   4   5
ENDBRANCH   3   4
ENDBRANCH   2   3
ENDBRANCH   1   2
BRANCH   1  17
ATOM     17  C   UNL     1      56.994  30.128  51.218  1.00  0.00     0.000 C 
BRANCH  17  18
ATOM     18  C   UNL     1      57.602  28.802  50.725  1.00  0.00     0.000 C 
BRANCH  18  19
ATOM     19  C   UNL     1      58.855  29.010  49.860  1.00  0.00     0.000 C 
BRANCH  19  20
ATOM     20  C   UNL     1      59.844  27.838  49.961  1.00  0.00     0.000 C 
BRANCH  20  21
ATOM     21  C   UNL     1      61.178  28.291  50.567  1.00  0.00     0.000 C 
BRANCH  21  22
ATOM     22  C   UNL     1      61.191  29.813  50.784  1.00  0.00    -0.000 C 
BRANCH  22  23
ATOM     23  C   UNL     1      61.468  30.202  52.245  1.00  0.00    -0.000 C 
BRANCH  23  24
ATOM     24  C   UNL     1      60.207  30.693  52.978  1.00  0.00    -0.000 C 
BRANCH  24  25
ATOM     25  C   UNL     1      59.581  29.607  53.873  1.00  0.00    -0.000 C 
BRANCH  25  26
ATOM     26  C   UNL     1      59.889  29.755  55.375  1.00  0.00    -0.000 C 
BRANCH  26  27
ATOM     27  C   UNL     1      59.667  31.168  55.951  1.00  0.00    -0.000 C 
BRANCH  27  28
ATOM     28  C   UNL     1      58.966  31.210  57.320  1.00  0.00    -0.000 C 
BRANCH  28  29
ATOM     29  C   UNL     1      58.117  32.474  57.517  1.00  0.00    -0.003 C 
ATOM     30  C   UNL     1      58.795  33.449  58.475  1.00  0.00     0.004 C 
ENDBRANCH  28  29
ENDBRANCH  27  28
ENDBRANCH  26  27
ENDBRANCH  25  26
ENDBRANCH  24  25
ENDBRANCH  23  24
ENDBRANCH  22  23
ENDBRANCH  21  22
ENDBRANCH  20  21
ENDBRANCH  19  20
ENDBRANCH  18  19
ENDBRANCH  17  18
ENDBRANCH   1  17
TORSDOF 26
ENDMDL
