MODEL 1
REMARK VINA RESULT:    -5.461      0.000      0.000
REMARK INTER + INTRA:          -9.465
REMARK INTER:                  -8.334
REMARK INTRA:                  -1.132
REMARK UNBOUND:                -1.132
REMARK SMILES CC(=O)CCC=C(C)CCC=C(C)CCC=C(C)C
REMARK SMILES IDX 10 1 11 2 12 3 13 4 14 5 15 6 16 7 18 8 17 9 19 10 9 11 7 12
REMARK SMILES IDX 6 13 8 14 5 15 4 16 2 17 3 18 1 19
REMARK H PARENT
REMARK Flexibility Score: inf
ROOT
ATOM      1  C   UNL     1     -15.022   3.675  26.477  1.00  0.00     0.032 C 
ENDROOT
BRANCH   1   2
ATOM      2  C   UNL     1     -15.699   4.897  27.049  1.00  0.00    -0.028 C 
ATOM      3  C   UNL     1     -15.355   6.175  26.773  1.00  0.00    -0.077 C 
ATOM      4  C   UNL     1     -16.085   7.279  27.493  1.00  0.00     0.039 C 
BRANCH   3   5
ATOM      5  C   UNL     1     -14.295   6.544  25.750  1.00  0.00     0.034 C 
BRANCH   5   6
ATOM      6  C   UNL     1     -12.989   7.001  26.413  1.00  0.00     0.032 C 
BRANCH   6   7
ATOM      7  C   UNL     1     -11.984   5.873  26.482  1.00  0.00    -0.028 C 
ATOM      8  C   UNL     1     -10.696   6.656  24.480  1.00  0.00     0.039 C 
ATOM      9  C   UNL     1     -10.938   5.721  25.641  1.00  0.00    -0.080 C 
ATOM     10  C   UNL     1      -9.986   4.577  25.881  1.00  0.00     0.039 C 
ENDBRANCH   6   7
ENDBRANCH   5   6
ENDBRANCH   3   5
ENDBRANCH   1   2
BRANCH   1  11
ATOM     11  C   UNL     1     -14.303   2.860  27.562  1.00  0.00     0.034 C 
BRANCH  11  12
ATOM     12  C   UNL     1     -15.168   1.729  28.078  1.00  0.00    -0.077 C 
ATOM     13  C   UNL     1     -15.659   1.793  29.337  1.00  0.00    -0.028 C 
ATOM     14  C   UNL     1     -15.517   0.598  27.140  1.00  0.00     0.039 C 
BRANCH  13  15
ATOM     15  C   UNL     1     -16.525   0.733  29.969  1.00  0.00     0.035 C 
BRANCH  15  16
ATOM     16  C   UNL     1     -16.854   1.094  31.422  1.00  0.00     0.079 C 
BRANCH  16  17
ATOM     17  C   UNL     1     -16.558  -0.061  32.338  1.00  0.00     0.130 C 
ATOM     18  O   UNL     1     -15.428  -0.524  32.387  1.00  0.00    -0.300 OA
ATOM     19  C   UNL     1     -17.634  -0.633  33.211  1.00  0.00     0.087 C 
ENDBRANCH  16  17
ENDBRANCH  15  16
ENDBRANCH  13  15
ENDBRANCH  11  12
ENDBRANCH   1  11
TORSDOF 9
ENDMDL
MODEL 2
REMARK VINA RESULT:    -5.383      2.087      4.347
REMARK INTER + INTRA:          -9.347
REMARK INTER:                  -7.159
REMARK INTRA:                  -2.187
REMARK UNBOUND:                -1.132
REMARK SMILES CC(=O)CCC=C(C)CCC=C(C)CCC=C(C)C
REMARK SMILES IDX 10 1 11 2 12 3 13 4 14 5 15 6 16 7 18 8 17 9 19 10 9 11 7 12
REMARK SMILES IDX 6 13 8 14 5 15 4 16 2 17 3 18 1 19
REMARK H PARENT
REMARK Flexibility Score: inf
ROOT
ATOM      1  C   UNL     1     -13.564   6.042  25.717  1.00  0.00     0.032 C 
ENDROOT
BRANCH   1   2
ATOM      2  C   UNL     1     -13.673   7.510  26.055  1.00  0.00    -0.028 C 
ATOM      3  C   UNL     1     -14.829   8.164  26.305  1.00  0.00    -0.077 C 
ATOM      4  C   UNL     1     -14.767   9.650  26.548  1.00  0.00     0.039 C 
BRANCH   3   5
ATOM      5  C   UNL     1     -16.175   7.465  26.384  1.00  0.00     0.034 C 
BRANCH   5   6
ATOM      6  C   UNL     1     -16.818   7.612  27.770  1.00  0.00     0.032 C 
BRANCH   6   7
ATOM      7  C   UNL     1     -16.426   6.471  28.681  1.00  0.00    -0.028 C 
ATOM      8  C   UNL     1     -18.419   5.072  28.089  1.00  0.00     0.039 C 
ATOM      9  C   UNL     1     -17.118   5.318  28.814  1.00  0.00    -0.080 C 
ATOM     10  C   UNL     1     -16.559   4.248  29.717  1.00  0.00     0.039 C 
ENDBRANCH   6   7
ENDBRANCH   5   6
ENDBRANCH   3   5
ENDBRANCH   1   2
BRANCH   1  11
ATOM     11  C   UNL     1     -13.252   5.192  26.957  1.00  0.00     0.034 C 
BRANCH  11  12
ATOM     12  C   UNL     1     -14.064   3.913  26.976  1.00  0.00    -0.077 C 
ATOM     13  C   UNL     1     -13.737   2.935  27.853  1.00  0.00    -0.028 C 
ATOM     14  C   UNL     1     -15.261   3.801  26.064  1.00  0.00     0.039 C 
BRANCH  13  15
ATOM     15  C   UNL     1     -14.460   1.617  27.969  1.00  0.00     0.035 C 
BRANCH  15  16
ATOM     16  C   UNL     1     -13.544   0.545  28.569  1.00  0.00     0.079 C 
BRANCH  16  17
ATOM     17  C   UNL     1     -14.294  -0.303  29.559  1.00  0.00     0.130 C 
ATOM     18  O   UNL     1     -13.722  -1.221  30.129  1.00  0.00    -0.300 OA
ATOM     19  C   UNL     1     -15.731  -0.015  29.871  1.00  0.00     0.087 C 
ENDBRANCH  16  17
ENDBRANCH  15  16
ENDBRANCH  13  15
ENDBRANCH  11  12
ENDBRANCH   1  11
TORSDOF 9
ENDMDL
MODEL 3
REMARK VINA RESULT:    -5.360      2.035      3.749
REMARK INTER + INTRA:          -9.312
REMARK INTER:                  -8.216
REMARK INTRA:                  -1.096
REMARK UNBOUND:                -1.132
REMARK SMILES CC(=O)CCC=C(C)CCC=C(C)CCC=C(C)C
REMARK SMILES IDX 10 1 11 2 12 3 13 4 14 5 15 6 16 7 18 8 17 9 19 10 9 11 7 12
REMARK SMILES IDX 6 13 8 14 5 15 4 16 2 17 3 18 1 19
REMARK H PARENT
REMARK Flexibility Score: inf
ROOT
ATOM      1  C   UNL     1     -13.602   5.032  26.725  1.00  0.00     0.032 C 
ENDROOT
BRANCH   1   2
ATOM      2  C   UNL     1     -12.954   5.922  25.691  1.00  0.00    -0.028 C 
ATOM      3  C   UNL     1     -11.623   6.126  25.569  1.00  0.00    -0.077 C 
ATOM      4  C   UNL     1     -11.146   7.110  24.532  1.00  0.00     0.039 C 
BRANCH   3   5
ATOM      5  C   UNL     1     -10.592   5.383  26.402  1.00  0.00     0.034 C 
BRANCH   5   6
ATOM      6  C   UNL     1      -9.951   4.225  25.625  1.00  0.00     0.032 C 
BRANCH   6   7
ATOM      7  C   UNL     1      -8.842   3.576  26.422  1.00  0.00    -0.028 C 
ATOM      8  C   UNL     1     -10.297   1.727  27.285  1.00  0.00     0.039 C 
ATOM      9  C   UNL     1      -8.975   2.444  27.147  1.00  0.00    -0.080 C 
ATOM     10  C   UNL     1      -7.755   1.886  27.835  1.00  0.00     0.039 C 
ENDBRANCH   6   7
ENDBRANCH   5   6
ENDBRANCH   3   5
ENDBRANCH   1   2
BRANCH   1  11
ATOM     11  C   UNL     1     -15.053   4.692  26.355  1.00  0.00     0.034 C 
BRANCH  11  12
ATOM     12  C   UNL     1     -15.399   3.260  26.708  1.00  0.00    -0.077 C 
ATOM     13  C   UNL     1     -14.727   2.643  27.708  1.00  0.00    -0.028 C 
ATOM     14  C   UNL     1     -16.537   2.588  25.978  1.00  0.00     0.039 C 
BRANCH  13  15
ATOM     15  C   UNL     1     -14.971   1.223  28.151  1.00  0.00     0.035 C 
BRANCH  15  16
ATOM     16  C   UNL     1     -13.646   0.482  28.359  1.00  0.00     0.079 C 
BRANCH  16  17
ATOM     17  C   UNL     1     -13.705  -0.381  29.589  1.00  0.00     0.130 C 
ATOM     18  O   UNL     1     -12.690  -0.923  30.000  1.00  0.00    -0.300 OA
ATOM     19  C   UNL     1     -14.996  -0.561  30.330  1.00  0.00     0.087 C 
ENDBRANCH  16  17
ENDBRANCH  15  16
ENDBRANCH  13  15
ENDBRANCH  11  12
ENDBRANCH   1  11
TORSDOF 9
ENDMDL
MODEL 4
REMARK VINA RESULT:    -5.322      2.333      3.645
REMARK INTER + INTRA:          -9.254
REMARK INTER:                  -7.894
REMARK INTRA:                  -1.360
REMARK UNBOUND:                -1.132
REMARK SMILES CC(=O)CCC=C(C)CCC=C(C)CCC=C(C)C
REMARK SMILES IDX 10 1 11 2 12 3 13 4 14 5 15 6 16 7 18 8 17 9 19 10 9 11 7 12
REMARK SMILES IDX 6 13 8 14 5 15 4 16 2 17 3 18 1 19
REMARK H PARENT
REMARK Flexibility Score: inf
ROOT
ATOM      1  C   UNL     1     -16.799   7.075  26.593  1.00  0.00     0.032 C 
ENDROOT
BRANCH   1   2
ATOM      2  C   UNL     1     -16.369   8.470  26.208  1.00  0.00    -0.028 C 
ATOM      3  C   UNL     1     -15.099   8.932  26.256  1.00  0.00    -0.077 C 
ATOM      4  C   UNL     1     -14.855  10.379  25.912  1.00  0.00     0.039 C 
BRANCH   3   5
ATOM      5  C   UNL     1     -13.912   8.052  26.606  1.00  0.00     0.034 C 
BRANCH   5   6
ATOM      6  C   UNL     1     -13.444   7.214  25.409  1.00  0.00     0.032 C 
BRANCH   6   7
ATOM      7  C   UNL     1     -12.452   6.155  25.833  1.00  0.00    -0.028 C 
ATOM      8  C   UNL     1     -10.651   6.965  24.291  1.00  0.00     0.039 C 
ATOM      9  C   UNL     1     -11.191   6.047  25.362  1.00  0.00    -0.080 C 
ATOM     10  C   UNL     1     -10.301   4.973  25.935  1.00  0.00     0.039 C 
ENDBRANCH   6   7
ENDBRANCH   5   6
ENDBRANCH   3   5
ENDBRANCH   1   2
BRANCH   1  11
ATOM     11  C   UNL     1     -16.401   6.732  28.036  1.00  0.00     0.034 C 
BRANCH  11  12
ATOM     12  C   UNL     1     -16.007   5.277  28.177  1.00  0.00    -0.077 C 
ATOM     13  C   UNL     1     -15.532   4.611  27.099  1.00  0.00    -0.028 C 
ATOM     14  C   UNL     1     -16.089   4.634  29.541  1.00  0.00     0.039 C 
BRANCH  13  15
ATOM     15  C   UNL     1     -15.112   3.164  27.107  1.00  0.00     0.035 C 
BRANCH  15  16
ATOM     16  C   UNL     1     -13.699   3.009  27.682  1.00  0.00     0.079 C 
BRANCH  16  17
ATOM     17  C   UNL     1     -13.542   1.678  28.362  1.00  0.00     0.130 C 
ATOM     18  O   UNL     1     -12.429   1.192  28.496  1.00  0.00    -0.300 OA
ATOM     19  C   UNL     1     -14.740   0.952  28.898  1.00  0.00     0.087 C 
ENDBRANCH  16  17
ENDBRANCH  15  16
ENDBRANCH  13  15
ENDBRANCH  11  12
ENDBRANCH   1  11
TORSDOF 9
ENDMDL
MODEL 5
REMARK VINA RESULT:    -5.278      2.048      2.593
REMARK INTER + INTRA:          -9.186
REMARK INTER:                  -8.166
REMARK INTRA:                  -1.021
REMARK UNBOUND:                -1.132
REMARK SMILES CC(=O)CCC=C(C)CCC=C(C)CCC=C(C)C
REMARK SMILES IDX 10 1 11 2 12 3 13 4 14 5 15 6 16 7 18 8 17 9 19 10 9 11 7 12
REMARK SMILES IDX 6 13 8 14 5 15 4 16 2 17 3 18 1 19
REMARK H PARENT
REMARK Flexibility Score: inf
ROOT
ATOM      1  C   UNL     1     -15.574   3.648  27.450  1.00  0.00     0.032 C 
ENDROOT
BRANCH   1   2
ATOM      2  C   UNL     1     -16.176   5.029  27.345  1.00  0.00    -0.028 C 
ATOM      3  C   UNL     1     -15.611   6.074  26.700  1.00  0.00    -0.077 C 
ATOM      4  C   UNL     1     -16.309   7.408  26.760  1.00  0.00     0.039 C 
BRANCH   3   5
ATOM      5  C   UNL     1     -14.329   5.954  25.894  1.00  0.00     0.034 C 
BRANCH   5   6
ATOM      6  C   UNL     1     -13.115   6.495  26.661  1.00  0.00     0.032 C 
BRANCH   6   7
ATOM      7  C   UNL     1     -11.937   5.552  26.561  1.00  0.00    -0.028 C 
ATOM      8  C   UNL     1     -10.977   6.675  24.537  1.00  0.00     0.039 C 
ATOM      9  C   UNL     1     -10.958   5.637  25.633  1.00  0.00    -0.080 C 
ATOM     10  C   UNL     1      -9.814   4.658  25.707  1.00  0.00     0.039 C 
ENDBRANCH   6   7
ENDBRANCH   5   6
ENDBRANCH   3   5
ENDBRANCH   1   2
BRANCH   1  11
ATOM     11  C   UNL     1     -16.230   2.663  26.472  1.00  0.00     0.034 C 
BRANCH  11  12
ATOM     12  C   UNL     1     -15.990   1.224  26.881  1.00  0.00    -0.077 C 
ATOM     13  C   UNL     1     -15.252   0.964  27.985  1.00  0.00    -0.028 C 
ATOM     14  C   UNL     1     -16.648   0.125  26.082  1.00  0.00     0.039 C 
BRANCH  13  15
ATOM     15  C   UNL     1     -14.937  -0.419  28.494  1.00  0.00     0.035 C 
BRANCH  15  16
ATOM     16  C   UNL     1     -14.080  -0.351  29.763  1.00  0.00     0.079 C 
BRANCH  16  17
ATOM     17  C   UNL     1     -12.800  -1.118  29.584  1.00  0.00     0.130 C 
ATOM     18  O   UNL     1     -12.459  -1.937  30.425  1.00  0.00    -0.300 OA
ATOM     19  C   UNL     1     -11.949  -0.903  28.369  1.00  0.00     0.087 C 
ENDBRANCH  16  17
ENDBRANCH  15  16
ENDBRANCH  13  15
ENDBRANCH  11  12
ENDBRANCH   1  11
TORSDOF 9
ENDMDL
MODEL 6
REMARK VINA RESULT:    -5.187      3.886      6.572
REMARK INTER + INTRA:          -9.048
REMARK INTER:                  -7.094
REMARK INTRA:                  -1.954
REMARK UNBOUND:                -1.132
REMARK SMILES CC(=O)CCC=C(C)CCC=C(C)CCC=C(C)C
REMARK SMILES IDX 10 1 11 2 12 3 13 4 14 5 15 6 16 7 18 8 17 9 19 10 9 11 7 12
REMARK SMILES IDX 6 13 8 14 5 15 4 16 2 17 3 18 1 19
REMARK H PARENT
REMARK Flexibility Score: inf
ROOT
ATOM      1  C   UNL     1     -17.073   3.847  26.665  1.00  0.00     0.032 C 
ENDROOT
BRANCH   1   2
ATOM      2  C   UNL     1     -17.288   4.031  28.148  1.00  0.00    -0.028 C 
ATOM      3  C   UNL     1     -17.458   5.222  28.765  1.00  0.00    -0.077 C 
ATOM      4  C   UNL     1     -17.580   5.234  30.267  1.00  0.00     0.039 C 
BRANCH   3   5
ATOM      5  C   UNL     1     -17.568   6.536  28.011  1.00  0.00     0.034 C 
BRANCH   5   6
ATOM      6  C   UNL     1     -16.408   7.486  28.339  1.00  0.00     0.032 C 
BRANCH   6   7
ATOM      7  C   UNL     1     -15.914   8.198  27.101  1.00  0.00    -0.028 C 
ATOM      8  C   UNL     1     -16.368  10.487  28.015  1.00  0.00     0.039 C 
ATOM      9  C   UNL     1     -15.864   9.540  26.952  1.00  0.00    -0.080 C 
ATOM     10  C   UNL     1     -15.282  10.099  25.678  1.00  0.00     0.039 C 
ENDBRANCH   6   7
ENDBRANCH   5   6
ENDBRANCH   3   5
ENDBRANCH   1   2
BRANCH   1  11
ATOM     11  C   UNL     1     -15.793   3.054  26.367  1.00  0.00     0.034 C 
BRANCH  11  12
ATOM     12  C   UNL     1     -14.558   3.778  26.862  1.00  0.00    -0.077 C 
ATOM     13  C   UNL     1     -14.283   5.017  26.390  1.00  0.00    -0.028 C 
ATOM     14  C   UNL     1     -13.710   3.122  27.925  1.00  0.00     0.039 C 
BRANCH  13  15
ATOM     15  C   UNL     1     -13.087   5.838  26.798  1.00  0.00     0.035 C 
BRANCH  15  16
ATOM     16  C   UNL     1     -12.638   6.753  25.653  1.00  0.00     0.079 C 
BRANCH  16  17
ATOM     17  C   UNL     1     -11.260   6.379  25.181  1.00  0.00     0.130 C 
ATOM     18  O   UNL     1     -10.729   7.023  24.288  1.00  0.00    -0.300 OA
ATOM     19  C   UNL     1     -10.523   5.239  25.815  1.00  0.00     0.087 C 
ENDBRANCH  16  17
ENDBRANCH  15  16
ENDBRANCH  13  15
ENDBRANCH  11  12
ENDBRANCH   1  11
TORSDOF 9
ENDMDL
MODEL 7
REMARK VINA RESULT:    -5.149      2.239      3.143
REMARK INTER + INTRA:          -8.990
REMARK INTER:                  -7.050
REMARK INTRA:                  -1.940
REMARK UNBOUND:                -1.132
REMARK SMILES CC(=O)CCC=C(C)CCC=C(C)CCC=C(C)C
REMARK SMILES IDX 10 1 11 2 12 3 13 4 14 5 15 6 16 7 18 8 17 9 19 10 9 11 7 12
REMARK SMILES IDX 6 13 8 14 5 15 4 16 2 17 3 18 1 19
REMARK H PARENT
REMARK Flexibility Score: inf
ROOT
ATOM      1  C   UNL     1     -16.785   4.096  30.361  1.00  0.00     0.032 C 
ENDROOT
BRANCH   1   2
ATOM      2  C   UNL     1     -17.065   5.229  29.402  1.00  0.00    -0.028 C 
ATOM      3  C   UNL     1     -16.156   5.781  28.567  1.00  0.00    -0.077 C 
ATOM      4  C   UNL     1     -16.583   6.960  27.731  1.00  0.00     0.039 C 
BRANCH   3   5
ATOM      5  C   UNL     1     -14.744   5.245  28.410  1.00  0.00     0.034 C 
BRANCH   5   6
ATOM      6  C   UNL     1     -14.470   4.754  26.982  1.00  0.00     0.032 C 
BRANCH   6   7
ATOM      7  C   UNL     1     -12.987   4.679  26.702  1.00  0.00    -0.028 C 
ATOM      8  C   UNL     1     -12.900   6.916  25.577  1.00  0.00     0.039 C 
ATOM      9  C   UNL     1     -12.265   5.649  26.099  1.00  0.00    -0.080 C 
ATOM     10  C   UNL     1     -10.779   5.450  25.950  1.00  0.00     0.039 C 
ENDBRANCH   6   7
ENDBRANCH   5   6
ENDBRANCH   3   5
ENDBRANCH   1   2
BRANCH   1  11
ATOM     11  C   UNL     1     -17.394   2.773  29.876  1.00  0.00     0.034 C 
BRANCH  11  12
ATOM     12  C   UNL     1     -16.579   2.159  28.756  1.00  0.00    -0.077 C 
ATOM     13  C   UNL     1     -15.334   1.699  29.019  1.00  0.00    -0.028 C 
ATOM     14  C   UNL     1     -17.214   2.014  27.394  1.00  0.00     0.039 C 
BRANCH  13  15
ATOM     15  C   UNL     1     -14.423   1.073  27.994  1.00  0.00     0.035 C 
BRANCH  15  16
ATOM     16  C   UNL     1     -14.380  -0.450  28.160  1.00  0.00     0.079 C 
BRANCH  16  17
ATOM     17  C   UNL     1     -13.162  -0.868  28.936  1.00  0.00     0.130 C 
ATOM     18  O   UNL     1     -12.070  -0.887  28.388  1.00  0.00    -0.300 OA
ATOM     19  C   UNL     1     -13.274  -1.238  30.385  1.00  0.00     0.087 C 
ENDBRANCH  16  17
ENDBRANCH  15  16
ENDBRANCH  13  15
ENDBRANCH  11  12
ENDBRANCH   1  11
TORSDOF 9
ENDMDL
MODEL 8
REMARK VINA RESULT:    -5.147      2.104      4.057
REMARK INTER + INTRA:          -8.987
REMARK INTER:                  -7.846
REMARK INTRA:                  -1.141
REMARK UNBOUND:                -1.132
REMARK SMILES CC(=O)CCC=C(C)CCC=C(C)CCC=C(C)C
REMARK SMILES IDX 10 1 11 2 12 3 13 4 14 5 15 6 16 7 18 8 17 9 19 10 9 11 7 12
REMARK SMILES IDX 6 13 8 14 5 15 4 16 2 17 3 18 1 19
REMARK H PARENT
REMARK Flexibility Score: inf
ROOT
ATOM      1  C   UNL     1     -14.176   4.379  27.360  1.00  0.00     0.032 C 
ENDROOT
BRANCH   1   2
ATOM      2  C   UNL     1     -12.787   4.366  26.769  1.00  0.00    -0.028 C 
ATOM      3  C   UNL     1     -12.093   5.465  26.398  1.00  0.00    -0.077 C 
ATOM      4  C   UNL     1     -10.747   5.270  25.748  1.00  0.00     0.039 C 
BRANCH   3   5
ATOM      5  C   UNL     1     -12.592   6.880  26.638  1.00  0.00     0.034 C 
BRANCH   5   6
ATOM      6  C   UNL     1     -13.590   7.327  25.562  1.00  0.00     0.032 C 
BRANCH   6   7
ATOM      7  C   UNL     1     -14.283   8.612  25.956  1.00  0.00    -0.028 C 
ATOM      8  C   UNL     1     -16.380   7.464  26.707  1.00  0.00     0.039 C 
ATOM      9  C   UNL     1     -15.520   8.687  26.495  1.00  0.00    -0.080 C 
ATOM     10  C   UNL     1     -16.046  10.042  26.895  1.00  0.00     0.039 C 
ENDBRANCH   6   7
ENDBRANCH   5   6
ENDBRANCH   3   5
ENDBRANCH   1   2
BRANCH   1  11
ATOM     11  C   UNL     1     -15.242   3.998  26.323  1.00  0.00     0.034 C 
BRANCH  11  12
ATOM     12  C   UNL     1     -15.824   2.626  26.595  1.00  0.00    -0.077 C 
ATOM     13  C   UNL     1     -15.364   1.909  27.646  1.00  0.00    -0.028 C 
ATOM     14  C   UNL     1     -16.955   2.133  25.725  1.00  0.00     0.039 C 
BRANCH  13  15
ATOM     15  C   UNL     1     -15.854   0.533  28.020  1.00  0.00     0.035 C 
BRANCH  15  16
ATOM     16  C   UNL     1     -15.213   0.064  29.330  1.00  0.00     0.079 C 
BRANCH  16  17
ATOM     17  C   UNL     1     -13.949  -0.704  29.060  1.00  0.00     0.130 C 
ATOM     18  O   UNL     1     -13.667  -1.026  27.916  1.00  0.00    -0.300 OA
ATOM     19  C   UNL     1     -13.019  -1.056  30.182  1.00  0.00     0.087 C 
ENDBRANCH  16  17
ENDBRANCH  15  16
ENDBRANCH  13  15
ENDBRANCH  11  12
ENDBRANCH   1  11
TORSDOF 9
ENDMDL
MODEL 9
REMARK VINA RESULT:    -5.145      3.086      7.471
REMARK INTER + INTRA:          -8.984
REMARK INTER:                  -6.476
REMARK INTRA:                  -2.508
REMARK UNBOUND:                -1.132
REMARK SMILES CC(=O)CCC=C(C)CCC=C(C)CCC=C(C)C
REMARK SMILES IDX 10 1 11 2 12 3 13 4 14 5 15 6 16 7 18 8 17 9 19 10 9 11 7 12
REMARK SMILES IDX 6 13 8 14 5 15 4 16 2 17 3 18 1 19
REMARK H PARENT
REMARK Flexibility Score: inf
ROOT
ATOM      1  C   UNL     1     -15.858   0.356  27.065  1.00  0.00     0.032 C 
ENDROOT
BRANCH   1   2
ATOM      2  C   UNL     1     -17.130  -0.230  27.628  1.00  0.00    -0.028 C 
ATOM      3  C   UNL     1     -17.409  -0.358  28.945  1.00  0.00    -0.077 C 
ATOM      4  C   UNL     1     -18.695  -1.040  29.337  1.00  0.00     0.039 C 
BRANCH   3   5
ATOM      5  C   UNL     1     -16.505   0.185  30.038  1.00  0.00     0.034 C 
BRANCH   5   6
ATOM      6  C   UNL     1     -17.214   1.237  30.901  1.00  0.00     0.032 C 
BRANCH   6   7
ATOM      7  C   UNL     1     -16.685   2.625  30.620  1.00  0.00    -0.028 C 
ATOM      8  C   UNL     1     -18.562   3.223  29.071  1.00  0.00     0.039 C 
ATOM      9  C   UNL     1     -17.291   3.534  29.825  1.00  0.00    -0.080 C 
ATOM     10  C   UNL     1     -16.670   4.902  29.698  1.00  0.00     0.039 C 
ENDBRANCH   6   7
ENDBRANCH   5   6
ENDBRANCH   3   5
ENDBRANCH   1   2
BRANCH   1  11
ATOM     11  C   UNL     1     -16.007   1.852  26.753  1.00  0.00     0.034 C 
BRANCH  11  12
ATOM     12  C   UNL     1     -14.809   2.645  27.233  1.00  0.00    -0.077 C 
ATOM     13  C   UNL     1     -14.626   3.907  26.780  1.00  0.00    -0.028 C 
ATOM     14  C   UNL     1     -13.895   2.026  28.262  1.00  0.00     0.039 C 
BRANCH  13  15
ATOM     15  C   UNL     1     -13.475   4.796  27.174  1.00  0.00     0.035 C 
BRANCH  15  16
ATOM     16  C   UNL     1     -13.552   6.143  26.446  1.00  0.00     0.079 C 
BRANCH  16  17
ATOM     17  C   UNL     1     -12.313   6.378  25.627  1.00  0.00     0.130 C 
ATOM     18  O   UNL     1     -12.354   7.131  24.666  1.00  0.00    -0.300 OA
ATOM     19  C   UNL     1     -11.021   5.715  25.997  1.00  0.00     0.087 C 
ENDBRANCH  16  17
ENDBRANCH  15  16
ENDBRANCH  13  15
ENDBRANCH  11  12
ENDBRANCH   1  11
TORSDOF 9
ENDMDL
