MODEL 1
REMARK VINA RESULT:    -2.377      0.000      0.000
REMARK INTER + INTRA:          -3.760
REMARK INTER:                  -3.628
REMARK INTRA:                  -0.132
REMARK UNBOUND:                -0.132
REMARK SMILES OC[C@@H]1O[C@@](CO)(O[C@H]2O[C@H](CO)[C@@H](O)[C@H](O)[C@H]2O)[C@H](O)[C@H]1O
REMARK SMILES IDX 8 1 9 2 11 3 14 4 10 5 16 6 18 7 12 8 13 9 15 11 17 13 19 15
REMARK SMILES IDX 5 17 20 18 4 19 22 20 3 21 6 22 7 23 21 25 23 27 2 29 1 30
REMARK H PARENT 13 10 15 12 17 14 19 16 7 24 21 26 23 28 1 31
REMARK Flexibility Score: inf
ROOT
ATOM      1  O   UNL     1     -18.708 -11.742  13.942  1.00  0.00    -0.313 OA
ENDROOT
BRANCH   1   2
ATOM      2  C   UNL     1     -18.022 -12.593  14.857  1.00  0.00     0.285 C 
ATOM      3  C   UNL     1     -15.974 -12.279  13.737  1.00  0.00     0.178 C 
ATOM      4  C   UNL     1     -15.360 -11.461  14.902  1.00  0.00     0.177 C 
ATOM      5  O   UNL     1     -16.913 -13.224  14.233  1.00  0.00    -0.341 OA
ATOM      6  C   UNL     1     -16.480 -10.765  15.694  1.00  0.00     0.179 C 
ATOM      7  C   UNL     1     -17.554 -11.793  16.089  1.00  0.00     0.202 C 
BRANCH   3   8
ATOM      8  C   UNL     1     -14.895 -13.055  12.965  1.00  0.00     0.191 C 
BRANCH   8   9
ATOM      9  O   UNL     1     -15.350 -13.433  11.693  1.00  0.00    -0.394 OA
ATOM     10  H   UNL     1     -16.337 -13.519  11.757  1.00  0.00     0.210 HD
ENDBRANCH   8   9
ENDBRANCH   3   8
BRANCH   4  11
ATOM     11  O   UNL     1     -14.486 -10.482  14.400  1.00  0.00    -0.387 OA
ATOM     12  H   UNL     1     -14.960  -9.611  14.444  1.00  0.00     0.211 HD
ENDBRANCH   4  11
BRANCH   6  13
ATOM     13  O   UNL     1     -15.955 -10.179  16.857  1.00  0.00    -0.387 OA
ATOM     14  H   UNL     1     -15.026  -9.900  16.645  1.00  0.00     0.211 HD
ENDBRANCH   6  13
BRANCH   7  15
ATOM     15  O   UNL     1     -18.640 -11.178  16.737  1.00  0.00    -0.385 OA
ATOM     16  H   UNL     1     -18.850 -10.337  16.253  1.00  0.00     0.211 HD
ENDBRANCH   7  15
ENDBRANCH   1   2
BRANCH   1  17
ATOM     17  C   UNL     1     -19.461 -12.429  12.944  1.00  0.00     0.224 C 
ATOM     18  C   UNL     1     -20.924 -12.660  13.416  1.00  0.00     0.208 C 
ATOM     19  O   UNL     1     -19.504 -11.574  11.814  1.00  0.00    -0.337 OA
ATOM     20  C   UNL     1     -21.753 -12.152  12.265  1.00  0.00     0.180 C 
ATOM     21  C   UNL     1     -20.826 -11.114  11.661  1.00  0.00     0.179 C 
BRANCH  17  22
ATOM     22  C   UNL     1     -18.744 -13.730  12.484  1.00  0.00     0.225 C 
BRANCH  22  23
ATOM     23  O   UNL     1     -18.191 -13.573  11.203  1.00  0.00    -0.391 OA
ATOM     24  H   UNL     1     -17.791 -12.667  11.171  1.00  0.00     0.210 HD
ENDBRANCH  22  23
ENDBRANCH  17  22
BRANCH  18  25
ATOM     25  O   UNL     1     -21.205 -14.012  13.682  1.00  0.00    -0.385 OA
ATOM     26  H   UNL     1     -21.134 -14.129  14.665  1.00  0.00     0.211 HD
ENDBRANCH  18  25
BRANCH  20  27
ATOM     27  O   UNL     1     -22.945 -11.558  12.708  1.00  0.00    -0.387 OA
ATOM     28  H   UNL     1     -23.577 -12.301  12.891  1.00  0.00     0.211 HD
ENDBRANCH  20  27
BRANCH  21  29
ATOM     29  C   UNL     1     -21.132 -10.835  10.183  1.00  0.00     0.191 C 
BRANCH  29  30
ATOM     30  O   UNL     1     -20.861  -9.499   9.852  1.00  0.00    -0.394 OA
ATOM     31  H   UNL     1     -21.711  -8.998   9.967  1.00  0.00     0.210 HD
ENDBRANCH  29  30
ENDBRANCH  21  29
ENDBRANCH   1  17
TORSDOF 13
ENDMDL
MODEL 2
REMARK VINA RESULT:    -1.739     15.460     18.800
REMARK INTER + INTRA:          -2.786
REMARK INTER:                  -2.773
REMARK INTRA:                  -0.013
REMARK UNBOUND:                -0.132
REMARK SMILES OC[C@@H]1O[C@@](CO)(O[C@H]2O[C@H](CO)[C@@H](O)[C@H](O)[C@H]2O)[C@H](O)[C@H]1O
REMARK SMILES IDX 8 1 9 2 11 3 14 4 10 5 16 6 18 7 12 8 13 9 15 11 17 13 19 15
REMARK SMILES IDX 5 17 20 18 4 19 22 20 3 21 6 22 7 23 21 25 23 27 2 29 1 30
REMARK H PARENT 13 10 15 12 17 14 19 16 7 24 21 26 23 28 1 31
REMARK Flexibility Score: inf
ROOT
ATOM      1  O   UNL     1     -13.982   3.136  21.552  1.00  0.00    -0.313 OA
ENDROOT
BRANCH   1   2
ATOM      2  C   UNL     1     -13.703   3.815  20.331  1.00  0.00     0.285 C 
ATOM      3  C   UNL     1     -11.565   2.839  20.184  1.00  0.00     0.178 C 
ATOM      4  C   UNL     1     -11.949   1.964  18.963  1.00  0.00     0.177 C 
ATOM      5  O   UNL     1     -12.309   4.049  20.184  1.00  0.00    -0.341 OA
ATOM      6  C   UNL     1     -13.461   1.683  18.981  1.00  0.00     0.179 C 
ATOM      7  C   UNL     1     -14.234   3.005  19.131  1.00  0.00     0.202 C 
BRANCH   3   8
ATOM      8  C   UNL     1     -10.072   3.210  20.163  1.00  0.00     0.191 C 
BRANCH   8   9
ATOM      9  O   UNL     1      -9.712   3.941  21.304  1.00  0.00    -0.394 OA
ATOM     10  H   UNL     1      -9.314   3.295  21.944  1.00  0.00     0.210 HD
ENDBRANCH   8   9
ENDBRANCH   3   8
BRANCH   4  11
ATOM     11  O   UNL     1     -11.260   0.740  19.006  1.00  0.00    -0.387 OA
ATOM     12  H   UNL     1     -11.933   0.019  18.890  1.00  0.00     0.211 HD
ENDBRANCH   4  11
BRANCH   6  13
ATOM     13  O   UNL     1     -13.849   1.057  17.786  1.00  0.00    -0.387 OA
ATOM     14  H   UNL     1     -14.488   1.668  17.335  1.00  0.00     0.211 HD
ENDBRANCH   6  13
BRANCH   7  15
ATOM     15  O   UNL     1     -15.617   2.780  19.242  1.00  0.00    -0.385 OA
ATOM     16  H   UNL     1     -15.765   2.137  19.984  1.00  0.00     0.211 HD
ENDBRANCH   7  15
ENDBRANCH   1   2
BRANCH   1  17
ATOM     17  C   UNL     1     -13.842   3.939  22.722  1.00  0.00     0.224 C 
ATOM     18  C   UNL     1     -15.203   4.574  23.124  1.00  0.00     0.208 C 
ATOM     19  O   UNL     1     -13.451   3.063  23.766  1.00  0.00    -0.337 OA
ATOM     20  C   UNL     1     -15.333   4.237  24.587  1.00  0.00     0.180 C 
ATOM     21  C   UNL     1     -14.520   2.960  24.676  1.00  0.00     0.179 C 
BRANCH  17  22
ATOM     22  C   UNL     1     -12.695   4.977  22.567  1.00  0.00     0.225 C 
BRANCH  22  23
ATOM     23  O   UNL     1     -11.713   4.794  23.554  1.00  0.00    -0.391 OA
ATOM     24  H   UNL     1     -11.586   3.815  23.654  1.00  0.00     0.210 HD
ENDBRANCH  22  23
ENDBRANCH  17  22
BRANCH  18  25
ATOM     25  O   UNL     1     -15.238   5.965  22.920  1.00  0.00    -0.385 OA
ATOM     26  H   UNL     1     -15.355   6.380  23.814  1.00  0.00     0.211 HD
ENDBRANCH  18  25
BRANCH  20  27
ATOM     27  O   UNL     1     -16.670   4.004  24.948  1.00  0.00    -0.387 OA
ATOM     28  H   UNL     1     -16.646   3.497  25.800  1.00  0.00     0.211 HD
ENDBRANCH  20  27
BRANCH  21  29
ATOM     29  C   UNL     1     -13.997   2.688  26.093  1.00  0.00     0.191 C 
BRANCH  29  30
ATOM     30  O   UNL     1     -14.007   1.315  26.384  1.00  0.00    -0.394 OA
ATOM     31  H   UNL     1     -13.059   1.038  26.484  1.00  0.00     0.210 HD
ENDBRANCH  29  30
ENDBRANCH  21  29
ENDBRANCH   1  17
TORSDOF 13
ENDMDL
MODEL 3
REMARK VINA RESULT:    -0.817      1.284      6.210
REMARK INTER + INTRA:          -1.379
REMARK INTER:                  -0.695
REMARK INTRA:                  -0.683
REMARK UNBOUND:                -0.132
REMARK SMILES OC[C@@H]1O[C@@](CO)(O[C@H]2O[C@H](CO)[C@@H](O)[C@H](O)[C@H]2O)[C@H](O)[C@H]1O
REMARK SMILES IDX 8 1 9 2 11 3 14 4 10 5 16 6 18 7 12 8 13 9 15 11 17 13 19 15
REMARK SMILES IDX 5 17 20 18 4 19 22 20 3 21 6 22 7 23 21 25 23 27 2 29 1 30
REMARK H PARENT 13 10 15 12 17 14 19 16 7 24 21 26 23 28 1 31
REMARK Flexibility Score: inf
ROOT
ATOM      1  O   UNL     1     -18.613 -11.820  13.386  1.00  0.00    -0.313 OA
ENDROOT
BRANCH   1   2
ATOM      2  C   UNL     1     -19.058 -12.671  12.333  1.00  0.00     0.285 C 
ATOM      3  C   UNL     1     -21.138 -13.013  13.382  1.00  0.00     0.178 C 
ATOM      4  C   UNL     1     -21.914 -12.207  12.309  1.00  0.00     0.177 C 
ATOM      5  O   UNL     1     -19.992 -13.629  12.812  1.00  0.00    -0.341 OA
ATOM      6  C   UNL     1     -20.983 -11.160  11.673  1.00  0.00     0.179 C 
ATOM      7  C   UNL     1     -19.686 -11.838  11.198  1.00  0.00     0.202 C 
BRANCH   3   8
ATOM      8  C   UNL     1     -22.010 -14.125  13.990  1.00  0.00     0.191 C 
BRANCH   8   9
ATOM      9  O   UNL     1     -23.326 -14.063  13.507  1.00  0.00    -0.394 OA
ATOM     10  H   UNL     1     -23.853 -14.722  14.030  1.00  0.00     0.210 HD
ENDBRANCH   8   9
ENDBRANCH   3   8
BRANCH   4  11
ATOM     11  O   UNL     1     -23.007 -11.544  12.894  1.00  0.00    -0.387 OA
ATOM     12  H   UNL     1     -23.799 -11.720  12.322  1.00  0.00     0.211 HD
ENDBRANCH   4  11
BRANCH   6  13
ATOM     13  O   UNL     1     -21.616 -10.557  10.575  1.00  0.00    -0.387 OA
ATOM     14  H   UNL     1     -21.888  -9.646  10.863  1.00  0.00     0.211 HD
ENDBRANCH   6  13
BRANCH   7  15
ATOM     15  O   UNL     1     -18.772 -10.897  10.692  1.00  0.00    -0.385 OA
ATOM     16  H   UNL     1     -17.932 -11.375  10.468  1.00  0.00     0.211 HD
ENDBRANCH   7  15
ENDBRANCH   1   2
BRANCH   1  17
ATOM     17  C   UNL     1     -17.528 -12.343  14.151  1.00  0.00     0.224 C 
ATOM     18  C   UNL     1     -16.198 -12.266  13.349  1.00  0.00     0.208 C 
ATOM     19  O   UNL     1     -17.394 -11.502  15.285  1.00  0.00    -0.337 OA
ATOM     20  C   UNL     1     -15.243 -11.603  14.307  1.00  0.00     0.180 C 
ATOM     21  C   UNL     1     -16.191 -10.781  15.158  1.00  0.00     0.179 C 
BRANCH  17  22
ATOM     22  C   UNL     1     -17.844 -13.765  14.693  1.00  0.00     0.225 C 
BRANCH  22  23
ATOM     23  O   UNL     1     -16.953 -14.122  15.718  1.00  0.00    -0.391 OA
ATOM     24  H   UNL     1     -17.388 -13.879  16.575  1.00  0.00     0.210 HD
ENDBRANCH  22  23
ENDBRANCH  17  22
BRANCH  18  25
ATOM     25  O   UNL     1     -15.724 -13.530  12.956  1.00  0.00    -0.385 OA
ATOM     26  H   UNL     1     -15.930 -14.155  13.699  1.00  0.00     0.211 HD
ENDBRANCH  18  25
BRANCH  20  27
ATOM     27  O   UNL     1     -14.328 -10.775  13.637  1.00  0.00    -0.387 OA
ATOM     28  H   UNL     1     -14.130 -11.219  12.773  1.00  0.00     0.211 HD
ENDBRANCH  20  27
BRANCH  21  29
ATOM     29  C   UNL     1     -15.613 -10.452  16.541  1.00  0.00     0.191 C 
BRANCH  29  30
ATOM     30  O   UNL     1     -14.213 -10.548  16.542  1.00  0.00    -0.394 OA
ATOM     31  H   UNL     1     -13.935 -10.661  17.488  1.00  0.00     0.210 HD
ENDBRANCH  29  30
ENDBRANCH  21  29
ENDBRANCH   1  17
TORSDOF 13
ENDMDL
MODEL 4
REMARK VINA RESULT:     0.520     15.555     18.811
REMARK INTER + INTRA:           0.661
REMARK INTER:                   0.872
REMARK INTRA:                  -0.210
REMARK UNBOUND:                -0.132
REMARK SMILES OC[C@@H]1O[C@@](CO)(O[C@H]2O[C@H](CO)[C@@H](O)[C@H](O)[C@H]2O)[C@H](O)[C@H]1O
REMARK SMILES IDX 8 1 9 2 11 3 14 4 10 5 16 6 18 7 12 8 13 9 15 11 17 13 19 15
REMARK SMILES IDX 5 17 20 18 4 19 22 20 3 21 6 22 7 23 21 25 23 27 2 29 1 30
REMARK H PARENT 13 10 15 12 17 14 19 16 7 24 21 26 23 28 1 31
REMARK Flexibility Score: inf
ROOT
ATOM      1  O   UNL     1     -13.319   3.478  21.335  1.00  0.00    -0.313 OA
ENDROOT
BRANCH   1   2
ATOM      2  C   UNL     1     -12.921   4.480  22.266  1.00  0.00     0.285 C 
ATOM      3  C   UNL     1     -15.138   4.789  23.001  1.00  0.00     0.178 C 
ATOM      4  C   UNL     1     -14.857   4.170  24.394  1.00  0.00     0.177 C 
ATOM      5  O   UNL     1     -13.969   5.414  22.488  1.00  0.00    -0.341 OA
ATOM      6  C   UNL     1     -13.694   3.168  24.293  1.00  0.00     0.179 C 
ATOM      7  C   UNL     1     -12.493   3.835  23.600  1.00  0.00     0.202 C 
BRANCH   3   8
ATOM      8  C   UNL     1     -16.244   5.855  23.071  1.00  0.00     0.191 C 
BRANCH   8   9
ATOM      9  O   UNL     1     -16.609   6.125  24.398  1.00  0.00    -0.394 OA
ATOM     10  H   UNL     1     -17.539   5.797  24.511  1.00  0.00     0.210 HD
ENDBRANCH   8   9
ENDBRANCH   3   8
BRANCH   4  11
ATOM     11  O   UNL     1     -15.996   3.494  24.864  1.00  0.00    -0.387 OA
ATOM     12  H   UNL     1     -16.784   4.063  24.658  1.00  0.00     0.211 HD
ENDBRANCH   4  11
BRANCH   6  13
ATOM     13  O   UNL     1     -13.308   2.747  25.575  1.00  0.00    -0.387 OA
ATOM     14  H   UNL     1     -13.097   3.565  26.097  1.00  0.00     0.211 HD
ENDBRANCH   6  13
BRANCH   7  15
ATOM     15  O   UNL     1     -11.441   2.922  23.408  1.00  0.00    -0.385 OA
ATOM     16  H   UNL     1     -10.922   3.215  22.614  1.00  0.00     0.211 HD
ENDBRANCH   7  15
ENDBRANCH   1   2
BRANCH   1  17
ATOM     17  C   UNL     1     -12.556   3.452  20.130  1.00  0.00     0.224 C 
ATOM     18  C   UNL     1     -11.345   2.485  20.262  1.00  0.00     0.208 C 
ATOM     19  O   UNL     1     -13.411   2.935  19.124  1.00  0.00    -0.337 OA
ATOM     20  C   UNL     1     -11.448   1.618  19.034  1.00  0.00     0.180 C 
ATOM     21  C   UNL     1     -12.939   1.660  18.759  1.00  0.00     0.179 C 
BRANCH  17  22
ATOM     22  C   UNL     1     -12.159   4.885  19.676  1.00  0.00     0.225 C 
BRANCH  22  23
ATOM     23  O   UNL     1     -11.082   5.372  20.434  1.00  0.00    -0.391 OA
ATOM     24  H   UNL     1     -11.026   6.347  20.261  1.00  0.00     0.210 HD
ENDBRANCH  22  23
ENDBRANCH  17  22
BRANCH  18  25
ATOM     25  O   UNL     1     -10.111   3.159  20.304  1.00  0.00    -0.385 OA
ATOM     26  H   UNL     1      -9.665   2.882  21.145  1.00  0.00     0.211 HD
ENDBRANCH  18  25
BRANCH  20  27
ATOM     27  O   UNL     1     -11.024   0.305  19.291  1.00  0.00    -0.387 OA
ATOM     28  H   UNL     1     -11.485  -0.273  18.629  1.00  0.00     0.211 HD
ENDBRANCH  20  27
BRANCH  21  29
ATOM     29  C   UNL     1     -13.280   1.358  17.293  1.00  0.00     0.191 C 
BRANCH  29  30
ATOM     30  O   UNL     1     -12.149   0.917  16.589  1.00  0.00    -0.394 OA
ATOM     31  H   UNL     1     -12.141   1.407  15.726  1.00  0.00     0.210 HD
ENDBRANCH  29  30
ENDBRANCH  21  29
ENDBRANCH   1  17
TORSDOF 13
ENDMDL
