MODEL 1
REMARK VINA RESULT:    -4.009      0.000      0.000
REMARK INTER + INTRA:         -10.812
REMARK INTER:                  -7.759
REMARK INTRA:                  -3.054
REMARK UNBOUND:                -3.054
REMARK SMILES CCCCCCCCCCCCCCCCCC(=O)[O-]
REMARK SMILES IDX 10 1 11 2 12 3 13 4 14 5 15 6 16 7 17 8 18 9 19 10 20 11
REMARK SMILES IDX 9 12 8 13 7 14 6 15 5 16 4 17 3 18 2 19 1 20
REMARK H PARENT
REMARK Flexibility Score: inf
ROOT
ATOM      1  C   UNL     1       4.022  29.773  26.936  1.00  0.00     0.000 C 
ENDROOT
BRANCH   1   2
ATOM      2  C   UNL     1       4.966  30.986  26.973  1.00  0.00     0.000 C 
BRANCH   2   3
ATOM      3  C   UNL     1       6.408  30.624  26.574  1.00  0.00     0.000 C 
BRANCH   3   4
ATOM      4  C   UNL     1       6.526  29.205  25.994  1.00  0.00     0.000 C 
BRANCH   4   5
ATOM      5  C   UNL     1       7.988  28.762  25.807  1.00  0.00     0.000 C 
BRANCH   5   6
ATOM      6  C   UNL     1       8.988  29.880  26.143  1.00  0.00     0.000 C 
BRANCH   6   7
ATOM      7  C   UNL     1       9.842  29.560  27.383  1.00  0.00     0.006 C 
BRANCH   7   8
ATOM      8  C   UNL     1       9.845  30.712  28.396  1.00  0.00     0.053 C 
BRANCH   8   9
ATOM      9  C   UNL     1      10.734  31.835  27.955  1.00  0.00     0.041 C 
ATOM     10  O   UNL     1      10.417  33.029  28.199  1.00  0.00    -0.550 OA
ATOM     11  O   UNL     1      11.894  31.563  27.242  1.00  0.00    -0.550 OA
ENDBRANCH   8   9
ENDBRANCH   7   8
ENDBRANCH   6   7
ENDBRANCH   5   6
ENDBRANCH   4   5
ENDBRANCH   3   4
ENDBRANCH   2   3
ENDBRANCH   1   2
BRANCH   1  12
ATOM     12  C   UNL     1       3.230  29.599  28.241  1.00  0.00     0.000 C 
BRANCH  12  13
ATOM     13  C   UNL     1       3.312  28.151  28.742  1.00  0.00    -0.000 C 
BRANCH  13  14
ATOM     14  C   UNL     1       3.743  27.202  27.613  1.00  0.00    -0.000 C 
BRANCH  14  15
ATOM     15  C   UNL     1       4.502  25.972  28.139  1.00  0.00    -0.000 C 
BRANCH  15  16
ATOM     16  C   UNL     1       6.025  26.187  28.165  1.00  0.00    -0.000 C 
BRANCH  16  17
ATOM     17  C   UNL     1       6.612  26.056  29.579  1.00  0.00    -0.000 C 
BRANCH  17  18
ATOM     18  C   UNL     1       6.492  27.358  30.390  1.00  0.00    -0.000 C 
BRANCH  18  19
ATOM     19  C   UNL     1       6.984  28.587  29.610  1.00  0.00    -0.003 C 
ATOM     20  C   UNL     1       6.629  29.907  30.293  1.00  0.00     0.004 C 
ENDBRANCH  18  19
ENDBRANCH  17  18
ENDBRANCH  16  17
ENDBRANCH  15  16
ENDBRANCH  14  15
ENDBRANCH  13  14
ENDBRANCH  12  13
ENDBRANCH   1  12
TORSDOF 16
ENDMDL
MODEL 2
REMARK VINA RESULT:    -3.967      2.365      4.950
REMARK INTER + INTRA:         -10.732
REMARK INTER:                  -8.346
REMARK INTRA:                  -2.387
REMARK UNBOUND:                -3.054
REMARK SMILES CCCCCCCCCCCCCCCCCC(=O)[O-]
REMARK SMILES IDX 10 1 11 2 12 3 13 4 14 5 15 6 16 7 17 8 18 9 19 10 20 11
REMARK SMILES IDX 9 12 8 13 7 14 6 15 5 16 4 17 3 18 2 19 1 20
REMARK H PARENT
REMARK Flexibility Score: inf
ROOT
ATOM      1  C   UNL     1       9.190  30.971  30.399  1.00  0.00     0.000 C 
ENDROOT
BRANCH   1   2
ATOM      2  C   UNL     1      10.296  32.037  30.456  1.00  0.00     0.000 C 
BRANCH   2   3
ATOM      3  C   UNL     1      11.692  31.429  30.676  1.00  0.00     0.000 C 
BRANCH   3   4
ATOM      4  C   UNL     1      12.066  30.396  29.601  1.00  0.00     0.000 C 
BRANCH   4   5
ATOM      5  C   UNL     1      13.369  30.753  28.864  1.00  0.00     0.000 C 
BRANCH   5   6
ATOM      6  C   UNL     1      13.135  31.726  27.696  1.00  0.00     0.000 C 
BRANCH   6   7
ATOM      7  C   UNL     1      11.789  31.490  26.988  1.00  0.00     0.006 C 
BRANCH   7   8
ATOM      8  C   UNL     1      10.958  32.775  26.883  1.00  0.00     0.053 C 
BRANCH   8   9
ATOM      9  C   UNL     1      10.602  33.090  25.461  1.00  0.00     0.041 C 
ATOM     10  O   UNL     1       9.765  32.382  24.844  1.00  0.00    -0.550 OA
ATOM     11  O   UNL     1      11.226  34.145  24.808  1.00  0.00    -0.550 OA
ENDBRANCH   8   9
ENDBRANCH   7   8
ENDBRANCH   6   7
ENDBRANCH   5   6
ENDBRANCH   4   5
ENDBRANCH   3   4
ENDBRANCH   2   3
ENDBRANCH   1   2
BRANCH   1  12
ATOM     12  C   UNL     1       8.522  30.883  29.018  1.00  0.00     0.000 C 
BRANCH  12  13
ATOM     13  C   UNL     1       8.670  29.475  28.427  1.00  0.00    -0.000 C 
BRANCH  13  14
ATOM     14  C   UNL     1       8.604  29.513  26.892  1.00  0.00    -0.000 C 
BRANCH  14  15
ATOM     15  C   UNL     1       7.293  30.130  26.377  1.00  0.00    -0.000 C 
BRANCH  15  16
ATOM     16  C   UNL     1       6.254  29.064  25.985  1.00  0.00    -0.000 C 
BRANCH  16  17
ATOM     17  C   UNL     1       4.840  29.648  25.845  1.00  0.00    -0.000 C 
BRANCH  17  18
ATOM     18  C   UNL     1       4.489  30.623  26.982  1.00  0.00    -0.000 C 
BRANCH  18  19
ATOM     19  C   UNL     1       3.990  29.903  28.244  1.00  0.00    -0.003 C 
ATOM     20  C   UNL     1       4.947  30.043  29.427  1.00  0.00     0.004 C 
ENDBRANCH  18  19
ENDBRANCH  17  18
ENDBRANCH  16  17
ENDBRANCH  15  16
ENDBRANCH  14  15
ENDBRANCH  13  14
ENDBRANCH  12  13
ENDBRANCH   1  12
TORSDOF 16
ENDMDL
MODEL 3
REMARK VINA RESULT:    -3.873      1.753      3.813
REMARK INTER + INTRA:         -10.550
REMARK INTER:                  -7.763
REMARK INTRA:                  -2.787
REMARK UNBOUND:                -3.054
REMARK SMILES CCCCCCCCCCCCCCCCCC(=O)[O-]
REMARK SMILES IDX 10 1 11 2 12 3 13 4 14 5 15 6 16 7 17 8 18 9 19 10 20 11
REMARK SMILES IDX 9 12 8 13 7 14 6 15 5 16 4 17 3 18 2 19 1 20
REMARK H PARENT
REMARK Flexibility Score: inf
ROOT
ATOM      1  C   UNL     1       6.336  27.388  30.797  1.00  0.00     0.000 C 
ENDROOT
BRANCH   1   2
ATOM      2  C   UNL     1       6.413  28.662  29.941  1.00  0.00     0.000 C 
BRANCH   2   3
ATOM      3  C   UNL     1       7.680  29.487  30.223  1.00  0.00     0.000 C 
BRANCH   3   4
ATOM      4  C   UNL     1       7.875  30.639  29.223  1.00  0.00     0.000 C 
BRANCH   4   5
ATOM      5  C   UNL     1       9.321  31.167  29.203  1.00  0.00     0.000 C 
BRANCH   5   6
ATOM      6  C   UNL     1      10.069  30.781  27.917  1.00  0.00     0.000 C 
BRANCH   6   7
ATOM      7  C   UNL     1      11.288  29.879  28.186  1.00  0.00     0.006 C 
BRANCH   7   8
ATOM      8  C   UNL     1      12.100  30.352  29.398  1.00  0.00     0.053 C 
BRANCH   8   9
ATOM      9  C   UNL     1      13.309  31.136  28.983  1.00  0.00     0.041 C 
ATOM     10  O   UNL     1      13.707  31.104  27.789  1.00  0.00    -0.550 OA
ATOM     11  O   UNL     1      14.016  31.871  29.925  1.00  0.00    -0.550 OA
ENDBRANCH   8   9
ENDBRANCH   7   8
ENDBRANCH   6   7
ENDBRANCH   5   6
ENDBRANCH   4   5
ENDBRANCH   3   4
ENDBRANCH   2   3
ENDBRANCH   1   2
BRANCH   1  12
ATOM     12  C   UNL     1       6.628  26.113  29.991  1.00  0.00     0.000 C 
BRANCH  12  13
ATOM     13  C   UNL     1       5.848  26.110  28.670  1.00  0.00    -0.000 C 
BRANCH  13  14
ATOM     14  C   UNL     1       6.759  25.719  27.495  1.00  0.00    -0.000 C 
BRANCH  14  15
ATOM     15  C   UNL     1       8.212  26.177  27.702  1.00  0.00    -0.000 C 
BRANCH  15  16
ATOM     16  C   UNL     1       8.503  27.531  27.031  1.00  0.00    -0.000 C 
BRANCH  16  17
ATOM     17  C   UNL     1       7.444  27.905  25.982  1.00  0.00    -0.000 C 
BRANCH  17  18
ATOM     18  C   UNL     1       7.122  29.409  25.981  1.00  0.00    -0.000 C 
BRANCH  18  19
ATOM     19  C   UNL     1       5.667  29.702  26.379  1.00  0.00    -0.003 C 
ATOM     20  C   UNL     1       4.714  28.559  26.033  1.00  0.00     0.004 C 
ENDBRANCH  18  19
ENDBRANCH  17  18
ENDBRANCH  16  17
ENDBRANCH  15  16
ENDBRANCH  14  15
ENDBRANCH  13  14
ENDBRANCH  12  13
ENDBRANCH   1  12
TORSDOF 16
ENDMDL
MODEL 4
REMARK VINA RESULT:    -3.866      1.693      4.018
REMARK INTER + INTRA:         -10.536
REMARK INTER:                  -7.691
REMARK INTRA:                  -2.846
REMARK UNBOUND:                -3.054
REMARK SMILES CCCCCCCCCCCCCCCCCC(=O)[O-]
REMARK SMILES IDX 10 1 11 2 12 3 13 4 14 5 15 6 16 7 17 8 18 9 19 10 20 11
REMARK SMILES IDX 9 12 8 13 7 14 6 15 5 16 4 17 3 18 2 19 1 20
REMARK H PARENT
REMARK Flexibility Score: inf
ROOT
ATOM      1  C   UNL     1       8.380  26.834  25.910  1.00  0.00     0.000 C 
ENDROOT
BRANCH   1   2
ATOM      2  C   UNL     1       7.352  27.758  25.238  1.00  0.00     0.000 C 
BRANCH   2   3
ATOM      3  C   UNL     1       7.875  28.369  23.926  1.00  0.00     0.000 C 
BRANCH   3   4
ATOM      4  C   UNL     1       9.264  29.008  24.080  1.00  0.00     0.000 C 
BRANCH   4   5
ATOM      5  C   UNL     1       9.274  30.166  25.094  1.00  0.00     0.000 C 
BRANCH   5   6
ATOM      6  C   UNL     1      10.653  30.367  25.743  1.00  0.00     0.000 C 
BRANCH   6   7
ATOM      7  C   UNL     1      10.560  30.926  27.174  1.00  0.00     0.006 C 
BRANCH   7   8
ATOM      8  C   UNL     1      11.409  30.121  28.166  1.00  0.00     0.053 C 
BRANCH   8   9
ATOM      9  C   UNL     1      12.429  30.981  28.849  1.00  0.00     0.041 C 
ATOM     10  O   UNL     1      12.065  31.948  29.568  1.00  0.00    -0.550 OA
ATOM     11  O   UNL     1      13.783  30.736  28.659  1.00  0.00    -0.550 OA
ENDBRANCH   8   9
ENDBRANCH   7   8
ENDBRANCH   6   7
ENDBRANCH   5   6
ENDBRANCH   4   5
ENDBRANCH   3   4
ENDBRANCH   2   3
ENDBRANCH   1   2
BRANCH   1  12
ATOM     12  C   UNL     1       8.679  27.238  27.362  1.00  0.00     0.000 C 
BRANCH  12  13
ATOM     13  C   UNL     1       7.443  27.858  28.025  1.00  0.00    -0.000 C 
BRANCH  13  14
ATOM     14  C   UNL     1       7.788  29.205  28.680  1.00  0.00    -0.000 C 
BRANCH  14  15
ATOM     15  C   UNL     1       6.636  30.218  28.579  1.00  0.00    -0.000 C 
BRANCH  15  16
ATOM     16  C   UNL     1       6.289  30.572  27.123  1.00  0.00    -0.000 C 
BRANCH  16  17
ATOM     17  C   UNL     1       4.773  30.597  26.871  1.00  0.00    -0.000 C 
BRANCH  17  18
ATOM     18  C   UNL     1       4.265  29.308  26.201  1.00  0.00    -0.000 C 
BRANCH  18  19
ATOM     19  C   UNL     1       3.816  28.250  27.221  1.00  0.00    -0.003 C 
ATOM     20  C   UNL     1       4.053  26.820  26.738  1.00  0.00     0.004 C 
ENDBRANCH  18  19
ENDBRANCH  17  18
ENDBRANCH  16  17
ENDBRANCH  15  16
ENDBRANCH  14  15
ENDBRANCH  13  14
ENDBRANCH  12  13
ENDBRANCH   1  12
TORSDOF 16
ENDMDL
MODEL 5
REMARK VINA RESULT:    -3.865      1.738      4.108
REMARK INTER + INTRA:         -10.534
REMARK INTER:                  -7.811
REMARK INTRA:                  -2.723
REMARK UNBOUND:                -3.054
REMARK SMILES CCCCCCCCCCCCCCCCCC(=O)[O-]
REMARK SMILES IDX 10 1 11 2 12 3 13 4 14 5 15 6 16 7 17 8 18 9 19 10 20 11
REMARK SMILES IDX 9 12 8 13 7 14 6 15 5 16 4 17 3 18 2 19 1 20
REMARK H PARENT
REMARK Flexibility Score: inf
ROOT
ATOM      1  C   UNL     1       7.353  29.506  30.406  1.00  0.00     0.000 C 
ENDROOT
BRANCH   1   2
ATOM      2  C   UNL     1       7.909  30.930  30.571  1.00  0.00     0.000 C 
BRANCH   2   3
ATOM      3  C   UNL     1       9.287  31.106  29.910  1.00  0.00     0.000 C 
BRANCH   3   4
ATOM      4  C   UNL     1      10.347  31.653  30.881  1.00  0.00     0.000 C 
BRANCH   4   5
ATOM      5  C   UNL     1      11.775  31.552  30.316  1.00  0.00     0.000 C 
BRANCH   5   6
ATOM      6  C   UNL     1      11.885  30.525  29.177  1.00  0.00     0.000 C 
BRANCH   6   7
ATOM      7  C   UNL     1      12.626  31.080  27.947  1.00  0.00     0.006 C 
BRANCH   7   8
ATOM      8  C   UNL     1      11.751  31.062  26.687  1.00  0.00     0.053 C 
BRANCH   8   9
ATOM      9  C   UNL     1      10.970  32.332  26.537  1.00  0.00     0.041 C 
ATOM     10  O   UNL     1       9.714  32.319  26.624  1.00  0.00    -0.550 OA
ATOM     11  O   UNL     1      11.628  33.524  26.264  1.00  0.00    -0.550 OA
ENDBRANCH   8   9
ENDBRANCH   7   8
ENDBRANCH   6   7
ENDBRANCH   5   6
ENDBRANCH   4   5
ENDBRANCH   3   4
ENDBRANCH   2   3
ENDBRANCH   1   2
BRANCH   1  12
ATOM     12  C   UNL     1       5.839  29.488  30.142  1.00  0.00     0.000 C 
BRANCH  12  13
ATOM     13  C   UNL     1       5.440  30.599  29.162  1.00  0.00    -0.000 C 
BRANCH  13  14
ATOM     14  C   UNL     1       4.569  30.042  28.025  1.00  0.00    -0.000 C 
BRANCH  14  15
ATOM     15  C   UNL     1       5.145  30.361  26.636  1.00  0.00    -0.000 C 
BRANCH  15  16
ATOM     16  C   UNL     1       6.667  30.586  26.666  1.00  0.00    -0.000 C 
BRANCH  16  17
ATOM     17  C   UNL     1       7.448  29.382  26.118  1.00  0.00    -0.000 C 
BRANCH  17  18
ATOM     18  C   UNL     1       8.643  28.999  27.009  1.00  0.00    -0.000 C 
BRANCH  18  19
ATOM     19  C   UNL     1       8.587  27.536  27.474  1.00  0.00    -0.003 C 
ATOM     20  C   UNL     1       7.159  27.018  27.639  1.00  0.00     0.004 C 
ENDBRANCH  18  19
ENDBRANCH  17  18
ENDBRANCH  16  17
ENDBRANCH  15  16
ENDBRANCH  14  15
ENDBRANCH  13  14
ENDBRANCH  12  13
ENDBRANCH   1  12
TORSDOF 16
ENDMDL
MODEL 6
REMARK VINA RESULT:    -3.825      1.497      3.177
REMARK INTER + INTRA:         -10.457
REMARK INTER:                  -7.363
REMARK INTRA:                  -3.093
REMARK UNBOUND:                -3.054
REMARK SMILES CCCCCCCCCCCCCCCCCC(=O)[O-]
REMARK SMILES IDX 10 1 11 2 12 3 13 4 14 5 15 6 16 7 17 8 18 9 19 10 20 11
REMARK SMILES IDX 9 12 8 13 7 14 6 15 5 16 4 17 3 18 2 19 1 20
REMARK H PARENT
REMARK Flexibility Score: inf
ROOT
ATOM      1  C   UNL     1       4.059  27.277  25.518  1.00  0.00     0.000 C 
ENDROOT
BRANCH   1   2
ATOM      2  C   UNL     1       4.363  28.757  25.237  1.00  0.00     0.000 C 
BRANCH   2   3
ATOM      3  C   UNL     1       4.221  29.638  26.491  1.00  0.00     0.000 C 
BRANCH   3   4
ATOM      4  C   UNL     1       5.425  30.569  26.703  1.00  0.00     0.000 C 
BRANCH   4   5
ATOM      5  C   UNL     1       6.481  29.965  27.646  1.00  0.00     0.000 C 
BRANCH   5   6
ATOM      6  C   UNL     1       7.914  30.362  27.255  1.00  0.00     0.000 C 
BRANCH   6   7
ATOM      7  C   UNL     1       8.969  29.823  28.238  1.00  0.00     0.006 C 
BRANCH   7   8
ATOM      8  C   UNL     1      10.334  29.622  27.568  1.00  0.00     0.053 C 
BRANCH   8   9
ATOM      9  C   UNL     1      11.159  30.873  27.604  1.00  0.00     0.041 C 
ATOM     10  O   UNL     1      10.872  31.800  28.406  1.00  0.00    -0.550 OA
ATOM     11  O   UNL     1      12.222  31.029  26.725  1.00  0.00    -0.550 OA
ENDBRANCH   8   9
ENDBRANCH   7   8
ENDBRANCH   6   7
ENDBRANCH   5   6
ENDBRANCH   4   5
ENDBRANCH   3   4
ENDBRANCH   2   3
ENDBRANCH   1   2
BRANCH   1  12
ATOM     12  C   UNL     1       3.987  26.962  27.021  1.00  0.00     0.000 C 
BRANCH  12  13
ATOM     13  C   UNL     1       5.044  25.923  27.414  1.00  0.00    -0.000 C 
BRANCH  13  14
ATOM     14  C   UNL     1       5.783  26.347  28.693  1.00  0.00    -0.000 C 
BRANCH  14  15
ATOM     15  C   UNL     1       7.298  26.492  28.474  1.00  0.00    -0.000 C 
BRANCH  15  16
ATOM     16  C   UNL     1       7.786  25.744  27.221  1.00  0.00    -0.000 C 
BRANCH  16  17
ATOM     17  C   UNL     1       8.495  26.673  26.223  1.00  0.00    -0.000 C 
BRANCH  17  18
ATOM     18  C   UNL     1       7.727  26.808  24.896  1.00  0.00    -0.000 C 
BRANCH  18  19
ATOM     19  C   UNL     1       7.702  28.252  24.373  1.00  0.00    -0.003 C 
ATOM     20  C   UNL     1       9.094  28.790  24.042  1.00  0.00     0.004 C 
ENDBRANCH  18  19
ENDBRANCH  17  18
ENDBRANCH  16  17
ENDBRANCH  15  16
ENDBRANCH  14  15
ENDBRANCH  13  14
ENDBRANCH  12  13
ENDBRANCH   1  12
TORSDOF 16
ENDMDL
MODEL 7
REMARK VINA RESULT:    -3.813      2.006      3.621
REMARK INTER + INTRA:         -10.433
REMARK INTER:                  -7.728
REMARK INTRA:                  -2.705
REMARK UNBOUND:                -3.054
REMARK SMILES CCCCCCCCCCCCCCCCCC(=O)[O-]
REMARK SMILES IDX 10 1 11 2 12 3 13 4 14 5 15 6 16 7 17 8 18 9 19 10 20 11
REMARK SMILES IDX 9 12 8 13 7 14 6 15 5 16 4 17 3 18 2 19 1 20
REMARK H PARENT
REMARK Flexibility Score: inf
ROOT
ATOM      1  C   UNL     1       6.959  30.246  28.438  1.00  0.00     0.000 C 
ENDROOT
BRANCH   1   2
ATOM      2  C   UNL     1       8.329  29.550  28.417  1.00  0.00     0.000 C 
BRANCH   2   3
ATOM      3  C   UNL     1       9.097  29.796  27.106  1.00  0.00     0.000 C 
BRANCH   3   4
ATOM      4  C   UNL     1       8.677  31.098  26.406  1.00  0.00     0.000 C 
BRANCH   4   5
ATOM      5  C   UNL     1       9.847  32.082  26.235  1.00  0.00     0.000 C 
BRANCH   5   6
ATOM      6  C   UNL     1      10.504  32.453  27.575  1.00  0.00     0.000 C 
BRANCH   6   7
ATOM      7  C   UNL     1      11.971  31.995  27.663  1.00  0.00     0.006 C 
BRANCH   7   8
ATOM      8  C   UNL     1      12.195  30.988  28.799  1.00  0.00     0.053 C 
BRANCH   8   9
ATOM      9  C   UNL     1      12.648  31.664  30.057  1.00  0.00     0.041 C 
ATOM     10  O   UNL     1      13.829  32.087  30.161  1.00  0.00    -0.550 OA
ATOM     11  O   UNL     1      11.775  31.793  31.130  1.00  0.00    -0.550 OA
ENDBRANCH   8   9
ENDBRANCH   7   8
ENDBRANCH   6   7
ENDBRANCH   5   6
ENDBRANCH   4   5
ENDBRANCH   3   4
ENDBRANCH   2   3
ENDBRANCH   1   2
BRANCH   1  12
ATOM     12  C   UNL     1       5.797  29.262  28.641  1.00  0.00     0.000 C 
BRANCH  12  13
ATOM     13  C   UNL     1       4.617  29.611  27.727  1.00  0.00    -0.000 C 
BRANCH  13  14
ATOM     14  C   UNL     1       5.109  30.080  26.349  1.00  0.00    -0.000 C 
BRANCH  14  15
ATOM     15  C   UNL     1       5.079  28.955  25.301  1.00  0.00    -0.000 C 
BRANCH  15  16
ATOM     16  C   UNL     1       6.482  28.411  24.981  1.00  0.00    -0.000 C 
BRANCH  16  17
ATOM     17  C   UNL     1       6.696  26.989  25.525  1.00  0.00    -0.000 C 
BRANCH  17  18
ATOM     18  C   UNL     1       8.184  26.605  25.601  1.00  0.00    -0.000 C 
BRANCH  18  19
ATOM     19  C   UNL     1       8.576  26.030  26.971  1.00  0.00    -0.003 C 
ATOM     20  C   UNL     1       7.400  25.958  27.944  1.00  0.00     0.004 C 
ENDBRANCH  18  19
ENDBRANCH  17  18
ENDBRANCH  16  17
ENDBRANCH  15  16
ENDBRANCH  14  15
ENDBRANCH  13  14
ENDBRANCH  12  13
ENDBRANCH   1  12
TORSDOF 16
ENDMDL
MODEL 8
REMARK VINA RESULT:    -3.810      1.549      3.547
REMARK INTER + INTRA:         -10.427
REMARK INTER:                  -7.713
REMARK INTRA:                  -2.714
REMARK UNBOUND:                -3.054
REMARK SMILES CCCCCCCCCCCCCCCCCC(=O)[O-]
REMARK SMILES IDX 10 1 11 2 12 3 13 4 14 5 15 6 16 7 17 8 18 9 19 10 20 11
REMARK SMILES IDX 9 12 8 13 7 14 6 15 5 16 4 17 3 18 2 19 1 20
REMARK H PARENT
REMARK Flexibility Score: inf
ROOT
ATOM      1  C   UNL     1       4.530  30.099  29.522  1.00  0.00     0.000 C 
ENDROOT
BRANCH   1   2
ATOM      2  C   UNL     1       5.064  28.855  30.249  1.00  0.00     0.000 C 
BRANCH   2   3
ATOM      3  C   UNL     1       6.587  28.906  30.466  1.00  0.00     0.000 C 
BRANCH   3   4
ATOM      4  C   UNL     1       7.159  30.327  30.332  1.00  0.00     0.000 C 
BRANCH   4   5
ATOM      5  C   UNL     1       8.552  30.344  29.678  1.00  0.00     0.000 C 
BRANCH   5   6
ATOM      6  C   UNL     1       9.294  31.671  29.911  1.00  0.00     0.000 C 
BRANCH   6   7
ATOM      7  C   UNL     1      10.039  32.163  28.656  1.00  0.00     0.006 C 
BRANCH   7   8
ATOM      8  C   UNL     1      10.505  31.003  27.769  1.00  0.00     0.053 C 
BRANCH   8   9
ATOM      9  C   UNL     1      11.306  31.488  26.598  1.00  0.00     0.041 C 
ATOM     10  O   UNL     1      11.381  32.719  26.346  1.00  0.00    -0.550 OA
ATOM     11  O   UNL     1      11.940  30.576  25.765  1.00  0.00    -0.550 OA
ENDBRANCH   8   9
ENDBRANCH   7   8
ENDBRANCH   6   7
ENDBRANCH   5   6
ENDBRANCH   4   5
ENDBRANCH   3   4
ENDBRANCH   2   3
ENDBRANCH   1   2
BRANCH   1  12
ATOM     12  C   UNL     1       3.530  29.751  28.408  1.00  0.00     0.000 C 
BRANCH  12  13
ATOM     13  C   UNL     1       4.204  29.803  27.031  1.00  0.00    -0.000 C 
BRANCH  13  14
ATOM     14  C   UNL     1       5.217  30.956  26.958  1.00  0.00    -0.000 C 
BRANCH  14  15
ATOM     15  C   UNL     1       6.625  30.475  26.570  1.00  0.00    -0.000 C 
BRANCH  15  16
ATOM     16  C   UNL     1       6.773  28.946  26.670  1.00  0.00    -0.000 C 
BRANCH  16  17
ATOM     17  C   UNL     1       8.187  28.470  26.299  1.00  0.00    -0.000 C 
BRANCH  17  18
ATOM     18  C   UNL     1       8.800  27.553  27.371  1.00  0.00    -0.000 C 
BRANCH  18  19
ATOM     19  C   UNL     1       7.806  26.499  27.885  1.00  0.00    -0.003 C 
ATOM     20  C   UNL     1       7.698  25.284  26.964  1.00  0.00     0.004 C 
ENDBRANCH  18  19
ENDBRANCH  17  18
ENDBRANCH  16  17
ENDBRANCH  15  16
ENDBRANCH  14  15
ENDBRANCH  13  14
ENDBRANCH  12  13
ENDBRANCH   1  12
TORSDOF 16
ENDMDL
MODEL 9
REMARK VINA RESULT:    -3.791      1.575      3.286
REMARK INTER + INTRA:         -10.390
REMARK INTER:                  -7.388
REMARK INTRA:                  -3.001
REMARK UNBOUND:                -3.054
REMARK SMILES CCCCCCCCCCCCCCCCCC(=O)[O-]
REMARK SMILES IDX 10 1 11 2 12 3 13 4 14 5 15 6 16 7 17 8 18 9 19 10 20 11
REMARK SMILES IDX 9 12 8 13 7 14 6 15 5 16 4 17 3 18 2 19 1 20
REMARK H PARENT
REMARK Flexibility Score: inf
ROOT
ATOM      1  C   UNL     1       4.727  29.861  26.170  1.00  0.00     0.000 C 
ENDROOT
BRANCH   1   2
ATOM      2  C   UNL     1       3.775  29.865  27.377  1.00  0.00     0.000 C 
BRANCH   2   3
ATOM      3  C   UNL     1       4.523  29.958  28.718  1.00  0.00     0.000 C 
BRANCH   3   4
ATOM      4  C   UNL     1       6.021  30.257  28.545  1.00  0.00     0.000 C 
BRANCH   4   5
ATOM      5  C   UNL     1       6.917  29.183  29.187  1.00  0.00     0.000 C 
BRANCH   5   6
ATOM      6  C   UNL     1       8.303  29.105  28.528  1.00  0.00     0.000 C 
BRANCH   6   7
ATOM      7  C   UNL     1       8.711  30.422  27.842  1.00  0.00     0.006 C 
BRANCH   7   8
ATOM      8  C   UNL     1      10.059  30.305  27.121  1.00  0.00     0.053 C 
BRANCH   8   9
ATOM      9  C   UNL     1      10.654  31.652  26.837  1.00  0.00     0.041 C 
ATOM     10  O   UNL     1       9.998  32.514  26.196  1.00  0.00    -0.550 OA
ATOM     11  O   UNL     1      11.948  31.940  27.251  1.00  0.00    -0.550 OA
ENDBRANCH   8   9
ENDBRANCH   7   8
ENDBRANCH   6   7
ENDBRANCH   5   6
ENDBRANCH   4   5
ENDBRANCH   3   4
ENDBRANCH   2   3
ENDBRANCH   1   2
BRANCH   1  12
ATOM     12  C   UNL     1       4.407  28.741  25.168  1.00  0.00     0.000 C 
BRANCH  12  13
ATOM     13  C   UNL     1       5.679  28.260  24.458  1.00  0.00    -0.000 C 
BRANCH  13  14
ATOM     14  C   UNL     1       6.936  28.820  25.143  1.00  0.00    -0.000 C 
BRANCH  14  15
ATOM     15  C   UNL     1       8.217  28.092  24.703  1.00  0.00    -0.000 C 
BRANCH  15  16
ATOM     16  C   UNL     1       8.118  26.567  24.879  1.00  0.00    -0.000 C 
BRANCH  16  17
ATOM     17  C   UNL     1       8.521  26.113  26.291  1.00  0.00    -0.000 C 
BRANCH  17  18
ATOM     18  C   UNL     1       7.516  25.120  26.900  1.00  0.00    -0.000 C 
BRANCH  18  19
ATOM     19  C   UNL     1       6.705  25.733  28.052  1.00  0.00    -0.003 C 
ATOM     20  C   UNL     1       5.300  26.161  27.631  1.00  0.00     0.004 C 
ENDBRANCH  18  19
ENDBRANCH  17  18
ENDBRANCH  16  17
ENDBRANCH  15  16
ENDBRANCH  14  15
ENDBRANCH  13  14
ENDBRANCH  12  13
ENDBRANCH   1  12
TORSDOF 16
ENDMDL
