MODEL 1
REMARK VINA RESULT:    -6.039      0.000      0.000
REMARK INTER + INTRA:          -7.779
REMARK INTER:                  -7.451
REMARK INTRA:                  -0.328
REMARK UNBOUND:                -0.328
REMARK SMILES Oc1cc(O)c2cc(O)c(-c3cc(O)c(O)c(O)c3)[o+]c2c1
REMARK SMILES IDX 10 1 20 2 21 3 22 4 2 5 3 6 4 7 6 8 7 9 8 10 11 11 12 12
REMARK SMILES IDX 13 13 19 14 15 15 17 16 14 17 16 19 18 21 9 23 1 25 5 27
REMARK H PARENT 14 18 16 20 18 22 9 24 1 26 5 28
REMARK Flexibility Score: inf
ROOT
ATOM      1  C   UNL     1      14.359  -4.193  -2.790  1.00  0.00     0.402 A 
ATOM      2  O   UNL     1      15.607  -4.184  -2.325  1.00  0.00    -0.202 OA
ATOM      3  C   UNL     1      16.611  -3.575  -2.946  1.00  0.00     0.368 A 
ATOM      4  C   UNL     1      17.887  -3.618  -2.379  1.00  0.00     0.162 A 
ATOM      5  C   UNL     1      18.961  -2.986  -3.007  1.00  0.00     0.128 A 
ATOM      6  C   UNL     1      18.759  -2.303  -4.212  1.00  0.00     0.093 A 
ATOM      7  C   UNL     1      17.489  -2.244  -4.801  1.00  0.00     0.136 A 
ATOM      8  C   UNL     1      16.396  -2.889  -4.167  1.00  0.00     0.125 A 
ATOM      9  C   UNL     1      15.094  -2.894  -4.690  1.00  0.00     0.078 A 
ATOM     10  C   UNL     1      14.067  -3.556  -4.009  1.00  0.00     0.223 A 
ENDROOT
BRANCH   1  11
ATOM     11  C   UNL     1      13.324  -4.899  -2.000  1.00  0.00     0.091 A 
ATOM     12  C   UNL     1      12.845  -6.163  -2.386  1.00  0.00     0.068 A 
ATOM     13  C   UNL     1      11.848  -6.805  -1.638  1.00  0.00     0.162 A 
ATOM     14  C   UNL     1      12.768  -4.272  -0.875  1.00  0.00     0.068 A 
ATOM     15  C   UNL     1      11.313  -6.179  -0.499  1.00  0.00     0.200 A 
ATOM     16  C   UNL     1      11.774  -4.906  -0.122  1.00  0.00     0.162 A 
BRANCH  13  17
ATOM     17  O   UNL     1      11.385  -8.062  -2.026  1.00  0.00    -0.504 OA
ATOM     18  H   UNL     1      10.860  -8.193  -2.883  1.00  0.00     0.293 HD
ENDBRANCH  13  17
BRANCH  15  19
ATOM     19  O   UNL     1      10.325  -6.807   0.260  1.00  0.00    -0.502 OA
ATOM     20  H   UNL     1       9.408  -6.397   0.398  1.00  0.00     0.293 HD
ENDBRANCH  15  19
BRANCH  16  21
ATOM     21  O   UNL     1      11.258  -4.255   0.998  1.00  0.00    -0.504 OA
ATOM     22  H   UNL     1      11.796  -3.573   1.520  1.00  0.00     0.293 HD
ENDBRANCH  16  21
ENDBRANCH   1  11
BRANCH  10  23
ATOM     23  O   UNL     1      12.783  -3.603  -4.554  1.00  0.00    -0.500 OA
ATOM     24  H   UNL     1      12.038  -3.007  -4.214  1.00  0.00     0.294 HD
ENDBRANCH  10  23
BRANCH   5  25
ATOM     25  O   UNL     1      20.226  -3.041  -2.426  1.00  0.00    -0.507 OA
ATOM     26  H   UNL     1      20.522  -2.360  -1.737  1.00  0.00     0.293 HD
ENDBRANCH   5  25
BRANCH   7  27
ATOM     27  O   UNL     1      17.369  -1.540  -6.003  1.00  0.00    -0.507 OA
ATOM     28  H   UNL     1      16.570  -1.592  -6.616  1.00  0.00     0.293 HD
ENDBRANCH   7  27
TORSDOF 7
ENDMDL
MODEL 2
REMARK VINA RESULT:    -6.026      0.114      1.797
REMARK INTER + INTRA:          -7.763
REMARK INTER:                  -7.413
REMARK INTRA:                  -0.350
REMARK UNBOUND:                -0.328
REMARK SMILES Oc1cc(O)c2cc(O)c(-c3cc(O)c(O)c(O)c3)[o+]c2c1
REMARK SMILES IDX 10 1 20 2 21 3 22 4 2 5 3 6 4 7 6 8 7 9 8 10 11 11 12 12
REMARK SMILES IDX 13 13 19 14 15 15 17 16 14 17 16 19 18 21 9 23 1 25 5 27
REMARK H PARENT 14 18 16 20 18 22 9 24 1 26 5 28
REMARK Flexibility Score: inf
ROOT
ATOM      1  C   UNL     1      14.275  -4.202  -2.742  1.00  0.00     0.402 A 
ATOM      2  O   UNL     1      15.520  -4.200  -2.271  1.00  0.00    -0.202 OA
ATOM      3  C   UNL     1      16.535  -3.614  -2.898  1.00  0.00     0.368 A 
ATOM      4  C   UNL     1      17.808  -3.662  -2.324  1.00  0.00     0.162 A 
ATOM      5  C   UNL     1      18.891  -3.054  -2.958  1.00  0.00     0.128 A 
ATOM      6  C   UNL     1      18.704  -2.389  -4.175  1.00  0.00     0.093 A 
ATOM      7  C   UNL     1      17.437  -2.327  -4.771  1.00  0.00     0.136 A 
ATOM      8  C   UNL     1      16.334  -2.947  -4.131  1.00  0.00     0.125 A 
ATOM      9  C   UNL     1      15.034  -2.946  -4.661  1.00  0.00     0.078 A 
ATOM     10  C   UNL     1      13.996  -3.584  -3.973  1.00  0.00     0.223 A 
ENDROOT
BRANCH   1  11
ATOM     11  C   UNL     1      13.228  -4.882  -1.945  1.00  0.00     0.091 A 
ATOM     12  C   UNL     1      12.651  -4.267  -0.820  1.00  0.00     0.068 A 
ATOM     13  C   UNL     1      11.677  -4.935  -0.065  1.00  0.00     0.162 A 
ATOM     14  C   UNL     1      12.842  -6.187  -2.283  1.00  0.00     0.068 A 
ATOM     15  C   UNL     1      11.279  -6.234  -0.425  1.00  0.00     0.200 A 
ATOM     16  C   UNL     1      11.869  -6.861  -1.536  1.00  0.00     0.162 A 
BRANCH  13  17
ATOM     17  O   UNL     1      11.106  -4.314   1.046  1.00  0.00    -0.504 OA
ATOM     18  H   UNL     1      11.142  -3.308   1.168  1.00  0.00     0.293 HD
ENDBRANCH  13  17
BRANCH  15  19
ATOM     19  O   UNL     1      10.307  -6.912   0.313  1.00  0.00    -0.502 OA
ATOM     20  H   UNL     1       9.834  -6.487   1.101  1.00  0.00     0.293 HD
ENDBRANCH  15  19
BRANCH  16  21
ATOM     21  O   UNL     1      11.503  -8.152  -1.914  1.00  0.00    -0.504 OA
ATOM     22  H   UNL     1      11.770  -8.548  -2.808  1.00  0.00     0.293 HD
ENDBRANCH  16  21
ENDBRANCH   1  11
BRANCH  10  23
ATOM     23  O   UNL     1      12.714  -3.626  -4.524  1.00  0.00    -0.500 OA
ATOM     24  H   UNL     1      12.207  -2.780  -4.758  1.00  0.00     0.294 HD
ENDBRANCH  10  23
BRANCH   5  25
ATOM     25  O   UNL     1      20.153  -3.113  -2.369  1.00  0.00    -0.507 OA
ATOM     26  H   UNL     1      20.978  -3.348  -2.908  1.00  0.00     0.293 HD
ENDBRANCH   5  25
BRANCH   7  27
ATOM     27  O   UNL     1      17.331  -1.642  -5.986  1.00  0.00    -0.507 OA
ATOM     28  H   UNL     1      18.117  -1.374  -6.560  1.00  0.00     0.293 HD
ENDBRANCH   7  27
TORSDOF 7
ENDMDL
MODEL 3
REMARK VINA RESULT:    -5.934      1.642      7.007
REMARK INTER + INTRA:          -7.650
REMARK INTER:                  -7.726
REMARK INTRA:                   0.076
REMARK UNBOUND:                -0.328
REMARK SMILES Oc1cc(O)c2cc(O)c(-c3cc(O)c(O)c(O)c3)[o+]c2c1
REMARK SMILES IDX 10 1 20 2 21 3 22 4 2 5 3 6 4 7 6 8 7 9 8 10 11 11 12 12
REMARK SMILES IDX 13 13 19 14 15 15 17 16 14 17 16 19 18 21 9 23 1 25 5 27
REMARK H PARENT 14 18 16 20 18 22 9 24 1 26 5 28
REMARK Flexibility Score: inf
ROOT
ATOM      1  C   UNL     1      15.362  -3.334  -3.142  1.00  0.00     0.402 A 
ATOM      2  O   UNL     1      14.865  -3.555  -1.926  1.00  0.00    -0.202 OA
ATOM      3  C   UNL     1      13.591  -3.857  -1.703  1.00  0.00     0.368 A 
ATOM      4  C   UNL     1      13.163  -4.074  -0.391  1.00  0.00     0.162 A 
ATOM      5  C   UNL     1      11.832  -4.395  -0.127  1.00  0.00     0.128 A 
ATOM      6  C   UNL     1      10.918  -4.503  -1.181  1.00  0.00     0.093 A 
ATOM      7  C   UNL     1      11.322  -4.291  -2.506  1.00  0.00     0.136 A 
ATOM      8  C   UNL     1      12.674  -3.961  -2.778  1.00  0.00     0.125 A 
ATOM      9  C   UNL     1      13.165  -3.718  -4.071  1.00  0.00     0.078 A 
ATOM     10  C   UNL     1      14.511  -3.393  -4.260  1.00  0.00     0.223 A 
ENDROOT
BRANCH   1  11
ATOM     11  C   UNL     1      16.803  -3.015  -3.261  1.00  0.00     0.091 A 
ATOM     12  C   UNL     1      17.261  -2.023  -4.146  1.00  0.00     0.068 A 
ATOM     13  C   UNL     1      18.632  -1.750  -4.261  1.00  0.00     0.162 A 
ATOM     14  C   UNL     1      17.737  -3.753  -2.520  1.00  0.00     0.068 A 
ATOM     15  C   UNL     1      19.559  -2.480  -3.497  1.00  0.00     0.200 A 
ATOM     16  C   UNL     1      19.106  -3.487  -2.628  1.00  0.00     0.162 A 
BRANCH  13  17
ATOM     17  O   UNL     1      19.075  -0.760  -5.137  1.00  0.00    -0.504 OA
ATOM     18  H   UNL     1      19.948  -0.268  -4.985  1.00  0.00     0.293 HD
ENDBRANCH  13  17
BRANCH  15  19
ATOM     19  O   UNL     1      20.926  -2.218  -3.597  1.00  0.00    -0.502 OA
ATOM     20  H   UNL     1      21.291  -1.456  -4.155  1.00  0.00     0.293 HD
ENDBRANCH  15  19
BRANCH  16  21
ATOM     21  O   UNL     1      20.001  -4.234  -1.863  1.00  0.00    -0.504 OA
ATOM     22  H   UNL     1      20.565  -4.975  -2.263  1.00  0.00     0.293 HD
ENDBRANCH  16  21
ENDBRANCH   1  11
BRANCH  10  23
ATOM     23  O   UNL     1      14.988  -3.103  -5.540  1.00  0.00    -0.500 OA
ATOM     24  H   UNL     1      15.936  -2.780  -5.695  1.00  0.00     0.294 HD
ENDBRANCH  10  23
BRANCH   5  25
ATOM     25  O   UNL     1      11.424  -4.608   1.189  1.00  0.00    -0.507 OA
ATOM     26  H   UNL     1      11.247  -3.835   1.820  1.00  0.00     0.293 HD
ENDBRANCH   5  25
BRANCH   7  27
ATOM     27  O   UNL     1      10.351  -4.420  -3.503  1.00  0.00    -0.507 OA
ATOM     28  H   UNL     1      10.191  -5.261  -4.038  1.00  0.00     0.293 HD
ENDBRANCH   7  27
TORSDOF 7
ENDMDL
MODEL 4
REMARK VINA RESULT:    -5.908      1.655      6.981
REMARK INTER + INTRA:          -7.617
REMARK INTER:                  -7.727
REMARK INTRA:                   0.110
REMARK UNBOUND:                -0.328
REMARK SMILES Oc1cc(O)c2cc(O)c(-c3cc(O)c(O)c(O)c3)[o+]c2c1
REMARK SMILES IDX 10 1 20 2 21 3 22 4 2 5 3 6 4 7 6 8 7 9 8 10 11 11 12 12
REMARK SMILES IDX 13 13 19 14 15 15 17 16 14 17 16 19 18 21 9 23 1 25 5 27
REMARK H PARENT 14 18 16 20 18 22 9 24 1 26 5 28
REMARK Flexibility Score: inf
ROOT
ATOM      1  C   UNL     1      15.408  -3.363  -3.138  1.00  0.00     0.402 A 
ATOM      2  O   UNL     1      14.904  -3.580  -1.926  1.00  0.00    -0.202 OA
ATOM      3  C   UNL     1      13.623  -3.858  -1.708  1.00  0.00     0.368 A 
ATOM      4  C   UNL     1      13.187  -4.073  -0.398  1.00  0.00     0.162 A 
ATOM      5  C   UNL     1      11.849  -4.370  -0.140  1.00  0.00     0.128 A 
ATOM      6  C   UNL     1      10.937  -4.456  -1.198  1.00  0.00     0.093 A 
ATOM      7  C   UNL     1      11.349  -4.246  -2.520  1.00  0.00     0.136 A 
ATOM      8  C   UNL     1      12.709  -3.940  -2.786  1.00  0.00     0.125 A 
ATOM      9  C   UNL     1      13.208  -3.701  -4.077  1.00  0.00     0.078 A 
ATOM     10  C   UNL     1      14.561  -3.401  -4.260  1.00  0.00     0.223 A 
ENDROOT
BRANCH   1  11
ATOM     11  C   UNL     1      16.856  -3.071  -3.252  1.00  0.00     0.091 A 
ATOM     12  C   UNL     1      17.802  -3.742  -2.458  1.00  0.00     0.068 A 
ATOM     13  C   UNL     1      19.166  -3.436  -2.564  1.00  0.00     0.162 A 
ATOM     14  C   UNL     1      17.290  -2.065  -4.128  1.00  0.00     0.068 A 
ATOM     15  C   UNL     1      19.594  -2.442  -3.461  1.00  0.00     0.200 A 
ATOM     16  C   UNL     1      18.649  -1.754  -4.241  1.00  0.00     0.162 A 
BRANCH  13  17
ATOM     17  O   UNL     1      20.097  -4.113  -1.777  1.00  0.00    -0.504 OA
ATOM     18  H   UNL     1      21.093  -3.961  -1.882  1.00  0.00     0.293 HD
ENDBRANCH  13  17
BRANCH  15  19
ATOM     19  O   UNL     1      20.948  -2.129  -3.583  1.00  0.00    -0.502 OA
ATOM     20  H   UNL     1      21.416  -2.093  -4.481  1.00  0.00     0.293 HD
ENDBRANCH  15  19
BRANCH  16  21
ATOM     21  O   UNL     1      19.041  -0.757  -5.134  1.00  0.00    -0.504 OA
ATOM     22  H   UNL     1      19.471   0.107  -4.824  1.00  0.00     0.293 HD
ENDBRANCH  16  21
ENDBRANCH   1  11
BRANCH  10  23
ATOM     23  O   UNL     1      15.048  -3.115  -5.537  1.00  0.00    -0.500 OA
ATOM     24  H   UNL     1      14.886  -2.218  -5.980  1.00  0.00     0.294 HD
ENDBRANCH  10  23
BRANCH   5  25
ATOM     25  O   UNL     1      11.433  -4.580   1.174  1.00  0.00    -0.507 OA
ATOM     26  H   UNL     1      11.214  -3.806   1.790  1.00  0.00     0.293 HD
ENDBRANCH   5  25
BRANCH   7  27
ATOM     27  O   UNL     1      10.379  -4.352  -3.521  1.00  0.00    -0.507 OA
ATOM     28  H   UNL     1       9.398  -4.154  -3.388  1.00  0.00     0.293 HD
ENDBRANCH   7  27
TORSDOF 7
ENDMDL
MODEL 5
REMARK VINA RESULT:    -5.729      2.694      6.492
REMARK INTER + INTRA:          -7.396
REMARK INTER:                  -7.037
REMARK INTRA:                  -0.360
REMARK UNBOUND:                -0.328
REMARK SMILES Oc1cc(O)c2cc(O)c(-c3cc(O)c(O)c(O)c3)[o+]c2c1
REMARK SMILES IDX 10 1 20 2 21 3 22 4 2 5 3 6 4 7 6 8 7 9 8 10 11 11 12 12
REMARK SMILES IDX 13 13 19 14 15 15 17 16 14 17 16 19 18 21 9 23 1 25 5 27
REMARK H PARENT 14 18 16 20 18 22 9 24 1 26 5 28
REMARK Flexibility Score: inf
ROOT
ATOM      1  C   UNL     1      15.994  -4.994  -1.513  1.00  0.00     0.402 A 
ATOM      2  O   UNL     1      14.884  -4.847  -0.794  1.00  0.00    -0.202 OA
ATOM      3  C   UNL     1      13.684  -4.662  -1.334  1.00  0.00     0.368 A 
ATOM      4  C   UNL     1      12.575  -4.519  -0.496  1.00  0.00     0.162 A 
ATOM      5  C   UNL     1      11.303  -4.326  -1.035  1.00  0.00     0.128 A 
ATOM      6  C   UNL     1      11.135  -4.275  -2.423  1.00  0.00     0.093 A 
ATOM      7  C   UNL     1      12.230  -4.415  -3.285  1.00  0.00     0.136 A 
ATOM      8  C   UNL     1      13.526  -4.609  -2.741  1.00  0.00     0.125 A 
ATOM      9  C   UNL     1      14.681  -4.745  -3.527  1.00  0.00     0.078 A 
ATOM     10  C   UNL     1      15.926  -4.929  -2.917  1.00  0.00     0.223 A 
ENDROOT
BRANCH   1  11
ATOM     11  C   UNL     1      17.271  -5.205  -0.794  1.00  0.00     0.091 A 
ATOM     12  C   UNL     1      17.638  -6.473  -0.311  1.00  0.00     0.068 A 
ATOM     13  C   UNL     1      18.841  -6.649   0.387  1.00  0.00     0.162 A 
ATOM     14  C   UNL     1      18.108  -4.109  -0.538  1.00  0.00     0.068 A 
ATOM     15  C   UNL     1      19.684  -5.548   0.619  1.00  0.00     0.200 A 
ATOM     16  C   UNL     1      19.310  -4.275   0.157  1.00  0.00     0.162 A 
BRANCH  13  17
ATOM     17  O   UNL     1      19.198  -7.913   0.856  1.00  0.00    -0.504 OA
ATOM     18  H   UNL     1      20.124  -8.295   0.701  1.00  0.00     0.293 HD
ENDBRANCH  13  17
BRANCH  15  19
ATOM     19  O   UNL     1      20.887  -5.706   1.308  1.00  0.00    -0.502 OA
ATOM     20  H   UNL     1      21.787  -5.622   0.851  1.00  0.00     0.293 HD
ENDBRANCH  15  19
BRANCH  16  21
ATOM     21  O   UNL     1      20.121  -3.162   0.378  1.00  0.00    -0.504 OA
ATOM     22  H   UNL     1      21.025  -3.056  -0.068  1.00  0.00     0.293 HD
ENDBRANCH  16  21
ENDBRANCH   1  11
BRANCH  10  23
ATOM     23  O   UNL     1      17.081  -5.015  -3.696  1.00  0.00    -0.500 OA
ATOM     24  H   UNL     1      17.723  -5.794  -3.612  1.00  0.00     0.294 HD
ENDBRANCH  10  23
BRANCH   5  25
ATOM     25  O   UNL     1      10.210  -4.186  -0.182  1.00  0.00    -0.507 OA
ATOM     26  H   UNL     1      10.312  -3.810   0.753  1.00  0.00     0.293 HD
ENDBRANCH   5  25
BRANCH   7  27
ATOM     27  O   UNL     1      11.979  -4.356  -4.659  1.00  0.00    -0.507 OA
ATOM     28  H   UNL     1      12.696  -4.331  -5.369  1.00  0.00     0.293 HD
ENDBRANCH   7  27
TORSDOF 7
ENDMDL
MODEL 6
REMARK VINA RESULT:    -5.677      2.096      3.268
REMARK INTER + INTRA:          -7.332
REMARK INTER:                  -7.481
REMARK INTRA:                   0.149
REMARK UNBOUND:                -0.328
REMARK SMILES Oc1cc(O)c2cc(O)c(-c3cc(O)c(O)c(O)c3)[o+]c2c1
REMARK SMILES IDX 10 1 20 2 21 3 22 4 2 5 3 6 4 7 6 8 7 9 8 10 11 11 12 12
REMARK SMILES IDX 13 13 19 14 15 15 17 16 14 17 16 19 18 21 9 23 1 25 5 27
REMARK H PARENT 14 18 16 20 18 22 9 24 1 26 5 28
REMARK Flexibility Score: inf
ROOT
ATOM      1  C   UNL     1      16.050  -3.978  -2.175  1.00  0.00     0.402 A 
ATOM      2  O   UNL     1      16.694  -4.567  -1.170  1.00  0.00    -0.202 OA
ATOM      3  C   UNL     1      18.014  -4.531  -1.029  1.00  0.00     0.368 A 
ATOM      4  C   UNL     1      18.600  -5.179   0.061  1.00  0.00     0.162 A 
ATOM      5  C   UNL     1      19.984  -5.156   0.236  1.00  0.00     0.128 A 
ATOM      6  C   UNL     1      20.792  -4.479  -0.685  1.00  0.00     0.093 A 
ATOM      7  C   UNL     1      20.229  -3.821  -1.787  1.00  0.00     0.136 A 
ATOM      8  C   UNL     1      18.822  -3.845  -1.969  1.00  0.00     0.125 A 
ATOM      9  C   UNL     1      18.173  -3.227  -3.050  1.00  0.00     0.078 A 
ATOM     10  C   UNL     1      16.781  -3.297  -3.165  1.00  0.00     0.223 A 
ENDROOT
BRANCH   1  11
ATOM     11  C   UNL     1      14.573  -4.081  -2.216  1.00  0.00     0.091 A 
ATOM     12  C   UNL     1      13.881  -4.187  -3.435  1.00  0.00     0.068 A 
ATOM     13  C   UNL     1      12.481  -4.261  -3.454  1.00  0.00     0.162 A 
ATOM     14  C   UNL     1      13.843  -4.015  -1.020  1.00  0.00     0.068 A 
ATOM     15  C   UNL     1      11.759  -4.218  -2.249  1.00  0.00     0.200 A 
ATOM     16  C   UNL     1      12.447  -4.090  -1.030  1.00  0.00     0.162 A 
BRANCH  13  17
ATOM     17  O   UNL     1      11.805  -4.373  -4.668  1.00  0.00    -0.504 OA
ATOM     18  H   UNL     1      11.921  -3.688  -5.406  1.00  0.00     0.293 HD
ENDBRANCH  13  17
BRANCH  15  19
ATOM     19  O   UNL     1      10.366  -4.296  -2.250  1.00  0.00    -0.502 OA
ATOM     20  H   UNL     1       9.779  -3.472  -2.188  1.00  0.00     0.293 HD
ENDBRANCH  15  19
BRANCH  16  21
ATOM     21  O   UNL     1      11.759  -4.036   0.183  1.00  0.00    -0.504 OA
ATOM     22  H   UNL     1      11.063  -3.325   0.377  1.00  0.00     0.293 HD
ENDBRANCH  16  21
ENDBRANCH   1  11
BRANCH  10  23
ATOM     23  O   UNL     1      16.140  -2.725  -4.265  1.00  0.00    -0.500 OA
ATOM     24  H   UNL     1      15.388  -2.055  -4.154  1.00  0.00     0.294 HD
ENDBRANCH  10  23
BRANCH   5  25
ATOM     25  O   UNL     1      20.549  -5.808   1.330  1.00  0.00    -0.507 OA
ATOM     26  H   UNL     1      20.156  -5.722   2.260  1.00  0.00     0.293 HD
ENDBRANCH   5  25
BRANCH   7  27
ATOM     27  O   UNL     1      21.102  -3.165  -2.659  1.00  0.00    -0.507 OA
ATOM     28  H   UNL     1      21.930  -3.583  -3.059  1.00  0.00     0.293 HD
ENDBRANCH   7  27
TORSDOF 7
ENDMDL
MODEL 7
REMARK VINA RESULT:    -5.671      2.711      6.676
REMARK INTER + INTRA:          -7.325
REMARK INTER:                  -6.972
REMARK INTRA:                  -0.353
REMARK UNBOUND:                -0.328
REMARK SMILES Oc1cc(O)c2cc(O)c(-c3cc(O)c(O)c(O)c3)[o+]c2c1
REMARK SMILES IDX 10 1 20 2 21 3 22 4 2 5 3 6 4 7 6 8 7 9 8 10 11 11 12 12
REMARK SMILES IDX 13 13 19 14 15 15 17 16 14 17 16 19 18 21 9 23 1 25 5 27
REMARK H PARENT 14 18 16 20 18 22 9 24 1 26 5 28
REMARK Flexibility Score: inf
ROOT
ATOM      1  C   UNL     1      16.059  -4.991  -1.478  1.00  0.00     0.402 A 
ATOM      2  O   UNL     1      14.954  -4.809  -0.759  1.00  0.00    -0.202 OA
ATOM      3  C   UNL     1      13.755  -4.617  -1.300  1.00  0.00     0.368 A 
ATOM      4  C   UNL     1      12.652  -4.436  -0.461  1.00  0.00     0.162 A 
ATOM      5  C   UNL     1      11.381  -4.235  -1.001  1.00  0.00     0.128 A 
ATOM      6  C   UNL     1      11.209  -4.215  -2.390  1.00  0.00     0.093 A 
ATOM      7  C   UNL     1      12.299  -4.394  -3.251  1.00  0.00     0.136 A 
ATOM      8  C   UNL     1      13.593  -4.596  -2.707  1.00  0.00     0.125 A 
ATOM      9  C   UNL     1      14.743  -4.770  -3.492  1.00  0.00     0.078 A 
ATOM     10  C   UNL     1      15.987  -4.959  -2.882  1.00  0.00     0.223 A 
ENDROOT
BRANCH   1  11
ATOM     11  C   UNL     1      17.335  -5.205  -0.757  1.00  0.00     0.091 A 
ATOM     12  C   UNL     1      18.252  -4.157  -0.566  1.00  0.00     0.068 A 
ATOM     13  C   UNL     1      19.464  -4.384   0.099  1.00  0.00     0.162 A 
ATOM     14  C   UNL     1      17.664  -6.491  -0.305  1.00  0.00     0.068 A 
ATOM     15  C   UNL     1      19.776  -5.672   0.570  1.00  0.00     0.200 A 
ATOM     16  C   UNL     1      18.871  -6.727   0.361  1.00  0.00     0.162 A 
BRANCH  13  17
ATOM     17  O   UNL     1      20.364  -3.336   0.289  1.00  0.00    -0.504 OA
ATOM     18  H   UNL     1      21.346  -3.504   0.471  1.00  0.00     0.293 HD
ENDBRANCH  13  17
BRANCH  15  19
ATOM     19  O   UNL     1      20.976  -5.914   1.238  1.00  0.00    -0.502 OA
ATOM     20  H   UNL     1      21.195  -6.815   1.646  1.00  0.00     0.293 HD
ENDBRANCH  15  19
BRANCH  16  21
ATOM     21  O   UNL     1      19.154  -8.017   0.809  1.00  0.00    -0.504 OA
ATOM     22  H   UNL     1      18.470  -8.763   0.770  1.00  0.00     0.293 HD
ENDBRANCH  16  21
ENDBRANCH   1  11
BRANCH  10  23
ATOM     23  O   UNL     1      17.138  -5.083  -3.663  1.00  0.00    -0.500 OA
ATOM     24  H   UNL     1      17.869  -5.745  -3.433  1.00  0.00     0.294 HD
ENDBRANCH  10  23
BRANCH   5  25
ATOM     25  O   UNL     1      10.293  -4.057  -0.149  1.00  0.00    -0.507 OA
ATOM     26  H   UNL     1       9.960  -3.133   0.100  1.00  0.00     0.293 HD
ENDBRANCH   5  25
BRANCH   7  27
ATOM     27  O   UNL     1      12.044  -4.364  -4.626  1.00  0.00    -0.507 OA
ATOM     28  H   UNL     1      12.457  -4.996  -5.296  1.00  0.00     0.293 HD
ENDBRANCH   7  27
TORSDOF 7
ENDMDL
MODEL 8
REMARK VINA RESULT:    -5.640      2.344      4.046
REMARK INTER + INTRA:          -7.287
REMARK INTER:                  -6.931
REMARK INTRA:                  -0.357
REMARK UNBOUND:                -0.328
REMARK SMILES Oc1cc(O)c2cc(O)c(-c3cc(O)c(O)c(O)c3)[o+]c2c1
REMARK SMILES IDX 10 1 20 2 21 3 22 4 2 5 3 6 4 7 6 8 7 9 8 10 11 11 12 12
REMARK SMILES IDX 13 13 19 14 15 15 17 16 14 17 16 19 18 21 9 23 1 25 5 27
REMARK H PARENT 14 18 16 20 18 22 9 24 1 26 5 28
REMARK Flexibility Score: inf
ROOT
ATOM      1  C   UNL     1      17.375  -3.377  -3.567  1.00  0.00     0.402 A 
ATOM      2  O   UNL     1      18.163  -3.626  -2.523  1.00  0.00    -0.202 OA
ATOM      3  C   UNL     1      19.425  -3.217  -2.447  1.00  0.00     0.368 A 
ATOM      4  C   UNL     1      20.172  -3.526  -1.308  1.00  0.00     0.162 A 
ATOM      5  C   UNL     1      21.499  -3.108  -1.201  1.00  0.00     0.128 A 
ATOM      6  C   UNL     1      22.085  -2.374  -2.238  1.00  0.00     0.093 A 
ATOM      7  C   UNL     1      21.357  -2.052  -3.390  1.00  0.00     0.136 A 
ATOM      8  C   UNL     1      20.008  -2.477  -3.505  1.00  0.00     0.125 A 
ATOM      9  C   UNL     1      19.208  -2.213  -4.627  1.00  0.00     0.078 A 
ATOM     10  C   UNL     1      17.887  -2.670  -4.670  1.00  0.00     0.223 A 
ENDROOT
BRANCH   1  11
ATOM     11  C   UNL     1      15.982  -3.877  -3.527  1.00  0.00     0.091 A 
ATOM     12  C   UNL     1      14.904  -3.020  -3.247  1.00  0.00     0.068 A 
ATOM     13  C   UNL     1      13.594  -3.517  -3.192  1.00  0.00     0.162 A 
ATOM     14  C   UNL     1      15.735  -5.245  -3.717  1.00  0.00     0.068 A 
ATOM     15  C   UNL     1      13.354  -4.885  -3.407  1.00  0.00     0.200 A 
ATOM     16  C   UNL     1      14.431  -5.749  -3.665  1.00  0.00     0.162 A 
BRANCH  13  17
ATOM     17  O   UNL     1      12.532  -2.655  -2.920  1.00  0.00    -0.504 OA
ATOM     18  H   UNL     1      12.306  -2.373  -1.973  1.00  0.00     0.293 HD
ENDBRANCH  13  17
BRANCH  15  19
ATOM     19  O   UNL     1      12.056  -5.395  -3.361  1.00  0.00    -0.502 OA
ATOM     20  H   UNL     1      11.862  -6.387  -3.432  1.00  0.00     0.293 HD
ENDBRANCH  15  19
BRANCH  16  21
ATOM     21  O   UNL     1      14.226  -7.113  -3.874  1.00  0.00    -0.504 OA
ATOM     22  H   UNL     1      14.874  -7.679  -4.410  1.00  0.00     0.293 HD
ENDBRANCH  16  21
ENDBRANCH   1  11
BRANCH  10  23
ATOM     23  O   UNL     1      17.106  -2.449  -5.805  1.00  0.00    -0.500 OA
ATOM     24  H   UNL     1      16.227  -1.947  -5.759  1.00  0.00     0.294 HD
ENDBRANCH  10  23
BRANCH   5  25
ATOM     25  O   UNL     1      22.229  -3.425  -0.056  1.00  0.00    -0.507 OA
ATOM     26  H   UNL     1      21.904  -3.166   0.868  1.00  0.00     0.293 HD
ENDBRANCH   5  25
BRANCH   7  27
ATOM     27  O   UNL     1      22.012  -1.314  -4.381  1.00  0.00    -0.507 OA
ATOM     28  H   UNL     1      22.729  -1.684  -4.987  1.00  0.00     0.293 HD
ENDBRANCH   7  27
TORSDOF 7
ENDMDL
MODEL 9
REMARK VINA RESULT:    -5.565      1.816      3.430
REMARK INTER + INTRA:          -7.194
REMARK INTER:                  -7.169
REMARK INTRA:                  -0.025
REMARK UNBOUND:                -0.328
REMARK SMILES Oc1cc(O)c2cc(O)c(-c3cc(O)c(O)c(O)c3)[o+]c2c1
REMARK SMILES IDX 10 1 20 2 21 3 22 4 2 5 3 6 4 7 6 8 7 9 8 10 11 11 12 12
REMARK SMILES IDX 13 13 19 14 15 15 17 16 14 17 16 19 18 21 9 23 1 25 5 27
REMARK H PARENT 14 18 16 20 18 22 9 24 1 26 5 28
REMARK Flexibility Score: inf
ROOT
ATOM      1  C   UNL     1      15.849  -3.770  -2.468  1.00  0.00     0.402 A 
ATOM      2  O   UNL     1      16.317  -2.890  -3.350  1.00  0.00    -0.202 OA
ATOM      3  C   UNL     1      17.614  -2.689  -3.562  1.00  0.00     0.368 A 
ATOM      4  C   UNL     1      18.009  -1.743  -4.511  1.00  0.00     0.162 A 
ATOM      5  C   UNL     1      19.363  -1.513  -4.757  1.00  0.00     0.128 A 
ATOM      6  C   UNL     1      20.332  -2.235  -4.050  1.00  0.00     0.093 A 
ATOM      7  C   UNL     1      19.961  -3.189  -3.094  1.00  0.00     0.136 A 
ATOM      8  C   UNL     1      18.586  -3.423  -2.839  1.00  0.00     0.125 A 
ATOM      9  C   UNL     1      18.123  -4.349  -1.890  1.00  0.00     0.078 A 
ATOM     10  C   UNL     1      16.749  -4.521  -1.691  1.00  0.00     0.223 A 
ENDROOT
BRANCH   1  11
ATOM     11  C   UNL     1      14.381  -3.909  -2.330  1.00  0.00     0.091 A 
ATOM     12  C   UNL     1      13.761  -3.901  -1.068  1.00  0.00     0.068 A 
ATOM     13  C   UNL     1      12.372  -4.056  -0.957  1.00  0.00     0.162 A 
ATOM     14  C   UNL     1      13.596  -4.109  -3.475  1.00  0.00     0.068 A 
ATOM     15  C   UNL     1      11.591  -4.232  -2.112  1.00  0.00     0.200 A 
ATOM     16  C   UNL     1      12.210  -4.263  -3.373  1.00  0.00     0.162 A 
BRANCH  13  17
ATOM     17  O   UNL     1      11.767  -4.040   0.299  1.00  0.00    -0.504 OA
ATOM     18  H   UNL     1      11.639  -3.178   0.817  1.00  0.00     0.293 HD
ENDBRANCH  13  17
BRANCH  15  19
ATOM     19  O   UNL     1      10.207  -4.383  -2.019  1.00  0.00    -0.502 OA
ATOM     20  H   UNL     1       9.680  -4.950  -2.673  1.00  0.00     0.293 HD
ENDBRANCH  15  19
BRANCH  16  21
ATOM     21  O   UNL     1      11.464  -4.445  -4.537  1.00  0.00    -0.504 OA
ATOM     22  H   UNL     1      11.235  -5.366  -4.893  1.00  0.00     0.293 HD
ENDBRANCH  16  21
ENDBRANCH   1  11
BRANCH  10  23
ATOM     23  O   UNL     1      16.290  -5.405  -0.714  1.00  0.00    -0.500 OA
ATOM     24  H   UNL     1      16.204  -5.128   0.257  1.00  0.00     0.294 HD
ENDBRANCH  10  23
BRANCH   5  25
ATOM     25  O   UNL     1      19.737  -0.566  -5.707  1.00  0.00    -0.507 OA
ATOM     26  H   UNL     1      19.298   0.346  -5.748  1.00  0.00     0.293 HD
ENDBRANCH   5  25
BRANCH   7  27
ATOM     27  O   UNL     1      20.988  -3.870  -2.433  1.00  0.00    -0.507 OA
ATOM     28  H   UNL     1      21.719  -4.389  -2.897  1.00  0.00     0.293 HD
ENDBRANCH   7  27
TORSDOF 7
ENDMDL
