MODEL 1
REMARK VINA RESULT:    -4.999      0.000      0.000
REMARK INTER + INTRA:          -6.445
REMARK INTER:                  -6.022
REMARK INTRA:                  -0.423
REMARK UNBOUND:                -0.423
REMARK SMILES O=c1c(O)c(-c2ccc(O)cc2O)oc2cc(O)cc(O)c12
REMARK SMILES IDX 5 1 3 2 2 3 1 4 22 5 20 6 19 7 17 8 16 9 15 10 14 11 6 12
REMARK SMILES IDX 8 13 7 14 9 15 11 16 12 17 10 18 13 20 4 22 21 24 18 26
REMARK H PARENT 10 19 13 21 4 23 21 25 18 27
REMARK Flexibility Score: inf
ROOT
ATOM      1  C   UNL     1      -8.504  -2.574 -16.342  1.00  0.00     0.184 A 
ATOM      2  C   UNL     1      -9.052  -1.381 -16.842  1.00  0.00     0.208 A 
ATOM      3  C   UNL     1      -8.806  -0.179 -16.159  1.00  0.00     0.238 A 
ATOM      4  O   UNL     1      -9.346   0.877 -16.580  1.00  0.00    -0.285 OA
ATOM      5  C   UNL     1      -7.998  -0.183 -14.997  1.00  0.00     0.111 A 
ATOM      6  C   UNL     1      -7.650   0.981 -14.248  1.00  0.00     0.134 A 
ATOM      7  C   UNL     1      -6.951   0.844 -13.042  1.00  0.00     0.093 A 
ATOM      8  C   UNL     1      -6.532  -0.407 -12.592  1.00  0.00     0.123 A 
ATOM      9  C   UNL     1      -6.815  -1.547 -13.346  1.00  0.00     0.094 A 
ATOM     10  C   UNL     1      -7.542  -1.445 -14.534  1.00  0.00     0.146 A 
ATOM     11  O   UNL     1      -7.801  -2.555 -15.217  1.00  0.00    -0.451 OA
ENDROOT
BRANCH   1  12
ATOM     12  C   UNL     1      -8.704  -3.873 -17.026  1.00  0.00     0.063 A 
ATOM     13  C   UNL     1     -10.125  -5.773 -17.572  1.00  0.00     0.047 A 
ATOM     14  C   UNL     1      -9.925  -4.562 -16.905  1.00  0.00     0.020 A 
ATOM     15  C   UNL     1      -9.113  -6.308 -18.377  1.00  0.00     0.119 A 
ATOM     16  C   UNL     1      -7.902  -5.625 -18.514  1.00  0.00     0.093 A 
ATOM     17  C   UNL     1      -7.691  -4.409 -17.847  1.00  0.00     0.130 A 
BRANCH  15  18
ATOM     18  O   UNL     1      -9.303  -7.515 -19.047  1.00  0.00    -0.508 OA
ATOM     19  H   UNL     1      -8.904  -7.680 -19.963  1.00  0.00     0.293 HD
ENDBRANCH  15  18
BRANCH  17  20
ATOM     20  O   UNL     1      -6.474  -3.742 -17.988  1.00  0.00    -0.507 OA
ATOM     21  H   UNL     1      -6.201  -2.995 -17.359  1.00  0.00     0.293 HD
ENDBRANCH  17  20
ENDBRANCH   1  12
BRANCH   2  22
ATOM     22  O   UNL     1      -9.857  -1.405 -17.984  1.00  0.00    -0.502 OA
ATOM     23  H   UNL     1      -9.514  -1.714 -18.886  1.00  0.00     0.293 HD
ENDBRANCH   2  22
BRANCH   6  24
ATOM     24  O   UNL     1      -7.941   2.287 -14.655  1.00  0.00    -0.507 OA
ATOM     25  H   UNL     1      -7.296   3.061 -14.607  1.00  0.00     0.293 HD
ENDBRANCH   6  24
BRANCH   8  26
ATOM     26  O   UNL     1      -5.825  -0.506 -11.395  1.00  0.00    -0.508 OA
ATOM     27  H   UNL     1      -4.811  -0.500 -11.377  1.00  0.00     0.293 HD
ENDBRANCH   8  26
TORSDOF 6
ENDMDL
MODEL 2
REMARK VINA RESULT:    -4.934     11.603     14.621
REMARK INTER + INTRA:          -6.367
REMARK INTER:                  -5.885
REMARK INTRA:                  -0.482
REMARK UNBOUND:                -0.423
REMARK SMILES O=c1c(O)c(-c2ccc(O)cc2O)oc2cc(O)cc(O)c12
REMARK SMILES IDX 5 1 3 2 2 3 1 4 22 5 20 6 19 7 17 8 16 9 15 10 14 11 6 12
REMARK SMILES IDX 8 13 7 14 9 15 11 16 12 17 10 18 13 20 4 22 21 24 18 26
REMARK H PARENT 10 19 13 21 4 23 21 25 18 27
REMARK Flexibility Score: inf
ROOT
ATOM      1  C   UNL     1       1.500   0.415  -6.213  1.00  0.00     0.184 A 
ATOM      2  C   UNL     1       0.716   1.411  -6.819  1.00  0.00     0.208 A 
ATOM      3  C   UNL     1      -0.676   1.235  -6.887  1.00  0.00     0.238 A 
ATOM      4  O   UNL     1      -1.367   2.103  -7.480  1.00  0.00    -0.285 OA
ATOM      5  C   UNL     1      -1.266   0.075  -6.329  1.00  0.00     0.111 A 
ATOM      6  C   UNL     1      -2.669  -0.188  -6.306  1.00  0.00     0.134 A 
ATOM      7  C   UNL     1      -3.131  -1.427  -5.844  1.00  0.00     0.093 A 
ATOM      8  C   UNL     1      -2.249  -2.384  -5.345  1.00  0.00     0.123 A 
ATOM      9  C   UNL     1      -0.880  -2.114  -5.309  1.00  0.00     0.094 A 
ATOM     10  C   UNL     1      -0.386  -0.902  -5.796  1.00  0.00     0.146 A 
ATOM     11  O   UNL     1       0.924  -0.689  -5.754  1.00  0.00    -0.451 OA
ENDROOT
BRANCH   1  12
ATOM     12  C   UNL     1       2.970   0.548  -6.086  1.00  0.00     0.063 A 
ATOM     13  C   UNL     1       4.914   1.494  -4.967  1.00  0.00     0.047 A 
ATOM     14  C   UNL     1       3.528   1.389  -5.106  1.00  0.00     0.020 A 
ATOM     15  C   UNL     1       5.762   0.753  -5.798  1.00  0.00     0.119 A 
ATOM     16  C   UNL     1       5.218  -0.096  -6.765  1.00  0.00     0.093 A 
ATOM     17  C   UNL     1       3.828  -0.206  -6.913  1.00  0.00     0.130 A 
BRANCH  15  18
ATOM     18  O   UNL     1       7.146   0.850  -5.667  1.00  0.00    -0.508 OA
ATOM     19  H   UNL     1       7.647   1.686  -5.941  1.00  0.00     0.293 HD
ENDBRANCH  15  18
BRANCH  17  20
ATOM     20  O   UNL     1       3.298  -1.052  -7.888  1.00  0.00    -0.507 OA
ATOM     21  H   UNL     1       3.584  -2.021  -7.963  1.00  0.00     0.293 HD
ENDBRANCH  17  20
ENDBRANCH   1  12
BRANCH   2  22
ATOM     22  O   UNL     1       1.323   2.541  -7.373  1.00  0.00    -0.502 OA
ATOM     23  H   UNL     1       1.213   3.467  -6.977  1.00  0.00     0.293 HD
ENDBRANCH   2  22
BRANCH   6  24
ATOM     24  O   UNL     1      -3.644   0.735  -6.696  1.00  0.00    -0.507 OA
ATOM     25  H   UNL     1      -4.635   0.554  -6.705  1.00  0.00     0.293 HD
ENDBRANCH   6  24
BRANCH   8  26
ATOM     26  O   UNL     1      -2.746  -3.600  -4.879  1.00  0.00    -0.508 OA
ATOM     27  H   UNL     1      -3.505  -4.078  -5.351  1.00  0.00     0.293 HD
ENDBRANCH   8  26
TORSDOF 6
ENDMDL
MODEL 3
REMARK VINA RESULT:    -4.862     10.755     13.262
REMARK INTER + INTRA:          -6.280
REMARK INTER:                  -5.798
REMARK INTRA:                  -0.482
REMARK UNBOUND:                -0.423
REMARK SMILES O=c1c(O)c(-c2ccc(O)cc2O)oc2cc(O)cc(O)c12
REMARK SMILES IDX 5 1 3 2 2 3 1 4 22 5 20 6 19 7 17 8 16 9 15 10 14 11 6 12
REMARK SMILES IDX 8 13 7 14 9 15 11 16 12 17 10 18 13 20 4 22 21 24 18 26
REMARK H PARENT 10 19 13 21 4 23 21 25 18 27
REMARK Flexibility Score: inf
ROOT
ATOM      1  C   UNL     1      -1.160  -0.242  -6.211  1.00  0.00     0.184 A 
ATOM      2  C   UNL     1      -0.381  -1.213  -6.862  1.00  0.00     0.208 A 
ATOM      3  C   UNL     1       1.007  -1.020  -6.960  1.00  0.00     0.238 A 
ATOM      4  O   UNL     1       1.691  -1.865  -7.593  1.00  0.00    -0.285 OA
ATOM      5  C   UNL     1       1.599   0.131  -6.386  1.00  0.00     0.111 A 
ATOM      6  C   UNL     1       2.999   0.408  -6.390  1.00  0.00     0.134 A 
ATOM      7  C   UNL     1       3.461   1.639  -5.907  1.00  0.00     0.093 A 
ATOM      8  C   UNL     1       2.581   2.574  -5.362  1.00  0.00     0.123 A 
ATOM      9  C   UNL     1       1.217   2.288  -5.298  1.00  0.00     0.094 A 
ATOM     10  C   UNL     1       0.723   1.084  -5.805  1.00  0.00     0.146 A 
ATOM     11  O   UNL     1      -0.584   0.856  -5.737  1.00  0.00    -0.451 OA
ENDROOT
BRANCH   1  12
ATOM     12  C   UNL     1      -2.625  -0.394  -6.051  1.00  0.00     0.063 A 
ATOM     13  C   UNL     1      -4.531  -1.393  -4.912  1.00  0.00     0.047 A 
ATOM     14  C   UNL     1      -3.150  -1.269  -5.082  1.00  0.00     0.020 A 
ATOM     15  C   UNL     1      -5.407  -0.637  -5.700  1.00  0.00     0.119 A 
ATOM     16  C   UNL     1      -4.895   0.245  -6.655  1.00  0.00     0.093 A 
ATOM     17  C   UNL     1      -3.510   0.375  -6.834  1.00  0.00     0.130 A 
BRANCH  15  18
ATOM     18  O   UNL     1      -6.786  -0.752  -5.537  1.00  0.00    -0.508 OA
ATOM     19  H   UNL     1      -7.406  -0.854  -6.331  1.00  0.00     0.293 HD
ENDBRANCH  15  18
BRANCH  17  20
ATOM     20  O   UNL     1      -3.014   1.254  -7.797  1.00  0.00    -0.507 OA
ATOM     21  H   UNL     1      -2.093   1.133  -8.203  1.00  0.00     0.293 HD
ENDBRANCH  17  20
ENDBRANCH   1  12
BRANCH   2  22
ATOM     22  O   UNL     1      -0.991  -2.334  -7.431  1.00  0.00    -0.502 OA
ATOM     23  H   UNL     1      -0.620  -3.271  -7.318  1.00  0.00     0.293 HD
ENDBRANCH   2  22
BRANCH   6  24
ATOM     24  O   UNL     1       3.973  -0.494  -6.829  1.00  0.00    -0.507 OA
ATOM     25  H   UNL     1       4.942  -0.473  -6.551  1.00  0.00     0.293 HD
ENDBRANCH   6  24
BRANCH   8  26
ATOM     26  O   UNL     1       3.077   3.782  -4.876  1.00  0.00    -0.508 OA
ATOM     27  H   UNL     1       4.071   3.984  -4.872  1.00  0.00     0.293 HD
ENDBRANCH   8  26
TORSDOF 6
ENDMDL
MODEL 4
REMARK VINA RESULT:    -4.836     10.543     13.709
REMARK INTER + INTRA:          -6.249
REMARK INTER:                  -5.767
REMARK INTRA:                  -0.482
REMARK UNBOUND:                -0.423
REMARK SMILES O=c1c(O)c(-c2ccc(O)cc2O)oc2cc(O)cc(O)c12
REMARK SMILES IDX 5 1 3 2 2 3 1 4 22 5 20 6 19 7 17 8 16 9 15 10 14 11 6 12
REMARK SMILES IDX 8 13 7 14 9 15 11 16 12 17 10 18 13 20 4 22 21 24 18 26
REMARK H PARENT 10 19 13 21 4 23 21 25 18 27
REMARK Flexibility Score: inf
ROOT
ATOM      1  C   UNL     1      -0.195   1.231  -6.599  1.00  0.00     0.184 A 
ATOM      2  C   UNL     1       0.894   0.479  -7.070  1.00  0.00     0.208 A 
ATOM      3  C   UNL     1       2.176   1.053  -7.054  1.00  0.00     0.238 A 
ATOM      4  O   UNL     1       3.139   0.395  -7.530  1.00  0.00    -0.285 OA
ATOM      5  C   UNL     1       2.354   2.363  -6.548  1.00  0.00     0.111 A 
ATOM      6  C   UNL     1       3.613   3.028  -6.448  1.00  0.00     0.134 A 
ATOM      7  C   UNL     1       3.655   4.371  -6.051  1.00  0.00     0.093 A 
ATOM      8  C   UNL     1       2.493   5.052  -5.691  1.00  0.00     0.123 A 
ATOM      9  C   UNL     1       1.263   4.393  -5.729  1.00  0.00     0.094 A 
ATOM     10  C   UNL     1       1.186   3.065  -6.154  1.00  0.00     0.146 A 
ATOM     11  O   UNL     1      -0.005   2.479  -6.188  1.00  0.00    -0.451 OA
ENDROOT
BRANCH   1  12
ATOM     12  C   UNL     1      -1.569   0.679  -6.565  1.00  0.00     0.063 A 
ATOM     13  C   UNL     1      -3.273  -0.673  -5.471  1.00  0.00     0.047 A 
ATOM     14  C   UNL     1      -1.969  -0.174  -5.519  1.00  0.00     0.020 A 
ATOM     15  C   UNL     1      -4.198  -0.320  -6.461  1.00  0.00     0.119 A 
ATOM     16  C   UNL     1      -3.814   0.537  -7.495  1.00  0.00     0.093 A 
ATOM     17  C   UNL     1      -2.507   1.042  -7.553  1.00  0.00     0.130 A 
BRANCH  15  18
ATOM     18  O   UNL     1      -5.501  -0.812  -6.421  1.00  0.00    -0.508 OA
ATOM     19  H   UNL     1      -6.102  -0.657  -5.621  1.00  0.00     0.293 HD
ENDBRANCH  15  18
BRANCH  17  20
ATOM     20  O   UNL     1      -2.136   1.890  -8.596  1.00  0.00    -0.507 OA
ATOM     21  H   UNL     1      -1.162   2.075  -8.810  1.00  0.00     0.293 HD
ENDBRANCH  17  20
ENDBRANCH   1  12
BRANCH   2  22
ATOM     22  O   UNL     1       0.691  -0.807  -7.576  1.00  0.00    -0.502 OA
ATOM     23  H   UNL     1       0.849  -1.041  -8.550  1.00  0.00     0.293 HD
ENDBRANCH   2  22
BRANCH   6  24
ATOM     24  O   UNL     1       4.844   2.413  -6.697  1.00  0.00    -0.507 OA
ATOM     25  H   UNL     1       5.584   2.812  -7.253  1.00  0.00     0.293 HD
ENDBRANCH   6  24
BRANCH   8  26
ATOM     26  O   UNL     1       2.574   6.383  -5.286  1.00  0.00    -0.508 OA
ATOM     27  H   UNL     1       3.193   7.040  -5.748  1.00  0.00     0.293 HD
ENDBRANCH   8  26
TORSDOF 6
ENDMDL
MODEL 5
REMARK VINA RESULT:    -4.795     11.043     13.589
REMARK INTER + INTRA:          -6.199
REMARK INTER:                  -5.735
REMARK INTRA:                  -0.464
REMARK UNBOUND:                -0.423
REMARK SMILES O=c1c(O)c(-c2ccc(O)cc2O)oc2cc(O)cc(O)c12
REMARK SMILES IDX 5 1 3 2 2 3 1 4 22 5 20 6 19 7 17 8 16 9 15 10 14 11 6 12
REMARK SMILES IDX 8 13 7 14 9 15 11 16 12 17 10 18 13 20 4 22 21 24 18 26
REMARK H PARENT 10 19 13 21 4 23 21 25 18 27
REMARK Flexibility Score: inf
ROOT
ATOM      1  C   UNL     1       0.320  -1.258  -6.674  1.00  0.00     0.184 A 
ATOM      2  C   UNL     1      -0.808  -0.443  -6.865  1.00  0.00     0.208 A 
ATOM      3  C   UNL     1      -2.086  -1.022  -6.796  1.00  0.00     0.238 A 
ATOM      4  O   UNL     1      -3.090  -0.298  -7.024  1.00  0.00    -0.285 OA
ATOM      5  C   UNL     1      -2.218  -2.403  -6.516  1.00  0.00     0.111 A 
ATOM      6  C   UNL     1      -3.464  -3.087  -6.383  1.00  0.00     0.134 A 
ATOM      7  C   UNL     1      -3.475  -4.479  -6.233  1.00  0.00     0.093 A 
ATOM      8  C   UNL     1      -2.287  -5.204  -6.146  1.00  0.00     0.123 A 
ATOM      9  C   UNL     1      -1.063  -4.538  -6.215  1.00  0.00     0.094 A 
ATOM     10  C   UNL     1      -1.020  -3.155  -6.401  1.00  0.00     0.146 A 
ATOM     11  O   UNL     1       0.166  -2.561  -6.474  1.00  0.00    -0.451 OA
ENDROOT
BRANCH   1  12
ATOM     12  C   UNL     1       1.696  -0.708  -6.710  1.00  0.00     0.063 A 
ATOM     13  C   UNL     1       3.461   0.626  -5.696  1.00  0.00     0.047 A 
ATOM     14  C   UNL     1       2.156   0.129  -5.677  1.00  0.00     0.020 A 
ATOM     15  C   UNL     1       4.329   0.285  -6.740  1.00  0.00     0.119 A 
ATOM     16  C   UNL     1       3.885  -0.557  -7.763  1.00  0.00     0.093 A 
ATOM     17  C   UNL     1       2.576  -1.059  -7.754  1.00  0.00     0.130 A 
BRANCH  15  18
ATOM     18  O   UNL     1       5.633   0.774  -6.767  1.00  0.00    -0.508 OA
ATOM     19  H   UNL     1       6.369   0.350  -6.216  1.00  0.00     0.293 HD
ENDBRANCH  15  18
BRANCH  17  20
ATOM     20  O   UNL     1       2.145  -1.893  -8.786  1.00  0.00    -0.507 OA
ATOM     21  H   UNL     1       1.184  -1.885  -9.110  1.00  0.00     0.293 HD
ENDBRANCH  17  20
ENDBRANCH   1  12
BRANCH   2  22
ATOM     22  O   UNL     1      -0.651   0.915  -7.153  1.00  0.00    -0.502 OA
ATOM     23  H   UNL     1       0.188   1.288  -7.581  1.00  0.00     0.293 HD
ENDBRANCH   2  22
BRANCH   6  24
ATOM     24  O   UNL     1      -4.708  -2.448  -6.365  1.00  0.00    -0.507 OA
ATOM     25  H   UNL     1      -5.409  -2.535  -7.084  1.00  0.00     0.293 HD
ENDBRANCH   6  24
BRANCH   8  26
ATOM     26  O   UNL     1      -2.336  -6.587  -5.981  1.00  0.00    -0.508 OA
ATOM     27  H   UNL     1      -2.091  -7.024  -5.099  1.00  0.00     0.293 HD
ENDBRANCH   8  26
TORSDOF 6
ENDMDL
MODEL 6
REMARK VINA RESULT:    -4.719     10.685     14.721
REMARK INTER + INTRA:          -6.108
REMARK INTER:                  -5.683
REMARK INTRA:                  -0.425
REMARK UNBOUND:                -0.423
REMARK SMILES O=c1c(O)c(-c2ccc(O)cc2O)oc2cc(O)cc(O)c12
REMARK SMILES IDX 5 1 3 2 2 3 1 4 22 5 20 6 19 7 17 8 16 9 15 10 14 11 6 12
REMARK SMILES IDX 8 13 7 14 9 15 11 16 12 17 10 18 13 20 4 22 21 24 18 26
REMARK H PARENT 10 19 13 21 4 23 21 25 18 27
REMARK Flexibility Score: inf
ROOT
ATOM      1  C   UNL     1       0.814   2.216  -6.453  1.00  0.00     0.184 A 
ATOM      2  C   UNL     1       0.943   3.589  -6.184  1.00  0.00     0.208 A 
ATOM      3  C   UNL     1       2.196   4.093  -5.798  1.00  0.00     0.238 A 
ATOM      4  O   UNL     1       2.292   5.313  -5.504  1.00  0.00    -0.285 OA
ATOM      5  C   UNL     1       3.307   3.221  -5.707  1.00  0.00     0.111 A 
ATOM      6  C   UNL     1       4.631   3.629  -5.365  1.00  0.00     0.134 A 
ATOM      7  C   UNL     1       5.626   2.661  -5.180  1.00  0.00     0.093 A 
ATOM      8  C   UNL     1       5.362   1.308  -5.387  1.00  0.00     0.123 A 
ATOM      9  C   UNL     1       4.085   0.903  -5.779  1.00  0.00     0.094 A 
ATOM     10  C   UNL     1       3.063   1.842  -5.937  1.00  0.00     0.146 A 
ATOM     11  O   UNL     1       1.859   1.414  -6.300  1.00  0.00    -0.451 OA
ENDROOT
BRANCH   1  12
ATOM     12  C   UNL     1      -0.473   1.623  -6.887  1.00  0.00     0.063 A 
ATOM     13  C   UNL     1      -2.246   1.412  -8.541  1.00  0.00     0.047 A 
ATOM     14  C   UNL     1      -1.048   1.991  -8.118  1.00  0.00     0.020 A 
ATOM     15  C   UNL     1      -2.882   0.450  -7.747  1.00  0.00     0.119 A 
ATOM     16  C   UNL     1      -2.312   0.068  -6.530  1.00  0.00     0.093 A 
ATOM     17  C   UNL     1      -1.109   0.646  -6.096  1.00  0.00     0.130 A 
BRANCH  15  18
ATOM     18  O   UNL     1      -4.078  -0.134  -8.160  1.00  0.00    -0.508 OA
ATOM     19  H   UNL     1      -4.617  -0.729  -7.544  1.00  0.00     0.293 HD
ENDBRANCH  15  18
BRANCH  17  20
ATOM     20  O   UNL     1      -0.555   0.260  -4.875  1.00  0.00    -0.507 OA
ATOM     21  H   UNL     1       0.359   0.584  -4.580  1.00  0.00     0.293 HD
ENDBRANCH  17  20
ENDBRANCH   1  12
BRANCH   2  22
ATOM     22  O   UNL     1      -0.172   4.428  -6.268  1.00  0.00    -0.502 OA
ATOM     23  H   UNL     1      -0.719   4.522  -7.116  1.00  0.00     0.293 HD
ENDBRANCH   2  22
BRANCH   6  24
ATOM     24  O   UNL     1       5.025   4.963  -5.223  1.00  0.00    -0.507 OA
ATOM     25  H   UNL     1       4.630   5.612  -4.561  1.00  0.00     0.293 HD
ENDBRANCH   6  24
BRANCH   8  26
ATOM     26  O   UNL     1       6.380   0.373  -5.208  1.00  0.00    -0.508 OA
ATOM     27  H   UNL     1       6.484  -0.137  -4.339  1.00  0.00     0.293 HD
ENDBRANCH   8  26
TORSDOF 6
ENDMDL
MODEL 7
REMARK VINA RESULT:    -4.717     10.036     12.338
REMARK INTER + INTRA:          -6.105
REMARK INTER:                  -5.717
REMARK INTRA:                  -0.389
REMARK UNBOUND:                -0.423
REMARK SMILES O=c1c(O)c(-c2ccc(O)cc2O)oc2cc(O)cc(O)c12
REMARK SMILES IDX 5 1 3 2 2 3 1 4 22 5 20 6 19 7 17 8 16 9 15 10 14 11 6 12
REMARK SMILES IDX 8 13 7 14 9 15 11 16 12 17 10 18 13 20 4 22 21 24 18 26
REMARK H PARENT 10 19 13 21 4 23 21 25 18 27
REMARK Flexibility Score: inf
ROOT
ATOM      1  C   UNL     1      -2.929  -1.978  -6.587  1.00  0.00     0.184 A 
ATOM      2  C   UNL     1      -4.138  -2.156  -5.893  1.00  0.00     0.208 A 
ATOM      3  C   UNL     1      -4.578  -3.460  -5.615  1.00  0.00     0.238 A 
ATOM      4  O   UNL     1      -5.688  -3.615  -5.043  1.00  0.00    -0.285 OA
ATOM      5  C   UNL     1      -3.794  -4.568  -6.018  1.00  0.00     0.111 A 
ATOM      6  C   UNL     1      -4.124  -5.932  -5.755  1.00  0.00     0.134 A 
ATOM      7  C   UNL     1      -3.341  -6.951  -6.312  1.00  0.00     0.093 A 
ATOM      8  C   UNL     1      -2.207  -6.657  -7.068  1.00  0.00     0.123 A 
ATOM      9  C   UNL     1      -1.842  -5.327  -7.282  1.00  0.00     0.094 A 
ATOM     10  C   UNL     1      -2.622  -4.289  -6.769  1.00  0.00     0.146 A 
ATOM     11  O   UNL     1      -2.248  -3.037  -7.005  1.00  0.00    -0.451 OA
ENDROOT
BRANCH   1  12
ATOM     12  C   UNL     1      -2.395  -0.630  -6.891  1.00  0.00     0.063 A 
ATOM     13  C   UNL     1      -0.897   1.214  -6.360  1.00  0.00     0.047 A 
ATOM     14  C   UNL     1      -1.422  -0.044  -6.059  1.00  0.00     0.020 A 
ATOM     15  C   UNL     1      -1.328   1.902  -7.501  1.00  0.00     0.119 A 
ATOM     16  C   UNL     1      -2.282   1.323  -8.341  1.00  0.00     0.093 A 
ATOM     17  C   UNL     1      -2.817   0.060  -8.046  1.00  0.00     0.130 A 
BRANCH  15  18
ATOM     18  O   UNL     1      -0.809   3.158  -7.811  1.00  0.00    -0.508 OA
ATOM     19  H   UNL     1       0.178   3.361  -7.715  1.00  0.00     0.293 HD
ENDBRANCH  15  18
BRANCH  17  20
ATOM     20  O   UNL     1      -3.775  -0.503  -8.889  1.00  0.00    -0.507 OA
ATOM     21  H   UNL     1      -4.631  -0.013  -9.123  1.00  0.00     0.293 HD
ENDBRANCH  17  20
ENDBRANCH   1  12
BRANCH   2  22
ATOM     22  O   UNL     1      -4.900  -1.047  -5.516  1.00  0.00    -0.502 OA
ATOM     23  H   UNL     1      -4.669  -0.475  -4.712  1.00  0.00     0.293 HD
ENDBRANCH   2  22
BRANCH   6  24
ATOM     24  O   UNL     1      -5.184  -6.336  -4.938  1.00  0.00    -0.507 OA
ATOM     25  H   UNL     1      -5.103  -6.548  -3.955  1.00  0.00     0.293 HD
ENDBRANCH   6  24
BRANCH   8  26
ATOM     26  O   UNL     1      -1.442  -7.697  -7.594  1.00  0.00    -0.508 OA
ATOM     27  H   UNL     1      -1.326  -7.815  -8.594  1.00  0.00     0.293 HD
ENDBRANCH   8  26
TORSDOF 6
ENDMDL
MODEL 8
REMARK VINA RESULT:    -4.701     10.300     13.278
REMARK INTER + INTRA:          -6.086
REMARK INTER:                  -5.601
REMARK INTRA:                  -0.485
REMARK UNBOUND:                -0.423
REMARK SMILES O=c1c(O)c(-c2ccc(O)cc2O)oc2cc(O)cc(O)c12
REMARK SMILES IDX 5 1 3 2 2 3 1 4 22 5 20 6 19 7 17 8 16 9 15 10 14 11 6 12
REMARK SMILES IDX 8 13 7 14 9 15 11 16 12 17 10 18 13 20 4 22 21 24 18 26
REMARK H PARENT 10 19 13 21 4 23 21 25 18 27
REMARK Flexibility Score: inf
ROOT
ATOM      1  C   UNL     1       1.078  -0.704  -7.278  1.00  0.00     0.184 A 
ATOM      2  C   UNL     1       2.478  -0.719  -7.391  1.00  0.00     0.208 A 
ATOM      3  C   UNL     1       3.204   0.423  -7.013  1.00  0.00     0.238 A 
ATOM      4  O   UNL     1       4.453   0.424  -7.168  1.00  0.00    -0.285 OA
ATOM      5  C   UNL     1       2.521   1.555  -6.509  1.00  0.00     0.111 A 
ATOM      6  C   UNL     1       3.158   2.751  -6.059  1.00  0.00     0.134 A 
ATOM      7  C   UNL     1       2.376   3.857  -5.700  1.00  0.00     0.093 A 
ATOM      8  C   UNL     1       0.984   3.789  -5.714  1.00  0.00     0.123 A 
ATOM      9  C   UNL     1       0.350   2.605  -6.095  1.00  0.00     0.094 A 
ATOM     10  C   UNL     1       1.103   1.498  -6.492  1.00  0.00     0.146 A 
ATOM     11  O   UNL     1       0.462   0.394  -6.860  1.00  0.00    -0.451 OA
ENDROOT
BRANCH   1  12
ATOM     12  C   UNL     1       0.253  -1.882  -7.636  1.00  0.00     0.063 A 
ATOM     13  C   UNL     1      -0.663  -4.066  -7.072  1.00  0.00     0.047 A 
ATOM     14  C   UNL     1       0.137  -2.967  -6.748  1.00  0.00     0.020 A 
ATOM     15  C   UNL     1      -1.365  -4.092  -8.283  1.00  0.00     0.119 A 
ATOM     16  C   UNL     1      -1.266  -3.013  -9.165  1.00  0.00     0.093 A 
ATOM     17  C   UNL     1      -0.465  -1.907  -8.849  1.00  0.00     0.130 A 
BRANCH  15  18
ATOM     18  O   UNL     1      -2.166  -5.183  -8.615  1.00  0.00    -0.508 OA
ATOM     19  H   UNL     1      -3.090  -5.301  -8.219  1.00  0.00     0.293 HD
ENDBRANCH  15  18
BRANCH  17  20
ATOM     20  O   UNL     1      -0.370  -0.840  -9.743  1.00  0.00    -0.507 OA
ATOM     21  H   UNL     1      -0.683   0.092  -9.494  1.00  0.00     0.293 HD
ENDBRANCH  17  20
ENDBRANCH   1  12
BRANCH   2  22
ATOM     22  O   UNL     1       3.129  -1.845  -7.903  1.00  0.00    -0.502 OA
ATOM     23  H   UNL     1       3.674  -2.470  -7.321  1.00  0.00     0.293 HD
ENDBRANCH   2  22
BRANCH   6  24
ATOM     24  O   UNL     1       4.542   2.895  -5.920  1.00  0.00    -0.507 OA
ATOM     25  H   UNL     1       5.068   2.625  -5.104  1.00  0.00     0.293 HD
ENDBRANCH   6  24
BRANCH   8  26
ATOM     26  O   UNL     1       0.237   4.904  -5.336  1.00  0.00    -0.508 OA
ATOM     27  H   UNL     1       0.488   5.837  -5.641  1.00  0.00     0.293 HD
ENDBRANCH   8  26
TORSDOF 6
ENDMDL
MODEL 9
REMARK VINA RESULT:    -4.668     11.240     13.035
REMARK INTER + INTRA:          -6.046
REMARK INTER:                  -5.658
REMARK INTRA:                  -0.388
REMARK UNBOUND:                -0.423
REMARK SMILES O=c1c(O)c(-c2ccc(O)cc2O)oc2cc(O)cc(O)c12
REMARK SMILES IDX 5 1 3 2 2 3 1 4 22 5 20 6 19 7 17 8 16 9 15 10 14 11 6 12
REMARK SMILES IDX 8 13 7 14 9 15 11 16 12 17 10 18 13 20 4 22 21 24 18 26
REMARK H PARENT 10 19 13 21 4 23 21 25 18 27
REMARK Flexibility Score: inf
ROOT
ATOM      1  C   UNL     1      -0.818  -2.246  -6.663  1.00  0.00     0.184 A 
ATOM      2  C   UNL     1      -0.983  -3.634  -6.516  1.00  0.00     0.208 A 
ATOM      3  C   UNL     1      -2.245  -4.136  -6.160  1.00  0.00     0.238 A 
ATOM      4  O   UNL     1      -2.373  -5.374  -5.975  1.00  0.00    -0.285 OA
ATOM      5  C   UNL     1      -3.330  -3.245  -5.978  1.00  0.00     0.111 A 
ATOM      6  C   UNL     1      -4.662  -3.647  -5.656  1.00  0.00     0.134 A 
ATOM      7  C   UNL     1      -5.627  -2.672  -5.372  1.00  0.00     0.093 A 
ATOM      8  C   UNL     1      -5.327  -1.314  -5.461  1.00  0.00     0.123 A 
ATOM      9  C   UNL     1      -4.044  -0.910  -5.832  1.00  0.00     0.094 A 
ATOM     10  C   UNL     1      -3.051  -1.858  -6.087  1.00  0.00     0.146 A 
ATOM     11  O   UNL     1      -1.839  -1.433  -6.426  1.00  0.00    -0.451 OA
ENDROOT
BRANCH   1  12
ATOM     12  C   UNL     1       0.480  -1.652  -7.060  1.00  0.00     0.063 A 
ATOM     13  C   UNL     1       2.276  -1.399  -8.684  1.00  0.00     0.047 A 
ATOM     14  C   UNL     1       1.066  -1.980  -8.296  1.00  0.00     0.020 A 
ATOM     15  C   UNL     1       2.912  -0.475  -7.847  1.00  0.00     0.119 A 
ATOM     16  C   UNL     1       2.331  -0.132  -6.623  1.00  0.00     0.093 A 
ATOM     17  C   UNL     1       1.117  -0.712  -6.225  1.00  0.00     0.130 A 
BRANCH  15  18
ATOM     18  O   UNL     1       4.119   0.111  -8.224  1.00  0.00    -0.508 OA
ATOM     19  H   UNL     1       4.364   1.051  -7.938  1.00  0.00     0.293 HD
ENDBRANCH  15  18
BRANCH  17  20
ATOM     20  O   UNL     1       0.553  -0.365  -4.998  1.00  0.00    -0.507 OA
ATOM     21  H   UNL     1       1.075   0.149  -4.298  1.00  0.00     0.293 HD
ENDBRANCH  17  20
ENDBRANCH   1  12
BRANCH   2  22
ATOM     22  O   UNL     1       0.107  -4.492  -6.690  1.00  0.00    -0.502 OA
ATOM     23  H   UNL     1       0.466  -4.737  -7.605  1.00  0.00     0.293 HD
ENDBRANCH   2  22
BRANCH   6  24
ATOM     24  O   UNL     1      -5.092  -4.977  -5.628  1.00  0.00    -0.507 OA
ATOM     25  H   UNL     1      -5.218  -5.557  -6.443  1.00  0.00     0.293 HD
ENDBRANCH   6  24
BRANCH   8  26
ATOM     26  O   UNL     1      -6.316  -0.371  -5.186  1.00  0.00    -0.508 OA
ATOM     27  H   UNL     1      -6.560   0.351  -5.855  1.00  0.00     0.293 HD
ENDBRANCH   8  26
TORSDOF 6
ENDMDL
