MODEL 1
REMARK VINA RESULT:    -6.659      0.000      0.000
REMARK INTER + INTRA:         -10.857
REMARK INTER:                  -9.968
REMARK INTRA:                  -0.889
REMARK UNBOUND:                -0.889
REMARK SMILES COC(=O)C1=CO[C@@H](O[C@H]2O[C@H](CO)[C@@H](O)[C@@H](O)[C@@H]2O)[C@H]2C(CO)=CC[C@H]12
REMARK SMILES IDX 9 1 8 2 5 3 6 4 27 5 7 6 21 7 26 8 22 9 25 10 3 11 4 12 2 13
REMARK SMILES IDX 1 14 23 15 24 16 10 18 19 19 11 20 17 21 12 22 15 23 20 24
REMARK SMILES IDX 18 26 13 28 14 29 16 31
REMARK H PARENT 24 17 20 25 18 27 14 30 16 32
REMARK Flexibility Score: inf
ROOT
ATOM      1  O   UNL     1      19.166 -10.703  17.990  1.00  0.00    -0.310 OA
ENDROOT
BRANCH   1   2
ATOM      2  C   UNL     1      19.625  -9.362  18.007  1.00  0.00     0.316 C 
ATOM      3  C   UNL     1      19.861  -8.645  20.844  1.00  0.00     0.076 C 
ATOM      4  C   UNL     1      20.962  -8.897  20.103  1.00  0.00     0.202 C 
ATOM      5  C   UNL     1      18.529  -8.891  20.180  1.00  0.00     0.047 C 
ATOM      6  O   UNL     1      20.868  -9.242  18.734  1.00  0.00    -0.471 OA
ATOM      7  C   UNL     1      18.604  -8.467  18.717  1.00  0.00     0.094 C 
ATOM      8  C   UNL     1      17.260  -8.186  20.664  1.00  0.00     0.037 C 
ATOM      9  C   UNL     1      17.164  -8.451  18.329  1.00  0.00    -0.039 C 
ATOM     10  C   UNL     1      16.426  -8.197  19.415  1.00  0.00    -0.024 C 
BRANCH   3  11
ATOM     11  C   UNL     1      19.972  -8.350  22.292  1.00  0.00     0.337 C 
ATOM     12  O   UNL     1      20.208  -7.172  22.682  1.00  0.00    -0.246 OA
BRANCH  11  13
ATOM     13  O   UNL     1      19.836  -9.380  23.228  1.00  0.00    -0.466 OA
ATOM     14  C   UNL     1      19.842  -9.152  24.630  1.00  0.00     0.282 C 
ENDBRANCH  11  13
ENDBRANCH   3  11
BRANCH   9  15
ATOM     15  C   UNL     1      16.639  -8.367  16.922  1.00  0.00     0.187 C 
BRANCH  15  16
ATOM     16  O   UNL     1      15.601  -7.426  16.837  1.00  0.00    -0.392 OA
ATOM     17  H   UNL     1      15.606  -7.075  15.909  1.00  0.00     0.211 HD
ENDBRANCH  15  16
ENDBRANCH   9  15
ENDBRANCH   1   2
BRANCH   1  18
ATOM     18  C   UNL     1      20.233 -11.642  18.081  1.00  0.00     0.286 C 
ATOM     19  C   UNL     1      19.948 -12.934  17.284  1.00  0.00     0.202 C 
ATOM     20  O   UNL     1      20.497 -11.940  19.443  1.00  0.00    -0.341 OA
ATOM     21  C   UNL     1      18.812 -13.745  17.931  1.00  0.00     0.179 C 
ATOM     22  C   UNL     1      19.374 -12.531  20.083  1.00  0.00     0.178 C 
ATOM     23  C   UNL     1      19.051 -13.904  19.444  1.00  0.00     0.177 C 
BRANCH  19  24
ATOM     24  O   UNL     1      21.121 -13.709  17.245  1.00  0.00    -0.385 OA
ATOM     25  H   UNL     1      21.397 -13.866  18.184  1.00  0.00     0.211 HD
ENDBRANCH  19  24
BRANCH  21  26
ATOM     26  O   UNL     1      17.587 -13.097  17.693  1.00  0.00    -0.387 OA
ATOM     27  H   UNL     1      17.524 -12.347  18.343  1.00  0.00     0.211 HD
ENDBRANCH  21  26
BRANCH  22  28
ATOM     28  C   UNL     1      19.709 -12.673  21.577  1.00  0.00     0.191 C 
BRANCH  28  29
ATOM     29  O   UNL     1      18.568 -13.038  22.311  1.00  0.00    -0.394 OA
ATOM     30  H   UNL     1      18.760 -12.849  23.267  1.00  0.00     0.210 HD
ENDBRANCH  28  29
ENDBRANCH  22  28
BRANCH  23  31
ATOM     31  O   UNL     1      17.914 -14.466  20.049  1.00  0.00    -0.387 OA
ATOM     32  H   UNL     1      17.892 -15.422  19.782  1.00  0.00     0.211 HD
ENDBRANCH  23  31
ENDBRANCH   1  18
TORSDOF 11
ENDMDL
MODEL 2
REMARK VINA RESULT:    -6.484      2.150      4.945
REMARK INTER + INTRA:         -10.595
REMARK INTER:                  -9.232
REMARK INTRA:                  -1.363
REMARK UNBOUND:                -0.889
REMARK SMILES COC(=O)C1=CO[C@@H](O[C@H]2O[C@H](CO)[C@@H](O)[C@@H](O)[C@@H]2O)[C@H]2C(CO)=CC[C@H]12
REMARK SMILES IDX 9 1 8 2 5 3 6 4 27 5 7 6 21 7 26 8 22 9 25 10 3 11 4 12 2 13
REMARK SMILES IDX 1 14 23 15 24 16 10 18 19 19 11 20 17 21 12 22 15 23 20 24
REMARK SMILES IDX 18 26 13 28 14 29 16 31
REMARK H PARENT 24 17 20 25 18 27 14 30 16 32
REMARK Flexibility Score: inf
ROOT
ATOM      1  O   UNL     1      19.292 -13.391  18.660  1.00  0.00    -0.310 OA
ENDROOT
BRANCH   1   2
ATOM      2  C   UNL     1      18.859 -12.794  19.871  1.00  0.00     0.316 C 
ATOM      3  C   UNL     1      18.730  -9.912  19.327  1.00  0.00     0.076 C 
ATOM      4  C   UNL     1      17.600 -10.649  19.414  1.00  0.00     0.202 C 
ATOM      5  C   UNL     1      20.035 -10.668  19.379  1.00  0.00     0.047 C 
ATOM      6  O   UNL     1      17.643 -12.038  19.677  1.00  0.00    -0.471 OA
ATOM      7  C   UNL     1      19.920 -11.813  20.380  1.00  0.00     0.094 C 
ATOM      8  C   UNL     1      21.331  -9.980  19.810  1.00  0.00     0.037 C 
ATOM      9  C   UNL     1      21.346 -12.211  20.553  1.00  0.00    -0.039 C 
ATOM     10  C   UNL     1      22.125 -11.148  20.323  1.00  0.00    -0.024 C 
BRANCH   3  11
ATOM     11  C   UNL     1      18.671  -8.471  18.985  1.00  0.00     0.337 C 
ATOM     12  O   UNL     1      18.845  -8.097  17.792  1.00  0.00    -0.246 OA
BRANCH  11  13
ATOM     13  O   UNL     1      18.445  -7.523  19.988  1.00  0.00    -0.466 OA
ATOM     14  C   UNL     1      18.806  -7.737  21.345  1.00  0.00     0.282 C 
ENDBRANCH  11  13
ENDBRANCH   3  11
BRANCH   9  15
ATOM     15  C   UNL     1      21.827 -13.471  21.220  1.00  0.00     0.187 C 
BRANCH  15  16
ATOM     16  O   UNL     1      21.805 -14.546  20.318  1.00  0.00    -0.392 OA
ATOM     17  H   UNL     1      20.851 -14.769  20.158  1.00  0.00     0.211 HD
ENDBRANCH  15  16
ENDBRANCH   9  15
ENDBRANCH   1   2
BRANCH   1  18
ATOM     18  C   UNL     1      18.209 -13.682  17.782  1.00  0.00     0.286 C 
ATOM     19  C   UNL     1      18.412 -15.011  17.020  1.00  0.00     0.202 C 
ATOM     20  O   UNL     1      18.021 -12.607  16.876  1.00  0.00    -0.341 OA
ATOM     21  C   UNL     1      19.565 -14.898  16.007  1.00  0.00     0.179 C 
ATOM     22  C   UNL     1      19.166 -12.396  16.060  1.00  0.00     0.178 C 
ATOM     23  C   UNL     1      19.414 -13.625  15.152  1.00  0.00     0.177 C 
BRANCH  19  24
ATOM     24  O   UNL     1      17.220 -15.332  16.348  1.00  0.00    -0.385 OA
ATOM     25  H   UNL     1      16.564 -14.619  16.561  1.00  0.00     0.211 HD
ENDBRANCH  19  24
BRANCH  21  26
ATOM     26  O   UNL     1      20.788 -14.882  16.698  1.00  0.00    -0.387 OA
ATOM     27  H   UNL     1      21.299 -15.683  16.402  1.00  0.00     0.211 HD
ENDBRANCH  21  26
BRANCH  22  28
ATOM     28  C   UNL     1      18.919 -11.126  15.229  1.00  0.00     0.191 C 
BRANCH  28  29
ATOM     29  O   UNL     1      17.997 -10.282  15.870  1.00  0.00    -0.394 OA
ATOM     30  H   UNL     1      18.481  -9.452  16.122  1.00  0.00     0.210 HD
ENDBRANCH  28  29
ENDBRANCH  22  28
BRANCH  23  31
ATOM     31  O   UNL     1      20.571 -13.432  14.378  1.00  0.00    -0.387 OA
ATOM     32  H   UNL     1      20.274 -13.047  13.513  1.00  0.00     0.211 HD
ENDBRANCH  23  31
ENDBRANCH   1  18
TORSDOF 11
ENDMDL
MODEL 3
REMARK VINA RESULT:    -6.435      1.248      1.770
REMARK INTER + INTRA:         -10.521
REMARK INTER:                  -9.550
REMARK INTRA:                  -0.971
REMARK UNBOUND:                -0.889
REMARK SMILES COC(=O)C1=CO[C@@H](O[C@H]2O[C@H](CO)[C@@H](O)[C@@H](O)[C@@H]2O)[C@H]2C(CO)=CC[C@H]12
REMARK SMILES IDX 9 1 8 2 5 3 6 4 27 5 7 6 21 7 26 8 22 9 25 10 3 11 4 12 2 13
REMARK SMILES IDX 1 14 23 15 24 16 10 18 19 19 11 20 17 21 12 22 15 23 20 24
REMARK SMILES IDX 18 26 13 28 14 29 16 31
REMARK H PARENT 24 17 20 25 18 27 14 30 16 32
REMARK Flexibility Score: inf
ROOT
ATOM      1  O   UNL     1      19.326 -10.555  17.856  1.00  0.00    -0.310 OA
ENDROOT
BRANCH   1   2
ATOM      2  C   UNL     1      19.714  -9.194  17.934  1.00  0.00     0.316 C 
ATOM      3  C   UNL     1      19.898  -8.589  20.801  1.00  0.00     0.076 C 
ATOM      4  C   UNL     1      21.014  -8.751  20.058  1.00  0.00     0.202 C 
ATOM      5  C   UNL     1      18.583  -8.875  20.118  1.00  0.00     0.047 C 
ATOM      6  O   UNL     1      20.945  -9.041  18.675  1.00  0.00    -0.471 OA
ATOM      7  C   UNL     1      18.643  -8.385  18.674  1.00  0.00     0.094 C 
ATOM      8  C   UNL     1      17.278  -8.259  20.622  1.00  0.00     0.037 C 
ATOM      9  C   UNL     1      17.207  -8.427  18.277  1.00  0.00    -0.039 C 
ATOM     10  C   UNL     1      16.451  -8.260  19.368  1.00  0.00    -0.024 C 
BRANCH   3  11
ATOM     11  C   UNL     1      19.986  -8.351  22.261  1.00  0.00     0.337 C 
ATOM     12  O   UNL     1      20.224  -7.192  22.701  1.00  0.00    -0.246 OA
BRANCH  11  13
ATOM     13  O   UNL     1      19.826  -9.416  23.154  1.00  0.00    -0.466 OA
ATOM     14  C   UNL     1      19.846  -9.248  24.564  1.00  0.00     0.282 C 
ENDBRANCH  11  13
ENDBRANCH   3  11
BRANCH   9  15
ATOM     15  C   UNL     1      16.685  -8.310  16.871  1.00  0.00     0.187 C 
BRANCH  15  16
ATOM     16  O   UNL     1      15.534  -7.507  16.838  1.00  0.00    -0.392 OA
ATOM     17  H   UNL     1      15.236  -7.472  15.892  1.00  0.00     0.211 HD
ENDBRANCH  15  16
ENDBRANCH   9  15
ENDBRANCH   1   2
BRANCH   1  18
ATOM     18  C   UNL     1      20.444 -11.432  17.763  1.00  0.00     0.286 C 
ATOM     19  C   UNL     1      20.902 -11.647  16.303  1.00  0.00     0.202 C 
ATOM     20  O   UNL     1      20.135 -12.673  18.380  1.00  0.00    -0.341 OA
ATOM     21  C   UNL     1      19.857 -12.447  15.506  1.00  0.00     0.179 C 
ATOM     22  C   UNL     1      19.047 -13.326  17.740  1.00  0.00     0.178 C 
ATOM     23  C   UNL     1      19.423 -13.702  16.287  1.00  0.00     0.177 C 
BRANCH  19  24
ATOM     24  O   UNL     1      22.125 -12.340  16.311  1.00  0.00    -0.385 OA
ATOM     25  H   UNL     1      22.333 -12.574  15.371  1.00  0.00     0.211 HD
ENDBRANCH  19  24
BRANCH  21  26
ATOM     26  O   UNL     1      18.748 -11.626  15.242  1.00  0.00    -0.387 OA
ATOM     27  H   UNL     1      18.930 -10.745  15.666  1.00  0.00     0.211 HD
ENDBRANCH  21  26
BRANCH  22  28
ATOM     28  C   UNL     1      18.698 -14.573  18.571  1.00  0.00     0.191 C 
BRANCH  28  29
ATOM     29  O   UNL     1      18.391 -14.220  19.895  1.00  0.00    -0.394 OA
ATOM     30  H   UNL     1      18.926 -13.414  20.118  1.00  0.00     0.210 HD
ENDBRANCH  28  29
ENDBRANCH  22  28
BRANCH  23  31
ATOM     31  O   UNL     1      18.330 -14.308  15.644  1.00  0.00    -0.387 OA
ATOM     32  H   UNL     1      18.348 -13.999  14.700  1.00  0.00     0.211 HD
ENDBRANCH  23  31
ENDBRANCH   1  18
TORSDOF 11
ENDMDL
MODEL 4
REMARK VINA RESULT:    -6.422      2.191      6.856
REMARK INTER + INTRA:         -10.502
REMARK INTER:                  -9.642
REMARK INTRA:                  -0.860
REMARK UNBOUND:                -0.889
REMARK SMILES COC(=O)C1=CO[C@@H](O[C@H]2O[C@H](CO)[C@@H](O)[C@@H](O)[C@@H]2O)[C@H]2C(CO)=CC[C@H]12
REMARK SMILES IDX 9 1 8 2 5 3 6 4 27 5 7 6 21 7 26 8 22 9 25 10 3 11 4 12 2 13
REMARK SMILES IDX 1 14 23 15 24 16 10 18 19 19 11 20 17 21 12 22 15 23 20 24
REMARK SMILES IDX 18 26 13 28 14 29 16 31
REMARK H PARENT 24 17 20 25 18 27 14 30 16 32
REMARK Flexibility Score: inf
ROOT
ATOM      1  O   UNL     1      18.813 -10.930  17.966  1.00  0.00    -0.310 OA
ENDROOT
BRANCH   1   2
ATOM      2  C   UNL     1      19.826 -11.902  18.157  1.00  0.00     0.316 C 
ATOM      3  C   UNL     1      19.849 -13.512  15.702  1.00  0.00     0.076 C 
ATOM      4  C   UNL     1      20.824 -12.608  15.943  1.00  0.00     0.202 C 
ATOM      5  C   UNL     1      18.698 -13.540  16.677  1.00  0.00     0.047 C 
ATOM      6  O   UNL     1      20.831 -11.824  17.121  1.00  0.00    -0.471 OA
ATOM      7  C   UNL     1      19.222 -13.309  18.091  1.00  0.00     0.094 C 
ATOM      8  C   UNL     1      17.833 -14.790  16.845  1.00  0.00     0.037 C 
ATOM      9  C   UNL     1      18.049 -13.704  18.921  1.00  0.00    -0.039 C 
ATOM     10  C   UNL     1      17.327 -14.608  18.248  1.00  0.00    -0.024 C 
BRANCH   3  11
ATOM     11  C   UNL     1      19.820 -14.277  14.433  1.00  0.00     0.337 C 
ATOM     12  O   UNL     1      19.971 -15.531  14.447  1.00  0.00    -0.246 OA
BRANCH  11  13
ATOM     13  O   UNL     1      19.647 -13.608  13.217  1.00  0.00    -0.466 OA
ATOM     14  C   UNL     1      19.839 -14.238  11.959  1.00  0.00     0.282 C 
ENDBRANCH  11  13
ENDBRANCH   3  11
BRANCH   9  15
ATOM     15  C   UNL     1      17.885 -13.428  20.390  1.00  0.00     0.187 C 
BRANCH  15  16
ATOM     16  O   UNL     1      19.132 -13.198  20.991  1.00  0.00    -0.392 OA
ATOM     17  H   UNL     1      19.228 -12.215  21.088  1.00  0.00     0.211 HD
ENDBRANCH  15  16
ENDBRANCH   9  15
ENDBRANCH   1   2
BRANCH   1  18
ATOM     18  C   UNL     1      19.344  -9.616  17.819  1.00  0.00     0.286 C 
ATOM     19  C   UNL     1      20.094  -9.142  19.084  1.00  0.00     0.202 C 
ATOM     20  O   UNL     1      18.304  -8.711  17.483  1.00  0.00    -0.341 OA
ATOM     21  C   UNL     1      19.120  -8.916  20.253  1.00  0.00     0.179 C 
ATOM     22  C   UNL     1      17.313  -8.642  18.499  1.00  0.00     0.178 C 
ATOM     23  C   UNL     1      17.916  -8.066  19.803  1.00  0.00     0.177 C 
BRANCH  19  24
ATOM     24  O   UNL     1      20.765  -7.942  18.787  1.00  0.00    -0.385 OA
ATOM     25  H   UNL     1      20.079  -7.292  18.485  1.00  0.00     0.211 HD
ENDBRANCH  19  24
BRANCH  21  26
ATOM     26  O   UNL     1      18.686 -10.160  20.742  1.00  0.00    -0.387 OA
ATOM     27  H   UNL     1      18.405 -10.699  19.955  1.00  0.00     0.211 HD
ENDBRANCH  21  26
BRANCH  22  28
ATOM     28  C   UNL     1      16.167  -7.760  17.974  1.00  0.00     0.191 C 
BRANCH  28  29
ATOM     29  O   UNL     1      16.129  -7.774  16.570  1.00  0.00    -0.394 OA
ATOM     30  H   UNL     1      15.179  -7.677  16.300  1.00  0.00     0.210 HD
ENDBRANCH  28  29
ENDBRANCH  22  28
BRANCH  23  31
ATOM     31  O   UNL     1      16.946  -8.041  20.818  1.00  0.00    -0.387 OA
ATOM     32  H   UNL     1      16.309  -7.315  20.586  1.00  0.00     0.211 HD
ENDBRANCH  23  31
ENDBRANCH   1  18
TORSDOF 11
ENDMDL
MODEL 5
REMARK VINA RESULT:    -6.387      2.211      6.458
REMARK INTER + INTRA:         -10.450
REMARK INTER:                  -9.096
REMARK INTRA:                  -1.354
REMARK UNBOUND:                -0.889
REMARK SMILES COC(=O)C1=CO[C@@H](O[C@H]2O[C@H](CO)[C@@H](O)[C@@H](O)[C@@H]2O)[C@H]2C(CO)=CC[C@H]12
REMARK SMILES IDX 9 1 8 2 5 3 6 4 27 5 7 6 21 7 26 8 22 9 25 10 3 11 4 12 2 13
REMARK SMILES IDX 1 14 23 15 24 16 10 18 19 19 11 20 17 21 12 22 15 23 20 24
REMARK SMILES IDX 18 26 13 28 14 29 16 31
REMARK H PARENT 24 17 20 25 18 27 14 30 16 32
REMARK Flexibility Score: inf
ROOT
ATOM      1  O   UNL     1      20.888  -9.471  19.898  1.00  0.00    -0.310 OA
ENDROOT
BRANCH   1   2
ATOM      2  C   UNL     1      21.922 -10.053  19.122  1.00  0.00     0.316 C 
ATOM      3  C   UNL     1      20.612 -11.074  16.700  1.00  0.00     0.076 C 
ATOM      4  C   UNL     1      21.361  -9.950  16.658  1.00  0.00     0.202 C 
ATOM      5  C   UNL     1      20.374 -11.675  18.064  1.00  0.00     0.047 C 
ATOM      6  O   UNL     1      22.001  -9.444  17.814  1.00  0.00    -0.471 OA
ATOM      7  C   UNL     1      21.639 -11.544  18.906  1.00  0.00     0.094 C 
ATOM      8  C   UNL     1      20.022 -13.155  18.226  1.00  0.00     0.037 C 
ATOM      9  C   UNL     1      21.348 -12.465  20.041  1.00  0.00    -0.039 C 
ATOM     10  C   UNL     1      20.512 -13.421  19.620  1.00  0.00    -0.024 C 
BRANCH   3  11
ATOM     11  C   UNL     1      19.894 -11.553  15.496  1.00  0.00     0.337 C 
ATOM     12  O   UNL     1      18.826 -10.989  15.130  1.00  0.00    -0.246 OA
BRANCH  11  13
ATOM     13  O   UNL     1      20.388 -12.646  14.776  1.00  0.00    -0.466 OA
ATOM     14  C   UNL     1      19.675 -13.868  14.647  1.00  0.00     0.282 C 
ENDBRANCH  11  13
ENDBRANCH   3  11
BRANCH   9  15
ATOM     15  C   UNL     1      22.124 -12.539  21.328  1.00  0.00     0.187 C 
BRANCH  15  16
ATOM     16  O   UNL     1      21.864 -11.415  22.127  1.00  0.00    -0.392 OA
ATOM     17  H   UNL     1      22.106 -11.661  23.057  1.00  0.00     0.211 HD
ENDBRANCH  15  16
ENDBRANCH   9  15
ENDBRANCH   1   2
BRANCH   1  18
ATOM     18  C   UNL     1      20.738  -8.078  19.642  1.00  0.00     0.286 C 
ATOM     19  C   UNL     1      20.507  -7.265  20.936  1.00  0.00     0.202 C 
ATOM     20  O   UNL     1      19.678  -7.869  18.722  1.00  0.00    -0.341 OA
ATOM     21  C   UNL     1      19.133  -7.582  21.552  1.00  0.00     0.179 C 
ATOM     22  C   UNL     1      18.434  -8.328  19.233  1.00  0.00     0.178 C 
ATOM     23  C   UNL     1      18.027  -7.508  20.482  1.00  0.00     0.177 C 
BRANCH  19  24
ATOM     24  O   UNL     1      20.585  -5.896  20.629  1.00  0.00    -0.385 OA
ATOM     25  H   UNL     1      20.649  -5.822  19.642  1.00  0.00     0.211 HD
ENDBRANCH  19  24
BRANCH  21  26
ATOM     26  O   UNL     1      19.169  -8.862  22.131  1.00  0.00    -0.387 OA
ATOM     27  H   UNL     1      19.423  -8.743  23.085  1.00  0.00     0.211 HD
ENDBRANCH  21  26
BRANCH  22  28
ATOM     28  C   UNL     1      17.391  -8.197  18.111  1.00  0.00     0.191 C 
BRANCH  28  29
ATOM     29  O   UNL     1      17.862  -8.776  16.922  1.00  0.00    -0.394 OA
ATOM     30  H   UNL     1      17.637  -9.742  16.954  1.00  0.00     0.210 HD
ENDBRANCH  28  29
ENDBRANCH  22  28
BRANCH  23  31
ATOM     31  O   UNL     1      16.820  -7.993  21.010  1.00  0.00    -0.387 OA
ATOM     32  H   UNL     1      16.206  -7.216  21.081  1.00  0.00     0.211 HD
ENDBRANCH  23  31
ENDBRANCH   1  18
TORSDOF 11
ENDMDL
MODEL 6
REMARK VINA RESULT:    -6.241      2.129      4.524
REMARK INTER + INTRA:         -10.231
REMARK INTER:                  -8.763
REMARK INTRA:                  -1.468
REMARK UNBOUND:                -0.889
REMARK SMILES COC(=O)C1=CO[C@@H](O[C@H]2O[C@H](CO)[C@@H](O)[C@@H](O)[C@@H]2O)[C@H]2C(CO)=CC[C@H]12
REMARK SMILES IDX 9 1 8 2 5 3 6 4 27 5 7 6 21 7 26 8 22 9 25 10 3 11 4 12 2 13
REMARK SMILES IDX 1 14 23 15 24 16 10 18 19 19 11 20 17 21 12 22 15 23 20 24
REMARK SMILES IDX 18 26 13 28 14 29 16 31
REMARK H PARENT 24 17 20 25 18 27 14 30 16 32
REMARK Flexibility Score: inf
ROOT
ATOM      1  O   UNL     1      18.597 -12.031  18.554  1.00  0.00    -0.310 OA
ENDROOT
BRANCH   1   2
ATOM      2  C   UNL     1      17.852 -11.061  19.272  1.00  0.00     0.316 C 
ATOM      3  C   UNL     1      19.309  -8.535  18.930  1.00  0.00     0.076 C 
ATOM      4  C   UNL     1      18.158  -8.764  18.260  1.00  0.00     0.202 C 
ATOM      5  C   UNL     1      19.864  -9.687  19.732  1.00  0.00     0.047 C 
ATOM      6  O   UNL     1      17.441  -9.974  18.413  1.00  0.00    -0.471 OA
ATOM      7  C   UNL     1      18.717 -10.454  20.382  1.00  0.00     0.094 C 
ATOM      8  C   UNL     1      20.811  -9.448  20.909  1.00  0.00     0.037 C 
ATOM      9  C   UNL     1      19.438 -11.300  21.374  1.00  0.00    -0.039 C 
ATOM     10  C   UNL     1      20.567 -10.680  21.734  1.00  0.00    -0.024 C 
BRANCH   3  11
ATOM     11  C   UNL     1      20.082  -7.291  18.708  1.00  0.00     0.337 C 
ATOM     12  O   UNL     1      20.771  -7.153  17.659  1.00  0.00    -0.246 OA
BRANCH  11  13
ATOM     13  O   UNL     1      20.065  -6.276  19.670  1.00  0.00    -0.466 OA
ATOM     14  C   UNL     1      21.121  -5.337  19.817  1.00  0.00     0.282 C 
ENDBRANCH  11  13
ENDBRANCH   3  11
BRANCH   9  15
ATOM     15  C   UNL     1      18.849 -12.465  22.122  1.00  0.00     0.187 C 
BRANCH  15  16
ATOM     16  O   UNL     1      18.503 -13.497  21.236  1.00  0.00    -0.392 OA
ATOM     17  H   UNL     1      18.597 -13.131  20.318  1.00  0.00     0.211 HD
ENDBRANCH  15  16
ENDBRANCH   9  15
ENDBRANCH   1   2
BRANCH   1  18
ATOM     18  C   UNL     1      17.789 -12.766  17.640  1.00  0.00     0.286 C 
ATOM     19  C   UNL     1      17.624 -14.244  18.060  1.00  0.00     0.202 C 
ATOM     20  O   UNL     1      18.334 -12.673  16.333  1.00  0.00    -0.341 OA
ATOM     21  C   UNL     1      18.953 -15.008  17.930  1.00  0.00     0.179 C 
ATOM     22  C   UNL     1      19.640 -13.228  16.263  1.00  0.00     0.178 C 
ATOM     23  C   UNL     1      19.598 -14.747  16.555  1.00  0.00     0.177 C 
BRANCH  19  24
ATOM     24  O   UNL     1      16.652 -14.841  17.239  1.00  0.00    -0.385 OA
ATOM     25  H   UNL     1      16.729 -14.421  16.344  1.00  0.00     0.211 HD
ENDBRANCH  19  24
BRANCH  21  26
ATOM     26  O   UNL     1      19.820 -14.610  18.961  1.00  0.00    -0.387 OA
ATOM     27  H   UNL     1      19.253 -14.362  19.739  1.00  0.00     0.211 HD
ENDBRANCH  21  26
BRANCH  22  28
ATOM     28  C   UNL     1      20.194 -12.941  14.857  1.00  0.00     0.191 C 
BRANCH  28  29
ATOM     29  O   UNL     1      20.142 -14.094  14.056  1.00  0.00    -0.394 OA
ATOM     30  H   UNL     1      20.994 -14.139  13.548  1.00  0.00     0.210 HD
ENDBRANCH  28  29
ENDBRANCH  22  28
BRANCH  23  31
ATOM     31  O   UNL     1      20.897 -15.284  16.529  1.00  0.00    -0.387 OA
ATOM     32  H   UNL     1      21.272 -15.076  15.633  1.00  0.00     0.211 HD
ENDBRANCH  23  31
ENDBRANCH   1  18
TORSDOF 11
ENDMDL
MODEL 7
REMARK VINA RESULT:    -6.177      2.041      5.853
REMARK INTER + INTRA:         -10.135
REMARK INTER:                  -8.904
REMARK INTRA:                  -1.232
REMARK UNBOUND:                -0.889
REMARK SMILES COC(=O)C1=CO[C@@H](O[C@H]2O[C@H](CO)[C@@H](O)[C@@H](O)[C@@H]2O)[C@H]2C(CO)=CC[C@H]12
REMARK SMILES IDX 9 1 8 2 5 3 6 4 27 5 7 6 21 7 26 8 22 9 25 10 3 11 4 12 2 13
REMARK SMILES IDX 1 14 23 15 24 16 10 18 19 19 11 20 17 21 12 22 15 23 20 24
REMARK SMILES IDX 18 26 13 28 14 29 16 31
REMARK H PARENT 24 17 20 25 18 27 14 30 16 32
REMARK Flexibility Score: inf
ROOT
ATOM      1  O   UNL     1      18.686 -10.789  18.593  1.00  0.00    -0.310 OA
ENDROOT
BRANCH   1   2
ATOM      2  C   UNL     1      18.197 -12.002  18.045  1.00  0.00     0.316 C 
ATOM      3  C   UNL     1      20.209 -14.035  18.708  1.00  0.00     0.076 C 
ATOM      4  C   UNL     1      19.033 -13.987  19.371  1.00  0.00     0.202 C 
ATOM      5  C   UNL     1      20.480 -12.917  17.732  1.00  0.00     0.047 C 
ATOM      6  O   UNL     1      18.051 -13.016  19.064  1.00  0.00    -0.471 OA
ATOM      7  C   UNL     1      19.188 -12.547  17.011  1.00  0.00     0.094 C 
ATOM      8  C   UNL     1      21.464 -13.097  16.575  1.00  0.00     0.037 C 
ATOM      9  C   UNL     1      19.695 -11.710  15.885  1.00  0.00    -0.039 C 
ATOM     10  C   UNL     1      20.941 -12.094  15.587  1.00  0.00    -0.024 C 
BRANCH   3  11
ATOM     11  C   UNL     1      21.254 -15.015  19.086  1.00  0.00     0.337 C 
ATOM     12  O   UNL     1      22.121 -14.713  19.953  1.00  0.00    -0.246 OA
BRANCH  11  13
ATOM     13  O   UNL     1      21.293 -16.269  18.468  1.00  0.00    -0.466 OA
ATOM     14  C   UNL     1      20.631 -16.544  17.242  1.00  0.00     0.282 C 
ENDBRANCH  11  13
ENDBRANCH   3  11
BRANCH   9  15
ATOM     15  C   UNL     1      18.850 -10.841  14.993  1.00  0.00     0.187 C 
BRANCH  15  16
ATOM     16  O   UNL     1      18.067  -9.963  15.758  1.00  0.00    -0.392 OA
ATOM     17  H   UNL     1      18.694  -9.363  16.238  1.00  0.00     0.211 HD
ENDBRANCH  15  16
ENDBRANCH   9  15
ENDBRANCH   1   2
BRANCH   1  18
ATOM     18  C   UNL     1      17.732 -10.152  19.436  1.00  0.00     0.286 C 
ATOM     19  C   UNL     1      17.123  -8.889  18.785  1.00  0.00     0.202 C 
ATOM     20  O   UNL     1      18.327  -9.836  20.684  1.00  0.00    -0.341 OA
ATOM     21  C   UNL     1      18.172  -7.770  18.661  1.00  0.00     0.179 C 
ATOM     22  C   UNL     1      19.413  -8.932  20.539  1.00  0.00     0.178 C 
ATOM     23  C   UNL     1      18.915  -7.571  19.996  1.00  0.00     0.177 C 
BRANCH  19  24
ATOM     24  O   UNL     1      16.049  -8.447  19.575  1.00  0.00    -0.385 OA
ATOM     25  H   UNL     1      16.241  -7.509  19.830  1.00  0.00     0.211 HD
ENDBRANCH  19  24
BRANCH  21  26
ATOM     26  O   UNL     1      19.079  -8.097  17.639  1.00  0.00    -0.387 OA
ATOM     27  H   UNL     1      19.066  -9.086  17.543  1.00  0.00     0.211 HD
ENDBRANCH  21  26
BRANCH  22  28
ATOM     28  C   UNL     1      20.078  -8.776  21.917  1.00  0.00     0.191 C 
BRANCH  28  29
ATOM     29  O   UNL     1      20.406 -10.030  22.458  1.00  0.00    -0.394 OA
ATOM     30  H   UNL     1      20.504  -9.912  23.439  1.00  0.00     0.210 HD
ENDBRANCH  28  29
ENDBRANCH  22  28
BRANCH  23  31
ATOM     31  O   UNL     1      19.997  -6.695  19.812  1.00  0.00    -0.387 OA
ATOM     32  H   UNL     1      20.194  -6.686  18.839  1.00  0.00     0.211 HD
ENDBRANCH  23  31
ENDBRANCH   1  18
TORSDOF 11
ENDMDL
MODEL 8
REMARK VINA RESULT:    -6.120      2.447      6.974
REMARK INTER + INTRA:         -10.050
REMARK INTER:                  -9.111
REMARK INTRA:                  -0.939
REMARK UNBOUND:                -0.889
REMARK SMILES COC(=O)C1=CO[C@@H](O[C@H]2O[C@H](CO)[C@@H](O)[C@@H](O)[C@@H]2O)[C@H]2C(CO)=CC[C@H]12
REMARK SMILES IDX 9 1 8 2 5 3 6 4 27 5 7 6 21 7 26 8 22 9 25 10 3 11 4 12 2 13
REMARK SMILES IDX 1 14 23 15 24 16 10 18 19 19 11 20 17 21 12 22 15 23 20 24
REMARK SMILES IDX 18 26 13 28 14 29 16 31
REMARK H PARENT 24 17 20 25 18 27 14 30 16 32
REMARK Flexibility Score: inf
ROOT
ATOM      1  O   UNL     1      18.830 -11.518  18.059  1.00  0.00    -0.310 OA
ENDROOT
BRANCH   1   2
ATOM      2  C   UNL     1      19.661 -12.651  18.251  1.00  0.00     0.316 C 
ATOM      3  C   UNL     1      19.873 -13.931  15.617  1.00  0.00     0.076 C 
ATOM      4  C   UNL     1      20.906 -13.223  16.125  1.00  0.00     0.202 C 
ATOM      5  C   UNL     1      18.584 -13.901  16.401  1.00  0.00     0.047 C 
ATOM      6  O   UNL     1      20.823 -12.601  17.393  1.00  0.00    -0.471 OA
ATOM      7  C   UNL     1      18.896 -13.929  17.894  1.00  0.00     0.094 C 
ATOM      8  C   UNL     1      17.546 -15.015  16.260  1.00  0.00     0.037 C 
ATOM      9  C   UNL     1      17.560 -14.240  18.480  1.00  0.00    -0.039 C 
ATOM     10  C   UNL     1      16.846 -14.933  17.586  1.00  0.00    -0.024 C 
BRANCH   3  11
ATOM     11  C   UNL     1      19.951 -14.520  14.260  1.00  0.00     0.337 C 
ATOM     12  O   UNL     1      20.223 -15.745  14.116  1.00  0.00    -0.246 OA
BRANCH  11  13
ATOM     13  O   UNL     1      19.744 -13.715  13.135  1.00  0.00    -0.466 OA
ATOM     14  C   UNL     1      19.661 -14.240  11.818  1.00  0.00     0.282 C 
ENDBRANCH  11  13
ENDBRANCH   3  11
BRANCH   9  15
ATOM     15  C   UNL     1      17.196 -14.125  19.935  1.00  0.00     0.187 C 
BRANCH  15  16
ATOM     16  O   UNL     1      16.143 -14.997  20.250  1.00  0.00    -0.392 OA
ATOM     17  H   UNL     1      15.353 -14.432  20.456  1.00  0.00     0.211 HD
ENDBRANCH  15  16
ENDBRANCH   9  15
ENDBRANCH   1   2
BRANCH   1  18
ATOM     18  C   UNL     1      18.750 -10.702  19.222  1.00  0.00     0.286 C 
ATOM     19  C   UNL     1      17.732  -9.550  19.062  1.00  0.00     0.202 C 
ATOM     20  O   UNL     1      20.035 -10.194  19.544  1.00  0.00    -0.341 OA
ATOM     21  C   UNL     1      18.222  -8.517  18.033  1.00  0.00     0.179 C 
ATOM     22  C   UNL     1      20.558  -9.378  18.505  1.00  0.00     0.178 C 
ATOM     23  C   UNL     1      19.682  -8.115  18.319  1.00  0.00     0.177 C 
BRANCH  19  24
ATOM     24  O   UNL     1      17.554  -8.929  20.311  1.00  0.00    -0.385 OA
ATOM     25  H   UNL     1      18.187  -9.357  20.942  1.00  0.00     0.211 HD
ENDBRANCH  19  24
BRANCH  21  26
ATOM     26  O   UNL     1      18.107  -9.058  16.742  1.00  0.00    -0.387 OA
ATOM     27  H   UNL     1      17.192  -8.841  16.416  1.00  0.00     0.211 HD
ENDBRANCH  21  26
BRANCH  22  28
ATOM     28  C   UNL     1      22.002  -9.008  18.884  1.00  0.00     0.191 C 
BRANCH  28  29
ATOM     29  O   UNL     1      22.117  -7.628  19.122  1.00  0.00    -0.394 OA
ATOM     30  H   UNL     1      23.008  -7.344  18.787  1.00  0.00     0.210 HD
ENDBRANCH  28  29
ENDBRANCH  22  28
BRANCH  23  31
ATOM     31  O   UNL     1      20.176  -7.332  17.262  1.00  0.00    -0.387 OA
ATOM     32  H   UNL     1      19.442  -7.256  16.597  1.00  0.00     0.211 HD
ENDBRANCH  23  31
ENDBRANCH   1  18
TORSDOF 11
ENDMDL
MODEL 9
REMARK VINA RESULT:    -6.044      1.482      2.731
REMARK INTER + INTRA:          -9.937
REMARK INTER:                 -10.040
REMARK INTRA:                   0.103
REMARK UNBOUND:                -0.889
REMARK SMILES COC(=O)C1=CO[C@@H](O[C@H]2O[C@H](CO)[C@@H](O)[C@@H](O)[C@@H]2O)[C@H]2C(CO)=CC[C@H]12
REMARK SMILES IDX 9 1 8 2 5 3 6 4 27 5 7 6 21 7 26 8 22 9 25 10 3 11 4 12 2 13
REMARK SMILES IDX 1 14 23 15 24 16 10 18 19 19 11 20 17 21 12 22 15 23 20 24
REMARK SMILES IDX 18 26 13 28 14 29 16 31
REMARK H PARENT 24 17 20 25 18 27 14 30 16 32
REMARK Flexibility Score: inf
ROOT
ATOM      1  O   UNL     1      18.051 -11.752  19.394  1.00  0.00    -0.310 OA
ENDROOT
BRANCH   1   2
ATOM      2  C   UNL     1      19.081 -10.830  19.082  1.00  0.00     0.316 C 
ATOM      3  C   UNL     1      19.665  -9.421  21.591  1.00  0.00     0.076 C 
ATOM      4  C   UNL     1      20.512 -10.361  21.114  1.00  0.00     0.202 C 
ATOM      5  C   UNL     1      18.362  -9.249  20.851  1.00  0.00     0.047 C 
ATOM      6  O   UNL     1      20.248 -11.049  19.906  1.00  0.00    -0.471 OA
ATOM      7  C   UNL     1      18.604  -9.399  19.352  1.00  0.00     0.094 C 
ATOM      8  C   UNL     1      17.574  -7.940  20.929  1.00  0.00     0.037 C 
ATOM      9  C   UNL     1      17.331  -8.870  18.783  1.00  0.00    -0.039 C 
ATOM     10  C   UNL     1      16.812  -7.980  19.635  1.00  0.00    -0.024 C 
BRANCH   3  11
ATOM     11  C   UNL     1      19.922  -8.758  22.891  1.00  0.00     0.337 C 
ATOM     12  O   UNL     1      20.234  -7.535  22.926  1.00  0.00    -0.246 OA
BRANCH  11  13
ATOM     13  O   UNL     1      19.839  -9.491  24.079  1.00  0.00    -0.466 OA
ATOM     14  C   UNL     1      19.839  -8.881  25.362  1.00  0.00     0.282 C 
ENDBRANCH  11  13
ENDBRANCH   3  11
BRANCH   9  15
ATOM     15  C   UNL     1      16.885  -9.020  17.354  1.00  0.00     0.187 C 
BRANCH  15  16
ATOM     16  O   UNL     1      17.984  -9.273  16.517  1.00  0.00    -0.392 OA
ATOM     17  H   UNL     1      17.681  -9.926  15.835  1.00  0.00     0.211 HD
ENDBRANCH  15  16
ENDBRANCH   9  15
ENDBRANCH   1   2
BRANCH   1  18
ATOM     18  C   UNL     1      17.578 -12.445  18.243  1.00  0.00     0.286 C 
ATOM     19  C   UNL     1      17.469 -13.969  18.479  1.00  0.00     0.202 C 
ATOM     20  O   UNL     1      18.419 -12.169  17.134  1.00  0.00    -0.341 OA
ATOM     21  C   UNL     1      18.860 -14.607  18.633  1.00  0.00     0.179 C 
ATOM     22  C   UNL     1      19.752 -12.607  17.358  1.00  0.00     0.178 C 
ATOM     23  C   UNL     1      19.798 -14.148  17.499  1.00  0.00     0.177 C 
BRANCH  19  24
ATOM     24  O   UNL     1      16.800 -14.548  17.387  1.00  0.00    -0.385 OA
ATOM     25  H   UNL     1      16.113 -13.898  17.088  1.00  0.00     0.211 HD
ENDBRANCH  19  24
BRANCH  21  26
ATOM     26  O   UNL     1      19.395 -14.255  19.884  1.00  0.00    -0.387 OA
ATOM     27  H   UNL     1      18.890 -14.767  20.571  1.00  0.00     0.211 HD
ENDBRANCH  21  26
BRANCH  22  28
ATOM     28  C   UNL     1      20.607 -12.127  16.174  1.00  0.00     0.191 C 
BRANCH  28  29
ATOM     29  O   UNL     1      20.669 -13.110  15.173  1.00  0.00    -0.394 OA
ATOM     30  H   UNL     1      21.561 -13.543  15.239  1.00  0.00     0.210 HD
ENDBRANCH  28  29
ENDBRANCH  22  28
BRANCH  23  31
ATOM     31  O   UNL     1      21.110 -14.574  17.765  1.00  0.00    -0.387 OA
ATOM     32  H   UNL     1      21.695 -14.122  17.103  1.00  0.00     0.211 HD
ENDBRANCH  23  31
ENDBRANCH   1  18
TORSDOF 11
ENDMDL
