MODEL 1
REMARK VINA RESULT:    -4.103      0.000      0.000
REMARK INTER + INTRA:          -3.710
REMARK INTER:                  -5.062
REMARK INTRA:                   1.352
REMARK UNBOUND:                 1.352
REMARK SMILES C=C1CC[C@@H]2[C@H]([C@@H]3[C@H](C)CC[C@@H]13)C2(C)C
REMARK SMILES IDX 3 1 2 2 1 3 12 4 9 5 8 6 10 7 7 8 11 9 4 11 5 12 6 13 13 14
REMARK SMILES IDX 14 16 15 17
REMARK H PARENT
REMARK Flexibility Score: 80.00
ROOT
ATOM      1  C   UNL     1     141.036 137.616 134.376  1.00  0.00     0.031 C 
ENDROOT
BRANCH   1   2
ATOM      2  C   UNL     1     140.104 138.246 135.403  1.00  0.00    -0.074 C 
ATOM      3  C   UNL     1     140.085 137.705 136.643  1.00  0.00     0.008 C 
BRANCH   2   4
ATOM      4  C   UNL     1     139.465 139.616 135.121  1.00  0.00     0.018 C 
ATOM      5  C   UNL     1     137.771 142.016 133.089  1.00  0.00     0.008 C 
ATOM      6  C   UNL     1     137.602 140.776 133.988  1.00  0.00    -0.010 C 
ATOM      7  C   UNL     1     137.637 141.166 135.472  1.00  0.00     0.004 C 
ATOM      8  C   UNL     1     138.665 139.655 133.810  1.00  0.00     0.003 CG0
ATOM      9  C   UNL     1     138.454 140.093 136.166  1.00  0.00     0.008 C 
ATOM     10  G   UNL     1     139.604 139.849 132.590  1.00  0.00     0.000 G0
ENDBRANCH   2   4
ENDBRANCH   1   2
BRANCH   1  11
ATOM     11  C   UNL     1     140.373 137.385 133.011  1.00  0.00     0.009 C 
BRANCH  11  12
ATOM     12  C   UNL     1     140.471 138.653 132.140  1.00  0.00    -0.001 C 
ATOM     13  C   UNL     1     139.617 139.852 132.577  1.00  0.00     0.002 CG0
ATOM     14  C   UNL     1     139.321 139.147 131.241  1.00  0.00    -0.029 C 
ATOM     15  G   UNL     1     138.657 139.651 133.779  1.00  0.00     0.000 G0
ATOM     16  C   UNL     1     137.999 138.370 131.088  1.00  0.00     0.011 C 
ATOM     17  C   UNL     1     139.750 139.961 130.015  1.00  0.00     0.011 C 
ENDBRANCH  11  12
ENDBRANCH   1  11
TORSDOF 0
ENDMDL
MODEL 2
REMARK VINA RESULT:    -4.044      4.774      6.019
REMARK INTER + INTRA:          -3.638
REMARK INTER:                  -5.056
REMARK INTRA:                   1.419
REMARK UNBOUND:                 1.352
REMARK SMILES C=C1CC[C@@H]2[C@H]([C@@H]3[C@H](C)CC[C@@H]13)C2(C)C
REMARK SMILES IDX 3 1 2 2 1 3 12 4 9 5 8 6 10 7 7 8 11 9 4 11 5 12 6 13 13 14
REMARK SMILES IDX 14 16 15 17
REMARK H PARENT
REMARK Flexibility Score: 80.00
ROOT
ATOM      1  C   UNL     1     141.201 144.562 134.653  1.00  0.00     0.031 C 
ENDROOT
BRANCH   1   2
ATOM      2  C   UNL     1     142.153 143.908 135.647  1.00  0.00    -0.074 C 
ATOM      3  C   UNL     1     142.209 144.430 136.893  1.00  0.00     0.008 C 
BRANCH   2   4
ATOM      4  C   UNL     1     142.771 142.536 135.328  1.00  0.00     0.018 C 
ATOM      5  C   UNL     1     144.380 140.148 133.214  1.00  0.00     0.008 C 
ATOM      6  C   UNL     1     144.588 141.376 134.122  1.00  0.00    -0.010 C 
ATOM      7  C   UNL     1     144.597 140.968 135.602  1.00  0.00     0.004 C 
ATOM      8  C   UNL     1     143.529 142.507 133.991  1.00  0.00     0.003 CG0
ATOM      9  C   UNL     1     143.811 142.039 136.335  1.00  0.00     0.008 C 
ATOM     10  G   UNL     1     142.550 142.335 132.800  1.00  0.00     0.000 G0
ENDBRANCH   2   4
ENDBRANCH   1   2
BRANCH   1  11
ATOM     11  C   UNL     1     141.830 144.810 133.276  1.00  0.00     0.009 C 
BRANCH  11  12
ATOM     12  C   UNL     1     141.708 143.554 132.390  1.00  0.00    -0.001 C 
ATOM     13  C   UNL     1     142.554 142.340 132.801  1.00  0.00     0.002 CG0
ATOM     14  C   UNL     1     142.840 143.059 131.471  1.00  0.00    -0.029 C 
ATOM     15  G   UNL     1     143.530 142.515 133.994  1.00  0.00     0.000 G0
ATOM     16  C   UNL     1     144.170 143.823 131.311  1.00  0.00     0.011 C 
ATOM     17  C   UNL     1     142.388 142.265 130.240  1.00  0.00     0.011 C 
ENDBRANCH  11  12
ENDBRANCH   1  11
TORSDOF 0
ENDMDL
MODEL 3
REMARK VINA RESULT:    -3.894      4.655      6.104
REMARK INTER + INTRA:          -3.453
REMARK INTER:                  -4.838
REMARK INTRA:                   1.385
REMARK UNBOUND:                 1.352
REMARK SMILES C=C1CC[C@@H]2[C@H]([C@@H]3[C@H](C)CC[C@@H]13)C2(C)C
REMARK SMILES IDX 3 1 2 2 1 3 12 4 9 5 8 6 10 7 7 8 11 9 4 11 5 12 6 13 13 14
REMARK SMILES IDX 14 16 15 17
REMARK H PARENT
REMARK Flexibility Score: 80.00
ROOT
ATOM      1  C   UNL     1     144.599 141.090 133.386  1.00  0.00     0.031 C 
ENDROOT
BRANCH   1   2
ATOM      2  C   UNL     1     144.145 142.436 132.836  1.00  0.00    -0.074 C 
ATOM      3  C   UNL     1     144.862 142.969 131.820  1.00  0.00     0.008 C 
BRANCH   2   4
ATOM      4  C   UNL     1     142.762 142.992 133.214  1.00  0.00     0.018 C 
ATOM      5  C   UNL     1     140.129 143.785 135.494  1.00  0.00     0.008 C 
ATOM      6  C   UNL     1     141.490 144.236 134.927  1.00  0.00    -0.010 C 
ATOM      7  C   UNL     1     141.318 144.907 133.557  1.00  0.00     0.004 C 
ATOM      8  C   UNL     1     142.551 143.116 134.731  1.00  0.00     0.003 CG0
ATOM      9  C   UNL     1     142.462 144.402 132.699  1.00  0.00     0.008 C 
ATOM     10  G   UNL     1     142.163 141.749 135.353  1.00  0.00     0.000 G0
ENDBRANCH   2   4
ENDBRANCH   1   2
BRANCH   1  11
ATOM     11  C   UNL     1     144.662 141.046 134.919  1.00  0.00     0.009 C 
BRANCH  11  12
ATOM     12  C   UNL     1     143.283 140.690 135.508  1.00  0.00    -0.001 C 
ATOM     13  C   UNL     1     142.179 141.747 135.355  1.00  0.00     0.002 CG0
ATOM     14  C   UNL     1     142.698 141.378 136.757  1.00  0.00    -0.029 C 
ATOM     15  G   UNL     1     142.572 143.110 134.727  1.00  0.00     0.000 G0
ATOM     16  C   UNL     1     143.481 142.435 137.561  1.00  0.00     0.011 C 
ATOM     17  C   UNL     1     141.711 140.534 137.569  1.00  0.00     0.011 C 
ENDBRANCH  11  12
ENDBRANCH   1  11
TORSDOF 0
ENDMDL
MODEL 4
REMARK VINA RESULT:    -3.845      3.171      5.626
REMARK INTER + INTRA:          -3.392
REMARK INTER:                  -4.788
REMARK INTRA:                   1.396
REMARK UNBOUND:                 1.352
REMARK SMILES C=C1CC[C@@H]2[C@H]([C@@H]3[C@H](C)CC[C@@H]13)C2(C)C
REMARK SMILES IDX 3 1 2 2 1 3 12 4 9 5 8 6 10 7 7 8 11 9 4 11 5 12 6 13 13 14
REMARK SMILES IDX 14 16 15 17
REMARK H PARENT
REMARK Flexibility Score: 80.00
ROOT
ATOM      1  C   UNL     1     141.140 144.467 132.946  1.00  0.00     0.031 C 
ENDROOT
BRANCH   1   2
ATOM      2  C   UNL     1     139.744 143.982 132.573  1.00  0.00    -0.074 C 
ATOM      3  C   UNL     1     139.146 144.565 131.509  1.00  0.00     0.008 C 
BRANCH   2   4
ATOM      4  C   UNL     1     139.192 142.685 133.188  1.00  0.00     0.018 C 
ATOM      5  C   UNL     1     138.521 140.435 135.880  1.00  0.00     0.008 C 
ATOM      6  C   UNL     1     138.055 141.711 135.153  1.00  0.00    -0.010 C 
ATOM      7  C   UNL     1     137.282 141.362 133.873  1.00  0.00     0.004 C 
ATOM      8  C   UNL     1     139.176 142.700 134.724  1.00  0.00     0.003 CG0
ATOM      9  C   UNL     1     137.743 142.355 132.823  1.00  0.00     0.008 C 
ATOM     10  G   UNL     1     140.579 142.367 135.299  1.00  0.00     0.000 G0
ENDBRANCH   2   4
ENDBRANCH   1   2
BRANCH   1  11
ATOM     11  C   UNL     1     141.311 144.739 134.447  1.00  0.00     0.009 C 
BRANCH  11  12
ATOM     12  C   UNL     1     141.675 143.442 135.195  1.00  0.00    -0.001 C 
ATOM     13  C   UNL     1     140.578 142.371 135.284  1.00  0.00     0.002 CG0
ATOM     14  C   UNL     1     141.078 143.064 136.564  1.00  0.00    -0.029 C 
ATOM     15  G   UNL     1     139.179 142.726 134.715  1.00  0.00     0.000 G0
ATOM     16  C   UNL     1     140.114 143.992 137.330  1.00  0.00     0.011 C 
ATOM     17  C   UNL     1     141.958 142.166 137.440  1.00  0.00     0.011 C 
ENDBRANCH  11  12
ENDBRANCH   1  11
TORSDOF 0
ENDMDL
MODEL 5
REMARK VINA RESULT:    -3.792      3.280      4.304
REMARK INTER + INTRA:          -3.327
REMARK INTER:                  -4.679
REMARK INTRA:                   1.352
REMARK UNBOUND:                 1.352
REMARK SMILES C=C1CC[C@@H]2[C@H]([C@@H]3[C@H](C)CC[C@@H]13)C2(C)C
REMARK SMILES IDX 3 1 2 2 1 3 12 4 9 5 8 6 10 7 7 8 11 9 4 11 5 12 6 13 13 14
REMARK SMILES IDX 14 16 15 17
REMARK H PARENT
REMARK Flexibility Score: 80.00
ROOT
ATOM      1  C   UNL     1     143.442 139.271 133.623  1.00  0.00     0.031 C 
ENDROOT
BRANCH   1   2
ATOM      2  C   UNL     1     143.864 140.728 133.767  1.00  0.00    -0.074 C 
ATOM      3  C   UNL     1     145.188 141.000 133.739  1.00  0.00     0.008 C 
BRANCH   2   4
ATOM      4  C   UNL     1     142.816 141.846 133.632  1.00  0.00     0.018 C 
ATOM      5  C   UNL     1     139.662 143.392 134.281  1.00  0.00     0.008 C 
ATOM      6  C   UNL     1     141.081 143.136 134.826  1.00  0.00    -0.010 C 
ATOM      7  C   UNL     1     142.096 144.092 134.185  1.00  0.00     0.004 C 
ATOM      8  C   UNL     1     141.644 141.702 134.614  1.00  0.00     0.003 CG0
ATOM      9  C   UNL     1     143.333 143.261 133.905  1.00  0.00     0.008 C 
ATOM     10  G   UNL     1     140.604 140.675 134.093  1.00  0.00     0.000 G0
ENDBRANCH   2   4
ENDBRANCH   1   2
BRANCH   1  11
ATOM     11  C   UNL     1     142.394 138.833 134.654  1.00  0.00     0.009 C 
BRANCH  11  12
ATOM     12  C   UNL     1     140.973 139.168 134.159  1.00  0.00    -0.001 C 
ATOM     13  C   UNL     1     140.605 140.657 134.086  1.00  0.00     0.002 CG0
ATOM     14  C   UNL     1     139.873 139.734 135.076  1.00  0.00    -0.029 C 
ATOM     15  G   UNL     1     141.644 141.681 134.616  1.00  0.00     0.000 G0
ATOM     16  C   UNL     1     140.087 139.948 136.588  1.00  0.00     0.011 C 
ATOM     17  C   UNL     1     138.435 139.409 134.656  1.00  0.00     0.011 C 
ENDBRANCH  11  12
ENDBRANCH   1  11
TORSDOF 0
ENDMDL
MODEL 6
REMARK VINA RESULT:    -3.775      4.718      6.799
REMARK INTER + INTRA:          -3.306
REMARK INTER:                  -4.678
REMARK INTRA:                   1.373
REMARK UNBOUND:                 1.352
REMARK SMILES C=C1CC[C@@H]2[C@H]([C@@H]3[C@H](C)CC[C@@H]13)C2(C)C
REMARK SMILES IDX 3 1 2 2 1 3 12 4 9 5 8 6 10 7 7 8 11 9 4 11 5 12 6 13 13 14
REMARK SMILES IDX 14 16 15 17
REMARK H PARENT
REMARK Flexibility Score: 80.00
ROOT
ATOM      1  C   UNL     1     141.592 144.790 133.371  1.00  0.00     0.031 C 
ENDROOT
BRANCH   1   2
ATOM      2  C   UNL     1     142.497 143.790 132.662  1.00  0.00    -0.074 C 
ATOM      3  C   UNL     1     142.534 143.831 131.311  1.00  0.00     0.008 C 
BRANCH   2   4
ATOM      4  C   UNL     1     143.541 142.998 133.466  1.00  0.00     0.018 C 
ATOM      5  C   UNL     1     144.657 141.038 136.235  1.00  0.00     0.008 C 
ATOM      6  C   UNL     1     143.907 141.013 134.890  1.00  0.00    -0.010 C 
ATOM      7  C   UNL     1     144.893 141.003 133.713  1.00  0.00     0.004 C 
ATOM      8  C   UNL     1     142.935 142.198 134.629  1.00  0.00     0.003 CG0
ATOM      9  C   UNL     1     144.309 141.938 132.671  1.00  0.00     0.008 C 
ATOM     10  G   UNL     1     142.688 143.108 135.862  1.00  0.00     0.000 G0
ENDBRANCH   2   4
ENDBRANCH   1   2
BRANCH   1  11
ATOM     11  C   UNL     1     140.728 144.160 134.472  1.00  0.00     0.009 C 
BRANCH  11  12
ATOM     12  C   UNL     1     141.505 144.096 135.801  1.00  0.00    -0.001 C 
ATOM     13  C   UNL     1     142.679 143.108 135.862  1.00  0.00     0.002 CG0
ATOM     14  C   UNL     1     141.444 142.887 136.754  1.00  0.00    -0.029 C 
ATOM     15  G   UNL     1     142.912 142.191 134.632  1.00  0.00     0.000 G0
ATOM     16  C   UNL     1     140.543 141.666 136.484  1.00  0.00     0.011 C 
ATOM     17  C   UNL     1     141.697 143.203 138.232  1.00  0.00     0.011 C 
ENDBRANCH  11  12
ENDBRANCH   1  11
TORSDOF 0
ENDMDL
MODEL 7
REMARK VINA RESULT:    -3.774      3.143      5.049
REMARK INTER + INTRA:          -3.304
REMARK INTER:                  -4.680
REMARK INTRA:                   1.376
REMARK UNBOUND:                 1.352
REMARK SMILES C=C1CC[C@@H]2[C@H]([C@@H]3[C@H](C)CC[C@@H]13)C2(C)C
REMARK SMILES IDX 3 1 2 2 1 3 12 4 9 5 8 6 10 7 7 8 11 9 4 11 5 12 6 13 13 14
REMARK SMILES IDX 14 16 15 17
REMARK H PARENT
REMARK Flexibility Score: 80.00
ROOT
ATOM      1  C   UNL     1     139.691 143.601 134.390  1.00  0.00     0.031 C 
ENDROOT
BRANCH   1   2
ATOM      2  C   UNL     1     141.128 143.798 133.925  1.00  0.00    -0.074 C 
ATOM      3  C   UNL     1     141.488 145.037 133.518  1.00  0.00     0.008 C 
BRANCH   2   4
ATOM      4  C   UNL     1     142.182 142.714 134.209  1.00  0.00     0.018 C 
ATOM      5  C   UNL     1     143.382 139.353 134.333  1.00  0.00     0.008 C 
ATOM      6  C   UNL     1     143.130 140.572 133.425  1.00  0.00    -0.010 C 
ATOM      7  C   UNL     1     144.247 141.613 133.584  1.00  0.00     0.004 C 
ATOM      8  C   UNL     1     141.794 141.332 133.661  1.00  0.00     0.003 CG0
ATOM      9  C   UNL     1     143.559 142.965 133.591  1.00  0.00     0.008 C 
ATOM     10  G   UNL     1     140.806 140.611 134.615  1.00  0.00     0.000 G0
ENDBRANCH   2   4
ENDBRANCH   1   2
BRANCH   1  11
ATOM     11  C   UNL     1     139.022 142.353 133.798  1.00  0.00     0.009 C 
BRANCH  11  12
ATOM     12  C   UNL     1     139.341 141.111 134.653  1.00  0.00    -0.001 C 
ATOM     13  C   UNL     1     140.794 140.612 134.623  1.00  0.00     0.002 CG0
ATOM     14  C   UNL     1     139.669 139.733 134.046  1.00  0.00    -0.029 C 
ATOM     15  G   UNL     1     141.779 141.327 133.661  1.00  0.00     0.000 G0
ATOM     16  C   UNL     1     139.638 139.470 132.528  1.00  0.00     0.011 C 
ATOM     17  C   UNL     1     139.325 138.528 134.928  1.00  0.00     0.011 C 
ENDBRANCH  11  12
ENDBRANCH   1  11
TORSDOF 0
ENDMDL
MODEL 8
REMARK VINA RESULT:    -3.746      3.228      4.180
REMARK INTER + INTRA:          -3.270
REMARK INTER:                  -4.670
REMARK INTRA:                   1.399
REMARK UNBOUND:                 1.352
REMARK SMILES C=C1CC[C@@H]2[C@H]([C@@H]3[C@H](C)CC[C@@H]13)C2(C)C
REMARK SMILES IDX 3 1 2 2 1 3 12 4 9 5 8 6 10 7 7 8 11 9 4 11 5 12 6 13 13 14
REMARK SMILES IDX 14 16 15 17
REMARK H PARENT
REMARK Flexibility Score: 80.00
ROOT
ATOM      1  C   UNL     1     144.758 141.132 134.576  1.00  0.00     0.031 C 
ENDROOT
BRANCH   1   2
ATOM      2  C   UNL     1     144.160 140.460 135.806  1.00  0.00    -0.074 C 
ATOM      3  C   UNL     1     144.841 140.568 136.969  1.00  0.00     0.008 C 
BRANCH   2   4
ATOM      4  C   UNL     1     142.706 139.960 135.776  1.00  0.00     0.018 C 
ATOM      5  C   UNL     1     139.912 138.284 134.313  1.00  0.00     0.008 C 
ATOM      6  C   UNL     1     141.227 138.103 135.096  1.00  0.00    -0.010 C 
ATOM      7  C   UNL     1     141.026 138.414 136.585  1.00  0.00     0.004 C 
ATOM      8  C   UNL     1     142.424 138.978 134.628  1.00  0.00     0.003 CG0
ATOM      9  C   UNL     1     142.255 139.189 137.019  1.00  0.00     0.008 C 
ATOM     10  G   UNL     1     142.184 139.735 133.295  1.00  0.00     0.000 G0
ENDBRANCH   2   4
ENDBRANCH   1   2
BRANCH   1  11
ATOM     11  C   UNL     1     144.744 140.242 133.326  1.00  0.00     0.009 C 
BRANCH  11  12
ATOM     12  C   UNL     1     143.395 140.360 132.591  1.00  0.00    -0.001 C 
ATOM     13  C   UNL     1     142.176 139.743 133.292  1.00  0.00     0.002 CG0
ATOM     14  C   UNL     1     142.672 139.156 131.959  1.00  0.00    -0.029 C 
ATOM     15  G   UNL     1     142.423 138.966 134.612  1.00  0.00     0.000 G0
ATOM     16  C   UNL     1     143.278 137.739 131.952  1.00  0.00     0.011 C 
ATOM     17  C   UNL     1     141.761 139.486 130.771  1.00  0.00     0.011 C 
ENDBRANCH  11  12
ENDBRANCH   1  11
TORSDOF 0
ENDMDL
MODEL 9
REMARK VINA RESULT:    -3.728      1.575      4.600
REMARK INTER + INTRA:          -3.248
REMARK INTER:                  -4.644
REMARK INTRA:                   1.396
REMARK UNBOUND:                 1.352
REMARK SMILES C=C1CC[C@@H]2[C@H]([C@@H]3[C@H](C)CC[C@@H]13)C2(C)C
REMARK SMILES IDX 3 1 2 2 1 3 12 4 9 5 8 6 10 7 7 8 11 9 4 11 5 12 6 13 13 14
REMARK SMILES IDX 14 16 15 17
REMARK H PARENT
REMARK Flexibility Score: 80.00
ROOT
ATOM      1  C   UNL     1     138.010 141.183 132.433  1.00  0.00     0.031 C 
ENDROOT
BRANCH   1   2
ATOM      2  C   UNL     1     138.497 139.751 132.614  1.00  0.00    -0.074 C 
ATOM      3  C   UNL     1     138.124 138.843 131.683  1.00  0.00     0.008 C 
BRANCH   2   4
ATOM      4  C   UNL     1     139.609 139.441 133.630  1.00  0.00     0.018 C 
ATOM      5  C   UNL     1     141.220 139.687 136.808  1.00  0.00     0.008 C 
ATOM      6  C   UNL     1     140.098 138.995 136.010  1.00  0.00    -0.010 C 
ATOM      7  C   UNL     1     140.663 137.865 135.138  1.00  0.00     0.004 C 
ATOM      8  C   UNL     1     139.278 139.909 135.055  1.00  0.00     0.003 CG0
ATOM      9  C   UNL     1     139.932 137.956 133.812  1.00  0.00     0.008 C 
ATOM     10  G   UNL     1     139.558 141.426 135.222  1.00  0.00     0.000 G0
ENDBRANCH   2   4
ENDBRANCH   1   2
BRANCH   1  11
ATOM     11  C   UNL     1     137.454 141.806 133.721  1.00  0.00     0.009 C 
BRANCH  11  12
ATOM     12  C   UNL     1     138.591 142.419 134.561  1.00  0.00    -0.001 C 
ATOM     13  C   UNL     1     139.569 141.432 135.216  1.00  0.00     0.002 CG0
ATOM     14  C   UNL     1     138.658 142.307 136.096  1.00  0.00    -0.029 C 
ATOM     15  G   UNL     1     139.268 139.918 135.067  1.00  0.00     0.000 G0
ATOM     16  C   UNL     1     137.550 141.626 136.924  1.00  0.00     0.011 C 
ATOM     17  C   UNL     1     139.404 143.441 136.806  1.00  0.00     0.011 C 
ENDBRANCH  11  12
ENDBRANCH   1  11
TORSDOF 0
ENDMDL
