MODEL 1
REMARK VINA RESULT:    -4.311      0.000      0.000
REMARK INTER + INTRA:          -9.886
REMARK INTER:                  -8.091
REMARK INTRA:                  -1.795
REMARK UNBOUND:                -1.795
REMARK SMILES CCCCCCCCC=CCCCCCCCC(=O)[O-]
REMARK SMILES IDX 10 1 9 2 11 3 12 4 13 5 14 6 15 7 16 8 17 9 18 10 19 11
REMARK SMILES IDX 20 12 8 13 7 14 6 15 5 16 4 17 3 18 2 19 1 20
REMARK H PARENT
REMARK Flexibility Score: inf
ROOT
ATOM      1  C   UNL     1      40.179  23.894 222.971  1.00  0.00    -0.031 C 
ATOM      2  C   UNL     1      39.438  24.612 223.837  1.00  0.00    -0.031 C 
ENDROOT
BRANCH   1   3
ATOM      3  C   UNL     1      40.626  22.472 223.200  1.00  0.00     0.027 C 
BRANCH   3   4
ATOM      4  C   UNL     1      41.803  22.421 224.180  1.00  0.00     0.004 C 
BRANCH   4   5
ATOM      5  C   UNL     1      41.696  21.202 225.103  1.00  0.00     0.000 C 
BRANCH   5   6
ATOM      6  C   UNL     1      40.284  20.601 225.063  1.00  0.00     0.000 C 
BRANCH   6   7
ATOM      7  C   UNL     1      40.288  19.068 225.183  1.00  0.00     0.000 C 
BRANCH   7   8
ATOM      8  C   UNL     1      38.923  18.504 225.602  1.00  0.00     0.006 C 
BRANCH   8   9
ATOM      9  C   UNL     1      37.943  19.632 225.943  1.00  0.00     0.053 C 
BRANCH   9  10
ATOM     10  C   UNL     1      36.537  19.120 225.935  1.00  0.00     0.041 C 
ATOM     11  O   UNL     1      36.079  18.547 224.912  1.00  0.00    -0.550 OA
ATOM     12  O   UNL     1      35.754  19.218 227.077  1.00  0.00    -0.550 OA
ENDBRANCH   9  10
ENDBRANCH   8   9
ENDBRANCH   7   8
ENDBRANCH   6   7
ENDBRANCH   5   6
ENDBRANCH   4   5
ENDBRANCH   3   4
ENDBRANCH   1   3
BRANCH   2  13
ATOM     13  C   UNL     1      39.012  24.138 225.205  1.00  0.00     0.027 C 
BRANCH  13  14
ATOM     14  C   UNL     1      37.490  23.955 225.300  1.00  0.00     0.004 C 
BRANCH  14  15
ATOM     15  C   UNL     1      36.888  23.404 223.996  1.00  0.00     0.000 C 
BRANCH  15  16
ATOM     16  C   UNL     1      35.943  24.404 223.313  1.00  0.00     0.000 C 
BRANCH  16  17
ATOM     17  C   UNL     1      35.810  24.155 221.800  1.00  0.00    -0.000 C 
BRANCH  17  18
ATOM     18  C   UNL     1      37.018  23.407 221.217  1.00  0.00    -0.000 C 
BRANCH  18  19
ATOM     19  C   UNL     1      37.125  23.554 219.692  1.00  0.00    -0.003 C 
ATOM     20  C   UNL     1      36.027  24.463 219.147  1.00  0.00     0.004 C 
ENDBRANCH  18  19
ENDBRANCH  17  18
ENDBRANCH  16  17
ENDBRANCH  15  16
ENDBRANCH  14  15
ENDBRANCH  13  14
ENDBRANCH   2  13
TORSDOF 15
ENDMDL
MODEL 2
REMARK VINA RESULT:    -4.214      2.727      6.279
REMARK INTER + INTRA:          -9.703
REMARK INTER:                  -7.722
REMARK INTRA:                  -1.981
REMARK UNBOUND:                -1.795
REMARK SMILES CCCCCCCCC=CCCCCCCCC(=O)[O-]
REMARK SMILES IDX 10 1 9 2 11 3 12 4 13 5 14 6 15 7 16 8 17 9 18 10 19 11
REMARK SMILES IDX 20 12 8 13 7 14 6 15 5 16 4 17 3 18 2 19 1 20
REMARK H PARENT
REMARK Flexibility Score: inf
ROOT
ATOM      1  C   UNL     1      41.139  22.460 224.810  1.00  0.00    -0.031 C 
ATOM      2  C   UNL     1      40.425  21.707 225.669  1.00  0.00    -0.031 C 
ENDROOT
BRANCH   1   3
ATOM      3  C   UNL     1      41.114  22.304 223.311  1.00  0.00     0.027 C 
BRANCH   3   4
ATOM      4  C   UNL     1      40.105  23.269 222.679  1.00  0.00     0.004 C 
BRANCH   4   5
ATOM      5  C   UNL     1      39.790  24.432 223.627  1.00  0.00     0.000 C 
BRANCH   5   6
ATOM      6  C   UNL     1      38.275  24.658 223.739  1.00  0.00     0.000 C 
BRANCH   6   7
ATOM      7  C   UNL     1      37.494  23.347 223.930  1.00  0.00     0.000 C 
BRANCH   7   8
ATOM      8  C   UNL     1      36.531  23.058 222.769  1.00  0.00     0.006 C 
BRANCH   8   9
ATOM      9  C   UNL     1      36.277  24.320 221.938  1.00  0.00     0.053 C 
BRANCH   9  10
ATOM     10  C   UNL     1      36.313  23.998 220.478  1.00  0.00     0.041 C 
ATOM     11  O   UNL     1      35.289  24.171 219.766  1.00  0.00    -0.550 OA
ATOM     12  O   UNL     1      37.495  23.570 219.888  1.00  0.00    -0.550 OA
ENDBRANCH   9  10
ENDBRANCH   8   9
ENDBRANCH   7   8
ENDBRANCH   6   7
ENDBRANCH   5   6
ENDBRANCH   4   5
ENDBRANCH   3   4
ENDBRANCH   1   3
BRANCH   2  13
ATOM     13  C   UNL     1      39.559  20.536 225.274  1.00  0.00     0.027 C 
BRANCH  13  14
ATOM     14  C   UNL     1      40.384  19.257 225.066  1.00  0.00     0.004 C 
BRANCH  14  15
ATOM     15  C   UNL     1      40.015  18.156 226.076  1.00  0.00     0.000 C 
BRANCH  15  16
ATOM     16  C   UNL     1      39.205  18.694 227.266  1.00  0.00     0.000 C 
BRANCH  16  17
ATOM     17  C   UNL     1      38.257  17.638 227.862  1.00  0.00    -0.000 C 
BRANCH  17  18
ATOM     18  C   UNL     1      36.868  17.655 227.208  1.00  0.00    -0.000 C 
BRANCH  18  19
ATOM     19  C   UNL     1      36.437  19.062 226.769  1.00  0.00    -0.003 C 
ATOM     20  C   UNL     1      36.087  19.094 225.284  1.00  0.00     0.004 C 
ENDBRANCH  18  19
ENDBRANCH  17  18
ENDBRANCH  16  17
ENDBRANCH  15  16
ENDBRANCH  14  15
ENDBRANCH  13  14
ENDBRANCH   2  13
TORSDOF 15
ENDMDL
MODEL 3
REMARK VINA RESULT:    -4.201      2.589      6.090
REMARK INTER + INTRA:          -9.680
REMARK INTER:                  -6.983
REMARK INTRA:                  -2.697
REMARK UNBOUND:                -1.795
REMARK SMILES CCCCCCCCC=CCCCCCCCC(=O)[O-]
REMARK SMILES IDX 10 1 9 2 11 3 12 4 13 5 14 6 15 7 16 8 17 9 18 10 19 11
REMARK SMILES IDX 20 12 8 13 7 14 6 15 5 16 4 17 3 18 2 19 1 20
REMARK H PARENT
REMARK Flexibility Score: inf
ROOT
ATOM      1  C   UNL     1      40.189  19.288 224.993  1.00  0.00    -0.031 C 
ATOM      2  C   UNL     1      39.320  20.165 225.529  1.00  0.00    -0.031 C 
ENDROOT
BRANCH   1   3
ATOM      3  C   UNL     1      41.582  19.037 225.511  1.00  0.00     0.027 C 
BRANCH   3   4
ATOM      4  C   UNL     1      42.633  19.591 224.543  1.00  0.00     0.004 C 
BRANCH   4   5
ATOM      5  C   UNL     1      42.006  19.925 223.184  1.00  0.00     0.000 C 
BRANCH   5   6
ATOM      6  C   UNL     1      42.377  21.347 222.740  1.00  0.00     0.000 C 
BRANCH   6   7
ATOM      7  C   UNL     1      41.644  22.431 223.547  1.00  0.00     0.000 C 
BRANCH   7   8
ATOM      8  C   UNL     1      40.343  22.892 222.874  1.00  0.00     0.006 C 
BRANCH   8   9
ATOM      9  C   UNL     1      39.411  23.570 223.884  1.00  0.00     0.053 C 
BRANCH   9  10
ATOM     10  C   UNL     1      38.004  23.568 223.377  1.00  0.00     0.041 C 
ATOM     11  O   UNL     1      37.040  23.637 224.184  1.00  0.00    -0.550 OA
ATOM     12  O   UNL     1      37.756  23.557 222.011  1.00  0.00    -0.550 OA
ENDBRANCH   9  10
ENDBRANCH   8   9
ENDBRANCH   7   8
ENDBRANCH   6   7
ENDBRANCH   5   6
ENDBRANCH   4   5
ENDBRANCH   3   4
ENDBRANCH   1   3
BRANCH   2  13
ATOM     13  C   UNL     1      39.632  21.095 226.676  1.00  0.00     0.027 C 
BRANCH  13  14
ATOM     14  C   UNL     1      38.919  20.671 227.969  1.00  0.00     0.004 C 
BRANCH  14  15
ATOM     15  C   UNL     1      39.718  19.617 228.755  1.00  0.00     0.000 C 
BRANCH  15  16
ATOM     16  C   UNL     1      38.855  18.420 229.185  1.00  0.00     0.000 C 
BRANCH  16  17
ATOM     17  C   UNL     1      38.491  17.500 228.006  1.00  0.00    -0.000 C 
BRANCH  17  18
ATOM     18  C   UNL     1      36.979  17.449 227.741  1.00  0.00    -0.000 C 
BRANCH  18  19
ATOM     19  C   UNL     1      36.614  17.878 226.313  1.00  0.00    -0.003 C 
ATOM     20  C   UNL     1      35.680  19.084 226.321  1.00  0.00     0.004 C 
ENDBRANCH  18  19
ENDBRANCH  17  18
ENDBRANCH  16  17
ENDBRANCH  15  16
ENDBRANCH  14  15
ENDBRANCH  13  14
ENDBRANCH   2  13
TORSDOF 15
ENDMDL
MODEL 4
REMARK VINA RESULT:    -4.125      2.065      3.612
REMARK INTER + INTRA:          -9.538
REMARK INTER:                  -6.432
REMARK INTRA:                  -3.106
REMARK UNBOUND:                -1.795
REMARK SMILES CCCCCCCCC=CCCCCCCCC(=O)[O-]
REMARK SMILES IDX 10 1 9 2 11 3 12 4 13 5 14 6 15 7 16 8 17 9 18 10 19 11
REMARK SMILES IDX 20 12 8 13 7 14 6 15 5 16 4 17 3 18 2 19 1 20
REMARK H PARENT
REMARK Flexibility Score: inf
ROOT
ATOM      1  C   UNL     1      40.992  23.871 223.370  1.00  0.00    -0.031 C 
ATOM      2  C   UNL     1      39.764  24.257 222.973  1.00  0.00    -0.031 C 
ENDROOT
BRANCH   1   3
ATOM      3  C   UNL     1      41.418  22.438 223.563  1.00  0.00     0.027 C 
BRANCH   3   4
ATOM      4  C   UNL     1      41.616  22.123 225.050  1.00  0.00     0.004 C 
BRANCH   4   5
ATOM      5  C   UNL     1      41.821  20.620 225.272  1.00  0.00     0.000 C 
BRANCH   5   6
ATOM      6  C   UNL     1      40.775  19.801 224.502  1.00  0.00     0.000 C 
BRANCH   6   7
ATOM      7  C   UNL     1      40.308  18.558 225.276  1.00  0.00     0.000 C 
BRANCH   7   8
ATOM      8  C   UNL     1      39.672  18.907 226.629  1.00  0.00     0.006 C 
BRANCH   8   9
ATOM      9  C   UNL     1      38.162  18.645 226.611  1.00  0.00     0.053 C 
BRANCH   9  10
ATOM     10  C   UNL     1      37.731  17.998 227.889  1.00  0.00     0.041 C 
ATOM     11  O   UNL     1      38.140  18.442 228.993  1.00  0.00    -0.550 OA
ATOM     12  O   UNL     1      36.825  16.945 227.865  1.00  0.00    -0.550 OA
ENDBRANCH   9  10
ENDBRANCH   8   9
ENDBRANCH   7   8
ENDBRANCH   6   7
ENDBRANCH   5   6
ENDBRANCH   4   5
ENDBRANCH   3   4
ENDBRANCH   1   3
BRANCH   2  13
ATOM     13  C   UNL     1      38.600  23.324 222.745  1.00  0.00     0.027 C 
BRANCH  13  14
ATOM     14  C   UNL     1      37.645  23.293 223.947  1.00  0.00     0.004 C 
BRANCH  14  15
ATOM     15  C   UNL     1      37.836  22.032 224.809  1.00  0.00     0.000 C 
BRANCH  15  16
ATOM     16  C   UNL     1      38.140  22.362 226.278  1.00  0.00     0.000 C 
BRANCH  16  17
ATOM     17  C   UNL     1      38.221  23.876 226.541  1.00  0.00    -0.000 C 
BRANCH  17  18
ATOM     18  C   UNL     1      39.569  24.299 227.145  1.00  0.00    -0.000 C 
BRANCH  18  19
ATOM     19  C   UNL     1      40.128  25.579 226.507  1.00  0.00    -0.003 C 
ATOM     20  C   UNL     1      39.024  26.383 225.827  1.00  0.00     0.004 C 
ENDBRANCH  18  19
ENDBRANCH  17  18
ENDBRANCH  16  17
ENDBRANCH  15  16
ENDBRANCH  14  15
ENDBRANCH  13  14
ENDBRANCH   2  13
TORSDOF 15
ENDMDL
MODEL 5
REMARK VINA RESULT:    -4.112      1.917      3.071
REMARK INTER + INTRA:          -9.513
REMARK INTER:                  -7.565
REMARK INTRA:                  -1.948
REMARK UNBOUND:                -1.795
REMARK SMILES CCCCCCCCC=CCCCCCCCC(=O)[O-]
REMARK SMILES IDX 10 1 9 2 11 3 12 4 13 5 14 6 15 7 16 8 17 9 18 10 19 11
REMARK SMILES IDX 20 12 8 13 7 14 6 15 5 16 4 17 3 18 2 19 1 20
REMARK H PARENT
REMARK Flexibility Score: inf
ROOT
ATOM      1  C   UNL     1      42.155  19.973 223.239  1.00  0.00    -0.031 C 
ATOM      2  C   UNL     1      42.402  21.264 222.949  1.00  0.00    -0.031 C 
ENDROOT
BRANCH   1   3
ATOM      3  C   UNL     1      41.042  19.495 224.138  1.00  0.00     0.027 C 
BRANCH   3   4
ATOM      4  C   UNL     1      41.437  19.630 225.613  1.00  0.00     0.004 C 
BRANCH   4   5
ATOM      5  C   UNL     1      40.386  20.428 226.393  1.00  0.00     0.000 C 
BRANCH   5   6
ATOM      6  C   UNL     1      39.146  20.699 225.528  1.00  0.00     0.000 C 
BRANCH   6   7
ATOM      7  C   UNL     1      37.882  20.012 226.071  1.00  0.00     0.000 C 
BRANCH   7   8
ATOM      8  C   UNL     1      37.874  18.498 225.812  1.00  0.00     0.006 C 
BRANCH   8   9
ATOM      9  C   UNL     1      37.704  17.717 227.120  1.00  0.00     0.053 C 
BRANCH   9  10
ATOM     10  C   UNL     1      39.012  17.136 227.554  1.00  0.00     0.041 C 
ATOM     11  O   UNL     1      39.843  16.737 226.696  1.00  0.00    -0.550 OA
ATOM     12  O   UNL     1      39.343  17.095 228.902  1.00  0.00    -0.550 OA
ENDBRANCH   9  10
ENDBRANCH   8   9
ENDBRANCH   7   8
ENDBRANCH   6   7
ENDBRANCH   5   6
ENDBRANCH   4   5
ENDBRANCH   3   4
ENDBRANCH   1   3
BRANCH   2  13
ATOM     13  C   UNL     1      41.663  22.438 223.545  1.00  0.00     0.027 C 
BRANCH  13  14
ATOM     14  C   UNL     1      40.470  22.864 222.677  1.00  0.00     0.004 C 
BRANCH  14  15
ATOM     15  C   UNL     1      39.987  24.286 223.011  1.00  0.00     0.000 C 
BRANCH  15  16
ATOM     16  C   UNL     1      38.535  24.315 223.515  1.00  0.00     0.000 C 
BRANCH  16  17
ATOM     17  C   UNL     1      37.701  23.138 222.980  1.00  0.00    -0.000 C 
BRANCH  17  18
ATOM     18  C   UNL     1      36.675  23.573 221.922  1.00  0.00    -0.000 C 
BRANCH  18  19
ATOM     19  C   UNL     1      37.245  23.540 220.497  1.00  0.00    -0.003 C 
ATOM     20  C   UNL     1      36.305  24.230 219.511  1.00  0.00     0.004 C 
ENDBRANCH  18  19
ENDBRANCH  17  18
ENDBRANCH  16  17
ENDBRANCH  15  16
ENDBRANCH  14  15
ENDBRANCH  13  14
ENDBRANCH   2  13
TORSDOF 15
ENDMDL
MODEL 6
REMARK VINA RESULT:    -4.105      1.711      2.023
REMARK INTER + INTRA:          -9.499
REMARK INTER:                  -7.829
REMARK INTRA:                  -1.670
REMARK UNBOUND:                -1.795
REMARK SMILES CCCCCCCCC=CCCCCCCCC(=O)[O-]
REMARK SMILES IDX 10 1 9 2 11 3 12 4 13 5 14 6 15 7 16 8 17 9 18 10 19 11
REMARK SMILES IDX 20 12 8 13 7 14 6 15 5 16 4 17 3 18 2 19 1 20
REMARK H PARENT
REMARK Flexibility Score: inf
ROOT
ATOM      1  C   UNL     1      41.370  24.333 224.853  1.00  0.00    -0.031 C 
ATOM      2  C   UNL     1      40.504  25.065 225.580  1.00  0.00    -0.031 C 
ENDROOT
BRANCH   1   3
ATOM      3  C   UNL     1      40.978  23.416 223.722  1.00  0.00     0.027 C 
BRANCH   3   4
ATOM      4  C   UNL     1      41.006  21.952 224.172  1.00  0.00     0.004 C 
BRANCH   4   5
ATOM      5  C   UNL     1      39.625  21.500 224.660  1.00  0.00     0.000 C 
BRANCH   5   6
ATOM      6  C   UNL     1      39.733  20.722 225.979  1.00  0.00     0.000 C 
BRANCH   6   7
ATOM      7  C   UNL     1      39.649  19.200 225.779  1.00  0.00     0.000 C 
BRANCH   7   8
ATOM      8  C   UNL     1      38.214  18.666 225.892  1.00  0.00     0.006 C 
BRANCH   8   9
ATOM      9  C   UNL     1      37.578  19.080 227.224  1.00  0.00     0.053 C 
BRANCH   9  10
ATOM     10  C   UNL     1      37.981  18.133 228.310  1.00  0.00     0.041 C 
ATOM     11  O   UNL     1      37.886  16.890 228.133  1.00  0.00    -0.550 OA
ATOM     12  O   UNL     1      38.522  18.619 229.493  1.00  0.00    -0.550 OA
ENDBRANCH   9  10
ENDBRANCH   8   9
ENDBRANCH   7   8
ENDBRANCH   6   7
ENDBRANCH   5   6
ENDBRANCH   4   5
ENDBRANCH   3   4
ENDBRANCH   1   3
BRANCH   2  13
ATOM     13  C   UNL     1      39.003  25.017 225.435  1.00  0.00     0.027 C 
BRANCH  13  14
ATOM     14  C   UNL     1      38.489  26.061 224.432  1.00  0.00     0.004 C 
BRANCH  14  15
ATOM     15  C   UNL     1      37.224  25.588 223.696  1.00  0.00     0.000 C 
BRANCH  15  16
ATOM     16  C   UNL     1      37.234  24.078 223.414  1.00  0.00     0.000 C 
BRANCH  16  17
ATOM     17  C   UNL     1      37.083  23.755 221.917  1.00  0.00    -0.000 C 
BRANCH  17  18
ATOM     18  C   UNL     1      35.693  24.117 221.372  1.00  0.00    -0.000 C 
BRANCH  18  19
ATOM     19  C   UNL     1      35.660  24.194 219.838  1.00  0.00    -0.003 C 
ATOM     20  C   UNL     1      36.935  23.617 219.230  1.00  0.00     0.004 C 
ENDBRANCH  18  19
ENDBRANCH  17  18
ENDBRANCH  16  17
ENDBRANCH  15  16
ENDBRANCH  14  15
ENDBRANCH  13  14
ENDBRANCH   2  13
TORSDOF 15
ENDMDL
MODEL 7
REMARK VINA RESULT:    -4.100      2.628      6.268
REMARK INTER + INTRA:          -9.491
REMARK INTER:                  -6.576
REMARK INTRA:                  -2.914
REMARK UNBOUND:                -1.795
REMARK SMILES CCCCCCCCC=CCCCCCCCC(=O)[O-]
REMARK SMILES IDX 10 1 9 2 11 3 12 4 13 5 14 6 15 7 16 8 17 9 18 10 19 11
REMARK SMILES IDX 20 12 8 13 7 14 6 15 5 16 4 17 3 18 2 19 1 20
REMARK H PARENT
REMARK Flexibility Score: inf
ROOT
ATOM      1  C   UNL     1      40.152  21.684 225.986  1.00  0.00    -0.031 C 
ATOM      2  C   UNL     1      38.821  21.848 226.105  1.00  0.00    -0.031 C 
ENDROOT
BRANCH   1   3
ATOM      3  C   UNL     1      40.818  20.789 224.972  1.00  0.00     0.027 C 
BRANCH   3   4
ATOM      4  C   UNL     1      41.222  21.583 223.724  1.00  0.00     0.004 C 
BRANCH   4   5
ATOM      5  C   UNL     1      41.586  23.027 224.087  1.00  0.00     0.000 C 
BRANCH   5   6
ATOM      6  C   UNL     1      40.680  24.026 223.353  1.00  0.00     0.000 C 
BRANCH   6   7
ATOM      7  C   UNL     1      39.683  23.337 222.406  1.00  0.00     0.000 C 
BRANCH   7   8
ATOM      8  C   UNL     1      38.225  23.717 222.704  1.00  0.00     0.006 C 
BRANCH   8   9
ATOM      9  C   UNL     1      38.148  24.779 223.806  1.00  0.00     0.053 C 
BRANCH   9  10
ATOM     10  C   UNL     1      36.812  24.736 224.478  1.00  0.00     0.041 C 
ATOM     11  O   UNL     1      35.762  24.627 223.792  1.00  0.00    -0.550 OA
ATOM     12  O   UNL     1      36.729  24.751 225.864  1.00  0.00    -0.550 OA
ENDBRANCH   9  10
ENDBRANCH   8   9
ENDBRANCH   7   8
ENDBRANCH   6   7
ENDBRANCH   5   6
ENDBRANCH   4   5
ENDBRANCH   3   4
ENDBRANCH   1   3
BRANCH   2  13
ATOM     13  C   UNL     1      37.786  21.097 225.303  1.00  0.00     0.027 C 
BRANCH  13  14
ATOM     14  C   UNL     1      37.120  19.983 226.125  1.00  0.00     0.004 C 
BRANCH  14  15
ATOM     15  C   UNL     1      37.570  18.581 225.677  1.00  0.00     0.000 C 
BRANCH  15  16
ATOM     16  C   UNL     1      38.770  18.060 226.482  1.00  0.00     0.000 C 
BRANCH  16  17
ATOM     17  C   UNL     1      38.345  17.275 227.736  1.00  0.00    -0.000 C 
BRANCH  17  18
ATOM     18  C   UNL     1      38.680  18.017 229.039  1.00  0.00    -0.000 C 
BRANCH  18  19
ATOM     19  C   UNL     1      39.590  19.232 228.811  1.00  0.00    -0.003 C 
ATOM     20  C   UNL     1      39.021  20.480 229.481  1.00  0.00     0.004 C 
ENDBRANCH  18  19
ENDBRANCH  17  18
ENDBRANCH  16  17
ENDBRANCH  15  16
ENDBRANCH  14  15
ENDBRANCH  13  14
ENDBRANCH   2  13
TORSDOF 15
ENDMDL
MODEL 8
REMARK VINA RESULT:    -4.077      2.010      2.611
REMARK INTER + INTRA:          -9.447
REMARK INTER:                  -7.622
REMARK INTRA:                  -1.825
REMARK UNBOUND:                -1.795
REMARK SMILES CCCCCCCCC=CCCCCCCCC(=O)[O-]
REMARK SMILES IDX 10 1 9 2 11 3 12 4 13 5 14 6 15 7 16 8 17 9 18 10 19 11
REMARK SMILES IDX 20 12 8 13 7 14 6 15 5 16 4 17 3 18 2 19 1 20
REMARK H PARENT
REMARK Flexibility Score: inf
ROOT
ATOM      1  C   UNL     1      39.703  22.737 225.283  1.00  0.00    -0.031 C 
ATOM      2  C   UNL     1      38.935  23.459 226.120  1.00  0.00    -0.031 C 
ENDROOT
BRANCH   1   3
ATOM      3  C   UNL     1      39.451  22.587 223.804  1.00  0.00     0.027 C 
BRANCH   3   4
ATOM      4  C   UNL     1      40.677  23.024 222.995  1.00  0.00     0.004 C 
BRANCH   4   5
ATOM      5  C   UNL     1      41.954  22.369 223.534  1.00  0.00     0.000 C 
BRANCH   5   6
ATOM      6  C   UNL     1      42.432  21.245 222.604  1.00  0.00     0.000 C 
BRANCH   6   7
ATOM      7  C   UNL     1      42.576  19.896 223.329  1.00  0.00     0.000 C 
BRANCH   7   8
ATOM      8  C   UNL     1      41.311  19.504 224.106  1.00  0.00     0.006 C 
BRANCH   8   9
ATOM      9  C   UNL     1      41.593  19.423 225.610  1.00  0.00     0.053 C 
BRANCH   9  10
ATOM     10  C   UNL     1      40.438  18.794 226.323  1.00  0.00     0.041 C 
ATOM     11  O   UNL     1      39.794  19.448 227.184  1.00  0.00    -0.550 OA
ATOM     12  O   UNL     1      40.030  17.509 225.990  1.00  0.00    -0.550 OA
ENDBRANCH   9  10
ENDBRANCH   8   9
ENDBRANCH   7   8
ENDBRANCH   6   7
ENDBRANCH   5   6
ENDBRANCH   4   5
ENDBRANCH   3   4
ENDBRANCH   1   3
BRANCH   2  13
ATOM     13  C   UNL     1      37.656  24.158 225.729  1.00  0.00     0.027 C 
BRANCH  13  14
ATOM     14  C   UNL     1      37.923  25.418 224.892  1.00  0.00     0.004 C 
BRANCH  14  15
ATOM     15  C   UNL     1      37.126  25.422 223.576  1.00  0.00     0.000 C 
BRANCH  15  16
ATOM     16  C   UNL     1      35.988  24.390 223.571  1.00  0.00     0.000 C 
BRANCH  16  17
ATOM     17  C   UNL     1      36.252  23.222 222.605  1.00  0.00    -0.000 C 
BRANCH  17  18
ATOM     18  C   UNL     1      36.988  23.663 221.331  1.00  0.00    -0.000 C 
BRANCH  18  19
ATOM     19  C   UNL     1      36.046  24.288 220.291  1.00  0.00    -0.003 C 
ATOM     20  C   UNL     1      36.422  23.854 218.877  1.00  0.00     0.004 C 
ENDBRANCH  18  19
ENDBRANCH  17  18
ENDBRANCH  16  17
ENDBRANCH  15  16
ENDBRANCH  14  15
ENDBRANCH  13  14
ENDBRANCH   2  13
TORSDOF 15
ENDMDL
MODEL 9
REMARK VINA RESULT:    -4.067      2.387      5.946
REMARK INTER + INTRA:          -9.429
REMARK INTER:                  -6.810
REMARK INTRA:                  -2.619
REMARK UNBOUND:                -1.795
REMARK SMILES CCCCCCCCC=CCCCCCCCC(=O)[O-]
REMARK SMILES IDX 10 1 9 2 11 3 12 4 13 5 14 6 15 7 16 8 17 9 18 10 19 11
REMARK SMILES IDX 20 12 8 13 7 14 6 15 5 16 4 17 3 18 2 19 1 20
REMARK H PARENT
REMARK Flexibility Score: inf
ROOT
ATOM      1  C   UNL     1      39.867  20.977 224.886  1.00  0.00    -0.031 C 
ATOM      2  C   UNL     1      38.777  21.199 225.646  1.00  0.00    -0.031 C 
ENDROOT
BRANCH   1   3
ATOM      3  C   UNL     1      41.262  21.428 225.237  1.00  0.00     0.027 C 
BRANCH   3   4
ATOM      4  C   UNL     1      41.560  22.802 224.625  1.00  0.00     0.004 C 
BRANCH   4   5
ATOM      5  C   UNL     1      41.100  22.864 223.164  1.00  0.00     0.000 C 
BRANCH   5   6
ATOM      6  C   UNL     1      40.152  24.051 222.934  1.00  0.00     0.000 C 
BRANCH   6   7
ATOM      7  C   UNL     1      39.627  24.653 224.248  1.00  0.00     0.000 C 
BRANCH   7   8
ATOM      8  C   UNL     1      38.096  24.603 224.350  1.00  0.00     0.006 C 
BRANCH   8   9
ATOM      9  C   UNL     1      37.449  24.691 222.964  1.00  0.00     0.053 C 
BRANCH   9  10
ATOM     10  C   UNL     1      36.431  23.608 222.795  1.00  0.00     0.041 C 
ATOM     11  O   UNL     1      36.632  22.468 223.288  1.00  0.00    -0.550 OA
ATOM     12  O   UNL     1      35.230  23.875 222.149  1.00  0.00    -0.550 OA
ENDBRANCH   9  10
ENDBRANCH   8   9
ENDBRANCH   7   8
ENDBRANCH   6   7
ENDBRANCH   5   6
ENDBRANCH   4   5
ENDBRANCH   3   4
ENDBRANCH   1   3
BRANCH   2  13
ATOM     13  C   UNL     1      38.766  22.008 226.920  1.00  0.00     0.027 C 
BRANCH  13  14
ATOM     14  C   UNL     1      37.915  21.345 228.013  1.00  0.00     0.004 C 
BRANCH  14  15
ATOM     15  C   UNL     1      38.777  20.648 229.079  1.00  0.00     0.000 C 
BRANCH  15  16
ATOM     16  C   UNL     1      38.622  19.119 229.059  1.00  0.00     0.000 C 
BRANCH  16  17
ATOM     17  C   UNL     1      39.324  18.469 227.855  1.00  0.00    -0.000 C 
BRANCH  17  18
ATOM     18  C   UNL     1      38.420  17.477 227.108  1.00  0.00    -0.000 C 
BRANCH  18  19
ATOM     19  C   UNL     1      36.941  17.889 227.133  1.00  0.00    -0.003 C 
ATOM     20  C   UNL     1      36.478  18.363 225.758  1.00  0.00     0.004 C 
ENDBRANCH  18  19
ENDBRANCH  17  18
ENDBRANCH  16  17
ENDBRANCH  15  16
ENDBRANCH  14  15
ENDBRANCH  13  14
ENDBRANCH   2  13
TORSDOF 15
ENDMDL
