MODEL 1
REMARK VINA RESULT:    -3.401      0.000      0.000
REMARK INTER + INTRA:          -3.858
REMARK INTER:                  -3.798
REMARK INTRA:                  -0.060
REMARK UNBOUND:                -0.060
REMARK SMILES CCCC(=O)[O-]
REMARK SMILES IDX 3 1 4 2 5 3 6 4 2 5 1 6
REMARK H PARENT
REMARK Flexibility Score: inf
ROOT
ATOM      1  C   UNL     1     -54.749 120.637  -9.780  1.00  0.00     0.052 C 
ENDROOT
BRANCH   1   2
ATOM      2  C   UNL     1     -55.883 121.612  -9.689  1.00  0.00     0.041 C 
ATOM      3  O   UNL     1     -56.327 122.168 -10.727  1.00  0.00    -0.550 OA
ATOM      4  O   UNL     1     -56.472 121.880  -8.460  1.00  0.00    -0.550 OA
ENDBRANCH   1   2
BRANCH   1   5
ATOM      5  C   UNL     1     -53.600 121.011  -8.834  1.00  0.00     0.003 C 
ATOM      6  C   UNL     1     -53.081 122.427  -9.079  1.00  0.00     0.004 C 
ENDBRANCH   1   5
TORSDOF 2
ENDMDL
MODEL 2
REMARK VINA RESULT:    -3.370      0.116      1.326
REMARK INTER + INTRA:          -3.824
REMARK INTER:                  -3.758
REMARK INTRA:                  -0.065
REMARK UNBOUND:                -0.060
REMARK SMILES CCCC(=O)[O-]
REMARK SMILES IDX 3 1 4 2 5 3 6 4 2 5 1 6
REMARK H PARENT
REMARK Flexibility Score: inf
ROOT
ATOM      1  C   UNL     1     -54.788 120.651  -9.656  1.00  0.00     0.052 C 
ENDROOT
BRANCH   1   2
ATOM      2  C   UNL     1     -55.908 121.641  -9.555  1.00  0.00     0.041 C 
ATOM      3  O   UNL     1     -56.440 121.885  -8.441  1.00  0.00    -0.550 OA
ATOM      4  O   UNL     1     -56.342 122.319 -10.688  1.00  0.00    -0.550 OA
ENDBRANCH   1   2
BRANCH   1   5
ATOM      5  C   UNL     1     -53.581 121.070  -8.805  1.00  0.00     0.003 C 
ATOM      6  C   UNL     1     -53.050 122.451  -9.189  1.00  0.00     0.004 C 
ENDBRANCH   1   5
TORSDOF 2
ENDMDL
MODEL 3
REMARK VINA RESULT:    -3.297      1.943      2.364
REMARK INTER + INTRA:          -3.742
REMARK INTER:                  -3.731
REMARK INTRA:                  -0.011
REMARK UNBOUND:                -0.060
REMARK SMILES CCCC(=O)[O-]
REMARK SMILES IDX 3 1 4 2 5 3 6 4 2 5 1 6
REMARK H PARENT
REMARK Flexibility Score: inf
ROOT
ATOM      1  C   UNL     1     -55.951 120.852  -9.794  1.00  0.00     0.052 C 
ENDROOT
BRANCH   1   2
ATOM      2  C   UNL     1     -56.867 119.984 -10.601  1.00  0.00     0.041 C 
ATOM      3  O   UNL     1     -56.600 118.765 -10.770  1.00  0.00    -0.550 OA
ATOM      4  O   UNL     1     -58.034 120.514 -11.137  1.00  0.00    -0.550 OA
ENDBRANCH   1   2
BRANCH   1   5
ATOM      5  C   UNL     1     -54.492 120.387  -9.895  1.00  0.00     0.003 C 
ATOM      6  C   UNL     1     -53.591 121.069  -8.866  1.00  0.00     0.004 C 
ENDBRANCH   1   5
TORSDOF 2
ENDMDL
MODEL 4
REMARK VINA RESULT:    -3.263      1.931      3.072
REMARK INTER + INTRA:          -3.704
REMARK INTER:                  -3.688
REMARK INTRA:                  -0.017
REMARK UNBOUND:                -0.060
REMARK SMILES CCCC(=O)[O-]
REMARK SMILES IDX 3 1 4 2 5 3 6 4 2 5 1 6
REMARK H PARENT
REMARK Flexibility Score: inf
ROOT
ATOM      1  C   UNL     1     -55.622 120.412 -10.677  1.00  0.00     0.052 C 
ENDROOT
BRANCH   1   2
ATOM      2  C   UNL     1     -56.088 121.796 -10.343  1.00  0.00     0.041 C 
ATOM      3  O   UNL     1     -55.852 122.751 -11.128  1.00  0.00    -0.550 OA
ATOM      4  O   UNL     1     -56.814 122.024  -9.181  1.00  0.00    -0.550 OA
ENDBRANCH   1   2
BRANCH   1   5
ATOM      5  C   UNL     1     -56.798 119.473 -10.980  1.00  0.00     0.003 C 
ATOM      6  C   UNL     1     -57.822 120.108 -11.919  1.00  0.00     0.004 C 
ENDBRANCH   1   5
TORSDOF 2
ENDMDL
MODEL 5
REMARK VINA RESULT:    -3.199      2.161      2.682
REMARK INTER + INTRA:          -3.633
REMARK INTER:                  -3.579
REMARK INTRA:                  -0.054
REMARK UNBOUND:                -0.060
REMARK SMILES CCCC(=O)[O-]
REMARK SMILES IDX 3 1 4 2 5 3 6 4 2 5 1 6
REMARK H PARENT
REMARK Flexibility Score: inf
ROOT
ATOM      1  C   UNL     1     -56.039 121.313 -10.521  1.00  0.00     0.052 C 
ENDROOT
BRANCH   1   2
ATOM      2  C   UNL     1     -55.842 119.932 -11.067  1.00  0.00     0.041 C 
ATOM      3  O   UNL     1     -56.627 119.003 -10.741  1.00  0.00    -0.550 OA
ATOM      4  O   UNL     1     -54.812 119.679 -11.965  1.00  0.00    -0.550 OA
ENDBRANCH   1   2
BRANCH   1   5
ATOM      5  C   UNL     1     -55.552 121.425  -9.069  1.00  0.00     0.003 C 
ATOM      6  C   UNL     1     -54.030 121.521  -8.973  1.00  0.00     0.004 C 
ENDBRANCH   1   5
TORSDOF 2
ENDMDL
MODEL 6
REMARK VINA RESULT:    -3.034      1.390      2.069
REMARK INTER + INTRA:          -3.449
REMARK INTER:                  -3.422
REMARK INTRA:                  -0.026
REMARK UNBOUND:                -0.060
REMARK SMILES CCCC(=O)[O-]
REMARK SMILES IDX 3 1 4 2 5 3 6 4 2 5 1 6
REMARK H PARENT
REMARK Flexibility Score: inf
ROOT
ATOM      1  C   UNL     1     -54.527 120.904 -11.192  1.00  0.00     0.052 C 
ENDROOT
BRANCH   1   2
ATOM      2  C   UNL     1     -55.497 122.038 -11.055  1.00  0.00     0.041 C 
ATOM      3  O   UNL     1     -56.482 121.939 -10.277  1.00  0.00    -0.550 OA
ATOM      4  O   UNL     1     -55.293 123.217 -11.760  1.00  0.00    -0.550 OA
ENDBRANCH   1   2
BRANCH   1   5
ATOM      5  C   UNL     1     -54.397 120.107  -9.887  1.00  0.00     0.003 C 
ATOM      6  C   UNL     1     -53.044 120.318  -9.209  1.00  0.00     0.004 C 
ENDBRANCH   1   5
TORSDOF 2
ENDMDL
MODEL 7
REMARK VINA RESULT:    -3.001      2.340      3.051
REMARK INTER + INTRA:          -3.411
REMARK INTER:                  -3.371
REMARK INTRA:                  -0.040
REMARK UNBOUND:                -0.060
REMARK SMILES CCCC(=O)[O-]
REMARK SMILES IDX 3 1 4 2 5 3 6 4 2 5 1 6
REMARK H PARENT
REMARK Flexibility Score: inf
ROOT
ATOM      1  C   UNL     1     -54.855 120.853 -11.437  1.00  0.00     0.052 C 
ENDROOT
BRANCH   1   2
ATOM      2  C   UNL     1     -55.136 122.313 -11.255  1.00  0.00     0.041 C 
ATOM      3  O   UNL     1     -54.296 123.054 -10.682  1.00  0.00    -0.550 OA
ATOM      4  O   UNL     1     -56.312 122.862 -11.751  1.00  0.00    -0.550 OA
ENDBRANCH   1   2
BRANCH   1   5
ATOM      5  C   UNL     1     -55.506 120.007 -10.334  1.00  0.00     0.003 C 
ATOM      6  C   UNL     1     -56.879 119.475 -10.743  1.00  0.00     0.004 C 
ENDBRANCH   1   5
TORSDOF 2
ENDMDL
MODEL 8
REMARK VINA RESULT:    -2.886      2.059      3.144
REMARK INTER + INTRA:          -3.283
REMARK INTER:                  -3.247
REMARK INTRA:                  -0.036
REMARK UNBOUND:                -0.060
REMARK SMILES CCCC(=O)[O-]
REMARK SMILES IDX 3 1 4 2 5 3 6 4 2 5 1 6
REMARK H PARENT
REMARK Flexibility Score: inf
ROOT
ATOM      1  C   UNL     1     -56.081 121.353  -9.181  1.00  0.00     0.052 C 
ENDROOT
BRANCH   1   2
ATOM      2  C   UNL     1     -54.624 121.664  -9.022  1.00  0.00     0.041 C 
ATOM      3  O   UNL     1     -53.770 120.740  -9.071  1.00  0.00    -0.550 OA
ATOM      4  O   UNL     1     -54.206 122.978  -8.855  1.00  0.00    -0.550 OA
ENDBRANCH   1   2
BRANCH   1   5
ATOM      5  C   UNL     1     -56.426 120.969 -10.627  1.00  0.00     0.003 C 
ATOM      6  C   UNL     1     -56.862 119.510 -10.752  1.00  0.00     0.004 C 
ENDBRANCH   1   5
TORSDOF 2
ENDMDL
MODEL 9
REMARK VINA RESULT:    -2.863      2.391      2.967
REMARK INTER + INTRA:          -3.258
REMARK INTER:                  -3.214
REMARK INTRA:                  -0.044
REMARK UNBOUND:                -0.060
REMARK SMILES CCCC(=O)[O-]
REMARK SMILES IDX 3 1 4 2 5 3 6 4 2 5 1 6
REMARK H PARENT
REMARK Flexibility Score: inf
ROOT
ATOM      1  C   UNL     1     -53.847 120.270  -9.698  1.00  0.00     0.052 C 
ENDROOT
BRANCH   1   2
ATOM      2  C   UNL     1     -53.911 120.264 -11.195  1.00  0.00     0.041 C 
ATOM      3  O   UNL     1     -53.017 120.838 -11.869  1.00  0.00    -0.550 OA
ATOM      4  O   UNL     1     -54.939 119.593 -11.845  1.00  0.00    -0.550 OA
ENDBRANCH   1   2
BRANCH   1   5
ATOM      5  C   UNL     1     -54.496 121.529  -9.106  1.00  0.00     0.003 C 
ATOM      6  C   UNL     1     -56.014 121.398  -8.985  1.00  0.00     0.004 C 
ENDBRANCH   1   5
TORSDOF 2
ENDMDL
