MODEL 1
REMARK VINA RESULT:    -5.491      0.000      0.000
REMARK INTER + INTRA:         -11.010
REMARK INTER:                  -9.985
REMARK INTRA:                  -1.025
REMARK UNBOUND:                -1.025
REMARK SMILES CCCCCCCCCCCCCC[C@H](C)C(=O)[O-]
REMARK SMILES IDX 9 1 10 2 11 3 12 4 13 5 14 6 15 7 16 8 17 9 18 10 19 11 8 12
REMARK SMILES IDX 7 13 6 14 5 15 4 16 3 17 2 18 1 19
REMARK H PARENT
REMARK Flexibility Score: inf
ROOT
ATOM      1  C   UNL     1     -23.359  45.395  87.451  1.00  0.00     0.000 C 
ENDROOT
BRANCH   1   2
ATOM      2  C   UNL     1     -24.466  46.333  86.939  1.00  0.00     0.000 C 
BRANCH   2   3
ATOM      3  C   UNL     1     -25.868  45.894  87.391  1.00  0.00     0.000 C 
BRANCH   3   4
ATOM      4  C   UNL     1     -26.434  46.781  88.514  1.00  0.00     0.000 C 
BRANCH   4   5
ATOM      5  C   UNL     1     -26.119  46.232  89.915  1.00  0.00     0.001 C 
BRANCH   5   6
ATOM      6  C   UNL     1     -27.337  45.556  90.573  1.00  0.00     0.009 C 
BRANCH   6   7
ATOM      7  C   UNL     1     -27.011  44.134  91.074  1.00  0.00     0.032 C 
ATOM      8  C   UNL     1     -25.584  43.735  90.681  1.00  0.00     0.014 C 
BRANCH   7   9
ATOM      9  C   UNL     1     -27.990  43.122  90.541  1.00  0.00     0.044 C 
ATOM     10  O   UNL     1     -27.853  42.645  89.383  1.00  0.00    -0.550 OA
ATOM     11  O   UNL     1     -29.054  42.705  91.331  1.00  0.00    -0.550 OA
ENDBRANCH   7   9
ENDBRANCH   6   7
ENDBRANCH   5   6
ENDBRANCH   4   5
ENDBRANCH   3   4
ENDBRANCH   2   3
ENDBRANCH   1   2
BRANCH   1  12
ATOM     12  C   UNL     1     -22.053  45.528  86.637  1.00  0.00     0.000 C 
BRANCH  12  13
ATOM     13  C   UNL     1     -20.837  44.861  87.308  1.00  0.00    -0.000 C 
BRANCH  13  14
ATOM     14  C   UNL     1     -20.238  43.676  86.527  1.00  0.00    -0.000 C 
BRANCH  14  15
ATOM     15  C   UNL     1     -19.477  44.058  85.240  1.00  0.00    -0.000 C 
BRANCH  15  16
ATOM     16  C   UNL     1     -18.125  44.759  85.463  1.00  0.00    -0.000 C 
BRANCH  16  17
ATOM     17  C   UNL     1     -17.754  45.723  84.326  1.00  0.00    -0.000 C 
BRANCH  17  18
ATOM     18  C   UNL     1     -18.796  46.839  84.193  1.00  0.00    -0.003 C 
ATOM     19  C   UNL     1     -19.378  46.884  82.782  1.00  0.00     0.004 C 
ENDBRANCH  17  18
ENDBRANCH  16  17
ENDBRANCH  15  16
ENDBRANCH  14  15
ENDBRANCH  13  14
ENDBRANCH  12  13
ENDBRANCH   1  12
TORSDOF 14
ENDMDL
MODEL 2
REMARK VINA RESULT:    -5.456      0.818      1.435
REMARK INTER + INTRA:         -10.946
REMARK INTER:                  -9.793
REMARK INTRA:                  -1.153
REMARK UNBOUND:                -1.025
REMARK SMILES CCCCCCCCCCCCCC[C@H](C)C(=O)[O-]
REMARK SMILES IDX 9 1 10 2 11 3 12 4 13 5 14 6 15 7 16 8 17 9 18 10 19 11 8 12
REMARK SMILES IDX 7 13 6 14 5 15 4 16 3 17 2 18 1 19
REMARK H PARENT
REMARK Flexibility Score: inf
ROOT
ATOM      1  C   UNL     1     -23.151  45.554  87.184  1.00  0.00     0.000 C 
ENDROOT
BRANCH   1   2
ATOM      2  C   UNL     1     -24.271  46.609  87.196  1.00  0.00     0.000 C 
BRANCH   2   3
ATOM      3  C   UNL     1     -25.670  45.984  87.318  1.00  0.00     0.000 C 
BRANCH   3   4
ATOM      4  C   UNL     1     -26.526  46.654  88.408  1.00  0.00     0.000 C 
BRANCH   4   5
ATOM      5  C   UNL     1     -26.116  46.228  89.827  1.00  0.00     0.001 C 
BRANCH   5   6
ATOM      6  C   UNL     1     -27.282  45.610  90.619  1.00  0.00     0.009 C 
BRANCH   6   7
ATOM      7  C   UNL     1     -26.999  44.147  91.023  1.00  0.00     0.032 C 
ATOM      8  C   UNL     1     -25.615  43.708  90.532  1.00  0.00     0.014 C 
BRANCH   7   9
ATOM      9  C   UNL     1     -28.051  43.212  90.490  1.00  0.00     0.044 C 
ATOM     10  O   UNL     1     -29.209  43.199  90.987  1.00  0.00    -0.550 OA
ATOM     11  O   UNL     1     -27.749  42.355  89.440  1.00  0.00    -0.550 OA
ENDBRANCH   7   9
ENDBRANCH   6   7
ENDBRANCH   5   6
ENDBRANCH   4   5
ENDBRANCH   3   4
ENDBRANCH   2   3
ENDBRANCH   1   2
BRANCH   1  12
ATOM     12  C   UNL     1     -21.775  46.163  86.834  1.00  0.00     0.000 C 
BRANCH  12  13
ATOM     13  C   UNL     1     -21.574  46.409  85.327  1.00  0.00    -0.000 C 
BRANCH  13  14
ATOM     14  C   UNL     1     -20.978  45.218  84.552  1.00  0.00    -0.000 C 
BRANCH  14  15
ATOM     15  C   UNL     1     -20.467  44.056  85.430  1.00  0.00    -0.000 C 
BRANCH  15  16
ATOM     16  C   UNL     1     -18.956  43.774  85.328  1.00  0.00    -0.000 C 
BRANCH  16  17
ATOM     17  C   UNL     1     -18.094  44.987  85.708  1.00  0.00    -0.000 C 
BRANCH  17  18
ATOM     18  C   UNL     1     -17.311  45.504  84.496  1.00  0.00    -0.003 C 
ATOM     19  C   UNL     1     -17.654  46.961  84.198  1.00  0.00     0.004 C 
ENDBRANCH  17  18
ENDBRANCH  16  17
ENDBRANCH  15  16
ENDBRANCH  14  15
ENDBRANCH  13  14
ENDBRANCH  12  13
ENDBRANCH   1  12
TORSDOF 14
ENDMDL
MODEL 3
REMARK VINA RESULT:    -5.363      1.312      2.862
REMARK INTER + INTRA:         -10.777
REMARK INTER:                  -8.878
REMARK INTRA:                  -1.899
REMARK UNBOUND:                -1.025
REMARK SMILES CCCCCCCCCCCCCC[C@H](C)C(=O)[O-]
REMARK SMILES IDX 9 1 10 2 11 3 12 4 13 5 14 6 15 7 16 8 17 9 18 10 19 11 8 12
REMARK SMILES IDX 7 13 6 14 5 15 4 16 3 17 2 18 1 19
REMARK H PARENT
REMARK Flexibility Score: inf
ROOT
ATOM      1  C   UNL     1     -22.953  46.051  86.274  1.00  0.00     0.000 C 
ENDROOT
BRANCH   1   2
ATOM      2  C   UNL     1     -23.874  46.479  87.430  1.00  0.00     0.000 C 
BRANCH   2   3
ATOM      3  C   UNL     1     -25.272  45.847  87.336  1.00  0.00     0.000 C 
BRANCH   3   4
ATOM      4  C   UNL     1     -26.257  46.429  88.366  1.00  0.00     0.000 C 
BRANCH   4   5
ATOM      5  C   UNL     1     -25.908  46.029  89.808  1.00  0.00     0.001 C 
BRANCH   5   6
ATOM      6  C   UNL     1     -27.128  45.503  90.587  1.00  0.00     0.009 C 
BRANCH   6   7
ATOM      7  C   UNL     1     -26.894  44.082  91.141  1.00  0.00     0.032 C 
ATOM      8  C   UNL     1     -25.469  43.609  90.835  1.00  0.00     0.014 C 
BRANCH   7   9
ATOM      9  C   UNL     1     -27.890  43.100  90.584  1.00  0.00     0.044 C 
ATOM     10  O   UNL     1     -27.677  42.525  89.484  1.00  0.00    -0.550 OA
ATOM     11  O   UNL     1     -29.055  42.822  91.287  1.00  0.00    -0.550 OA
ENDBRANCH   7   9
ENDBRANCH   6   7
ENDBRANCH   5   6
ENDBRANCH   4   5
ENDBRANCH   3   4
ENDBRANCH   2   3
ENDBRANCH   1   2
BRANCH   1  12
ATOM     12  C   UNL     1     -21.723  46.974  86.130  1.00  0.00     0.000 C 
BRANCH  12  13
ATOM     13  C   UNL     1     -20.582  46.357  85.300  1.00  0.00    -0.000 C 
BRANCH  13  14
ATOM     14  C   UNL     1     -20.767  44.866  84.957  1.00  0.00    -0.000 C 
BRANCH  14  15
ATOM     15  C   UNL     1     -19.879  43.894  85.762  1.00  0.00    -0.000 C 
BRANCH  15  16
ATOM     16  C   UNL     1     -20.604  43.114  86.873  1.00  0.00    -0.000 C 
BRANCH  16  17
ATOM     17  C   UNL     1     -20.784  43.931  88.161  1.00  0.00    -0.000 C 
BRANCH  17  18
ATOM     18  C   UNL     1     -22.042  43.492  88.918  1.00  0.00    -0.003 C 
ATOM     19  C   UNL     1     -23.056  42.847  87.977  1.00  0.00     0.004 C 
ENDBRANCH  17  18
ENDBRANCH  16  17
ENDBRANCH  15  16
ENDBRANCH  14  15
ENDBRANCH  13  14
ENDBRANCH  12  13
ENDBRANCH   1  12
TORSDOF 14
ENDMDL
MODEL 4
REMARK VINA RESULT:    -5.352      5.189      6.642
REMARK INTER + INTRA:         -10.757
REMARK INTER:                  -9.153
REMARK INTRA:                  -1.604
REMARK UNBOUND:                -1.025
REMARK SMILES CCCCCCCCCCCCCC[C@H](C)C(=O)[O-]
REMARK SMILES IDX 9 1 10 2 11 3 12 4 13 5 14 6 15 7 16 8 17 9 18 10 19 11 8 12
REMARK SMILES IDX 7 13 6 14 5 15 4 16 3 17 2 18 1 19
REMARK H PARENT
REMARK Flexibility Score: inf
ROOT
ATOM      1  C   UNL     1     -20.329  43.455  85.817  1.00  0.00     0.000 C 
ENDROOT
BRANCH   1   2
ATOM      2  C   UNL     1     -20.331  42.434  86.968  1.00  0.00     0.000 C 
BRANCH   2   3
ATOM      3  C   UNL     1     -21.700  42.324  87.658  1.00  0.00     0.000 C 
BRANCH   3   4
ATOM      4  C   UNL     1     -21.582  42.060  89.170  1.00  0.00     0.000 C 
BRANCH   4   5
ATOM      5  C   UNL     1     -20.337  41.234  89.530  1.00  0.00     0.001 C 
BRANCH   5   6
ATOM      6  C   UNL     1     -20.645  39.733  89.679  1.00  0.00     0.009 C 
BRANCH   6   7
ATOM      7  C   UNL     1     -19.764  38.865  88.756  1.00  0.00     0.032 C 
ATOM      8  C   UNL     1     -20.621  38.153  87.702  1.00  0.00     0.014 C 
BRANCH   7   9
ATOM      9  C   UNL     1     -18.971  37.853  89.539  1.00  0.00     0.044 C 
ATOM     10  O   UNL     1     -19.157  36.619  89.365  1.00  0.00    -0.550 OA
ATOM     11  O   UNL     1     -18.024  38.279  90.461  1.00  0.00    -0.550 OA
ENDBRANCH   7   9
ENDBRANCH   6   7
ENDBRANCH   5   6
ENDBRANCH   4   5
ENDBRANCH   3   4
ENDBRANCH   2   3
ENDBRANCH   1   2
BRANCH   1  12
ATOM     12  C   UNL     1     -20.500  44.906  86.319  1.00  0.00     0.000 C 
BRANCH  12  13
ATOM     13  C   UNL     1     -21.737  45.618  85.740  1.00  0.00    -0.000 C 
BRANCH  13  14
ATOM     14  C   UNL     1     -21.428  46.687  84.675  1.00  0.00    -0.000 C 
BRANCH  14  15
ATOM     15  C   UNL     1     -20.968  46.137  83.309  1.00  0.00    -0.000 C 
BRANCH  15  16
ATOM     16  C   UNL     1     -19.545  46.544  82.885  1.00  0.00    -0.000 C 
BRANCH  16  17
ATOM     17  C   UNL     1     -18.468  45.574  83.392  1.00  0.00    -0.000 C 
BRANCH  17  18
ATOM     18  C   UNL     1     -17.571  46.248  84.436  1.00  0.00    -0.003 C 
ATOM     19  C   UNL     1     -16.946  45.218  85.375  1.00  0.00     0.004 C 
ENDBRANCH  17  18
ENDBRANCH  16  17
ENDBRANCH  15  16
ENDBRANCH  14  15
ENDBRANCH  13  14
ENDBRANCH  12  13
ENDBRANCH   1  12
TORSDOF 14
ENDMDL
MODEL 5
REMARK VINA RESULT:    -5.314      7.912     11.360
REMARK INTER + INTRA:         -10.688
REMARK INTER:                  -9.503
REMARK INTRA:                  -1.186
REMARK UNBOUND:                -1.025
REMARK SMILES CCCCCCCCCCCCCC[C@H](C)C(=O)[O-]
REMARK SMILES IDX 9 1 10 2 11 3 12 4 13 5 14 6 15 7 16 8 17 9 18 10 19 11 8 12
REMARK SMILES IDX 7 13 6 14 5 15 4 16 3 17 2 18 1 19
REMARK H PARENT
REMARK Flexibility Score: inf
ROOT
ATOM      1  C   UNL     1     -20.518  40.518  87.136  1.00  0.00     0.000 C 
ENDROOT
BRANCH   1   2
ATOM      2  C   UNL     1     -21.002  39.072  86.925  1.00  0.00     0.000 C 
BRANCH   2   3
ATOM      3  C   UNL     1     -19.870  38.127  86.492  1.00  0.00     0.000 C 
BRANCH   3   4
ATOM      4  C   UNL     1     -19.588  38.195  84.980  1.00  0.00     0.000 C 
BRANCH   4   5
ATOM      5  C   UNL     1     -18.657  37.069  84.502  1.00  0.00     0.001 C 
BRANCH   5   6
ATOM      6  C   UNL     1     -18.668  36.903  82.972  1.00  0.00     0.009 C 
BRANCH   6   7
ATOM      7  C   UNL     1     -17.430  36.134  82.462  1.00  0.00     0.032 C 
ATOM      8  C   UNL     1     -16.148  36.700  83.082  1.00  0.00     0.014 C 
BRANCH   7   9
ATOM      9  C   UNL     1     -17.333  36.174  80.961  1.00  0.00     0.044 C 
ATOM     10  O   UNL     1     -17.363  37.273  80.346  1.00  0.00    -0.550 OA
ATOM     11  O   UNL     1     -17.209  34.992  80.243  1.00  0.00    -0.550 OA
ENDBRANCH   7   9
ENDBRANCH   6   7
ENDBRANCH   5   6
ENDBRANCH   4   5
ENDBRANCH   3   4
ENDBRANCH   2   3
ENDBRANCH   1   2
BRANCH   1  12
ATOM     12  C   UNL     1     -21.501  41.348  87.991  1.00  0.00     0.000 C 
BRANCH  12  13
ATOM     13  C   UNL     1     -21.115  41.417  89.481  1.00  0.00    -0.000 C 
BRANCH  13  14
ATOM     14  C   UNL     1     -19.645  41.068  89.784  1.00  0.00    -0.000 C 
BRANCH  14  15
ATOM     15  C   UNL     1     -19.409  40.328  91.117  1.00  0.00    -0.000 C 
BRANCH  15  16
ATOM     16  C   UNL     1     -18.070  39.574  91.220  1.00  0.00    -0.000 C 
BRANCH  16  17
ATOM     17  C   UNL     1     -17.853  38.579  90.071  1.00  0.00    -0.000 C 
BRANCH  17  18
ATOM     18  C   UNL     1     -18.976  37.537  90.029  1.00  0.00    -0.003 C 
ATOM     19  C   UNL     1     -18.497  36.236  89.389  1.00  0.00     0.004 C 
ENDBRANCH  17  18
ENDBRANCH  16  17
ENDBRANCH  15  16
ENDBRANCH  14  15
ENDBRANCH  13  14
ENDBRANCH  12  13
ENDBRANCH   1  12
TORSDOF 14
ENDMDL
MODEL 6
REMARK VINA RESULT:    -5.306      1.204      2.079
REMARK INTER + INTRA:         -10.672
REMARK INTER:                  -9.094
REMARK INTRA:                  -1.579
REMARK UNBOUND:                -1.025
REMARK SMILES CCCCCCCCCCCCCC[C@H](C)C(=O)[O-]
REMARK SMILES IDX 9 1 10 2 11 3 12 4 13 5 14 6 15 7 16 8 17 9 18 10 19 11 8 12
REMARK SMILES IDX 7 13 6 14 5 15 4 16 3 17 2 18 1 19
REMARK H PARENT
REMARK Flexibility Score: inf
ROOT
ATOM      1  C   UNL     1     -23.154  45.545  87.120  1.00  0.00     0.000 C 
ENDROOT
BRANCH   1   2
ATOM      2  C   UNL     1     -24.166  46.672  87.388  1.00  0.00     0.000 C 
BRANCH   2   3
ATOM      3  C   UNL     1     -25.620  46.172  87.392  1.00  0.00     0.000 C 
BRANCH   3   4
ATOM      4  C   UNL     1     -26.424  46.699  88.594  1.00  0.00     0.000 C 
BRANCH   4   5
ATOM      5  C   UNL     1     -26.073  45.973  89.903  1.00  0.00     0.001 C 
BRANCH   5   6
ATOM      6  C   UNL     1     -27.316  45.423  90.626  1.00  0.00     0.009 C 
BRANCH   6   7
ATOM      7  C   UNL     1     -27.056  44.039  91.258  1.00  0.00     0.032 C 
ATOM      8  C   UNL     1     -25.593  43.625  91.070  1.00  0.00     0.014 C 
BRANCH   7   9
ATOM      9  C   UNL     1     -27.964  42.987  90.679  1.00  0.00     0.044 C 
ATOM     10  O   UNL     1     -27.692  42.442  89.576  1.00  0.00    -0.550 OA
ATOM     11  O   UNL     1     -29.112  42.609  91.364  1.00  0.00    -0.550 OA
ENDBRANCH   7   9
ENDBRANCH   6   7
ENDBRANCH   5   6
ENDBRANCH   4   5
ENDBRANCH   3   4
ENDBRANCH   2   3
ENDBRANCH   1   2
BRANCH   1  12
ATOM     12  C   UNL     1     -22.823  44.737  88.394  1.00  0.00     0.000 C 
BRANCH  12  13
ATOM     13  C   UNL     1     -23.359  43.293  88.365  1.00  0.00    -0.000 C 
BRANCH  13  14
ATOM     14  C   UNL     1     -22.441  42.278  87.658  1.00  0.00    -0.000 C 
BRANCH  14  15
ATOM     15  C   UNL     1     -20.945  42.383  88.023  1.00  0.00    -0.000 C 
BRANCH  15  16
ATOM     16  C   UNL     1     -19.973  42.294  86.832  1.00  0.00    -0.000 C 
BRANCH  16  17
ATOM     17  C   UNL     1     -20.246  43.354  85.755  1.00  0.00    -0.000 C 
BRANCH  17  18
ATOM     18  C   UNL     1     -19.490  44.652  86.059  1.00  0.00    -0.003 C 
ATOM     19  C   UNL     1     -18.208  44.750  85.235  1.00  0.00     0.004 C 
ENDBRANCH  17  18
ENDBRANCH  16  17
ENDBRANCH  15  16
ENDBRANCH  14  15
ENDBRANCH  13  14
ENDBRANCH  12  13
ENDBRANCH   1  12
TORSDOF 14
ENDMDL
MODEL 7
REMARK VINA RESULT:    -5.291      5.350      6.846
REMARK INTER + INTRA:         -10.646
REMARK INTER:                  -9.257
REMARK INTRA:                  -1.389
REMARK UNBOUND:                -1.025
REMARK SMILES CCCCCCCCCCCCCC[C@H](C)C(=O)[O-]
REMARK SMILES IDX 9 1 10 2 11 3 12 4 13 5 14 6 15 7 16 8 17 9 18 10 19 11 8 12
REMARK SMILES IDX 7 13 6 14 5 15 4 16 3 17 2 18 1 19
REMARK H PARENT
REMARK Flexibility Score: inf
ROOT
ATOM      1  C   UNL     1     -19.526  42.182  86.126  1.00  0.00     0.000 C 
ENDROOT
BRANCH   1   2
ATOM      2  C   UNL     1     -19.711  41.138  87.240  1.00  0.00     0.000 C 
BRANCH   2   3
ATOM      3  C   UNL     1     -21.077  41.252  87.936  1.00  0.00     0.000 C 
BRANCH   3   4
ATOM      4  C   UNL     1     -20.956  41.678  89.411  1.00  0.00     0.000 C 
BRANCH   4   5
ATOM      5  C   UNL     1     -19.976  40.798  90.202  1.00  0.00     0.001 C 
BRANCH   5   6
ATOM      6  C   UNL     1     -20.539  39.395  90.489  1.00  0.00     0.009 C 
BRANCH   6   7
ATOM      7  C   UNL     1     -19.439  38.313  90.474  1.00  0.00     0.032 C 
ATOM      8  C   UNL     1     -18.056  38.945  90.663  1.00  0.00     0.014 C 
BRANCH   7   9
ATOM      9  C   UNL     1     -19.466  37.513  89.199  1.00  0.00     0.044 C 
ATOM     10  O   UNL     1     -20.288  37.791  88.285  1.00  0.00    -0.550 OA
ATOM     11  O   UNL     1     -18.579  36.459  89.024  1.00  0.00    -0.550 OA
ENDBRANCH   7   9
ENDBRANCH   6   7
ENDBRANCH   5   6
ENDBRANCH   4   5
ENDBRANCH   3   4
ENDBRANCH   2   3
ENDBRANCH   1   2
BRANCH   1  12
ATOM     12  C   UNL     1     -20.312  43.483  86.403  1.00  0.00     0.000 C 
BRANCH  12  13
ATOM     13  C   UNL     1     -19.552  44.761  85.999  1.00  0.00    -0.000 C 
BRANCH  13  14
ATOM     14  C   UNL     1     -18.149  44.519  85.413  1.00  0.00    -0.000 C 
BRANCH  14  15
ATOM     15  C   UNL     1     -17.730  45.493  84.292  1.00  0.00    -0.000 C 
BRANCH  15  16
ATOM     16  C   UNL     1     -18.720  46.641  84.019  1.00  0.00    -0.000 C 
BRANCH  16  17
ATOM     17  C   UNL     1     -19.349  46.570  82.620  1.00  0.00    -0.000 C 
BRANCH  17  18
ATOM     18  C   UNL     1     -20.826  46.173  82.703  1.00  0.00    -0.003 C 
ATOM     19  C   UNL     1     -21.499  46.796  83.924  1.00  0.00     0.004 C 
ENDBRANCH  17  18
ENDBRANCH  16  17
ENDBRANCH  15  16
ENDBRANCH  14  15
ENDBRANCH  13  14
ENDBRANCH  12  13
ENDBRANCH   1  12
TORSDOF 14
ENDMDL
MODEL 8
REMARK VINA RESULT:    -5.227      3.827      5.432
REMARK INTER + INTRA:         -10.529
REMARK INTER:                  -9.102
REMARK INTRA:                  -1.427
REMARK UNBOUND:                -1.025
REMARK SMILES CCCCCCCCCCCCCC[C@H](C)C(=O)[O-]
REMARK SMILES IDX 9 1 10 2 11 3 12 4 13 5 14 6 15 7 16 8 17 9 18 10 19 11 8 12
REMARK SMILES IDX 7 13 6 14 5 15 4 16 3 17 2 18 1 19
REMARK H PARENT
REMARK Flexibility Score: inf
ROOT
ATOM      1  C   UNL     1     -20.589  42.110  88.684  1.00  0.00     0.000 C 
ENDROOT
BRANCH   1   2
ATOM      2  C   UNL     1     -21.547  42.919  87.792  1.00  0.00     0.000 C 
BRANCH   2   3
ATOM      3  C   UNL     1     -23.025  42.631  88.099  1.00  0.00     0.000 C 
BRANCH   3   4
ATOM      4  C   UNL     1     -23.803  43.894  88.510  1.00  0.00     0.000 C 
BRANCH   4   5
ATOM      5  C   UNL     1     -24.671  43.674  89.759  1.00  0.00     0.001 C 
BRANCH   5   6
ATOM      6  C   UNL     1     -26.086  44.263  89.607  1.00  0.00     0.009 C 
BRANCH   6   7
ATOM      7  C   UNL     1     -26.982  43.941  90.821  1.00  0.00     0.032 C 
ATOM      8  C   UNL     1     -26.160  43.309  91.949  1.00  0.00     0.014 C 
BRANCH   7   9
ATOM      9  C   UNL     1     -28.118  43.028  90.443  1.00  0.00     0.044 C 
ATOM     10  O   UNL     1     -28.998  42.715  91.288  1.00  0.00    -0.550 OA
ATOM     11  O   UNL     1     -28.201  42.524  89.151  1.00  0.00    -0.550 OA
ENDBRANCH   7   9
ENDBRANCH   6   7
ENDBRANCH   5   6
ENDBRANCH   4   5
ENDBRANCH   3   4
ENDBRANCH   2   3
ENDBRANCH   1   2
BRANCH   1  12
ATOM     12  C   UNL     1     -21.281  41.578  89.959  1.00  0.00     0.000 C 
BRANCH  12  13
ATOM     13  C   UNL     1     -20.311  40.915  90.956  1.00  0.00    -0.000 C 
BRANCH  13  14
ATOM     14  C   UNL     1     -18.888  40.684  90.415  1.00  0.00    -0.000 C 
BRANCH  14  15
ATOM     15  C   UNL     1     -18.416  39.215  90.421  1.00  0.00    -0.000 C 
BRANCH  15  16
ATOM     16  C   UNL     1     -19.520  38.171  90.173  1.00  0.00    -0.000 C 
BRANCH  16  17
ATOM     17  C   UNL     1     -19.572  37.689  88.716  1.00  0.00    -0.000 C 
BRANCH  17  18
ATOM     18  C   UNL     1     -20.654  38.435  87.929  1.00  0.00    -0.003 C 
ATOM     19  C   UNL     1     -20.267  38.580  86.459  1.00  0.00     0.004 C 
ENDBRANCH  17  18
ENDBRANCH  16  17
ENDBRANCH  15  16
ENDBRANCH  14  15
ENDBRANCH  13  14
ENDBRANCH  12  13
ENDBRANCH   1  12
TORSDOF 14
ENDMDL
MODEL 9
REMARK VINA RESULT:    -5.197      1.874      3.242
REMARK INTER + INTRA:         -10.476
REMARK INTER:                  -9.018
REMARK INTRA:                  -1.458
REMARK UNBOUND:                -1.025
REMARK SMILES CCCCCCCCCCCCCC[C@H](C)C(=O)[O-]
REMARK SMILES IDX 9 1 10 2 11 3 12 4 13 5 14 6 15 7 16 8 17 9 18 10 19 11 8 12
REMARK SMILES IDX 7 13 6 14 5 15 4 16 3 17 2 18 1 19
REMARK H PARENT
REMARK Flexibility Score: inf
ROOT
ATOM      1  C   UNL     1     -23.325  44.870  87.405  1.00  0.00     0.000 C 
ENDROOT
BRANCH   1   2
ATOM      2  C   UNL     1     -24.082  46.149  87.800  1.00  0.00     0.000 C 
BRANCH   2   3
ATOM      3  C   UNL     1     -25.513  46.186  87.239  1.00  0.00     0.000 C 
BRANCH   3   4
ATOM      4  C   UNL     1     -26.573  46.409  88.333  1.00  0.00     0.000 C 
BRANCH   4   5
ATOM      5  C   UNL     1     -26.046  46.086  89.741  1.00  0.00     0.001 C 
BRANCH   5   6
ATOM      6  C   UNL     1     -27.147  45.553  90.676  1.00  0.00     0.009 C 
BRANCH   6   7
ATOM      7  C   UNL     1     -26.869  44.105  91.134  1.00  0.00     0.032 C 
ATOM      8  C   UNL     1     -25.470  43.659  90.698  1.00  0.00     0.014 C 
BRANCH   7   9
ATOM      9  C   UNL     1     -27.901  43.149  90.599  1.00  0.00     0.044 C 
ATOM     10  O   UNL     1     -27.805  42.689  89.430  1.00  0.00    -0.550 OA
ATOM     11  O   UNL     1     -28.971  42.766  91.399  1.00  0.00    -0.550 OA
ENDBRANCH   7   9
ENDBRANCH   6   7
ENDBRANCH   5   6
ENDBRANCH   4   5
ENDBRANCH   3   4
ENDBRANCH   2   3
ENDBRANCH   1   2
BRANCH   1  12
ATOM     12  C   UNL     1     -22.330  44.414  88.496  1.00  0.00     0.000 C 
BRANCH  12  13
ATOM     13  C   UNL     1     -20.855  44.496  88.058  1.00  0.00    -0.000 C 
BRANCH  13  14
ATOM     14  C   UNL     1     -20.626  44.386  86.538  1.00  0.00    -0.000 C 
BRANCH  14  15
ATOM     15  C   UNL     1     -20.073  43.029  86.056  1.00  0.00    -0.000 C 
BRANCH  15  16
ATOM     16  C   UNL     1     -20.487  41.814  86.906  1.00  0.00    -0.000 C 
BRANCH  16  17
ATOM     17  C   UNL     1     -19.372  40.767  87.038  1.00  0.00    -0.000 C 
BRANCH  17  18
ATOM     18  C   UNL     1     -19.223  40.305  88.492  1.00  0.00    -0.003 C 
ATOM     19  C   UNL     1     -20.069  41.160  89.432  1.00  0.00     0.004 C 
ENDBRANCH  17  18
ENDBRANCH  16  17
ENDBRANCH  15  16
ENDBRANCH  14  15
ENDBRANCH  13  14
ENDBRANCH  12  13
ENDBRANCH   1  12
TORSDOF 14
ENDMDL
