MODEL 1
REMARK VINA RESULT:    -3.841      0.000      0.000
REMARK INTER + INTRA:          -6.474
REMARK INTER:                  -5.638
REMARK INTRA:                  -0.836
REMARK UNBOUND:                -0.836
REMARK SMILES O=C([O-])CCCCCCCC(=O)[O-]
REMARK SMILES IDX 7 1 6 2 5 3 4 4 2 5 1 6 3 7 8 8 9 9 10 10 11 11 12 12 13 13
REMARK H PARENT
REMARK Flexibility Score: inf
ROOT
ATOM      1  C   UNL     1      18.538  10.399   5.066  1.00  0.00     0.000 C 
ENDROOT
BRANCH   1   2
ATOM      2  C   UNL     1      19.254  11.002   6.289  1.00  0.00     0.000 C 
BRANCH   2   3
ATOM      3  C   UNL     1      19.783   9.935   7.259  1.00  0.00     0.006 C 
BRANCH   3   4
ATOM      4  C   UNL     1      19.629   8.531   6.666  1.00  0.00     0.053 C 
BRANCH   4   5
ATOM      5  C   UNL     1      18.652   7.729   7.468  1.00  0.00     0.041 C 
ATOM      6  O   UNL     1      17.655   8.289   7.995  1.00  0.00    -0.550 OA
ATOM      7  O   UNL     1      18.816   6.356   7.590  1.00  0.00    -0.550 OA
ENDBRANCH   4   5
ENDBRANCH   3   4
ENDBRANCH   2   3
ENDBRANCH   1   2
BRANCH   1   8
ATOM      8  C   UNL     1      17.006  10.547   5.069  1.00  0.00     0.000 C 
BRANCH   8   9
ATOM      9  C   UNL     1      16.274   9.205   4.927  1.00  0.00     0.006 C 
BRANCH   9  10
ATOM     10  C   UNL     1      16.855   8.384   3.772  1.00  0.00     0.053 C 
BRANCH  10  11
ATOM     11  C   UNL     1      16.987   6.947   4.165  1.00  0.00     0.041 C 
ATOM     12  O   UNL     1      15.964   6.276   4.468  1.00  0.00    -0.550 OA
ATOM     13  O   UNL     1      18.243   6.360   4.245  1.00  0.00    -0.550 OA
ENDBRANCH  10  11
ENDBRANCH   9  10
ENDBRANCH   8   9
ENDBRANCH   1   8
TORSDOF 8
ENDMDL
MODEL 2
REMARK VINA RESULT:    -3.789      1.719      2.753
REMARK INTER + INTRA:          -6.397
REMARK INTER:                  -5.744
REMARK INTRA:                  -0.653
REMARK UNBOUND:                -0.836
REMARK SMILES O=C([O-])CCCCCCCC(=O)[O-]
REMARK SMILES IDX 7 1 6 2 5 3 4 4 2 5 1 6 3 7 8 8 9 9 10 10 11 11 12 12 13 13
REMARK H PARENT
REMARK Flexibility Score: inf
ROOT
ATOM      1  C   UNL     1      19.520  10.130   6.905  1.00  0.00     0.000 C 
ENDROOT
BRANCH   1   2
ATOM      2  C   UNL     1      19.467   8.604   6.703  1.00  0.00     0.000 C 
BRANCH   2   3
ATOM      3  C   UNL     1      18.539   7.900   7.705  1.00  0.00     0.006 C 
BRANCH   3   4
ATOM      4  C   UNL     1      18.115   6.524   7.184  1.00  0.00     0.053 C 
BRANCH   4   5
ATOM      5  C   UNL     1      17.290   6.666   5.943  1.00  0.00     0.041 C 
ATOM      6  O   UNL     1      17.663   6.123   4.870  1.00  0.00    -0.550 OA
ATOM      7  O   UNL     1      16.085   7.354   5.985  1.00  0.00    -0.550 OA
ENDBRANCH   4   5
ENDBRANCH   3   4
ENDBRANCH   2   3
ENDBRANCH   1   2
BRANCH   1   8
ATOM      8  C   UNL     1      18.995  10.962   5.720  1.00  0.00     0.000 C 
BRANCH   8   9
ATOM      9  C   UNL     1      18.052  10.170   4.803  1.00  0.00     0.006 C 
BRANCH   9  10
ATOM     10  C   UNL     1      18.576  10.151   3.364  1.00  0.00     0.053 C 
BRANCH  10  11
ATOM     11  C   UNL     1      17.849   9.124   2.555  1.00  0.00     0.041 C 
ATOM     12  O   UNL     1      16.725   8.700   2.932  1.00  0.00    -0.550 OA
ATOM     13  O   UNL     1      18.435   8.598   1.411  1.00  0.00    -0.550 OA
ENDBRANCH  10  11
ENDBRANCH   9  10
ENDBRANCH   8   9
ENDBRANCH   1   8
TORSDOF 8
ENDMDL
MODEL 3
REMARK VINA RESULT:    -3.786      1.995      2.985
REMARK INTER + INTRA:          -6.392
REMARK INTER:                  -5.640
REMARK INTRA:                  -0.751
REMARK UNBOUND:                -0.836
REMARK SMILES O=C([O-])CCCCCCCC(=O)[O-]
REMARK SMILES IDX 7 1 6 2 5 3 4 4 2 5 1 6 3 7 8 8 9 9 10 10 11 11 12 12 13 13
REMARK H PARENT
REMARK Flexibility Score: inf
ROOT
ATOM      1  C   UNL     1      17.437   7.289   7.638  1.00  0.00     0.000 C 
ENDROOT
BRANCH   1   2
ATOM      2  C   UNL     1      18.825   6.679   7.371  1.00  0.00     0.000 C 
BRANCH   2   3
ATOM      3  C   UNL     1      19.774   7.644   6.643  1.00  0.00     0.006 C 
BRANCH   3   4
ATOM      4  C   UNL     1      20.278   8.735   7.592  1.00  0.00     0.053 C 
BRANCH   4   5
ATOM      5  C   UNL     1      19.929  10.091   7.063  1.00  0.00     0.041 C 
ATOM      6  O   UNL     1      20.381  11.124   7.621  1.00  0.00    -0.550 OA
ATOM      7  O   UNL     1      19.145  10.211   5.923  1.00  0.00    -0.550 OA
ENDBRANCH   4   5
ENDBRANCH   3   4
ENDBRANCH   2   3
ENDBRANCH   1   2
BRANCH   1   8
ATOM      8  C   UNL     1      16.390   7.031   6.539  1.00  0.00     0.000 C 
BRANCH   8   9
ATOM      9  C   UNL     1      16.260   8.198   5.550  1.00  0.00     0.006 C 
BRANCH   9  10
ATOM     10  C   UNL     1      16.278   7.694   4.104  1.00  0.00     0.053 C 
BRANCH  10  11
ATOM     11  C   UNL     1      17.683   7.467   3.645  1.00  0.00     0.041 C 
ATOM     12  O   UNL     1      18.368   8.426   3.200  1.00  0.00    -0.550 OA
ATOM     13  O   UNL     1      18.222   6.186   3.662  1.00  0.00    -0.550 OA
ENDBRANCH  10  11
ENDBRANCH   9  10
ENDBRANCH   8   9
ENDBRANCH   1   8
TORSDOF 8
ENDMDL
MODEL 4
REMARK VINA RESULT:    -3.750      1.976      4.408
REMARK INTER + INTRA:          -6.339
REMARK INTER:                  -5.545
REMARK INTRA:                  -0.794
REMARK UNBOUND:                -0.836
REMARK SMILES O=C([O-])CCCCCCCC(=O)[O-]
REMARK SMILES IDX 7 1 6 2 5 3 4 4 2 5 1 6 3 7 8 8 9 9 10 10 11 11 12 12 13 13
REMARK H PARENT
REMARK Flexibility Score: inf
ROOT
ATOM      1  C   UNL     1      18.549   7.185   7.318  1.00  0.00     0.000 C 
ENDROOT
BRANCH   1   2
ATOM      2  C   UNL     1      17.022   6.989   7.295  1.00  0.00     0.000 C 
BRANCH   2   3
ATOM      3  C   UNL     1      16.436   7.017   5.874  1.00  0.00     0.006 C 
BRANCH   3   4
ATOM      4  C   UNL     1      17.323   6.234   4.902  1.00  0.00     0.053 C 
BRANCH   4   5
ATOM      5  C   UNL     1      17.637   7.063   3.696  1.00  0.00     0.041 C 
ATOM      6  O   UNL     1      18.775   6.998   3.162  1.00  0.00    -0.550 OA
ATOM      7  O   UNL     1      16.657   7.870   3.133  1.00  0.00    -0.550 OA
ENDBRANCH   4   5
ENDBRANCH   3   4
ENDBRANCH   2   3
ENDBRANCH   1   2
BRANCH   1   8
ATOM      8  C   UNL     1      19.023   8.537   7.881  1.00  0.00     0.000 C 
BRANCH   8   9
ATOM      9  C   UNL     1      19.905   9.319   6.896  1.00  0.00     0.006 C 
BRANCH   9  10
ATOM     10  C   UNL     1      19.238  10.637   6.492  1.00  0.00     0.053 C 
BRANCH  10  11
ATOM     11  C   UNL     1      18.355  10.435   5.301  1.00  0.00     0.041 C 
ATOM     12  O   UNL     1      18.859  10.299   4.155  1.00  0.00    -0.550 OA
ATOM     13  O   UNL     1      16.974  10.446   5.449  1.00  0.00    -0.550 OA
ENDBRANCH  10  11
ENDBRANCH   9  10
ENDBRANCH   8   9
ENDBRANCH   1   8
TORSDOF 8
ENDMDL
MODEL 5
REMARK VINA RESULT:    -3.748      1.086      3.890
REMARK INTER + INTRA:          -6.336
REMARK INTER:                  -5.484
REMARK INTRA:                  -0.852
REMARK UNBOUND:                -0.836
REMARK SMILES O=C([O-])CCCCCCCC(=O)[O-]
REMARK SMILES IDX 7 1 6 2 5 3 4 4 2 5 1 6 3 7 8 8 9 9 10 10 11 11 12 12 13 13
REMARK H PARENT
REMARK Flexibility Score: inf
ROOT
ATOM      1  C   UNL     1      17.924  10.283   5.301  1.00  0.00     0.000 C 
ENDROOT
BRANCH   1   2
ATOM      2  C   UNL     1      16.754   9.772   6.163  1.00  0.00     0.000 C 
BRANCH   2   3
ATOM      3  C   UNL     1      16.195   8.426   5.676  1.00  0.00     0.006 C 
BRANCH   3   4
ATOM      4  C   UNL     1      16.405   8.261   4.168  1.00  0.00     0.053 C 
BRANCH   4   5
ATOM      5  C   UNL     1      16.285   6.821   3.778  1.00  0.00     0.041 C 
ATOM      6  O   UNL     1      16.507   5.915   4.624  1.00  0.00    -0.550 OA
ATOM      7  O   UNL     1      15.879   6.479   2.494  1.00  0.00    -0.550 OA
ENDBRANCH   4   5
ENDBRANCH   3   4
ENDBRANCH   2   3
ENDBRANCH   1   2
BRANCH   1   8
ATOM      8  C   UNL     1      19.251  10.483   6.056  1.00  0.00     0.000 C 
BRANCH   8   9
ATOM      9  C   UNL     1      19.364   9.605   7.311  1.00  0.00     0.006 C 
BRANCH   9  10
ATOM     10  C   UNL     1      20.307   8.423   7.069  1.00  0.00     0.053 C 
BRANCH  10  11
ATOM     11  C   UNL     1      19.546   7.241   6.559  1.00  0.00     0.041 C 
ATOM     12  O   UNL     1      19.572   6.950   5.333  1.00  0.00    -0.550 OA
ATOM     13  O   UNL     1      18.767   6.487   7.428  1.00  0.00    -0.550 OA
ENDBRANCH  10  11
ENDBRANCH   9  10
ENDBRANCH   8   9
ENDBRANCH   1   8
TORSDOF 8
ENDMDL
MODEL 6
REMARK VINA RESULT:    -3.710      2.038      4.290
REMARK INTER + INTRA:          -6.281
REMARK INTER:                  -5.532
REMARK INTRA:                  -0.750
REMARK UNBOUND:                -0.836
REMARK SMILES O=C([O-])CCCCCCCC(=O)[O-]
REMARK SMILES IDX 7 1 6 2 5 3 4 4 2 5 1 6 3 7 8 8 9 9 10 10 11 11 12 12 13 13
REMARK H PARENT
REMARK Flexibility Score: inf
ROOT
ATOM      1  C   UNL     1      18.323   9.074   4.637  1.00  0.00     0.000 C 
ENDROOT
BRANCH   1   2
ATOM      2  C   UNL     1      18.349   9.883   3.327  1.00  0.00     0.000 C 
BRANCH   2   3
ATOM      3  C   UNL     1      18.255   8.998   2.074  1.00  0.00     0.006 C 
BRANCH   3   4
ATOM      4  C   UNL     1      18.428   7.519   2.436  1.00  0.00     0.053 C 
BRANCH   4   5
ATOM      5  C   UNL     1      17.276   6.716   1.918  1.00  0.00     0.041 C 
ATOM      6  O   UNL     1      16.094   7.069   2.171  1.00  0.00    -0.550 OA
ATOM      7  O   UNL     1      17.507   5.607   1.115  1.00  0.00    -0.550 OA
ENDBRANCH   4   5
ENDBRANCH   3   4
ENDBRANCH   2   3
ENDBRANCH   1   2
BRANCH   1   8
ATOM      8  C   UNL     1      17.036   9.223   5.469  1.00  0.00     0.000 C 
BRANCH   8   9
ATOM      9  C   UNL     1      16.302   7.891   5.679  1.00  0.00     0.006 C 
BRANCH   9  10
ATOM     10  C   UNL     1      17.295   6.748   5.904  1.00  0.00     0.053 C 
BRANCH  10  11
ATOM     11  C   UNL     1      17.787   6.750   7.317  1.00  0.00     0.041 C 
ATOM     12  O   UNL     1      18.994   6.492   7.568  1.00  0.00    -0.550 OA
ATOM     13  O   UNL     1      16.902   6.989   8.361  1.00  0.00    -0.550 OA
ENDBRANCH  10  11
ENDBRANCH   9  10
ENDBRANCH   8   9
ENDBRANCH   1   8
TORSDOF 8
ENDMDL
MODEL 7
REMARK VINA RESULT:    -3.674      1.583      3.487
REMARK INTER + INTRA:          -6.227
REMARK INTER:                  -5.327
REMARK INTRA:                  -0.901
REMARK UNBOUND:                -0.836
REMARK SMILES O=C([O-])CCCCCCCC(=O)[O-]
REMARK SMILES IDX 7 1 6 2 5 3 4 4 2 5 1 6 3 7 8 8 9 9 10 10 11 11 12 12 13 13
REMARK H PARENT
REMARK Flexibility Score: inf
ROOT
ATOM      1  C   UNL     1      19.458   9.984   6.510  1.00  0.00     0.000 C 
ENDROOT
BRANCH   1   2
ATOM      2  C   UNL     1      18.010  10.506   6.449  1.00  0.00     0.000 C 
BRANCH   2   3
ATOM      3  C   UNL     1      17.462  10.584   5.016  1.00  0.00     0.006 C 
BRANCH   3   4
ATOM      4  C   UNL     1      18.499  10.084   4.006  1.00  0.00     0.053 C 
BRANCH   4   5
ATOM      5  C   UNL     1      17.971   8.903   3.254  1.00  0.00     0.041 C 
ATOM      6  O   UNL     1      16.744   8.824   2.981  1.00  0.00    -0.550 OA
ATOM      7  O   UNL     1      18.840   7.914   2.813  1.00  0.00    -0.550 OA
ENDBRANCH   4   5
ENDBRANCH   3   4
ENDBRANCH   2   3
ENDBRANCH   1   2
BRANCH   1   8
ATOM      8  C   UNL     1      19.642   8.660   7.274  1.00  0.00     0.000 C 
BRANCH   8   9
ATOM      9  C   UNL     1      18.312   8.043   7.732  1.00  0.00     0.006 C 
BRANCH   9  10
ATOM     10  C   UNL     1      18.160   6.615   7.201  1.00  0.00     0.053 C 
BRANCH  10  11
ATOM     11  C   UNL     1      17.229   6.587   6.030  1.00  0.00     0.041 C 
ATOM     12  O   UNL     1      17.461   5.825   5.054  1.00  0.00    -0.550 OA
ATOM     13  O   UNL     1      16.132   7.438   5.994  1.00  0.00    -0.550 OA
ENDBRANCH  10  11
ENDBRANCH   9  10
ENDBRANCH   8   9
ENDBRANCH   1   8
TORSDOF 8
ENDMDL
MODEL 8
REMARK VINA RESULT:    -3.660      2.049      4.917
REMARK INTER + INTRA:          -6.207
REMARK INTER:                  -5.458
REMARK INTRA:                  -0.749
REMARK UNBOUND:                -0.836
REMARK SMILES O=C([O-])CCCCCCCC(=O)[O-]
REMARK SMILES IDX 7 1 6 2 5 3 4 4 2 5 1 6 3 7 8 8 9 9 10 10 11 11 12 12 13 13
REMARK H PARENT
REMARK Flexibility Score: inf
ROOT
ATOM      1  C   UNL     1      18.569   6.613   7.364  1.00  0.00     0.000 C 
ENDROOT
BRANCH   1   2
ATOM      2  C   UNL     1      17.141   7.181   7.463  1.00  0.00     0.000 C 
BRANCH   2   3
ATOM      3  C   UNL     1      16.367   7.089   6.139  1.00  0.00     0.006 C 
BRANCH   3   4
ATOM      4  C   UNL     1      16.215   8.472   5.497  1.00  0.00     0.053 C 
BRANCH   4   5
ATOM      5  C   UNL     1      16.775   8.469   4.110  1.00  0.00     0.041 C 
ATOM      6  O   UNL     1      17.854   9.069   3.861  1.00  0.00    -0.550 OA
ATOM      7  O   UNL     1      16.132   7.763   3.102  1.00  0.00    -0.550 OA
ENDBRANCH   4   5
ENDBRANCH   3   4
ENDBRANCH   2   3
ENDBRANCH   1   2
BRANCH   1   8
ATOM      8  C   UNL     1      19.536   7.429   6.487  1.00  0.00     0.000 C 
BRANCH   8   9
ATOM      9  C   UNL     1      20.217   8.573   7.252  1.00  0.00     0.006 C 
BRANCH   9  10
ATOM     10  C   UNL     1      19.591   9.923   6.890  1.00  0.00     0.053 C 
BRANCH  10  11
ATOM     11  C   UNL     1      18.857  10.492   8.063  1.00  0.00     0.041 C 
ATOM     12  O   UNL     1      19.481  10.796   9.114  1.00  0.00    -0.550 OA
ATOM     13  O   UNL     1      17.477  10.641   8.014  1.00  0.00    -0.550 OA
ENDBRANCH  10  11
ENDBRANCH   9  10
ENDBRANCH   8   9
ENDBRANCH   1   8
TORSDOF 8
ENDMDL
MODEL 9
REMARK VINA RESULT:    -3.641      1.700      2.328
REMARK INTER + INTRA:          -6.180
REMARK INTER:                  -5.401
REMARK INTRA:                  -0.779
REMARK UNBOUND:                -0.836
REMARK SMILES O=C([O-])CCCCCCCC(=O)[O-]
REMARK SMILES IDX 7 1 6 2 5 3 4 4 2 5 1 6 3 7 8 8 9 9 10 10 11 11 12 12 13 13
REMARK H PARENT
REMARK Flexibility Score: inf
ROOT
ATOM      1  C   UNL     1      16.405   9.058   5.595  1.00  0.00     0.000 C 
ENDROOT
BRANCH   1   2
ATOM      2  C   UNL     1      17.475   9.731   6.476  1.00  0.00     0.000 C 
BRANCH   2   3
ATOM      3  C   UNL     1      18.909   9.393   6.040  1.00  0.00     0.006 C 
BRANCH   3   4
ATOM      4  C   UNL     1      19.724   8.849   7.217  1.00  0.00     0.053 C 
BRANCH   4   5
ATOM      5  C   UNL     1      19.895   7.367   7.095  1.00  0.00     0.041 C 
ATOM      6  O   UNL     1      19.039   6.588   7.592  1.00  0.00    -0.550 OA
ATOM      7  O   UNL     1      20.972   6.847   6.389  1.00  0.00    -0.550 OA
ENDBRANCH   4   5
ENDBRANCH   3   4
ENDBRANCH   2   3
ENDBRANCH   1   2
BRANCH   1   8
ATOM      8  C   UNL     1      16.204   7.553   5.849  1.00  0.00     0.000 C 
BRANCH   8   9
ATOM      9  C   UNL     1      16.322   6.710   4.572  1.00  0.00     0.006 C 
BRANCH   9  10
ATOM     10  C   UNL     1      17.759   6.221   4.369  1.00  0.00     0.053 C 
BRANCH  10  11
ATOM     11  C   UNL     1      18.304   6.717   3.067  1.00  0.00     0.041 C 
ATOM     12  O   UNL     1      18.620   7.929   2.933  1.00  0.00    -0.550 OA
ATOM     13  O   UNL     1      18.415   5.852   1.985  1.00  0.00    -0.550 OA
ENDBRANCH  10  11
ENDBRANCH   9  10
ENDBRANCH   8   9
ENDBRANCH   1   8
TORSDOF 8
ENDMDL
