MODEL 1
REMARK VINA RESULT:    -3.989      0.000      0.000
REMARK INTER + INTRA:          -5.481
REMARK INTER:                  -5.388
REMARK INTRA:                  -0.094
REMARK UNBOUND:                -0.094
REMARK SMILES [NH3+]CCCC[C@@H]([NH3+])C(=O)[O-]
REMARK SMILES IDX 4 1 3 2 2 3 1 4 5 8 6 9 7 10 8 14 9 15 10 16
REMARK H PARENT 1 5 1 6 1 7 7 11 7 12 7 13
REMARK Flexibility Score: inf
ROOT
ATOM      1  C   UNL     1      18.144 -41.178  -8.726  1.00  0.00     0.012 C 
ENDROOT
BRANCH   1   2
ATOM      2  C   UNL     1      18.428 -42.618  -8.262  1.00  0.00     0.061 C 
BRANCH   2   3
ATOM      3  C   UNL     1      17.269 -43.611  -8.474  1.00  0.00     0.258 C 
BRANCH   3   4
ATOM      4  N   UNL     1      16.830 -44.232  -7.223  1.00  0.00    -0.358 N 
ATOM      5  H   UNL     1      17.606 -44.823  -6.847  1.00  0.00     0.344 HD
ATOM      6  H   UNL     1      16.003 -44.847  -7.394  1.00  0.00     0.344 HD
ATOM      7  H   UNL     1      16.592 -43.500  -6.515  1.00  0.00     0.344 HD
ENDBRANCH   3   4
ENDBRANCH   2   3
ENDBRANCH   1   2
BRANCH   1   8
ATOM      8  C   UNL     1      19.164 -40.162  -8.181  1.00  0.00     0.072 C 
BRANCH   8   9
ATOM      9  C   UNL     1      18.533 -39.160  -7.188  1.00  0.00     0.227 C 
BRANCH   9  10
ATOM     10  N   UNL     1      18.162 -39.805  -5.920  1.00  0.00    -0.350 N 
ATOM     11  H   UNL     1      17.417 -39.261  -5.428  1.00  0.00     0.345 HD
ATOM     12  H   UNL     1      17.811 -40.774  -6.103  1.00  0.00     0.345 HD
ATOM     13  H   UNL     1      18.998 -39.890  -5.300  1.00  0.00     0.345 HD
ENDBRANCH   9  10
BRANCH   9  14
ATOM     14  C   UNL     1      19.495 -38.029  -6.930  1.00  0.00     0.099 C 
ATOM     15  O   UNL     1      19.713 -37.163  -7.818  1.00  0.00    -0.544 OA
ATOM     16  O   UNL     1      20.131 -37.926  -5.700  1.00  0.00    -0.544 OA
ENDBRANCH   9  14
ENDBRANCH   8   9
ENDBRANCH   1   8
TORSDOF 7
ENDMDL
MODEL 2
REMARK VINA RESULT:    -3.965      1.325      1.541
REMARK INTER + INTRA:          -5.449
REMARK INTER:                  -5.267
REMARK INTRA:                  -0.182
REMARK UNBOUND:                -0.094
REMARK SMILES [NH3+]CCCC[C@@H]([NH3+])C(=O)[O-]
REMARK SMILES IDX 4 1 3 2 2 3 1 4 5 8 6 9 7 10 8 14 9 15 10 16
REMARK H PARENT 1 5 1 6 1 7 7 11 7 12 7 13
REMARK Flexibility Score: inf
ROOT
ATOM      1  C   UNL     1      18.502 -41.297  -9.075  1.00  0.00     0.012 C 
ENDROOT
BRANCH   1   2
ATOM      2  C   UNL     1      18.430 -42.532  -8.157  1.00  0.00     0.061 C 
BRANCH   2   3
ATOM      3  C   UNL     1      17.274 -43.504  -8.463  1.00  0.00     0.258 C 
BRANCH   3   4
ATOM      4  N   UNL     1      16.851 -44.257  -7.280  1.00  0.00    -0.358 N 
ATOM      5  H   UNL     1      16.856 -45.277  -7.507  1.00  0.00     0.344 HD
ATOM      6  H   UNL     1      15.879 -43.986  -7.008  1.00  0.00     0.344 HD
ATOM      7  H   UNL     1      17.507 -44.086  -6.484  1.00  0.00     0.344 HD
ENDBRANCH   3   4
ENDBRANCH   2   3
ENDBRANCH   1   2
BRANCH   1   8
ATOM      8  C   UNL     1      19.524 -40.253  -8.593  1.00  0.00     0.072 C 
BRANCH   8   9
ATOM      9  C   UNL     1      18.853 -38.964  -8.065  1.00  0.00     0.227 C 
BRANCH   9  10
ATOM     10  N   UNL     1      17.461 -38.845  -8.522  1.00  0.00    -0.350 N 
ATOM     11  H   UNL     1      17.172 -37.841  -8.578  1.00  0.00     0.345 HD
ATOM     12  H   UNL     1      17.357 -39.282  -9.466  1.00  0.00     0.345 HD
ATOM     13  H   UNL     1      16.822 -39.354  -7.872  1.00  0.00     0.345 HD
ENDBRANCH   9  10
BRANCH   9  14
ATOM     14  C   UNL     1      18.905 -38.948  -6.559  1.00  0.00     0.099 C 
ATOM     15  O   UNL     1      18.123 -39.670  -5.885  1.00  0.00    -0.544 OA
ATOM     16  O   UNL     1      19.835 -38.149  -5.905  1.00  0.00    -0.544 OA
ENDBRANCH   9  14
ENDBRANCH   8   9
ENDBRANCH   1   8
TORSDOF 7
ENDMDL
MODEL 3
REMARK VINA RESULT:    -3.962      1.341      1.516
REMARK INTER + INTRA:          -5.445
REMARK INTER:                  -5.274
REMARK INTRA:                  -0.172
REMARK UNBOUND:                -0.094
REMARK SMILES [NH3+]CCCC[C@@H]([NH3+])C(=O)[O-]
REMARK SMILES IDX 4 1 3 2 2 3 1 4 5 8 6 9 7 10 8 14 9 15 10 16
REMARK H PARENT 1 5 1 6 1 7 7 11 7 12 7 13
REMARK Flexibility Score: inf
ROOT
ATOM      1  C   UNL     1      18.367 -41.272  -9.015  1.00  0.00     0.012 C 
ENDROOT
BRANCH   1   2
ATOM      2  C   UNL     1      18.415 -42.572  -8.192  1.00  0.00     0.061 C 
BRANCH   2   3
ATOM      3  C   UNL     1      17.251 -43.549  -8.450  1.00  0.00     0.258 C 
BRANCH   3   4
ATOM      4  N   UNL     1      16.825 -44.242  -7.233  1.00  0.00    -0.358 N 
ATOM      5  H   UNL     1      17.268 -45.189  -7.208  1.00  0.00     0.344 HD
ATOM      6  H   UNL     1      15.787 -44.366  -7.231  1.00  0.00     0.344 HD
ATOM      7  H   UNL     1      17.124 -43.709  -6.384  1.00  0.00     0.344 HD
ENDBRANCH   3   4
ENDBRANCH   2   3
ENDBRANCH   1   2
BRANCH   1   8
ATOM      8  C   UNL     1      19.441 -40.255  -8.590  1.00  0.00     0.072 C 
BRANCH   8   9
ATOM      9  C   UNL     1      18.834 -38.942  -8.045  1.00  0.00     0.227 C 
BRANCH   9  10
ATOM     10  N   UNL     1      17.442 -38.760  -8.481  1.00  0.00    -0.350 N 
ATOM     11  H   UNL     1      17.070 -39.635  -8.916  1.00  0.00     0.345 HD
ATOM     12  H   UNL     1      16.843 -38.506  -7.662  1.00  0.00     0.345 HD
ATOM     13  H   UNL     1      17.378 -37.976  -9.168  1.00  0.00     0.345 HD
ENDBRANCH   9  10
BRANCH   9  14
ATOM     14  C   UNL     1      18.909 -38.938  -6.540  1.00  0.00     0.099 C 
ATOM     15  O   UNL     1      19.739 -38.200  -5.945  1.00  0.00    -0.544 OA
ATOM     16  O   UNL     1      18.046 -39.734  -5.799  1.00  0.00    -0.544 OA
ENDBRANCH   9  14
ENDBRANCH   8   9
ENDBRANCH   1   8
TORSDOF 7
ENDMDL
MODEL 4
REMARK VINA RESULT:    -3.686      3.454      5.288
REMARK INTER + INTRA:          -5.072
REMARK INTER:                  -4.973
REMARK INTRA:                  -0.099
REMARK UNBOUND:                -0.094
REMARK SMILES [NH3+]CCCC[C@@H]([NH3+])C(=O)[O-]
REMARK SMILES IDX 4 1 3 2 2 3 1 4 5 8 6 9 7 10 8 14 9 15 10 16
REMARK H PARENT 1 5 1 6 1 7 7 11 7 12 7 13
REMARK Flexibility Score: inf
ROOT
ATOM      1  C   UNL     1      18.276 -40.492  -7.244  1.00  0.00     0.012 C 
ENDROOT
BRANCH   1   2
ATOM      2  C   UNL     1      18.453 -38.979  -7.470  1.00  0.00     0.061 C 
BRANCH   2   3
ATOM      3  C   UNL     1      19.857 -38.432  -7.146  1.00  0.00     0.258 C 
BRANCH   3   4
ATOM      4  N   UNL     1      19.935 -37.856  -5.803  1.00  0.00    -0.358 N 
ATOM      5  H   UNL     1      19.556 -36.882  -5.828  1.00  0.00     0.344 HD
ATOM      6  H   UNL     1      20.930 -37.812  -5.485  1.00  0.00     0.344 HD
ATOM      7  H   UNL     1      19.368 -38.420  -5.129  1.00  0.00     0.344 HD
ENDBRANCH   3   4
ENDBRANCH   2   3
ENDBRANCH   1   2
BRANCH   1   8
ATOM      8  C   UNL     1      18.573 -41.323  -8.505  1.00  0.00     0.072 C 
BRANCH   8   9
ATOM      9  C   UNL     1      18.228 -42.819  -8.325  1.00  0.00     0.227 C 
BRANCH   9  10
ATOM     10  N   UNL     1      17.907 -43.143  -6.928  1.00  0.00    -0.350 N 
ATOM     11  H   UNL     1      17.203 -43.915  -6.876  1.00  0.00     0.345 HD
ATOM     12  H   UNL     1      18.774 -43.439  -6.422  1.00  0.00     0.345 HD
ATOM     13  H   UNL     1      17.534 -42.300  -6.438  1.00  0.00     0.345 HD
ENDBRANCH   9  10
BRANCH   9  14
ATOM     14  C   UNL     1      17.071 -43.182  -9.219  1.00  0.00     0.099 C 
ATOM     15  O   UNL     1      16.607 -42.342 -10.035  1.00  0.00    -0.544 OA
ATOM     16  O   UNL     1      16.522 -44.457  -9.162  1.00  0.00    -0.544 OA
ENDBRANCH   9  14
ENDBRANCH   8   9
ENDBRANCH   1   8
TORSDOF 7
ENDMDL
MODEL 5
REMARK VINA RESULT:    -3.363      3.387      4.781
REMARK INTER + INTRA:          -4.636
REMARK INTER:                  -4.146
REMARK INTRA:                  -0.490
REMARK UNBOUND:                -0.094
REMARK SMILES [NH3+]CCCC[C@@H]([NH3+])C(=O)[O-]
REMARK SMILES IDX 4 1 3 2 2 3 1 4 5 8 6 9 7 10 8 14 9 15 10 16
REMARK H PARENT 1 5 1 6 1 7 7 11 7 12 7 13
REMARK Flexibility Score: inf
ROOT
ATOM      1  C   UNL     1      18.346 -39.457  -9.512  1.00  0.00     0.012 C 
ENDROOT
BRANCH   1   2
ATOM      2  C   UNL     1      18.042 -38.657  -8.232  1.00  0.00     0.061 C 
BRANCH   2   3
ATOM      3  C   UNL     1      18.874 -39.062  -6.998  1.00  0.00     0.258 C 
BRANCH   3   4
ATOM      4  N   UNL     1      18.177 -40.032  -6.150  1.00  0.00    -0.358 N 
ATOM      5  H   UNL     1      17.966 -39.587  -5.229  1.00  0.00     0.344 HD
ATOM      6  H   UNL     1      18.784 -40.866  -5.980  1.00  0.00     0.344 HD
ATOM      7  H   UNL     1      17.278 -40.327  -6.595  1.00  0.00     0.344 HD
ENDBRANCH   3   4
ENDBRANCH   2   3
ENDBRANCH   1   2
BRANCH   1   8
ATOM      8  C   UNL     1      17.458 -40.705  -9.662  1.00  0.00     0.072 C 
BRANCH   8   9
ATOM      9  C   UNL     1      18.273 -42.019  -9.652  1.00  0.00     0.227 C 
BRANCH   9  10
ATOM     10  N   UNL     1      19.691 -41.782  -9.346  1.00  0.00    -0.350 N 
ATOM     11  H   UNL     1      19.979 -40.819  -9.636  1.00  0.00     0.345 HD
ATOM     12  H   UNL     1      19.857 -41.891  -8.318  1.00  0.00     0.345 HD
ATOM     13  H   UNL     1      20.289 -42.485  -9.834  1.00  0.00     0.345 HD
ENDBRANCH   9  10
BRANCH   9  14
ATOM     14  C   UNL     1      17.680 -42.974  -8.649  1.00  0.00     0.099 C 
ATOM     15  O   UNL     1      18.060 -42.955  -7.448  1.00  0.00    -0.544 OA
ATOM     16  O   UNL     1      16.692 -43.868  -9.041  1.00  0.00    -0.544 OA
ENDBRANCH   9  14
ENDBRANCH   8   9
ENDBRANCH   1   8
TORSDOF 7
ENDMDL
MODEL 6
REMARK VINA RESULT:    -3.313      3.505      5.227
REMARK INTER + INTRA:          -4.569
REMARK INTER:                  -4.473
REMARK INTRA:                  -0.096
REMARK UNBOUND:                -0.094
REMARK SMILES [NH3+]CCCC[C@@H]([NH3+])C(=O)[O-]
REMARK SMILES IDX 4 1 3 2 2 3 1 4 5 8 6 9 7 10 8 14 9 15 10 16
REMARK H PARENT 1 5 1 6 1 7 7 11 7 12 7 13
REMARK Flexibility Score: inf
ROOT
ATOM      1  C   UNL     1      19.592 -39.819  -8.375  1.00  0.00     0.012 C 
ENDROOT
BRANCH   1   2
ATOM      2  C   UNL     1      19.526 -38.453  -7.668  1.00  0.00     0.061 C 
BRANCH   2   3
ATOM      3  C   UNL     1      19.373 -38.519  -6.136  1.00  0.00     0.258 C 
BRANCH   3   4
ATOM      4  N   UNL     1      20.294 -37.615  -5.444  1.00  0.00    -0.358 N 
ATOM      5  H   UNL     1      20.928 -38.178  -4.834  1.00  0.00     0.344 HD
ATOM      6  H   UNL     1      19.761 -36.950  -4.838  1.00  0.00     0.344 HD
ATOM      7  H   UNL     1      20.874 -37.085  -6.134  1.00  0.00     0.344 HD
ENDBRANCH   3   4
ENDBRANCH   2   3
ENDBRANCH   1   2
BRANCH   1   8
ATOM      8  C   UNL     1      18.225 -40.521  -8.449  1.00  0.00     0.072 C 
BRANCH   8   9
ATOM      9  C   UNL     1      18.212 -41.692  -9.459  1.00  0.00     0.227 C 
BRANCH   9  10
ATOM     10  N   UNL     1      19.541 -41.930 -10.039  1.00  0.00    -0.350 N 
ATOM     11  H   UNL     1      20.062 -41.030 -10.158  1.00  0.00     0.345 HD
ATOM     12  H   UNL     1      20.094 -42.563  -9.416  1.00  0.00     0.345 HD
ATOM     13  H   UNL     1      19.452 -42.404 -10.965  1.00  0.00     0.345 HD
ENDBRANCH   9  10
BRANCH   9  14
ATOM     14  C   UNL     1      17.715 -42.941  -8.777  1.00  0.00     0.099 C 
ATOM     15  O   UNL     1      16.940 -43.731  -9.379  1.00  0.00    -0.544 OA
ATOM     16  O   UNL     1      18.127 -43.237  -7.484  1.00  0.00    -0.544 OA
ENDBRANCH   9  14
ENDBRANCH   8   9
ENDBRANCH   1   8
TORSDOF 7
ENDMDL
MODEL 7
REMARK VINA RESULT:    -3.184      2.734      3.684
REMARK INTER + INTRA:          -4.394
REMARK INTER:                  -4.256
REMARK INTRA:                  -0.138
REMARK UNBOUND:                -0.094
REMARK SMILES [NH3+]CCCC[C@@H]([NH3+])C(=O)[O-]
REMARK SMILES IDX 4 1 3 2 2 3 1 4 5 8 6 9 7 10 8 14 9 15 10 16
REMARK H PARENT 1 5 1 6 1 7 7 11 7 12 7 13
REMARK Flexibility Score: inf
ROOT
ATOM      1  C   UNL     1      19.993 -41.263  -8.978  1.00  0.00     0.012 C 
ENDROOT
BRANCH   1   2
ATOM      2  C   UNL     1      20.783 -40.280  -9.861  1.00  0.00     0.061 C 
BRANCH   2   3
ATOM      3  C   UNL     1      22.162 -39.872  -9.307  1.00  0.00     0.258 C 
BRANCH   3   4
ATOM      4  N   UNL     1      23.126 -40.973  -9.345  1.00  0.00    -0.358 N 
ATOM      5  H   UNL     1      23.352 -41.193 -10.342  1.00  0.00     0.344 HD
ATOM      6  H   UNL     1      22.716 -41.829  -8.906  1.00  0.00     0.344 HD
ATOM      7  H   UNL     1      24.008 -40.705  -8.851  1.00  0.00     0.344 HD
ENDBRANCH   3   4
ENDBRANCH   2   3
ENDBRANCH   1   2
BRANCH   1   8
ATOM      8  C   UNL     1      18.704 -40.649  -8.404  1.00  0.00     0.072 C 
BRANCH   8   9
ATOM      9  C   UNL     1      18.869 -39.156  -8.039  1.00  0.00     0.227 C 
BRANCH   9  10
ATOM     10  N   UNL     1      17.789 -38.332  -8.600  1.00  0.00    -0.350 N 
ATOM     11  H   UNL     1      16.885 -38.516  -8.107  1.00  0.00     0.345 HD
ATOM     12  H   UNL     1      18.028 -37.318  -8.505  1.00  0.00     0.345 HD
ATOM     13  H   UNL     1      17.675 -38.531  -9.619  1.00  0.00     0.345 HD
ENDBRANCH   9  10
BRANCH   9  14
ATOM     14  C   UNL     1      18.910 -39.003  -6.540  1.00  0.00     0.099 C 
ATOM     15  O   UNL     1      18.115 -39.654  -5.811  1.00  0.00    -0.544 OA
ATOM     16  O   UNL     1      19.841 -38.156  -5.953  1.00  0.00    -0.544 OA
ENDBRANCH   9  14
ENDBRANCH   8   9
ENDBRANCH   1   8
TORSDOF 7
ENDMDL
MODEL 8
REMARK VINA RESULT:    -3.072      2.404      2.858
REMARK INTER + INTRA:          -4.243
REMARK INTER:                  -3.813
REMARK INTRA:                  -0.429
REMARK UNBOUND:                -0.094
REMARK SMILES [NH3+]CCCC[C@@H]([NH3+])C(=O)[O-]
REMARK SMILES IDX 4 1 3 2 2 3 1 4 5 8 6 9 7 10 8 14 9 15 10 16
REMARK H PARENT 1 5 1 6 1 7 7 11 7 12 7 13
REMARK Flexibility Score: inf
ROOT
ATOM      1  C   UNL     1      21.014 -40.195  -8.999  1.00  0.00     0.012 C 
ENDROOT
BRANCH   1   2
ATOM      2  C   UNL     1      20.615 -41.244 -10.054  1.00  0.00     0.061 C 
BRANCH   2   3
ATOM      3  C   UNL     1      19.117 -41.604 -10.079  1.00  0.00     0.258 C 
BRANCH   3   4
ATOM      4  N   UNL     1      18.701 -42.344  -8.885  1.00  0.00    -0.358 N 
ATOM      5  H   UNL     1      18.467 -41.662  -8.128  1.00  0.00     0.344 HD
ATOM      6  H   UNL     1      19.479 -42.954  -8.548  1.00  0.00     0.344 HD
ATOM      7  H   UNL     1      17.854 -42.923  -9.090  1.00  0.00     0.344 HD
ENDBRANCH   3   4
ENDBRANCH   2   3
ENDBRANCH   1   2
BRANCH   1   8
ATOM      8  C   UNL     1      20.163 -38.916  -9.076  1.00  0.00     0.072 C 
BRANCH   8   9
ATOM      9  C   UNL     1      19.975 -38.243  -7.696  1.00  0.00     0.227 C 
BRANCH   9  10
ATOM     10  N   UNL     1      19.659 -36.813  -7.823  1.00  0.00    -0.350 N 
ATOM     11  H   UNL     1      19.691 -36.511  -8.823  1.00  0.00     0.345 HD
ATOM     12  H   UNL     1      18.703 -36.625  -7.441  1.00  0.00     0.345 HD
ATOM     13  H   UNL     1      20.334 -36.243  -7.266  1.00  0.00     0.345 HD
ENDBRANCH   9  10
BRANCH   9  14
ATOM     14  C   UNL     1      18.884 -38.949  -6.934  1.00  0.00     0.099 C 
ATOM     15  O   UNL     1      18.903 -38.980  -5.675  1.00  0.00    -0.544 OA
ATOM     16  O   UNL     1      17.837 -39.553  -7.619  1.00  0.00    -0.544 OA
ENDBRANCH   9  14
ENDBRANCH   8   9
ENDBRANCH   1   8
TORSDOF 7
ENDMDL
MODEL 9
REMARK VINA RESULT:    -2.925     14.046     14.778
REMARK INTER + INTRA:          -4.044
REMARK INTER:                  -3.563
REMARK INTRA:                  -0.481
REMARK UNBOUND:                -0.094
REMARK SMILES [NH3+]CCCC[C@@H]([NH3+])C(=O)[O-]
REMARK SMILES IDX 4 1 3 2 2 3 1 4 5 8 6 9 7 10 8 14 9 15 10 16
REMARK H PARENT 1 5 1 6 1 7 7 11 7 12 7 13
REMARK Flexibility Score: inf
ROOT
ATOM      1  C   UNL     1       5.650 -37.470  -2.909  1.00  0.00     0.012 C 
ENDROOT
BRANCH   1   2
ATOM      2  C   UNL     1       6.982 -36.724  -3.110  1.00  0.00     0.061 C 
BRANCH   2   3
ATOM      3  C   UNL     1       7.305 -35.667  -2.035  1.00  0.00     0.258 C 
BRANCH   3   4
ATOM      4  N   UNL     1       8.439 -36.056  -1.194  1.00  0.00    -0.358 N 
ATOM      5  H   UNL     1       8.904 -36.892  -1.616  1.00  0.00     0.344 HD
ATOM      6  H   UNL     1       8.107 -36.314  -0.237  1.00  0.00     0.344 HD
ATOM      7  H   UNL     1       9.135 -35.278  -1.135  1.00  0.00     0.344 HD
ENDBRANCH   3   4
ENDBRANCH   2   3
ENDBRANCH   1   2
BRANCH   1   8
ATOM      8  C   UNL     1       5.023 -37.213  -1.527  1.00  0.00     0.072 C 
BRANCH   8   9
ATOM      9  C   UNL     1       4.852 -38.508  -0.702  1.00  0.00     0.227 C 
BRANCH   9  10
ATOM     10  N   UNL     1       4.994 -39.711  -1.535  1.00  0.00    -0.350 N 
ATOM     11  H   UNL     1       4.589 -39.555  -2.487  1.00  0.00     0.345 HD
ATOM     12  H   UNL     1       6.005 -39.960  -1.632  1.00  0.00     0.345 HD
ATOM     13  H   UNL     1       4.516 -40.522  -1.083  1.00  0.00     0.345 HD
ENDBRANCH   9  10
BRANCH   9  14
ATOM     14  C   UNL     1       5.861 -38.532   0.417  1.00  0.00     0.099 C 
ATOM     15  O   UNL     1       6.468 -37.480   0.752  1.00  0.00    -0.544 OA
ATOM     16  O   UNL     1       6.111 -39.715   1.101  1.00  0.00    -0.544 OA
ENDBRANCH   9  14
ENDBRANCH   8   9
ENDBRANCH   1   8
TORSDOF 7
ENDMDL
