MODEL 1
REMARK VINA RESULT:    -5.040      0.000      0.000
REMARK INTER + INTRA:          -6.475
REMARK INTER:                  -6.219
REMARK INTRA:                  -0.257
REMARK UNBOUND:                -0.257
REMARK SMILES O=c1c(O)c(-c2cc(O)c(O)c(O)c2)oc2cc(O)cc(O)c12
REMARK SMILES IDX 5 1 3 2 2 3 1 4 23 5 21 6 20 7 18 8 17 9 16 10 15 11 6 12
REMARK SMILES IDX 7 13 8 14 14 15 10 16 12 17 9 18 11 20 13 22 4 24 22 26
REMARK SMILES IDX 19 28
REMARK H PARENT 9 19 11 21 13 23 4 25 22 27 19 29
REMARK Flexibility Score: inf
ROOT
ATOM      1  C   UNL     1      15.686  54.827  30.499  1.00  0.00     0.180 A 
ATOM      2  C   UNL     1      15.683  54.739  29.094  1.00  0.00     0.208 A 
ATOM      3  C   UNL     1      15.385  53.507  28.492  1.00  0.00     0.238 A 
ATOM      4  O   UNL     1      15.369  53.419  27.233  1.00  0.00    -0.285 OA
ATOM      5  C   UNL     1      15.117  52.383  29.300  1.00  0.00     0.111 A 
ATOM      6  C   UNL     1      14.812  51.105  28.772  1.00  0.00     0.134 A 
ATOM      7  C   UNL     1      14.566  50.033  29.643  1.00  0.00     0.093 A 
ATOM      8  C   UNL     1      14.618  50.214  31.028  1.00  0.00     0.123 A 
ATOM      9  C   UNL     1      14.917  51.474  31.555  1.00  0.00     0.094 A 
ATOM     10  C   UNL     1      15.164  52.555  30.703  1.00  0.00     0.146 A 
ATOM     11  O   UNL     1      15.442  53.742  31.229  1.00  0.00    -0.452 OA
ENDROOT
BRANCH   1  12
ATOM     12  C   UNL     1      15.971  56.096  31.208  1.00  0.00     0.029 A 
ATOM     13  C   UNL     1      14.966  56.785  31.908  1.00  0.00     0.062 A 
ATOM     14  C   UNL     1      15.258  57.970  32.591  1.00  0.00     0.162 A 
ATOM     15  C   UNL     1      17.283  56.593  31.230  1.00  0.00     0.062 A 
ATOM     16  C   UNL     1      16.570  58.476  32.590  1.00  0.00     0.200 A 
ATOM     17  C   UNL     1      17.584  57.781  31.910  1.00  0.00     0.162 A 
BRANCH  14  18
ATOM     18  O   UNL     1      14.233  58.627  33.269  1.00  0.00    -0.504 OA
ATOM     19  H   UNL     1      13.402  58.144  33.590  1.00  0.00     0.293 HD
ENDBRANCH  14  18
BRANCH  16  20
ATOM     20  O   UNL     1      16.851  59.661  33.270  1.00  0.00    -0.502 OA
ATOM     21  H   UNL     1      16.189  60.425  33.321  1.00  0.00     0.293 HD
ENDBRANCH  16  20
BRANCH  17  22
ATOM     22  O   UNL     1      18.889  58.273  31.912  1.00  0.00    -0.504 OA
ATOM     23  H   UNL     1      19.439  58.324  31.063  1.00  0.00     0.293 HD
ENDBRANCH  17  22
ENDBRANCH   1  12
BRANCH   2  24
ATOM     24  O   UNL     1      16.000  55.856  28.316  1.00  0.00    -0.502 OA
ATOM     25  H   UNL     1      15.297  56.388  27.818  1.00  0.00     0.293 HD
ENDBRANCH   2  24
BRANCH   6  26
ATOM     26  O   UNL     1      14.753  50.892  27.394  1.00  0.00    -0.507 OA
ATOM     27  H   UNL     1      15.576  50.643  26.858  1.00  0.00     0.293 HD
ENDBRANCH   6  26
BRANCH   8  28
ATOM     28  O   UNL     1      14.370  49.133  31.871  1.00  0.00    -0.508 OA
ATOM     29  H   UNL     1      14.362  49.238  32.879  1.00  0.00     0.293 HD
ENDBRANCH   8  28
TORSDOF 7
ENDMDL
MODEL 2
REMARK VINA RESULT:    -4.839      1.185      2.788
REMARK INTER + INTRA:          -6.227
REMARK INTER:                  -5.951
REMARK INTRA:                  -0.276
REMARK UNBOUND:                -0.257
REMARK SMILES O=c1c(O)c(-c2cc(O)c(O)c(O)c2)oc2cc(O)cc(O)c12
REMARK SMILES IDX 5 1 3 2 2 3 1 4 23 5 21 6 20 7 18 8 17 9 16 10 15 11 6 12
REMARK SMILES IDX 7 13 8 14 14 15 10 16 12 17 9 18 11 20 13 22 4 24 22 26
REMARK SMILES IDX 19 28
REMARK H PARENT 9 19 11 21 13 23 4 25 22 27 19 29
REMARK Flexibility Score: inf
ROOT
ATOM      1  C   UNL     1      15.607  54.822  30.996  1.00  0.00     0.180 A 
ATOM      2  C   UNL     1      15.319  53.749  31.862  1.00  0.00     0.208 A 
ATOM      3  C   UNL     1      15.020  52.494  31.311  1.00  0.00     0.238 A 
ATOM      4  O   UNL     1      14.772  51.523  32.078  1.00  0.00    -0.285 OA
ATOM      5  C   UNL     1      14.992  52.336  29.910  1.00  0.00     0.111 A 
ATOM      6  C   UNL     1      14.695  51.105  29.276  1.00  0.00     0.134 A 
ATOM      7  C   UNL     1      14.678  51.031  27.875  1.00  0.00     0.093 A 
ATOM      8  C   UNL     1      14.951  52.160  27.099  1.00  0.00     0.123 A 
ATOM      9  C   UNL     1      15.246  53.378  27.720  1.00  0.00     0.094 A 
ATOM     10  C   UNL     1      15.269  53.472  29.115  1.00  0.00     0.146 A 
ATOM     11  O   UNL     1      15.557  54.638  29.680  1.00  0.00    -0.452 OA
ENDROOT
BRANCH   1  12
ATOM     12  C   UNL     1      15.951  56.171  31.501  1.00  0.00     0.029 A 
ATOM     13  C   UNL     1      14.980  57.005  32.079  1.00  0.00     0.062 A 
ATOM     14  C   UNL     1      15.327  58.268  32.571  1.00  0.00     0.162 A 
ATOM     15  C   UNL     1      17.285  56.605  31.454  1.00  0.00     0.062 A 
ATOM     16  C   UNL     1      16.661  58.707  32.501  1.00  0.00     0.200 A 
ATOM     17  C   UNL     1      17.641  57.868  31.943  1.00  0.00     0.162 A 
BRANCH  14  18
ATOM     18  O   UNL     1      14.334  59.069  33.133  1.00  0.00    -0.504 OA
ATOM     19  H   UNL     1      14.305  60.072  32.990  1.00  0.00     0.293 HD
ENDBRANCH  14  18
BRANCH  16  20
ATOM     20  O   UNL     1      16.998  59.969  32.991  1.00  0.00    -0.502 OA
ATOM     21  H   UNL     1      16.645  60.821  32.574  1.00  0.00     0.293 HD
ENDBRANCH  16  20
BRANCH  17  22
ATOM     22  O   UNL     1      18.968  58.294  31.878  1.00  0.00    -0.504 OA
ATOM     23  H   UNL     1      19.282  58.944  31.167  1.00  0.00     0.293 HD
ENDBRANCH  17  22
ENDBRANCH   1  12
BRANCH   2  24
ATOM     24  O   UNL     1      15.306  53.945  33.246  1.00  0.00    -0.502 OA
ATOM     25  H   UNL     1      14.449  54.092  33.765  1.00  0.00     0.293 HD
ENDBRANCH   2  24
BRANCH   6  26
ATOM     26  O   UNL     1      14.417  49.960  30.024  1.00  0.00    -0.507 OA
ATOM     27  H   UNL     1      14.740  49.856  30.979  1.00  0.00     0.293 HD
ENDBRANCH   6  26
BRANCH   8  28
ATOM     28  O   UNL     1      14.927  52.060  25.709  1.00  0.00    -0.508 OA
ATOM     29  H   UNL     1      15.643  51.553  25.203  1.00  0.00     0.293 HD
ENDBRANCH   8  28
TORSDOF 7
ENDMDL
MODEL 3
REMARK VINA RESULT:    -4.826      2.531      7.528
REMARK INTER + INTRA:          -6.211
REMARK INTER:                  -5.859
REMARK INTRA:                  -0.352
REMARK UNBOUND:                -0.257
REMARK SMILES O=c1c(O)c(-c2cc(O)c(O)c(O)c2)oc2cc(O)cc(O)c12
REMARK SMILES IDX 5 1 3 2 2 3 1 4 23 5 21 6 20 7 18 8 17 9 16 10 15 11 6 12
REMARK SMILES IDX 7 13 8 14 14 15 10 16 12 17 9 18 11 20 13 22 4 24 22 26
REMARK SMILES IDX 19 28
REMARK H PARENT 9 19 11 21 13 23 4 25 22 27 19 29
REMARK Flexibility Score: inf
ROOT
ATOM      1  C   UNL     1      15.187  51.568  31.134  1.00  0.00     0.180 A 
ATOM      2  C   UNL     1      15.287  52.597  30.179  1.00  0.00     0.208 A 
ATOM      3  C   UNL     1      15.274  53.930  30.615  1.00  0.00     0.238 A 
ATOM      4  O   UNL     1      15.374  54.862  29.769  1.00  0.00    -0.285 OA
ATOM      5  C   UNL     1      15.139  54.213  31.990  1.00  0.00     0.111 A 
ATOM      6  C   UNL     1      15.113  55.529  32.511  1.00  0.00     0.134 A 
ATOM      7  C   UNL     1      14.967  55.728  33.892  1.00  0.00     0.093 A 
ATOM      8  C   UNL     1      14.847  54.639  34.760  1.00  0.00     0.123 A 
ATOM      9  C   UNL     1      14.874  53.337  34.251  1.00  0.00     0.094 A 
ATOM     10  C   UNL     1      15.020  53.118  32.878  1.00  0.00     0.146 A 
ATOM     11  O   UNL     1      15.047  51.872  32.421  1.00  0.00    -0.452 OA
ENDROOT
BRANCH   1  12
ATOM     12  C   UNL     1      15.214  50.136  30.754  1.00  0.00     0.029 A 
ATOM     13  C   UNL     1      16.425  49.466  30.511  1.00  0.00     0.062 A 
ATOM     14  C   UNL     1      16.434  48.109  30.175  1.00  0.00     0.162 A 
ATOM     15  C   UNL     1      14.011  49.417  30.691  1.00  0.00     0.062 A 
ATOM     16  C   UNL     1      15.223  47.398  30.091  1.00  0.00     0.200 A 
ATOM     17  C   UNL     1      14.010  48.057  30.354  1.00  0.00     0.162 A 
BRANCH  14  18
ATOM     18  O   UNL     1      17.656  47.481  29.936  1.00  0.00    -0.504 OA
ATOM     19  H   UNL     1      17.874  47.048  29.046  1.00  0.00     0.293 HD
ENDBRANCH  14  18
BRANCH  16  20
ATOM     20  O   UNL     1      15.241  46.045  29.752  1.00  0.00    -0.502 OA
ATOM     21  H   UNL     1      14.668  45.362  30.231  1.00  0.00     0.293 HD
ENDBRANCH  16  20
BRANCH  17  22
ATOM     22  O   UNL     1      12.806  47.356  30.280  1.00  0.00    -0.504 OA
ATOM     23  H   UNL     1      12.075  47.624  29.632  1.00  0.00     0.293 HD
ENDBRANCH  17  22
ENDBRANCH   1  12
BRANCH   2  24
ATOM     24  O   UNL     1      15.370  52.291  28.817  1.00  0.00    -0.502 OA
ATOM     25  H   UNL     1      14.580  51.937  28.292  1.00  0.00     0.293 HD
ENDBRANCH   2  24
BRANCH   6  26
ATOM     26  O   UNL     1      15.229  56.638  31.671  1.00  0.00    -0.507 OA
ATOM     27  H   UNL     1      15.105  56.561  30.667  1.00  0.00     0.293 HD
ENDBRANCH   6  26
BRANCH   8  28
ATOM     28  O   UNL     1      14.703  54.864  36.127  1.00  0.00    -0.508 OA
ATOM     29  H   UNL     1      14.473  55.781  36.492  1.00  0.00     0.293 HD
ENDBRANCH   8  28
TORSDOF 7
ENDMDL
MODEL 4
REMARK VINA RESULT:    -4.772      1.322      7.301
REMARK INTER + INTRA:          -6.144
REMARK INTER:                  -5.828
REMARK INTRA:                  -0.316
REMARK UNBOUND:                -0.257
REMARK SMILES O=c1c(O)c(-c2cc(O)c(O)c(O)c2)oc2cc(O)cc(O)c12
REMARK SMILES IDX 5 1 3 2 2 3 1 4 23 5 21 6 20 7 18 8 17 9 16 10 15 11 6 12
REMARK SMILES IDX 7 13 8 14 14 15 10 16 12 17 9 18 11 20 13 22 4 24 22 26
REMARK SMILES IDX 19 28
REMARK H PARENT 9 19 11 21 13 23 4 25 22 27 19 29
REMARK Flexibility Score: inf
ROOT
ATOM      1  C   UNL     1      14.629  53.926  31.238  1.00  0.00     0.180 A 
ATOM      2  C   UNL     1      13.548  54.551  31.889  1.00  0.00     0.208 A 
ATOM      3  C   UNL     1      13.715  55.855  32.380  1.00  0.00     0.238 A 
ATOM      4  O   UNL     1      12.749  56.429  32.955  1.00  0.00    -0.285 OA
ATOM      5  C   UNL     1      14.959  56.501  32.234  1.00  0.00     0.111 A 
ATOM      6  C   UNL     1      15.210  57.813  32.705  1.00  0.00     0.134 A 
ATOM      7  C   UNL     1      16.479  58.384  32.529  1.00  0.00     0.093 A 
ATOM      8  C   UNL     1      17.499  57.672  31.892  1.00  0.00     0.123 A 
ATOM      9  C   UNL     1      17.256  56.377  31.424  1.00  0.00     0.094 A 
ATOM     10  C   UNL     1      15.998  55.791  31.588  1.00  0.00     0.146 A 
ATOM     11  O   UNL     1      15.792  54.562  31.131  1.00  0.00    -0.452 OA
ENDROOT
BRANCH   1  12
ATOM     12  C   UNL     1      14.525  52.560  30.674  1.00  0.00     0.029 A 
ATOM     13  C   UNL     1      14.390  52.347  29.292  1.00  0.00     0.062 A 
ATOM     14  C   UNL     1      14.316  51.050  28.775  1.00  0.00     0.162 A 
ATOM     15  C   UNL     1      14.621  51.452  31.530  1.00  0.00     0.062 A 
ATOM     16  C   UNL     1      14.389  49.943  29.640  1.00  0.00     0.200 A 
ATOM     17  C   UNL     1      14.546  50.149  31.021  1.00  0.00     0.162 A 
BRANCH  14  18
ATOM     18  O   UNL     1      14.177  50.880  27.398  1.00  0.00    -0.504 OA
ATOM     19  H   UNL     1      14.128  49.962  26.970  1.00  0.00     0.293 HD
ENDBRANCH  14  18
BRANCH  16  20
ATOM     20  O   UNL     1      14.311  48.653  29.116  1.00  0.00    -0.502 OA
ATOM     21  H   UNL     1      13.740  47.932  29.539  1.00  0.00     0.293 HD
ENDBRANCH  16  20
BRANCH  17  22
ATOM     22  O   UNL     1      14.628  49.056  31.884  1.00  0.00    -0.504 OA
ATOM     23  H   UNL     1      13.893  48.849  32.550  1.00  0.00     0.293 HD
ENDBRANCH  17  22
ENDBRANCH   1  12
BRANCH   2  24
ATOM     24  O   UNL     1      12.340  53.870  32.064  1.00  0.00    -0.502 OA
ATOM     25  H   UNL     1      12.301  52.872  32.235  1.00  0.00     0.293 HD
ENDBRANCH   2  24
BRANCH   6  26
ATOM     26  O   UNL     1      14.213  58.550  33.346  1.00  0.00    -0.507 OA
ATOM     27  H   UNL     1      14.280  58.799  34.326  1.00  0.00     0.293 HD
ENDBRANCH   6  26
BRANCH   8  28
ATOM     28  O   UNL     1      18.751  58.262  31.730  1.00  0.00    -0.508 OA
ATOM     29  H   UNL     1      18.992  59.129  32.196  1.00  0.00     0.293 HD
ENDBRANCH   8  28
TORSDOF 7
ENDMDL
MODEL 5
REMARK VINA RESULT:    -4.690      3.834      7.437
REMARK INTER + INTRA:          -6.044
REMARK INTER:                  -5.681
REMARK INTRA:                  -0.362
REMARK UNBOUND:                -0.257
REMARK SMILES O=c1c(O)c(-c2cc(O)c(O)c(O)c2)oc2cc(O)cc(O)c12
REMARK SMILES IDX 5 1 3 2 2 3 1 4 23 5 21 6 20 7 18 8 17 9 16 10 15 11 6 12
REMARK SMILES IDX 7 13 8 14 14 15 10 16 12 17 9 18 11 20 13 22 4 24 22 26
REMARK SMILES IDX 19 28
REMARK H PARENT 9 19 11 21 13 23 4 25 22 27 19 29
REMARK Flexibility Score: inf
ROOT
ATOM      1  C   UNL     1      14.607  51.477  31.468  1.00  0.00     0.180 A 
ATOM      2  C   UNL     1      13.429  52.031  30.932  1.00  0.00     0.208 A 
ATOM      3  C   UNL     1      12.830  53.117  31.590  1.00  0.00     0.238 A 
ATOM      4  O   UNL     1      11.780  53.628  31.113  1.00  0.00    -0.285 OA
ATOM      5  C   UNL     1      13.403  53.615  32.778  1.00  0.00     0.111 A 
ATOM      6  C   UNL     1      12.860  54.703  33.503  1.00  0.00     0.134 A 
ATOM      7  C   UNL     1      13.485  55.134  34.682  1.00  0.00     0.093 A 
ATOM      8  C   UNL     1      14.639  54.501  35.149  1.00  0.00     0.123 A 
ATOM      9  C   UNL     1      15.182  53.427  34.436  1.00  0.00     0.094 A 
ATOM     10  C   UNL     1      14.574  52.983  33.258  1.00  0.00     0.146 A 
ATOM     11  O   UNL     1      15.112  51.965  32.598  1.00  0.00    -0.452 OA
ENDROOT
BRANCH   1  12
ATOM     12  C   UNL     1      15.309  50.344  30.821  1.00  0.00     0.029 A 
ATOM     13  C   UNL     1      16.229  50.552  29.780  1.00  0.00     0.062 A 
ATOM     14  C   UNL     1      16.900  49.473  29.196  1.00  0.00     0.162 A 
ATOM     15  C   UNL     1      15.096  49.041  31.295  1.00  0.00     0.062 A 
ATOM     16  C   UNL     1      16.665  48.166  29.659  1.00  0.00     0.200 A 
ATOM     17  C   UNL     1      15.762  47.953  30.715  1.00  0.00     0.162 A 
BRANCH  14  18
ATOM     18  O   UNL     1      17.801  49.719  28.160  1.00  0.00    -0.504 OA
ATOM     19  H   UNL     1      18.538  50.409  28.240  1.00  0.00     0.293 HD
ENDBRANCH  14  18
BRANCH  16  20
ATOM     20  O   UNL     1      17.335  47.095  29.068  1.00  0.00    -0.502 OA
ATOM     21  H   UNL     1      18.221  46.753  29.419  1.00  0.00     0.293 HD
ENDBRANCH  16  20
BRANCH  17  22
ATOM     22  O   UNL     1      15.531  46.661  31.185  1.00  0.00    -0.504 OA
ATOM     23  H   UNL     1      15.865  46.357  32.092  1.00  0.00     0.293 HD
ENDBRANCH  17  22
ENDBRANCH   1  12
BRANCH   2  24
ATOM     24  O   UNL     1      12.853  51.487  29.780  1.00  0.00    -0.502 OA
ATOM     25  H   UNL     1      12.930  51.933  28.874  1.00  0.00     0.293 HD
ENDBRANCH   2  24
BRANCH   6  26
ATOM     26  O   UNL     1      11.707  55.355  33.063  1.00  0.00    -0.507 OA
ATOM     27  H   UNL     1      10.841  55.320  33.589  1.00  0.00     0.293 HD
ENDBRANCH   6  26
BRANCH   8  28
ATOM     28  O   UNL     1      15.241  54.949  36.324  1.00  0.00    -0.508 OA
ATOM     29  H   UNL     1      14.690  55.261  37.115  1.00  0.00     0.293 HD
ENDBRANCH   8  28
TORSDOF 7
ENDMDL
MODEL 6
REMARK VINA RESULT:    -4.677      2.320      7.726
REMARK INTER + INTRA:          -6.027
REMARK INTER:                  -5.750
REMARK INTRA:                  -0.277
REMARK UNBOUND:                -0.257
REMARK SMILES O=c1c(O)c(-c2cc(O)c(O)c(O)c2)oc2cc(O)cc(O)c12
REMARK SMILES IDX 5 1 3 2 2 3 1 4 23 5 21 6 20 7 18 8 17 9 16 10 15 11 6 12
REMARK SMILES IDX 7 13 8 14 14 15 10 16 12 17 9 18 11 20 13 22 4 24 22 26
REMARK SMILES IDX 19 28
REMARK H PARENT 9 19 11 21 13 23 4 25 22 27 19 29
REMARK Flexibility Score: inf
ROOT
ATOM      1  C   UNL     1      15.303  50.668  30.652  1.00  0.00     0.180 A 
ATOM      2  C   UNL     1      15.302  51.185  29.342  1.00  0.00     0.208 A 
ATOM      3  C   UNL     1      15.336  52.576  29.163  1.00  0.00     0.238 A 
ATOM      4  O   UNL     1      15.347  53.051  27.993  1.00  0.00    -0.285 OA
ATOM      5  C   UNL     1      15.348  53.425  30.289  1.00  0.00     0.111 A 
ATOM      6  C   UNL     1      15.379  54.838  30.193  1.00  0.00     0.134 A 
ATOM      7  C   UNL     1      15.380  55.613  31.362  1.00  0.00     0.093 A 
ATOM      8  C   UNL     1      15.352  55.007  32.620  1.00  0.00     0.123 A 
ATOM      9  C   UNL     1      15.324  53.612  32.720  1.00  0.00     0.094 A 
ATOM     10  C   UNL     1      15.324  52.821  31.568  1.00  0.00     0.146 A 
ATOM     11  O   UNL     1      15.301  51.500  31.690  1.00  0.00    -0.452 OA
ENDROOT
BRANCH   1  12
ATOM     12  C   UNL     1      15.289  49.212  30.924  1.00  0.00     0.029 A 
ATOM     13  C   UNL     1      16.408  48.407  30.656  1.00  0.00     0.062 A 
ATOM     14  C   UNL     1      16.385  47.038  30.940  1.00  0.00     0.162 A 
ATOM     15  C   UNL     1      14.155  48.632  31.514  1.00  0.00     0.062 A 
ATOM     16  C   UNL     1      15.238  46.457  31.510  1.00  0.00     0.200 A 
ATOM     17  C   UNL     1      14.123  47.261  31.800  1.00  0.00     0.162 A 
BRANCH  14  18
ATOM     18  O   UNL     1      17.515  46.271  30.654  1.00  0.00    -0.504 OA
ATOM     19  H   UNL     1      18.427  46.492  31.035  1.00  0.00     0.293 HD
ENDBRANCH  14  18
BRANCH  16  20
ATOM     20  O   UNL     1      15.223  45.090  31.786  1.00  0.00    -0.502 OA
ATOM     21  H   UNL     1      14.537  44.672  32.402  1.00  0.00     0.293 HD
ENDBRANCH  16  20
BRANCH  17  22
ATOM     22  O   UNL     1      12.985  46.694  32.373  1.00  0.00    -0.504 OA
ATOM     23  H   UNL     1      12.826  45.693  32.360  1.00  0.00     0.293 HD
ENDBRANCH  17  22
ENDBRANCH   1  12
BRANCH   2  24
ATOM     24  O   UNL     1      15.240  50.323  28.244  1.00  0.00    -0.502 OA
ATOM     25  H   UNL     1      15.651  50.556  27.348  1.00  0.00     0.293 HD
ENDBRANCH   2  24
BRANCH   6  26
ATOM     26  O   UNL     1      15.405  55.473  28.951  1.00  0.00    -0.507 OA
ATOM     27  H   UNL     1      15.952  55.111  28.178  1.00  0.00     0.293 HD
ENDBRANCH   6  26
BRANCH   8  28
ATOM     28  O   UNL     1      15.354  55.801  33.765  1.00  0.00    -0.508 OA
ATOM     29  H   UNL     1      14.935  56.723  33.771  1.00  0.00     0.293 HD
ENDBRANCH   8  28
TORSDOF 7
ENDMDL
MODEL 7
REMARK VINA RESULT:    -4.611      3.352      4.031
REMARK INTER + INTRA:          -5.946
REMARK INTER:                  -5.733
REMARK INTRA:                  -0.213
REMARK UNBOUND:                -0.257
REMARK SMILES O=c1c(O)c(-c2cc(O)c(O)c(O)c2)oc2cc(O)cc(O)c12
REMARK SMILES IDX 5 1 3 2 2 3 1 4 23 5 21 6 20 7 18 8 17 9 16 10 15 11 6 12
REMARK SMILES IDX 7 13 8 14 14 15 10 16 12 17 9 18 11 20 13 22 4 24 22 26
REMARK SMILES IDX 19 28
REMARK H PARENT 9 19 11 21 13 23 4 25 22 27 19 29
REMARK Flexibility Score: inf
ROOT
ATOM      1  C   UNL     1      15.257  51.742  30.896  1.00  0.00     0.180 A 
ATOM      2  C   UNL     1      15.383  52.168  29.559  1.00  0.00     0.208 A 
ATOM      3  C   UNL     1      15.920  51.283  28.613  1.00  0.00     0.238 A 
ATOM      4  O   UNL     1      16.027  51.650  27.410  1.00  0.00    -0.285 OA
ATOM      5  C   UNL     1      16.343  50.000  29.019  1.00  0.00     0.111 A 
ATOM      6  C   UNL     1      16.900  49.051  28.128  1.00  0.00     0.134 A 
ATOM      7  C   UNL     1      17.305  47.798  28.611  1.00  0.00     0.093 A 
ATOM      8  C   UNL     1      17.164  47.476  29.964  1.00  0.00     0.123 A 
ATOM      9  C   UNL     1      16.614  48.410  30.848  1.00  0.00     0.094 A 
ATOM     10  C   UNL     1      16.203  49.664  30.385  1.00  0.00     0.146 A 
ATOM     11  O   UNL     1      15.680  50.530  31.244  1.00  0.00    -0.452 OA
ENDROOT
BRANCH   1  12
ATOM     12  C   UNL     1      14.681  52.610  31.948  1.00  0.00     0.029 A 
ATOM     13  C   UNL     1      13.343  53.036  31.894  1.00  0.00     0.062 A 
ATOM     14  C   UNL     1      12.808  53.837  32.908  1.00  0.00     0.162 A 
ATOM     15  C   UNL     1      15.468  52.970  33.053  1.00  0.00     0.062 A 
ATOM     16  C   UNL     1      13.608  54.213  34.001  1.00  0.00     0.200 A 
ATOM     17  C   UNL     1      14.941  53.773  34.073  1.00  0.00     0.162 A 
BRANCH  14  18
ATOM     18  O   UNL     1      11.478  54.243  32.815  1.00  0.00    -0.504 OA
ATOM     19  H   UNL     1      11.198  55.052  32.273  1.00  0.00     0.293 HD
ENDBRANCH  14  18
BRANCH  16  20
ATOM     20  O   UNL     1      13.068  55.016  35.006  1.00  0.00    -0.502 OA
ATOM     21  H   UNL     1      12.583  54.626  35.805  1.00  0.00     0.293 HD
ENDBRANCH  16  20
BRANCH  17  22
ATOM     22  O   UNL     1      15.738  54.136  35.158  1.00  0.00    -0.504 OA
ATOM     23  H   UNL     1      15.532  53.819  36.098  1.00  0.00     0.293 HD
ENDBRANCH  17  22
ENDBRANCH   1  12
BRANCH   2  24
ATOM     24  O   UNL     1      15.001  53.462  29.193  1.00  0.00    -0.502 OA
ATOM     25  H   UNL     1      15.504  54.284  29.505  1.00  0.00     0.293 HD
ENDBRANCH   2  24
BRANCH   6  26
ATOM     26  O   UNL     1      17.054  49.342  26.772  1.00  0.00    -0.507 OA
ATOM     27  H   UNL     1      16.657  50.178  26.357  1.00  0.00     0.293 HD
ENDBRANCH   6  26
BRANCH   8  28
ATOM     28  O   UNL     1      17.575  46.225  30.418  1.00  0.00    -0.508 OA
ATOM     29  H   UNL     1      18.542  46.038  30.655  1.00  0.00     0.293 HD
ENDBRANCH   8  28
TORSDOF 7
ENDMDL
MODEL 8
REMARK VINA RESULT:    -4.606      2.670      4.646
REMARK INTER + INTRA:          -5.939
REMARK INTER:                  -5.580
REMARK INTRA:                  -0.359
REMARK UNBOUND:                -0.257
REMARK SMILES O=c1c(O)c(-c2cc(O)c(O)c(O)c2)oc2cc(O)cc(O)c12
REMARK SMILES IDX 5 1 3 2 2 3 1 4 23 5 21 6 20 7 18 8 17 9 16 10 15 11 6 12
REMARK SMILES IDX 7 13 8 14 14 15 10 16 12 17 9 18 11 20 13 22 4 24 22 26
REMARK SMILES IDX 19 28
REMARK H PARENT 9 19 11 21 13 23 4 25 22 27 19 29
REMARK Flexibility Score: inf
ROOT
ATOM      1  C   UNL     1      14.947  50.904  30.968  1.00  0.00     0.180 A 
ATOM      2  C   UNL     1      13.644  50.418  30.747  1.00  0.00     0.208 A 
ATOM      3  C   UNL     1      13.470  49.064  30.425  1.00  0.00     0.238 A 
ATOM      4  O   UNL     1      12.306  48.615  30.236  1.00  0.00    -0.285 OA
ATOM      5  C   UNL     1      14.598  48.225  30.308  1.00  0.00     0.111 A 
ATOM      6  C   UNL     1      14.509  46.850  29.984  1.00  0.00     0.134 A 
ATOM      7  C   UNL     1      15.679  46.084  29.877  1.00  0.00     0.093 A 
ATOM      8  C   UNL     1      16.933  46.664  30.089  1.00  0.00     0.123 A 
ATOM      9  C   UNL     1      17.026  48.021  30.412  1.00  0.00     0.094 A 
ATOM     10  C   UNL     1      15.872  48.801  30.524  1.00  0.00     0.146 A 
ATOM     11  O   UNL     1      15.987  50.086  30.836  1.00  0.00    -0.452 OA
ENDROOT
BRANCH   1  12
ATOM     12  C   UNL     1      15.210  52.316  31.332  1.00  0.00     0.029 A 
ATOM     13  C   UNL     1      15.395  53.302  30.348  1.00  0.00     0.062 A 
ATOM     14  C   UNL     1      15.620  54.634  30.709  1.00  0.00     0.162 A 
ATOM     15  C   UNL     1      15.218  52.689  32.684  1.00  0.00     0.062 A 
ATOM     16  C   UNL     1      15.649  54.999  32.067  1.00  0.00     0.200 A 
ATOM     17  C   UNL     1      15.443  54.022  33.055  1.00  0.00     0.162 A 
BRANCH  14  18
ATOM     18  O   UNL     1      15.805  55.583  29.704  1.00  0.00    -0.504 OA
ATOM     19  H   UNL     1      16.709  56.000  29.516  1.00  0.00     0.293 HD
ENDBRANCH  14  18
BRANCH  16  20
ATOM     20  O   UNL     1      15.878  56.330  32.417  1.00  0.00    -0.502 OA
ATOM     21  H   UNL     1      16.604  56.886  31.983  1.00  0.00     0.293 HD
ENDBRANCH  16  20
BRANCH  17  22
ATOM     22  O   UNL     1      15.463  54.378  34.403  1.00  0.00    -0.504 OA
ATOM     23  H   UNL     1      16.067  53.909  35.068  1.00  0.00     0.293 HD
ENDBRANCH  17  22
ENDBRANCH   1  12
BRANCH   2  24
ATOM     24  O   UNL     1      12.547  51.282  30.821  1.00  0.00    -0.502 OA
ATOM     25  H   UNL     1      12.628  52.233  31.159  1.00  0.00     0.293 HD
ENDBRANCH   2  24
BRANCH   6  26
ATOM     26  O   UNL     1      13.272  46.241  29.765  1.00  0.00    -0.507 OA
ATOM     27  H   UNL     1      13.198  45.313  29.365  1.00  0.00     0.293 HD
ENDBRANCH   6  26
BRANCH   8  28
ATOM     28  O   UNL     1      18.079  45.880  29.978  1.00  0.00    -0.508 OA
ATOM     29  H   UNL     1      18.032  44.868  29.977  1.00  0.00     0.293 HD
ENDBRANCH   8  28
TORSDOF 7
ENDMDL
MODEL 9
REMARK VINA RESULT:    -4.587      3.208      5.394
REMARK INTER + INTRA:          -5.916
REMARK INTER:                  -5.598
REMARK INTRA:                  -0.319
REMARK UNBOUND:                -0.257
REMARK SMILES O=c1c(O)c(-c2cc(O)c(O)c(O)c2)oc2cc(O)cc(O)c12
REMARK SMILES IDX 5 1 3 2 2 3 1 4 23 5 21 6 20 7 18 8 17 9 16 10 15 11 6 12
REMARK SMILES IDX 7 13 8 14 14 15 10 16 12 17 9 18 11 20 13 22 4 24 22 26
REMARK SMILES IDX 19 28
REMARK H PARENT 9 19 11 21 13 23 4 25 22 27 19 29
REMARK Flexibility Score: inf
ROOT
ATOM      1  C   UNL     1      14.775  49.883  31.074  1.00  0.00     0.180 A 
ATOM      2  C   UNL     1      15.524  49.356  30.004  1.00  0.00     0.208 A 
ATOM      3  C   UNL     1      15.753  47.973  29.953  1.00  0.00     0.238 A 
ATOM      4  O   UNL     1      16.413  47.488  28.994  1.00  0.00    -0.285 OA
ATOM      5  C   UNL     1      15.251  47.144  30.979  1.00  0.00     0.111 A 
ATOM      6  C   UNL     1      15.441  45.741  31.004  1.00  0.00     0.134 A 
ATOM      7  C   UNL     1      14.918  44.988  32.064  1.00  0.00     0.093 A 
ATOM      8  C   UNL     1      14.210  45.607  33.097  1.00  0.00     0.123 A 
ATOM      9  C   UNL     1      14.017  46.992  33.077  1.00  0.00     0.094 A 
ATOM     10  C   UNL     1      14.530  47.761  32.028  1.00  0.00     0.146 A 
ATOM     11  O   UNL     1      14.330  49.073  32.030  1.00  0.00    -0.452 OA
ENDROOT
BRANCH   1  12
ATOM     12  C   UNL     1      14.474  51.329  31.187  1.00  0.00     0.029 A 
ATOM     13  C   UNL     1      13.204  51.839  30.869  1.00  0.00     0.062 A 
ATOM     14  C   UNL     1      12.930  53.204  31.003  1.00  0.00     0.162 A 
ATOM     15  C   UNL     1      15.458  52.202  31.676  1.00  0.00     0.062 A 
ATOM     16  C   UNL     1      13.927  54.077  31.472  1.00  0.00     0.200 A 
ATOM     17  C   UNL     1      15.193  53.571  31.813  1.00  0.00     0.162 A 
BRANCH  14  18
ATOM     18  O   UNL     1      11.660  53.672  30.672  1.00  0.00    -0.504 OA
ATOM     19  H   UNL     1      10.879  53.613  31.315  1.00  0.00     0.293 HD
ENDBRANCH  14  18
BRANCH  16  20
ATOM     20  O   UNL     1      13.647  55.438  31.599  1.00  0.00    -0.502 OA
ATOM     21  H   UNL     1      14.133  56.029  32.262  1.00  0.00     0.293 HD
ENDBRANCH  16  20
BRANCH  17  22
ATOM     22  O   UNL     1      16.184  54.430  32.286  1.00  0.00    -0.504 OA
ATOM     23  H   UNL     1      15.982  55.147  32.973  1.00  0.00     0.293 HD
ENDBRANCH  17  22
ENDBRANCH   1  12
BRANCH   2  24
ATOM     24  O   UNL     1      16.052  50.204  29.027  1.00  0.00    -0.502 OA
ATOM     25  H   UNL     1      16.962  50.640  29.121  1.00  0.00     0.293 HD
ENDBRANCH   2  24
BRANCH   6  26
ATOM     26  O   UNL     1      16.146  45.094  29.987  1.00  0.00    -0.507 OA
ATOM     27  H   UNL     1      15.689  44.457  29.344  1.00  0.00     0.293 HD
ENDBRANCH   6  26
BRANCH   8  28
ATOM     28  O   UNL     1      13.700  44.835  34.139  1.00  0.00    -0.508 OA
ATOM     29  H   UNL     1      14.284  44.182  34.649  1.00  0.00     0.293 HD
ENDBRANCH   8  28
TORSDOF 7
ENDMDL
