MODEL 1
REMARK VINA RESULT:    -2.600      0.000      0.000
REMARK INTER + INTRA:          -2.600
REMARK INTER:                  -2.600
REMARK INTRA:                   0.000
REMARK UNBOUND:                 0.000
REMARK SMILES CC(=O)[O-]
REMARK SMILES IDX 1 1 2 2 3 3 4 4
REMARK H PARENT
REMARK Flexibility Score: inf
ROOT
ATOM      1  C   UNL     1      10.484   7.745   5.860  1.00  0.00     0.063 C 
ATOM      2  C   UNL     1      10.123   6.415   6.429  1.00  0.00     0.038 C 
ATOM      3  O   UNL     1       9.094   6.290   7.142  1.00  0.00    -0.550 OA
ATOM      4  O   UNL     1      10.892   5.298   6.127  1.00  0.00    -0.550 OA
ENDROOT
TORSDOF 0
ENDMDL
MODEL 2
REMARK VINA RESULT:    -2.383      1.636      1.985
REMARK INTER + INTRA:          -2.383
REMARK INTER:                  -2.383
REMARK INTRA:                   0.000
REMARK UNBOUND:                 0.000
REMARK SMILES CC(=O)[O-]
REMARK SMILES IDX 1 1 2 2 3 3 4 4
REMARK H PARENT
REMARK Flexibility Score: inf
ROOT
ATOM      1  C   UNL     1      11.248   7.769   4.912  1.00  0.00     0.063 C 
ATOM      2  C   UNL     1      10.011   7.769   5.743  1.00  0.00     0.038 C 
ATOM      3  O   UNL     1       9.029   8.486   5.416  1.00  0.00    -0.550 OA
ATOM      4  O   UNL     1       9.916   6.935   6.851  1.00  0.00    -0.550 OA
ENDROOT
TORSDOF 0
ENDMDL
MODEL 3
REMARK VINA RESULT:    -2.308      2.281      2.831
REMARK INTER + INTRA:          -2.308
REMARK INTER:                  -2.308
REMARK INTRA:                   0.000
REMARK UNBOUND:                 0.000
REMARK SMILES CC(=O)[O-]
REMARK SMILES IDX 1 1 2 2 3 3 4 4
REMARK H PARENT
REMARK Flexibility Score: inf
ROOT
ATOM      1  C   UNL     1      10.504   7.889   5.652  1.00  0.00     0.063 C 
ATOM      2  C   UNL     1      11.432   7.343   4.621  1.00  0.00     0.038 C 
ATOM      3  O   UNL     1      11.775   8.054   3.640  1.00  0.00    -0.550 OA
ATOM      4  O   UNL     1      11.963   6.068   4.767  1.00  0.00    -0.550 OA
ENDROOT
TORSDOF 0
ENDMDL
MODEL 4
REMARK VINA RESULT:    -2.300      3.971      4.398
REMARK INTER + INTRA:          -2.300
REMARK INTER:                  -2.300
REMARK INTRA:                   0.000
REMARK UNBOUND:                 0.000
REMARK SMILES CC(=O)[O-]
REMARK SMILES IDX 1 1 2 2 3 3 4 4
REMARK H PARENT
REMARK Flexibility Score: inf
ROOT
ATOM      1  C   UNL     1       4.939   7.387   5.081  1.00  0.00     0.063 C 
ATOM      2  C   UNL     1       6.331   7.342   5.613  1.00  0.00     0.038 C 
ATOM      3  O   UNL     1       6.724   6.342   6.269  1.00  0.00    -0.550 OA
ATOM      4  O   UNL     1       7.216   8.377   5.338  1.00  0.00    -0.550 OA
ENDROOT
TORSDOF 0
ENDMDL
MODEL 5
REMARK VINA RESULT:    -2.291      9.483      9.687
REMARK INTER + INTRA:          -2.291
REMARK INTER:                  -2.291
REMARK INTRA:                   0.000
REMARK UNBOUND:                 0.000
REMARK SMILES CC(=O)[O-]
REMARK SMILES IDX 1 1 2 2 3 3 4 4
REMARK H PARENT
REMARK Flexibility Score: inf
ROOT
ATOM      1  C   UNL     1      19.120   8.435  11.397  1.00  0.00     0.063 C 
ATOM      2  C   UNL     1      17.952   7.575  11.739  1.00  0.00     0.038 C 
ATOM      3  O   UNL     1      17.265   7.050  10.824  1.00  0.00    -0.550 OA
ATOM      4  O   UNL     1      17.650   7.305  13.068  1.00  0.00    -0.550 OA
ENDROOT
TORSDOF 0
ENDMDL
MODEL 6
REMARK VINA RESULT:    -2.251      2.048      2.771
REMARK INTER + INTRA:          -2.251
REMARK INTER:                  -2.251
REMARK INTRA:                   0.000
REMARK UNBOUND:                 0.000
REMARK SMILES CC(=O)[O-]
REMARK SMILES IDX 1 1 2 2 3 3 4 4
REMARK H PARENT
REMARK Flexibility Score: inf
ROOT
ATOM      1  C   UNL     1      10.164   6.472   6.453  1.00  0.00     0.063 C 
ATOM      2  C   UNL     1      10.261   7.770   5.727  1.00  0.00     0.038 C 
ATOM      3  O   UNL     1      11.352   8.125   5.209  1.00  0.00    -0.550 OA
ATOM      4  O   UNL     1       9.133   8.567   5.572  1.00  0.00    -0.550 OA
ENDROOT
TORSDOF 0
ENDMDL
MODEL 7
REMARK VINA RESULT:    -2.146      9.893     10.115
REMARK INTER + INTRA:          -2.146
REMARK INTER:                  -2.146
REMARK INTRA:                   0.000
REMARK UNBOUND:                 0.000
REMARK SMILES CC(=O)[O-]
REMARK SMILES IDX 1 1 2 2 3 3 4 4
REMARK H PARENT
REMARK Flexibility Score: inf
ROOT
ATOM      1  C   UNL     1      17.675   6.978  11.222  1.00  0.00     0.063 C 
ATOM      2  C   UNL     1      18.695   8.064  11.254  1.00  0.00     0.038 C 
ATOM      3  O   UNL     1      18.352   9.259  11.058  1.00  0.00    -0.550 OA
ATOM      4  O   UNL     1      20.018   7.768  11.556  1.00  0.00    -0.550 OA
ENDROOT
TORSDOF 0
ENDMDL
MODEL 8
REMARK VINA RESULT:    -2.109     12.619     12.867
REMARK INTER + INTRA:          -2.109
REMARK INTER:                  -2.109
REMARK INTRA:                   0.000
REMARK UNBOUND:                 0.000
REMARK SMILES CC(=O)[O-]
REMARK SMILES IDX 1 1 2 2 3 3 4 4
REMARK H PARENT
REMARK Flexibility Score: inf
ROOT
ATOM      1  C   UNL     1       7.412   7.491  -5.286  1.00  0.00     0.063 C 
ATOM      2  C   UNL     1       7.661   8.828  -5.896  1.00  0.00     0.038 C 
ATOM      3  O   UNL     1       6.842   9.308  -6.722  1.00  0.00    -0.550 OA
ATOM      4  O   UNL     1       8.770   9.572  -5.513  1.00  0.00    -0.550 OA
ENDROOT
TORSDOF 0
ENDMDL
MODEL 9
REMARK VINA RESULT:    -2.070     12.277     12.491
REMARK INTER + INTRA:          -2.070
REMARK INTER:                  -2.070
REMARK INTRA:                   0.000
REMARK UNBOUND:                 0.000
REMARK SMILES CC(=O)[O-]
REMARK SMILES IDX 1 1 2 2 3 3 4 4
REMARK H PARENT
REMARK Flexibility Score: inf
ROOT
ATOM      1  C   UNL     1       8.261   8.915  -5.559  1.00  0.00     0.063 C 
ATOM      2  C   UNL     1       7.467   7.661  -5.701  1.00  0.00     0.038 C 
ATOM      3  O   UNL     1       6.647   7.327  -4.807  1.00  0.00    -0.550 OA
ATOM      4  O   UNL     1       7.589   6.886  -6.848  1.00  0.00    -0.550 OA
ENDROOT
TORSDOF 0
ENDMDL
