MODEL 1
REMARK VINA RESULT:    -3.977      0.000      0.000
REMARK INTER + INTRA:          -9.202
REMARK INTER:                  -7.000
REMARK INTRA:                  -2.202
REMARK UNBOUND:                -2.202
REMARK SMILES CCCCCCC=CCCCCCCCC(=O)[O-]
REMARK SMILES IDX 10 1 11 2 12 3 13 4 14 5 15 6 16 7 17 8 18 9 9 10 8 11 7 12
REMARK SMILES IDX 6 13 5 14 4 15 3 16 2 17 1 18
REMARK H PARENT
REMARK Flexibility Score: inf
ROOT
ATOM      1  C   UNL     1       1.161   3.636   8.861  1.00  0.00     0.004 C 
ENDROOT
BRANCH   1   2
ATOM      2  C   UNL     1       1.164   4.671   7.729  1.00  0.00     0.000 C 
BRANCH   2   3
ATOM      3  C   UNL     1      -0.175   4.666   6.977  1.00  0.00     0.000 C 
BRANCH   3   4
ATOM      4  C   UNL     1       0.001   4.746   5.451  1.00  0.00     0.000 C 
BRANCH   4   5
ATOM      5  C   UNL     1      -1.049   3.923   4.691  1.00  0.00     0.006 C 
BRANCH   5   6
ATOM      6  C   UNL     1      -1.529   2.734   5.530  1.00  0.00     0.053 C 
BRANCH   6   7
ATOM      7  C   UNL     1      -3.006   2.814   5.753  1.00  0.00     0.041 C 
ATOM      8  O   UNL     1      -3.542   3.914   6.063  1.00  0.00    -0.550 OA
ATOM      9  O   UNL     1      -3.800   1.686   5.568  1.00  0.00    -0.550 OA
ENDBRANCH   6   7
ENDBRANCH   5   6
ENDBRANCH   4   5
ENDBRANCH   3   4
ENDBRANCH   2   3
ENDBRANCH   1   2
BRANCH   1  10
ATOM     10  C   UNL     1       0.316   2.413   8.486  1.00  0.00     0.027 C 
BRANCH  10  11
ATOM     11  C   UNL     1       1.187   1.262   8.062  1.00  0.00    -0.031 C 
ATOM     12  C   UNL     1       1.621   1.141   6.797  1.00  0.00    -0.031 C 
BRANCH  12  13
ATOM     13  C   UNL     1       2.502  -0.002   6.374  1.00  0.00     0.027 C 
BRANCH  13  14
ATOM     14  C   UNL     1       3.668  -0.196   7.357  1.00  0.00     0.004 C 
BRANCH  14  15
ATOM     15  C   UNL     1       4.815   0.796   7.095  1.00  0.00     0.000 C 
BRANCH  15  16
ATOM     16  C   UNL     1       4.931   1.888   8.184  1.00  0.00    -0.000 C 
BRANCH  16  17
ATOM     17  C   UNL     1       4.631   3.303   7.664  1.00  0.00    -0.003 C 
ATOM     18  C   UNL     1       4.512   3.362   6.143  1.00  0.00     0.004 C 
ENDBRANCH  16  17
ENDBRANCH  15  16
ENDBRANCH  14  15
ENDBRANCH  13  14
ENDBRANCH  12  13
ENDBRANCH  10  11
ENDBRANCH   1  10
TORSDOF 13
ENDMDL
MODEL 2
REMARK VINA RESULT:    -3.900     13.257     15.463
REMARK INTER + INTRA:          -9.066
REMARK INTER:                  -6.993
REMARK INTRA:                  -2.073
REMARK UNBOUND:                -2.202
REMARK SMILES CCCCCCC=CCCCCCCCC(=O)[O-]
REMARK SMILES IDX 10 1 11 2 12 3 13 4 14 5 15 6 16 7 17 8 18 9 9 10 8 11 7 12
REMARK SMILES IDX 6 13 5 14 4 15 3 16 2 17 1 18
REMARK H PARENT
REMARK Flexibility Score: inf
ROOT
ATOM      1  C   UNL     1       0.140  -2.663  -5.515  1.00  0.00     0.004 C 
ENDROOT
BRANCH   1   2
ATOM      2  C   UNL     1       0.190  -4.020  -4.802  1.00  0.00     0.000 C 
BRANCH   2   3
ATOM      3  C   UNL     1      -1.021  -4.198  -3.875  1.00  0.00     0.000 C 
BRANCH   3   4
ATOM      4  C   UNL     1      -2.061  -5.181  -4.438  1.00  0.00     0.000 C 
BRANCH   4   5
ATOM      5  C   UNL     1      -3.489  -4.618  -4.401  1.00  0.00     0.006 C 
BRANCH   5   6
ATOM      6  C   UNL     1      -4.476  -5.573  -5.082  1.00  0.00     0.053 C 
BRANCH   6   7
ATOM      7  C   UNL     1      -5.253  -6.338  -4.058  1.00  0.00     0.041 C 
ATOM      8  O   UNL     1      -4.889  -6.332  -2.850  1.00  0.00    -0.550 OA
ATOM      9  O   UNL     1      -6.411  -7.017  -4.428  1.00  0.00    -0.550 OA
ENDBRANCH   6   7
ENDBRANCH   5   6
ENDBRANCH   4   5
ENDBRANCH   3   4
ENDBRANCH   2   3
ENDBRANCH   1   2
BRANCH   1  10
ATOM     10  C   UNL     1      -0.658  -2.758  -6.822  1.00  0.00     0.027 C 
BRANCH  10  11
ATOM     11  C   UNL     1      -1.829  -1.813  -6.810  1.00  0.00    -0.031 C 
ATOM     12  C   UNL     1      -2.284  -1.275  -5.668  1.00  0.00    -0.031 C 
BRANCH  12  13
ATOM     13  C   UNL     1      -3.446  -0.321  -5.655  1.00  0.00     0.027 C 
BRANCH  13  14
ATOM     14  C   UNL     1      -4.043  -0.158  -7.062  1.00  0.00     0.004 C 
BRANCH  14  15
ATOM     15  C   UNL     1      -5.484  -0.692  -7.143  1.00  0.00     0.000 C 
BRANCH  15  16
ATOM     16  C   UNL     1      -5.607  -2.171  -6.707  1.00  0.00    -0.000 C 
BRANCH  16  17
ATOM     17  C   UNL     1      -5.801  -3.140  -7.884  1.00  0.00    -0.003 C 
ATOM     18  C   UNL     1      -4.509  -3.846  -8.288  1.00  0.00     0.004 C 
ENDBRANCH  16  17
ENDBRANCH  15  16
ENDBRANCH  14  15
ENDBRANCH  13  14
ENDBRANCH  12  13
ENDBRANCH  10  11
ENDBRANCH   1  10
TORSDOF 13
ENDMDL
MODEL 3
REMARK VINA RESULT:    -3.859     13.640     14.837
REMARK INTER + INTRA:          -8.995
REMARK INTER:                  -6.971
REMARK INTRA:                  -2.024
REMARK UNBOUND:                -2.202
REMARK SMILES CCCCCCC=CCCCCCCCC(=O)[O-]
REMARK SMILES IDX 10 1 11 2 12 3 13 4 14 5 15 6 16 7 17 8 18 9 9 10 8 11 7 12
REMARK SMILES IDX 6 13 5 14 4 15 3 16 2 17 1 18
REMARK H PARENT
REMARK Flexibility Score: inf
ROOT
ATOM      1  C   UNL     1      -4.283  -0.283  -7.535  1.00  0.00     0.004 C 
ENDROOT
BRANCH   1   2
ATOM      2  C   UNL     1      -5.664  -0.906  -7.298  1.00  0.00     0.000 C 
BRANCH   2   3
ATOM      3  C   UNL     1      -5.704  -2.359  -7.794  1.00  0.00     0.000 C 
BRANCH   3   4
ATOM      4  C   UNL     1      -6.032  -3.361  -6.675  1.00  0.00     0.000 C 
BRANCH   4   5
ATOM      5  C   UNL     1      -4.774  -3.937  -6.009  1.00  0.00     0.006 C 
BRANCH   5   6
ATOM      6  C   UNL     1      -4.853  -3.813  -4.484  1.00  0.00     0.053 C 
BRANCH   6   7
ATOM      7  C   UNL     1      -4.362  -5.066  -3.830  1.00  0.00     0.041 C 
ATOM      8  O   UNL     1      -5.181  -5.866  -3.300  1.00  0.00    -0.550 OA
ATOM      9  O   UNL     1      -3.006  -5.378  -3.853  1.00  0.00    -0.550 OA
ENDBRANCH   6   7
ENDBRANCH   5   6
ENDBRANCH   4   5
ENDBRANCH   3   4
ENDBRANCH   2   3
ENDBRANCH   1   2
BRANCH   1  10
ATOM     10  C   UNL     1      -3.701   0.275  -6.231  1.00  0.00     0.027 C 
BRANCH  10  11
ATOM     11  C   UNL     1      -2.872  -0.760  -5.522  1.00  0.00    -0.031 C 
ATOM     12  C   UNL     1      -2.076  -1.604  -6.198  1.00  0.00    -0.031 C 
BRANCH  12  13
ATOM     13  C   UNL     1      -1.237  -2.633  -5.490  1.00  0.00     0.027 C 
BRANCH  13  14
ATOM     14  C   UNL     1       0.215  -2.603  -5.993  1.00  0.00     0.004 C 
BRANCH  14  15
ATOM     15  C   UNL     1       0.703  -1.169  -6.264  1.00  0.00     0.000 C 
BRANCH  15  16
ATOM     16  C   UNL     1       1.123  -0.940  -7.735  1.00  0.00    -0.000 C 
BRANCH  16  17
ATOM     17  C   UNL     1       0.211   0.046  -8.483  1.00  0.00    -0.003 C 
ATOM     18  C   UNL     1      -0.199   1.241  -7.626  1.00  0.00     0.004 C 
ENDBRANCH  16  17
ENDBRANCH  15  16
ENDBRANCH  14  15
ENDBRANCH  13  14
ENDBRANCH  12  13
ENDBRANCH  10  11
ENDBRANCH   1  10
TORSDOF 13
ENDMDL
MODEL 4
REMARK VINA RESULT:    -3.827      1.207      2.930
REMARK INTER + INTRA:          -8.937
REMARK INTER:                  -7.235
REMARK INTRA:                  -1.702
REMARK UNBOUND:                -2.202
REMARK SMILES CCCCCCC=CCCCCCCCC(=O)[O-]
REMARK SMILES IDX 10 1 11 2 12 3 13 4 14 5 15 6 16 7 17 8 18 9 9 10 8 11 7 12
REMARK SMILES IDX 6 13 5 14 4 15 3 16 2 17 1 18
REMARK H PARENT
REMARK Flexibility Score: inf
ROOT
ATOM      1  C   UNL     1       2.666   3.983   7.022  1.00  0.00     0.004 C 
ENDROOT
BRANCH   1   2
ATOM      2  C   UNL     1       1.359   4.438   6.361  1.00  0.00     0.000 C 
BRANCH   2   3
ATOM      3  C   UNL     1       0.165   3.632   6.893  1.00  0.00     0.000 C 
BRANCH   3   4
ATOM      4  C   UNL     1      -0.346   2.590   5.883  1.00  0.00     0.000 C 
BRANCH   4   5
ATOM      5  C   UNL     1      -1.444   3.146   4.965  1.00  0.00     0.006 C 
BRANCH   5   6
ATOM      6  C   UNL     1      -2.484   3.936   5.767  1.00  0.00     0.053 C 
BRANCH   6   7
ATOM      7  C   UNL     1      -3.749   3.148   5.902  1.00  0.00     0.041 C 
ATOM      8  O   UNL     1      -3.778   1.933   5.564  1.00  0.00    -0.550 OA
ATOM      9  O   UNL     1      -4.883   3.740   6.451  1.00  0.00    -0.550 OA
ENDBRANCH   6   7
ENDBRANCH   5   6
ENDBRANCH   4   5
ENDBRANCH   3   4
ENDBRANCH   2   3
ENDBRANCH   1   2
BRANCH   1  10
ATOM     10  C   UNL     1       3.756   3.736   5.971  1.00  0.00     0.027 C 
BRANCH  10  11
ATOM     11  C   UNL     1       4.809   2.797   6.494  1.00  0.00    -0.031 C 
ATOM     12  C   UNL     1       4.949   2.564   7.809  1.00  0.00    -0.031 C 
BRANCH  12  13
ATOM     13  C   UNL     1       5.993   1.617   8.333  1.00  0.00     0.027 C 
BRANCH  13  14
ATOM     14  C   UNL     1       5.829   0.217   7.719  1.00  0.00     0.004 C 
BRANCH  14  15
ATOM     15  C   UNL     1       4.649  -0.550   8.340  1.00  0.00     0.000 C 
BRANCH  15  16
ATOM     16  C   UNL     1       3.710  -1.176   7.283  1.00  0.00    -0.000 C 
BRANCH  16  17
ATOM     17  C   UNL     1       2.693  -0.180   6.703  1.00  0.00    -0.003 C 
ATOM     18  C   UNL     1       1.774   0.415   7.768  1.00  0.00     0.004 C 
ENDBRANCH  16  17
ENDBRANCH  15  16
ENDBRANCH  14  15
ENDBRANCH  13  14
ENDBRANCH  12  13
ENDBRANCH  10  11
ENDBRANCH   1  10
TORSDOF 13
ENDMDL
MODEL 5
REMARK VINA RESULT:    -3.812      1.669      3.727
REMARK INTER + INTRA:          -8.911
REMARK INTER:                  -7.073
REMARK INTRA:                  -1.838
REMARK UNBOUND:                -2.202
REMARK SMILES CCCCCCC=CCCCCCCCC(=O)[O-]
REMARK SMILES IDX 10 1 11 2 12 3 13 4 14 5 15 6 16 7 17 8 18 9 9 10 8 11 7 12
REMARK SMILES IDX 6 13 5 14 4 15 3 16 2 17 1 18
REMARK H PARENT
REMARK Flexibility Score: inf
ROOT
ATOM      1  C   UNL     1      -0.982   4.143   4.755  1.00  0.00     0.004 C 
ENDROOT
BRANCH   1   2
ATOM      2  C   UNL     1      -1.144   2.746   5.365  1.00  0.00     0.000 C 
BRANCH   2   3
ATOM      3  C   UNL     1      -2.616   2.454   5.690  1.00  0.00     0.000 C 
BRANCH   3   4
ATOM      4  C   UNL     1      -2.954   2.685   7.173  1.00  0.00     0.000 C 
BRANCH   4   5
ATOM      5  C   UNL     1      -3.833   3.923   7.394  1.00  0.00     0.006 C 
BRANCH   5   6
ATOM      6  C   UNL     1      -4.628   4.266   6.129  1.00  0.00     0.053 C 
BRANCH   6   7
ATOM      7  C   UNL     1      -4.324   5.660   5.681  1.00  0.00     0.041 C 
ATOM      8  O   UNL     1      -3.357   6.292   6.188  1.00  0.00    -0.550 OA
ATOM      9  O   UNL     1      -5.075   6.245   4.666  1.00  0.00    -0.550 OA
ENDBRANCH   6   7
ENDBRANCH   5   6
ENDBRANCH   4   5
ENDBRANCH   3   4
ENDBRANCH   2   3
ENDBRANCH   1   2
BRANCH   1  10
ATOM     10  C   UNL     1      -0.119   5.039   5.652  1.00  0.00     0.027 C 
BRANCH  10  11
ATOM     11  C   UNL     1       1.139   4.331   6.074  1.00  0.00    -0.031 C 
ATOM     12  C   UNL     1       1.922   4.816   7.051  1.00  0.00    -0.031 C 
BRANCH  12  13
ATOM     13  C   UNL     1       3.175   4.104   7.482  1.00  0.00     0.027 C 
BRANCH  13  14
ATOM     14  C   UNL     1       3.613   3.070   6.432  1.00  0.00     0.004 C 
BRANCH  14  15
ATOM     15  C   UNL     1       3.980   1.719   7.071  1.00  0.00     0.000 C 
BRANCH  15  16
ATOM     16  C   UNL     1       3.209   0.528   6.455  1.00  0.00    -0.000 C 
BRANCH  16  17
ATOM     17  C   UNL     1       1.687   0.621   6.649  1.00  0.00    -0.003 C 
ATOM     18  C   UNL     1       1.287   0.821   8.109  1.00  0.00     0.004 C 
ENDBRANCH  16  17
ENDBRANCH  15  16
ENDBRANCH  14  15
ENDBRANCH  13  14
ENDBRANCH  12  13
ENDBRANCH  10  11
ENDBRANCH   1  10
TORSDOF 13
ENDMDL
MODEL 6
REMARK VINA RESULT:    -3.809      3.238      6.689
REMARK INTER + INTRA:          -8.906
REMARK INTER:                  -7.037
REMARK INTRA:                  -1.869
REMARK UNBOUND:                -2.202
REMARK SMILES CCCCCCC=CCCCCCCCC(=O)[O-]
REMARK SMILES IDX 10 1 11 2 12 3 13 4 14 5 15 6 16 7 17 8 18 9 9 10 8 11 7 12
REMARK SMILES IDX 6 13 5 14 4 15 3 16 2 17 1 18
REMARK H PARENT
REMARK Flexibility Score: inf
ROOT
ATOM      1  C   UNL     1       0.140   4.955   6.588  1.00  0.00     0.004 C 
ENDROOT
BRANCH   1   2
ATOM      2  C   UNL     1       1.363   4.239   7.173  1.00  0.00     0.000 C 
BRANCH   2   3
ATOM      3  C   UNL     1       0.967   3.360   8.368  1.00  0.00     0.000 C 
BRANCH   3   4
ATOM      4  C   UNL     1       1.441   1.905   8.219  1.00  0.00     0.000 C 
BRANCH   4   5
ATOM      5  C   UNL     1       1.319   1.388   6.778  1.00  0.00     0.006 C 
BRANCH   5   6
ATOM      6  C   UNL     1       2.357   0.297   6.495  1.00  0.00     0.053 C 
BRANCH   6   7
ATOM      7  C   UNL     1       3.736   0.797   6.795  1.00  0.00     0.041 C 
ATOM      8  O   UNL     1       4.473   0.172   7.606  1.00  0.00    -0.550 OA
ATOM      9  O   UNL     1       4.226   1.922   6.140  1.00  0.00    -0.550 OA
ENDBRANCH   6   7
ENDBRANCH   5   6
ENDBRANCH   4   5
ENDBRANCH   3   4
ENDBRANCH   2   3
ENDBRANCH   1   2
BRANCH   1  10
ATOM     10  C   UNL     1      -0.045   4.608   5.106  1.00  0.00     0.027 C 
BRANCH  10  11
ATOM     11  C   UNL     1      -1.109   3.561   4.924  1.00  0.00    -0.031 C 
ATOM     12  C   UNL     1      -1.862   3.141   5.953  1.00  0.00    -0.031 C 
BRANCH  12  13
ATOM     13  C   UNL     1      -2.935   2.103   5.771  1.00  0.00     0.027 C 
BRANCH  13  14
ATOM     14  C   UNL     1      -4.330   2.698   6.027  1.00  0.00     0.004 C 
BRANCH  14  15
ATOM     15  C   UNL     1      -4.253   4.144   6.549  1.00  0.00     0.000 C 
BRANCH  15  16
ATOM     16  C   UNL     1      -5.039   5.146   5.672  1.00  0.00    -0.000 C 
BRANCH  16  17
ATOM     17  C   UNL     1      -4.474   6.575   5.723  1.00  0.00    -0.003 C 
ATOM     18  C   UNL     1      -3.180   6.671   6.529  1.00  0.00     0.004 C 
ENDBRANCH  16  17
ENDBRANCH  15  16
ENDBRANCH  14  15
ENDBRANCH  13  14
ENDBRANCH  12  13
ENDBRANCH  10  11
ENDBRANCH   1  10
TORSDOF 13
ENDMDL
MODEL 7
REMARK VINA RESULT:    -3.804      1.361      2.824
REMARK INTER + INTRA:          -8.897
REMARK INTER:                  -7.414
REMARK INTRA:                  -1.483
REMARK UNBOUND:                -2.202
REMARK SMILES CCCCCCC=CCCCCCCCC(=O)[O-]
REMARK SMILES IDX 10 1 11 2 12 3 13 4 14 5 15 6 16 7 17 8 18 9 9 10 8 11 7 12
REMARK SMILES IDX 6 13 5 14 4 15 3 16 2 17 1 18
REMARK H PARENT
REMARK Flexibility Score: inf
ROOT
ATOM      1  C   UNL     1      -0.102   2.844   6.302  1.00  0.00     0.004 C 
ENDROOT
BRANCH   1   2
ATOM      2  C   UNL     1      -0.762   3.710   5.223  1.00  0.00     0.000 C 
BRANCH   2   3
ATOM      3  C   UNL     1      -1.171   5.078   5.788  1.00  0.00     0.000 C 
BRANCH   3   4
ATOM      4  C   UNL     1      -2.443   5.009   6.650  1.00  0.00     0.000 C 
BRANCH   4   5
ATOM      5  C   UNL     1      -3.689   4.634   5.836  1.00  0.00     0.006 C 
BRANCH   5   6
ATOM      6  C   UNL     1      -4.500   3.542   6.543  1.00  0.00     0.053 C 
BRANCH   6   7
ATOM      7  C   UNL     1      -3.743   2.251   6.552  1.00  0.00     0.041 C 
ATOM      8  O   UNL     1      -3.359   1.750   7.644  1.00  0.00    -0.550 OA
ATOM      9  O   UNL     1      -3.506   1.574   5.359  1.00  0.00    -0.550 OA
ENDBRANCH   6   7
ENDBRANCH   5   6
ENDBRANCH   4   5
ENDBRANCH   3   4
ENDBRANCH   2   3
ENDBRANCH   1   2
BRANCH   1  10
ATOM     10  C   UNL     1       0.501   3.714   7.412  1.00  0.00     0.027 C 
BRANCH  10  11
ATOM     11  C   UNL     1       1.999   3.582   7.450  1.00  0.00    -0.031 C 
ATOM     12  C   UNL     1       2.746   3.753   6.348  1.00  0.00    -0.031 C 
BRANCH  12  13
ATOM     13  C   UNL     1       4.245   3.633   6.387  1.00  0.00     0.027 C 
BRANCH  13  14
ATOM     14  C   UNL     1       4.699   2.748   7.559  1.00  0.00     0.004 C 
BRANCH  14  15
ATOM     15  C   UNL     1       5.246   1.391   7.078  1.00  0.00     0.000 C 
BRANCH  15  16
ATOM     16  C   UNL     1       4.305   0.209   7.406  1.00  0.00    -0.000 C 
BRANCH  16  17
ATOM     17  C   UNL     1       3.088   0.121   6.472  1.00  0.00    -0.003 C 
ATOM     18  C   UNL     1       1.926  -0.658   7.085  1.00  0.00     0.004 C 
ENDBRANCH  16  17
ENDBRANCH  15  16
ENDBRANCH  14  15
ENDBRANCH  13  14
ENDBRANCH  12  13
ENDBRANCH  10  11
ENDBRANCH   1  10
TORSDOF 13
ENDMDL
MODEL 8
REMARK VINA RESULT:    -3.797      1.528      2.468
REMARK INTER + INTRA:          -8.885
REMARK INTER:                  -7.370
REMARK INTRA:                  -1.515
REMARK UNBOUND:                -2.202
REMARK SMILES CCCCCCC=CCCCCCCCC(=O)[O-]
REMARK SMILES IDX 10 1 11 2 12 3 13 4 14 5 15 6 16 7 17 8 18 9 9 10 8 11 7 12
REMARK SMILES IDX 6 13 5 14 4 15 3 16 2 17 1 18
REMARK H PARENT
REMARK Flexibility Score: inf
ROOT
ATOM      1  C   UNL     1       0.722   4.856   5.666  1.00  0.00     0.004 C 
ENDROOT
BRANCH   1   2
ATOM      2  C   UNL     1      -0.767   4.795   5.304  1.00  0.00     0.000 C 
BRANCH   2   3
ATOM      3  C   UNL     1      -1.135   3.423   4.720  1.00  0.00     0.000 C 
BRANCH   3   4
ATOM      4  C   UNL     1      -2.108   2.638   5.614  1.00  0.00     0.000 C 
BRANCH   4   5
ATOM      5  C   UNL     1      -2.965   3.552   6.502  1.00  0.00     0.006 C 
BRANCH   5   6
ATOM      6  C   UNL     1      -4.446   3.461   6.117  1.00  0.00     0.053 C 
BRANCH   6   7
ATOM      7  C   UNL     1      -5.077   4.818   6.142  1.00  0.00     0.041 C 
ATOM      8  O   UNL     1      -4.666   5.722   5.365  1.00  0.00    -0.550 OA
ATOM      9  O   UNL     1      -6.154   5.069   6.987  1.00  0.00    -0.550 OA
ENDBRANCH   6   7
ENDBRANCH   5   6
ENDBRANCH   4   5
ENDBRANCH   3   4
ENDBRANCH   2   3
ENDBRANCH   1   2
BRANCH   1  10
ATOM     10  C   UNL     1       0.994   4.143   6.997  1.00  0.00     0.027 C 
BRANCH  10  11
ATOM     11  C   UNL     1       1.681   2.824   6.774  1.00  0.00    -0.031 C 
ATOM     12  C   UNL     1       1.082   1.662   7.077  1.00  0.00    -0.031 C 
BRANCH  12  13
ATOM     13  C   UNL     1       1.762   0.341   6.844  1.00  0.00     0.027 C 
BRANCH  13  14
ATOM     14  C   UNL     1       3.232   0.539   6.440  1.00  0.00     0.004 C 
BRANCH  14  15
ATOM     15  C   UNL     1       4.200   0.103   7.554  1.00  0.00     0.000 C 
BRANCH  15  16
ATOM     16  C   UNL     1       5.483   0.964   7.614  1.00  0.00    -0.000 C 
BRANCH  16  17
ATOM     17  C   UNL     1       5.242   2.442   7.265  1.00  0.00    -0.003 C 
ATOM     18  C   UNL     1       5.021   3.313   8.500  1.00  0.00     0.004 C 
ENDBRANCH  16  17
ENDBRANCH  15  16
ENDBRANCH  14  15
ENDBRANCH  13  14
ENDBRANCH  12  13
ENDBRANCH  10  11
ENDBRANCH   1  10
TORSDOF 13
ENDMDL
MODEL 9
REMARK VINA RESULT:    -3.774     13.546     15.525
REMARK INTER + INTRA:          -8.844
REMARK INTER:                  -6.588
REMARK INTRA:                  -2.257
REMARK UNBOUND:                -2.202
REMARK SMILES CCCCCCC=CCCCCCCCC(=O)[O-]
REMARK SMILES IDX 10 1 11 2 12 3 13 4 14 5 15 6 16 7 17 8 18 9 9 10 8 11 7 12
REMARK SMILES IDX 6 13 5 14 4 15 3 16 2 17 1 18
REMARK H PARENT
REMARK Flexibility Score: inf
ROOT
ATOM      1  C   UNL     1      -1.126  -1.467  -6.860  1.00  0.00     0.004 C 
ENDROOT
BRANCH   1   2
ATOM      2  C   UNL     1      -1.494  -2.250  -5.595  1.00  0.00     0.000 C 
BRANCH   2   3
ATOM      3  C   UNL     1      -0.344  -3.172  -5.163  1.00  0.00     0.000 C 
BRANCH   3   4
ATOM      4  C   UNL     1      -0.823  -4.362  -4.315  1.00  0.00     0.000 C 
BRANCH   4   5
ATOM      5  C   UNL     1      -2.350  -4.410  -4.172  1.00  0.00     0.006 C 
BRANCH   5   6
ATOM      6  C   UNL     1      -2.856  -5.857  -4.150  1.00  0.00     0.053 C 
BRANCH   6   7
ATOM      7  C   UNL     1      -4.203  -5.931  -3.503  1.00  0.00     0.041 C 
ATOM      8  O   UNL     1      -4.864  -4.877  -3.294  1.00  0.00    -0.550 OA
ATOM      9  O   UNL     1      -4.752  -7.168  -3.177  1.00  0.00    -0.550 OA
ENDBRANCH   6   7
ENDBRANCH   5   6
ENDBRANCH   4   5
ENDBRANCH   3   4
ENDBRANCH   2   3
ENDBRANCH   1   2
BRANCH   1  10
ATOM     10  C   UNL     1      -1.906  -0.149  -6.939  1.00  0.00     0.027 C 
BRANCH  10  11
ATOM     11  C   UNL     1      -3.275  -0.365  -7.523  1.00  0.00    -0.031 C 
ATOM     12  C   UNL     1      -4.352  -0.539  -6.740  1.00  0.00    -0.031 C 
BRANCH  12  13
ATOM     13  C   UNL     1      -5.723  -0.742  -7.321  1.00  0.00     0.027 C 
BRANCH  13  14
ATOM     14  C   UNL     1      -6.343  -2.060  -6.829  1.00  0.00     0.004 C 
BRANCH  14  15
ATOM     15  C   UNL     1      -5.321  -2.933  -6.079  1.00  0.00     0.000 C 
BRANCH  15  16
ATOM     16  C   UNL     1      -4.961  -4.231  -6.839  1.00  0.00    -0.000 C 
BRANCH  16  17
ATOM     17  C   UNL     1      -3.911  -4.021  -7.942  1.00  0.00    -0.003 C 
ATOM     18  C   UNL     1      -2.717  -4.963  -7.810  1.00  0.00     0.004 C 
ENDBRANCH  16  17
ENDBRANCH  15  16
ENDBRANCH  14  15
ENDBRANCH  13  14
ENDBRANCH  12  13
ENDBRANCH  10  11
ENDBRANCH   1  10
TORSDOF 13
ENDMDL
