MODEL 1
REMARK VINA RESULT:    -3.306      0.000      0.000
REMARK INTER + INTRA:          -4.498
REMARK INTER:                  -4.273
REMARK INTRA:                  -0.226
REMARK UNBOUND:                -0.226
REMARK SMILES CCCCCCC(=O)[O-]
REMARK SMILES IDX 5 1 6 2 7 3 8 4 9 5 4 6 3 7 2 8 1 9
REMARK H PARENT
REMARK Flexibility Score: inf
ROOT
ATOM      1  C   UNL     1      56.798  28.447  50.496  1.00  0.00     0.006 C 
ENDROOT
BRANCH   1   2
ATOM      2  C   UNL     1      57.943  27.474  50.198  1.00  0.00     0.053 C 
BRANCH   2   3
ATOM      3  C   UNL     1      58.980  28.132  49.344  1.00  0.00     0.041 C 
ATOM      4  O   UNL     1      58.803  29.305  48.922  1.00  0.00    -0.550 OA
ATOM      5  O   UNL     1      60.165  27.467  49.054  1.00  0.00    -0.550 OA
ENDBRANCH   2   3
ENDBRANCH   1   2
BRANCH   1   6
ATOM      6  C   UNL     1      55.439  27.743  50.401  1.00  0.00     0.000 C 
BRANCH   6   7
ATOM      7  C   UNL     1      55.595  26.313  49.869  1.00  0.00    -0.000 C 
BRANCH   7   8
ATOM      8  C   UNL     1      54.281  25.807  49.262  1.00  0.00    -0.003 C 
ATOM      9  C   UNL     1      53.169  26.840  49.413  1.00  0.00     0.004 C 
ENDBRANCH   7   8
ENDBRANCH   6   7
ENDBRANCH   1   6
TORSDOF 5
ENDMDL
MODEL 2
REMARK VINA RESULT:    -3.216      1.390      1.747
REMARK INTER + INTRA:          -4.381
REMARK INTER:                  -4.210
REMARK INTRA:                  -0.171
REMARK UNBOUND:                -0.226
REMARK SMILES CCCCCCC(=O)[O-]
REMARK SMILES IDX 5 1 6 2 7 3 8 4 9 5 4 6 3 7 2 8 1 9
REMARK H PARENT
REMARK Flexibility Score: inf
ROOT
ATOM      1  C   UNL     1      58.282  28.570  50.629  1.00  0.00     0.006 C 
ENDROOT
BRANCH   1   2
ATOM      2  C   UNL     1      59.070  28.580  49.316  1.00  0.00     0.053 C 
BRANCH   2   3
ATOM      3  C   UNL     1      60.002  27.411  49.256  1.00  0.00     0.041 C 
ATOM      4  O   UNL     1      59.547  26.237  49.231  1.00  0.00    -0.550 OA
ATOM      5  O   UNL     1      61.374  27.620  49.178  1.00  0.00    -0.550 OA
ENDBRANCH   2   3
ENDBRANCH   1   2
BRANCH   1   6
ATOM      6  C   UNL     1      56.772  28.595  50.366  1.00  0.00     0.000 C 
BRANCH   6   7
ATOM      7  C   UNL     1      56.182  27.180  50.410  1.00  0.00    -0.000 C 
BRANCH   7   8
ATOM      8  C   UNL     1      54.716  27.181  49.960  1.00  0.00    -0.003 C 
ATOM      9  C   UNL     1      54.357  25.881  49.249  1.00  0.00     0.004 C 
ENDBRANCH   7   8
ENDBRANCH   6   7
ENDBRANCH   1   6
TORSDOF 5
ENDMDL
MODEL 3
REMARK VINA RESULT:    -3.203      3.048      4.936
REMARK INTER + INTRA:          -4.365
REMARK INTER:                  -4.161
REMARK INTRA:                  -0.204
REMARK UNBOUND:                -0.226
REMARK SMILES CCCCCCC(=O)[O-]
REMARK SMILES IDX 5 1 6 2 7 3 8 4 9 5 4 6 3 7 2 8 1 9
REMARK H PARENT
REMARK Flexibility Score: inf
ROOT
ATOM      1  C   UNL     1      55.928  27.675  50.302  1.00  0.00     0.006 C 
ENDROOT
BRANCH   1   2
ATOM      2  C   UNL     1      55.560  26.244  49.897  1.00  0.00     0.053 C 
BRANCH   2   3
ATOM      3  C   UNL     1      54.143  26.183  49.423  1.00  0.00     0.041 C 
ATOM      4  O   UNL     1      53.629  25.079  49.100  1.00  0.00    -0.550 OA
ATOM      5  O   UNL     1      53.373  27.339  49.383  1.00  0.00    -0.550 OA
ENDBRANCH   2   3
ENDBRANCH   1   2
BRANCH   1   6
ATOM      6  C   UNL     1      57.417  27.783  50.650  1.00  0.00     0.000 C 
BRANCH   6   7
ATOM      7  C   UNL     1      58.020  29.080  50.096  1.00  0.00    -0.000 C 
BRANCH   7   8
ATOM      8  C   UNL     1      59.161  28.782  49.117  1.00  0.00    -0.003 C 
ATOM      9  C   UNL     1      59.646  27.343  49.256  1.00  0.00     0.004 C 
ENDBRANCH   7   8
ENDBRANCH   6   7
ENDBRANCH   1   6
TORSDOF 5
ENDMDL
MODEL 4
REMARK VINA RESULT:    -3.178     13.251     14.627
REMARK INTER + INTRA:          -4.332
REMARK INTER:                  -4.168
REMARK INTRA:                  -0.164
REMARK UNBOUND:                -0.226
REMARK SMILES CCCCCCC(=O)[O-]
REMARK SMILES IDX 5 1 6 2 7 3 8 4 9 5 4 6 3 7 2 8 1 9
REMARK H PARENT
REMARK Flexibility Score: inf
ROOT
ATOM      1  C   UNL     1      62.268  32.724  60.868  1.00  0.00     0.006 C 
ENDROOT
BRANCH   1   2
ATOM      2  C   UNL     1      61.143  31.756  61.246  1.00  0.00     0.053 C 
BRANCH   2   3
ATOM      3  C   UNL     1      61.679  30.370  61.413  1.00  0.00     0.041 C 
ATOM      4  O   UNL     1      62.752  30.176  62.043  1.00  0.00    -0.550 OA
ATOM      5  O   UNL     1      60.967  29.285  60.915  1.00  0.00    -0.550 OA
ENDBRANCH   2   3
ENDBRANCH   1   2
BRANCH   1   6
ATOM      6  C   UNL     1      61.708  34.105  60.505  1.00  0.00     0.000 C 
BRANCH   6   7
ATOM      7  C   UNL     1      62.663  35.220  60.945  1.00  0.00    -0.000 C 
BRANCH   7   8
ATOM      8  C   UNL     1      64.029  34.650  61.346  1.00  0.00    -0.003 C 
ATOM      9  C   UNL     1      64.902  35.717  61.999  1.00  0.00     0.004 C 
ENDBRANCH   7   8
ENDBRANCH   6   7
ENDBRANCH   1   6
TORSDOF 5
ENDMDL
MODEL 5
REMARK VINA RESULT:    -2.988      2.471      4.495
REMARK INTER + INTRA:          -4.087
REMARK INTER:                  -3.825
REMARK INTRA:                  -0.262
REMARK UNBOUND:                -0.226
REMARK SMILES CCCCCCC(=O)[O-]
REMARK SMILES IDX 5 1 6 2 7 3 8 4 9 5 4 6 3 7 2 8 1 9
REMARK H PARENT
REMARK Flexibility Score: inf
ROOT
ATOM      1  C   UNL     1      57.535  28.234  50.743  1.00  0.00     0.006 C 
ENDROOT
BRANCH   1   2
ATOM      2  C   UNL     1      56.108  27.875  50.319  1.00  0.00     0.053 C 
BRANCH   2   3
ATOM      3  C   UNL     1      55.975  26.398  50.124  1.00  0.00     0.041 C 
ATOM      4  O   UNL     1      55.110  25.938  49.333  1.00  0.00    -0.550 OA
ATOM      5  O   UNL     1      56.840  25.530  50.779  1.00  0.00    -0.550 OA
ENDBRANCH   2   3
ENDBRANCH   1   2
BRANCH   1   6
ATOM      6  C   UNL     1      58.223  29.102  49.683  1.00  0.00     0.000 C 
BRANCH   6   7
ATOM      7  C   UNL     1      59.612  28.552  49.337  1.00  0.00    -0.000 C 
BRANCH   7   8
ATOM      8  C   UNL     1      59.602  27.020  49.294  1.00  0.00    -0.003 C 
ATOM      9  C   UNL     1      60.944  26.447  49.739  1.00  0.00     0.004 C 
ENDBRANCH   7   8
ENDBRANCH   6   7
ENDBRANCH   1   6
TORSDOF 5
ENDMDL
MODEL 6
REMARK VINA RESULT:    -2.906     13.422     14.799
REMARK INTER + INTRA:          -3.980
REMARK INTER:                  -3.805
REMARK INTRA:                  -0.176
REMARK UNBOUND:                -0.226
REMARK SMILES CCCCCCC(=O)[O-]
REMARK SMILES IDX 5 1 6 2 7 3 8 4 9 5 4 6 3 7 2 8 1 9
REMARK H PARENT
REMARK Flexibility Score: inf
ROOT
ATOM      1  C   UNL     1      61.913  33.285  60.463  1.00  0.00     0.006 C 
ENDROOT
BRANCH   1   2
ATOM      2  C   UNL     1      62.166  31.879  61.017  1.00  0.00     0.053 C 
BRANCH   2   3
ATOM      3  C   UNL     1      63.448  31.328  60.479  1.00  0.00     0.041 C 
ATOM      4  O   UNL     1      64.414  31.097  61.253  1.00  0.00    -0.550 OA
ATOM      5  O   UNL     1      63.561  31.023  59.127  1.00  0.00    -0.550 OA
ENDBRANCH   2   3
ENDBRANCH   1   2
BRANCH   1   6
ATOM      6  C   UNL     1      63.026  34.251  60.884  1.00  0.00     0.000 C 
BRANCH   6   7
ATOM      7  C   UNL     1      62.481  35.672  61.073  1.00  0.00    -0.000 C 
BRANCH   7   8
ATOM      8  C   UNL     1      63.553  36.599  61.658  1.00  0.00    -0.003 C 
ATOM      9  C   UNL     1      64.824  35.827  61.997  1.00  0.00     0.004 C 
ENDBRANCH   7   8
ENDBRANCH   6   7
ENDBRANCH   1   6
TORSDOF 5
ENDMDL
MODEL 7
REMARK VINA RESULT:    -2.905     12.980     13.997
REMARK INTER + INTRA:          -3.980
REMARK INTER:                  -3.631
REMARK INTRA:                  -0.349
REMARK UNBOUND:                -0.226
REMARK SMILES CCCCCCC(=O)[O-]
REMARK SMILES IDX 5 1 6 2 7 3 8 4 9 5 4 6 3 7 2 8 1 9
REMARK H PARENT
REMARK Flexibility Score: inf
ROOT
ATOM      1  C   UNL     1      61.571  34.006  60.687  1.00  0.00     0.006 C 
ENDROOT
BRANCH   1   2
ATOM      2  C   UNL     1      62.827  34.846  60.440  1.00  0.00     0.053 C 
BRANCH   2   3
ATOM      3  C   UNL     1      63.977  34.313  61.235  1.00  0.00     0.041 C 
ATOM      4  O   UNL     1      64.302  33.100  61.146  1.00  0.00    -0.550 OA
ATOM      5  O   UNL     1      64.722  35.169  62.037  1.00  0.00    -0.550 OA
ENDBRANCH   2   3
ENDBRANCH   1   2
BRANCH   1   6
ATOM      6  C   UNL     1      61.262  33.110  59.481  1.00  0.00     0.000 C 
BRANCH   6   7
ATOM      7  C   UNL     1      61.026  31.659  59.918  1.00  0.00    -0.000 C 
BRANCH   7   8
ATOM      8  C   UNL     1      61.107  31.524  61.443  1.00  0.00    -0.003 C 
ATOM      9  C   UNL     1      61.937  30.309  61.845  1.00  0.00     0.004 C 
ENDBRANCH   7   8
ENDBRANCH   6   7
ENDBRANCH   1   6
TORSDOF 5
ENDMDL
MODEL 8
REMARK VINA RESULT:    -2.855     13.186     13.845
REMARK INTER + INTRA:          -3.916
REMARK INTER:                  -3.697
REMARK INTRA:                  -0.219
REMARK UNBOUND:                -0.226
REMARK SMILES CCCCCCC(=O)[O-]
REMARK SMILES IDX 5 1 6 2 7 3 8 4 9 5 4 6 3 7 2 8 1 9
REMARK H PARENT
REMARK Flexibility Score: inf
ROOT
ATOM      1  C   UNL     1      61.107  30.880  61.559  1.00  0.00     0.006 C 
ENDROOT
BRANCH   1   2
ATOM      2  C   UNL     1      62.442  30.218  61.915  1.00  0.00     0.053 C 
BRANCH   2   3
ATOM      3  C   UNL     1      62.414  28.763  61.568  1.00  0.00     0.041 C 
ATOM      4  O   UNL     1      63.483  28.099  61.529  1.00  0.00    -0.550 OA
ATOM      5  O   UNL     1      61.200  28.128  61.336  1.00  0.00    -0.550 OA
ENDBRANCH   2   3
ENDBRANCH   1   2
BRANCH   1   6
ATOM      6  C   UNL     1      61.328  32.246  60.899  1.00  0.00     0.000 C 
BRANCH   6   7
ATOM      7  C   UNL     1      62.819  32.602  60.855  1.00  0.00    -0.000 C 
BRANCH   7   8
ATOM      8  C   UNL     1      63.019  34.118  60.739  1.00  0.00    -0.003 C 
ATOM      9  C   UNL     1      61.681  34.844  60.631  1.00  0.00     0.004 C 
ENDBRANCH   7   8
ENDBRANCH   6   7
ENDBRANCH   1   6
TORSDOF 5
ENDMDL
MODEL 9
REMARK VINA RESULT:    -2.817      2.179      2.845
REMARK INTER + INTRA:          -3.867
REMARK INTER:                  -3.524
REMARK INTRA:                  -0.342
REMARK UNBOUND:                -0.226
REMARK SMILES CCCCCCC(=O)[O-]
REMARK SMILES IDX 5 1 6 2 7 3 8 4 9 5 4 6 3 7 2 8 1 9
REMARK H PARENT
REMARK Flexibility Score: inf
ROOT
ATOM      1  C   UNL     1      58.507  28.816  49.469  1.00  0.00     0.006 C 
ENDROOT
BRANCH   1   2
ATOM      2  C   UNL     1      59.748  27.972  49.164  1.00  0.00     0.053 C 
BRANCH   2   3
ATOM      3  C   UNL     1      59.659  26.644  49.846  1.00  0.00     0.041 C 
ATOM      4  O   UNL     1      60.578  26.266  50.620  1.00  0.00    -0.550 OA
ATOM      5  O   UNL     1      58.537  25.845  49.667  1.00  0.00    -0.550 OA
ENDBRANCH   2   3
ENDBRANCH   1   2
BRANCH   1   6
ATOM      6  C   UNL     1      58.406  29.126  50.967  1.00  0.00     0.000 C 
BRANCH   6   7
ATOM      7  C   UNL     1      56.958  29.012  51.458  1.00  0.00    -0.000 C 
BRANCH   7   8
ATOM      8  C   UNL     1      56.089  28.264  50.440  1.00  0.00    -0.003 C 
ATOM      9  C   UNL     1      54.639  28.735  50.500  1.00  0.00     0.004 C 
ENDBRANCH   7   8
ENDBRANCH   6   7
ENDBRANCH   1   6
TORSDOF 5
ENDMDL
