MODEL 1
REMARK VINA RESULT:    -5.401      0.000      0.000
REMARK INTER + INTRA:          -9.899
REMARK INTER:                  -9.347
REMARK INTRA:                  -0.552
REMARK UNBOUND:                -0.552
REMARK SMILES CCCCCCCCCCCCCCO
REMARK SMILES IDX 8 1 7 2 6 3 5 4 4 5 3 6 2 7 1 8 9 9 10 10 11 11 12 12 13 13
REMARK SMILES IDX 14 14 15 15
REMARK H PARENT 15 16
REMARK Flexibility Score: inf
ROOT
ATOM      1  C   UNL     1      21.122  29.850  36.298  1.00  0.00     0.000 C 
ENDROOT
BRANCH   1   2
ATOM      2  C   UNL     1      21.137  31.389  36.411  1.00  0.00    -0.000 C 
BRANCH   2   3
ATOM      3  C   UNL     1      19.781  32.038  36.739  1.00  0.00    -0.000 C 
BRANCH   3   4
ATOM      4  C   UNL     1      19.865  33.570  36.845  1.00  0.00    -0.000 C 
BRANCH   4   5
ATOM      5  C   UNL     1      19.944  34.260  35.473  1.00  0.00    -0.000 C 
BRANCH   5   6
ATOM      6  C   UNL     1      21.361  34.674  35.030  1.00  0.00    -0.000 C 
BRANCH   6   7
ATOM      7  C   UNL     1      21.447  35.124  33.557  1.00  0.00    -0.003 C 
ATOM      8  C   UNL     1      20.848  34.097  32.596  1.00  0.00     0.004 C 
ENDBRANCH   6   7
ENDBRANCH   5   6
ENDBRANCH   4   5
ENDBRANCH   3   4
ENDBRANCH   2   3
ENDBRANCH   1   2
BRANCH   1   9
ATOM      9  C   UNL     1      20.029  29.139  37.117  1.00  0.00     0.000 C 
BRANCH   9  10
ATOM     10  C   UNL     1      19.872  27.656  36.745  1.00  0.00     0.000 C 
BRANCH  10  11
ATOM     11  C   UNL     1      18.413  27.269  36.449  1.00  0.00     0.000 C 
BRANCH  11  12
ATOM     12  C   UNL     1      18.228  25.781  36.084  1.00  0.00     0.002 C 
BRANCH  12  13
ATOM     13  C   UNL     1      19.524  24.973  36.271  1.00  0.00     0.028 C 
BRANCH  13  14
ATOM     14  C   UNL     1      20.063  24.450  34.939  1.00  0.00     0.156 C 
BRANCH  14  15
ATOM     15  O   UNL     1      21.382  24.886  34.751  1.00  0.00    -0.396 OA
ATOM     16  H   UNL     1      21.832  24.787  35.629  1.00  0.00     0.210 HD
ENDBRANCH  14  15
ENDBRANCH  13  14
ENDBRANCH  12  13
ENDBRANCH  11  12
ENDBRANCH  10  11
ENDBRANCH   9  10
ENDBRANCH   1   9
TORSDOF 13
ENDMDL
MODEL 2
REMARK VINA RESULT:    -4.579     17.524     18.717
REMARK INTER + INTRA:          -8.476
REMARK INTER:                  -7.371
REMARK INTRA:                  -1.105
REMARK UNBOUND:                -0.552
REMARK SMILES CCCCCCCCCCCCCCO
REMARK SMILES IDX 8 1 7 2 6 3 5 4 4 5 3 6 2 7 1 8 9 9 10 10 11 11 12 12 13 13
REMARK SMILES IDX 14 14 15 15
REMARK H PARENT 15 16
REMARK Flexibility Score: inf
ROOT
ATOM      1  C   UNL     1      22.457  22.568  19.902  1.00  0.00     0.000 C 
ENDROOT
BRANCH   1   2
ATOM      2  C   UNL     1      21.684  22.879  18.603  1.00  0.00    -0.000 C 
BRANCH   2   3
ATOM      3  C   UNL     1      20.975  24.244  18.569  1.00  0.00    -0.000 C 
BRANCH   3   4
ATOM      4  C   UNL     1      19.474  24.127  18.251  1.00  0.00    -0.000 C 
BRANCH   4   5
ATOM      5  C   UNL     1      19.093  22.756  17.670  1.00  0.00    -0.000 C 
BRANCH   5   6
ATOM      6  C   UNL     1      17.935  22.039  18.391  1.00  0.00    -0.000 C 
BRANCH   6   7
ATOM      7  C   UNL     1      18.372  21.260  19.650  1.00  0.00    -0.003 C 
ATOM      8  C   UNL     1      18.123  22.044  20.938  1.00  0.00     0.004 C 
ENDBRANCH   6   7
ENDBRANCH   5   6
ENDBRANCH   4   5
ENDBRANCH   3   4
ENDBRANCH   2   3
ENDBRANCH   1   2
BRANCH   1   9
ATOM      9  C   UNL     1      21.804  21.521  20.823  1.00  0.00     0.000 C 
BRANCH   9  10
ATOM     10  C   UNL     1      22.829  20.592  21.493  1.00  0.00     0.000 C 
BRANCH  10  11
ATOM     11  C   UNL     1      22.388  19.119  21.490  1.00  0.00     0.000 C 
BRANCH  11  12
ATOM     12  C   UNL     1      23.549  18.124  21.282  1.00  0.00     0.002 C 
BRANCH  12  13
ATOM     13  C   UNL     1      24.624  18.679  20.332  1.00  0.00     0.028 C 
BRANCH  13  14
ATOM     14  C   UNL     1      25.992  18.048  20.594  1.00  0.00     0.156 C 
BRANCH  14  15
ATOM     15  O   UNL     1      26.913  18.482  19.631  1.00  0.00    -0.396 OA
ATOM     16  H   UNL     1      27.616  17.782  19.588  1.00  0.00     0.210 HD
ENDBRANCH  14  15
ENDBRANCH  13  14
ENDBRANCH  12  13
ENDBRANCH  11  12
ENDBRANCH  10  11
ENDBRANCH   9  10
ENDBRANCH   1   9
TORSDOF 13
ENDMDL
MODEL 3
REMARK VINA RESULT:    -4.572     16.347     18.173
REMARK INTER + INTRA:          -8.465
REMARK INTER:                  -7.312
REMARK INTRA:                  -1.153
REMARK UNBOUND:                -0.552
REMARK SMILES CCCCCCCCCCCCCCO
REMARK SMILES IDX 8 1 7 2 6 3 5 4 4 5 3 6 2 7 1 8 9 9 10 10 11 11 12 12 13 13
REMARK SMILES IDX 14 14 15 15
REMARK H PARENT 15 16
REMARK Flexibility Score: inf
ROOT
ATOM      1  C   UNL     1      21.751  22.736  21.655  1.00  0.00     0.000 C 
ENDROOT
BRANCH   1   2
ATOM      2  C   UNL     1      20.499  23.597  21.385  1.00  0.00    -0.000 C 
BRANCH   2   3
ATOM      3  C   UNL     1      19.154  22.919  21.698  1.00  0.00    -0.000 C 
BRANCH   3   4
ATOM      4  C   UNL     1      18.410  22.460  20.433  1.00  0.00    -0.000 C 
BRANCH   4   5
ATOM      5  C   UNL     1      18.853  23.220  19.172  1.00  0.00    -0.000 C 
BRANCH   5   6
ATOM      6  C   UNL     1      19.492  22.348  18.074  1.00  0.00    -0.000 C 
BRANCH   6   7
ATOM      7  C   UNL     1      20.877  22.847  17.609  1.00  0.00    -0.003 C 
ATOM      8  C   UNL     1      21.071  24.343  17.854  1.00  0.00     0.004 C 
ENDBRANCH   6   7
ENDBRANCH   5   6
ENDBRANCH   4   5
ENDBRANCH   3   4
ENDBRANCH   2   3
ENDBRANCH   1   2
BRANCH   1   9
ATOM      9  C   UNL     1      21.827  21.416  20.865  1.00  0.00     0.000 C 
BRANCH   9  10
ATOM     10  C   UNL     1      22.902  20.459  21.402  1.00  0.00     0.000 C 
BRANCH  10  11
ATOM     11  C   UNL     1      22.402  19.009  21.523  1.00  0.00     0.000 C 
BRANCH  11  12
ATOM     12  C   UNL     1      23.467  17.953  21.160  1.00  0.00     0.002 C 
BRANCH  12  13
ATOM     13  C   UNL     1      24.853  18.581  20.939  1.00  0.00     0.028 C 
BRANCH  13  14
ATOM     14  C   UNL     1      25.613  17.892  19.804  1.00  0.00     0.156 C 
BRANCH  14  15
ATOM     15  O   UNL     1      26.938  18.344  19.769  1.00  0.00    -0.396 OA
ATOM     16  H   UNL     1      27.443  17.764  20.396  1.00  0.00     0.210 HD
ENDBRANCH  14  15
ENDBRANCH  13  14
ENDBRANCH  12  13
ENDBRANCH  11  12
ENDBRANCH  10  11
ENDBRANCH   9  10
ENDBRANCH   1   9
TORSDOF 13
ENDMDL
MODEL 4
REMARK VINA RESULT:    -4.549     15.769     18.099
REMARK INTER + INTRA:          -8.425
REMARK INTER:                  -6.612
REMARK INTRA:                  -1.814
REMARK UNBOUND:                -0.552
REMARK SMILES CCCCCCCCCCCCCCO
REMARK SMILES IDX 8 1 7 2 6 3 5 4 4 5 3 6 2 7 1 8 9 9 10 10 11 11 12 12 13 13
REMARK SMILES IDX 14 14 15 15
REMARK H PARENT 15 16
REMARK Flexibility Score: inf
ROOT
ATOM      1  C   UNL     1      19.201  23.925  20.196  1.00  0.00     0.000 C 
ENDROOT
BRANCH   1   2
ATOM      2  C   UNL     1      19.262  23.753  21.729  1.00  0.00    -0.000 C 
BRANCH   2   3
ATOM      3  C   UNL     1      18.378  22.631  22.301  1.00  0.00    -0.000 C 
BRANCH   3   4
ATOM      4  C   UNL     1      17.646  21.834  21.207  1.00  0.00    -0.000 C 
BRANCH   4   5
ATOM      5  C   UNL     1      18.308  20.478  20.914  1.00  0.00    -0.000 C 
BRANCH   5   6
ATOM      6  C   UNL     1      18.689  20.242  19.439  1.00  0.00    -0.000 C 
BRANCH   6   7
ATOM      7  C   UNL     1      17.664  20.806  18.433  1.00  0.00    -0.003 C 
ATOM      8  C   UNL     1      18.318  21.674  17.358  1.00  0.00     0.004 C 
ENDBRANCH   6   7
ENDBRANCH   5   6
ENDBRANCH   4   5
ENDBRANCH   3   4
ENDBRANCH   2   3
ENDBRANCH   1   2
BRANCH   1   9
ATOM      9  C   UNL     1      20.239  24.893  19.600  1.00  0.00     0.000 C 
BRANCH   9  10
ATOM     10  C   UNL     1      21.234  24.197  18.658  1.00  0.00     0.000 C 
BRANCH  10  11
ATOM     11  C   UNL     1      21.390  22.697  18.961  1.00  0.00     0.000 C 
BRANCH  11  12
ATOM     12  C   UNL     1      22.488  22.384  20.000  1.00  0.00     0.002 C 
BRANCH  12  13
ATOM     13  C   UNL     1      22.056  21.286  20.985  1.00  0.00     0.028 C 
BRANCH  13  14
ATOM     14  C   UNL     1      23.154  20.240  21.185  1.00  0.00     0.156 C 
BRANCH  14  15
ATOM     15  O   UNL     1      22.836  19.410  22.268  1.00  0.00    -0.396 OA
ATOM     16  H   UNL     1      22.817  18.485  21.909  1.00  0.00     0.210 HD
ENDBRANCH  14  15
ENDBRANCH  13  14
ENDBRANCH  12  13
ENDBRANCH  11  12
ENDBRANCH  10  11
ENDBRANCH   9  10
ENDBRANCH   1   9
TORSDOF 13
ENDMDL
MODEL 5
REMARK VINA RESULT:    -4.489     16.364     18.409
REMARK INTER + INTRA:          -8.321
REMARK INTER:                  -6.892
REMARK INTRA:                  -1.429
REMARK UNBOUND:                -0.552
REMARK SMILES CCCCCCCCCCCCCCO
REMARK SMILES IDX 8 1 7 2 6 3 5 4 4 5 3 6 2 7 1 8 9 9 10 10 11 11 12 12 13 13
REMARK SMILES IDX 14 14 15 15
REMARK H PARENT 15 16
REMARK Flexibility Score: inf
ROOT
ATOM      1  C   UNL     1      20.204  24.774  20.553  1.00  0.00     0.000 C 
ENDROOT
BRANCH   1   2
ATOM      2  C   UNL     1      20.017  24.798  19.021  1.00  0.00    -0.000 C 
BRANCH   2   3
ATOM      3  C   UNL     1      21.151  24.147  18.209  1.00  0.00    -0.000 C 
BRANCH   3   4
ATOM      4  C   UNL     1      20.699  22.876  17.471  1.00  0.00    -0.000 C 
BRANCH   4   5
ATOM      5  C   UNL     1      19.244  22.958  16.978  1.00  0.00    -0.000 C 
BRANCH   5   6
ATOM      6  C   UNL     1      18.403  21.688  17.211  1.00  0.00    -0.000 C 
BRANCH   6   7
ATOM      7  C   UNL     1      18.750  20.940  18.516  1.00  0.00    -0.003 C 
ATOM      8  C   UNL     1      17.758  21.238  19.640  1.00  0.00     0.004 C 
ENDBRANCH   6   7
ENDBRANCH   5   6
ENDBRANCH   4   5
ENDBRANCH   3   4
ENDBRANCH   2   3
ENDBRANCH   1   2
BRANCH   1   9
ATOM      9  C   UNL     1      20.138  23.380  21.204  1.00  0.00     0.000 C 
BRANCH   9  10
ATOM     10  C   UNL     1      21.527  22.770  21.453  1.00  0.00     0.000 C 
BRANCH  10  11
ATOM     11  C   UNL     1      21.701  21.395  20.786  1.00  0.00     0.000 C 
BRANCH  11  12
ATOM     12  C   UNL     1      22.775  20.512  21.457  1.00  0.00     0.002 C 
BRANCH  12  13
ATOM     13  C   UNL     1      22.344  19.037  21.536  1.00  0.00     0.028 C 
BRANCH  13  14
ATOM     14  C   UNL     1      23.466  18.095  21.098  1.00  0.00     0.156 C 
BRANCH  14  15
ATOM     15  O   UNL     1      24.507  18.118  22.035  1.00  0.00    -0.396 OA
ATOM     16  H   UNL     1      24.805  17.177  22.138  1.00  0.00     0.210 HD
ENDBRANCH  14  15
ENDBRANCH  13  14
ENDBRANCH  12  13
ENDBRANCH  11  12
ENDBRANCH  10  11
ENDBRANCH   9  10
ENDBRANCH   1   9
TORSDOF 13
ENDMDL
MODEL 6
REMARK VINA RESULT:    -4.487     15.835     18.566
REMARK INTER + INTRA:          -8.318
REMARK INTER:                  -6.527
REMARK INTRA:                  -1.792
REMARK UNBOUND:                -0.552
REMARK SMILES CCCCCCCCCCCCCCO
REMARK SMILES IDX 8 1 7 2 6 3 5 4 4 5 3 6 2 7 1 8 9 9 10 10 11 11 12 12 13 13
REMARK SMILES IDX 14 14 15 15
REMARK H PARENT 15 16
REMARK Flexibility Score: inf
ROOT
ATOM      1  C   UNL     1      20.855  23.659  21.566  1.00  0.00     0.000 C 
ENDROOT
BRANCH   1   2
ATOM      2  C   UNL     1      19.420  23.458  22.099  1.00  0.00    -0.000 C 
BRANCH   2   3
ATOM      3  C   UNL     1      18.470  22.694  21.160  1.00  0.00    -0.000 C 
BRANCH   3   4
ATOM      4  C   UNL     1      17.721  21.555  21.871  1.00  0.00    -0.000 C 
BRANCH   4   5
ATOM      5  C   UNL     1      17.651  20.270  21.028  1.00  0.00    -0.000 C 
BRANCH   5   6
ATOM      6  C   UNL     1      18.878  20.009  20.132  1.00  0.00    -0.000 C 
BRANCH   6   7
ATOM      7  C   UNL     1      18.520  19.546  18.705  1.00  0.00    -0.003 C 
ATOM      8  C   UNL     1      17.553  20.500  18.006  1.00  0.00     0.004 C 
ENDBRANCH   6   7
ENDBRANCH   5   6
ENDBRANCH   4   5
ENDBRANCH   3   4
ENDBRANCH   2   3
ENDBRANCH   1   2
BRANCH   1   9
ATOM      9  C   UNL     1      21.677  22.369  21.384  1.00  0.00     0.000 C 
BRANCH   9  10
ATOM     10  C   UNL     1      22.352  22.280  20.006  1.00  0.00     0.000 C 
BRANCH  10  11
ATOM     11  C   UNL     1      21.691  23.193  18.960  1.00  0.00     0.000 C 
BRANCH  11  12
ATOM     12  C   UNL     1      20.746  22.448  17.994  1.00  0.00     0.002 C 
BRANCH  12  13
ATOM     13  C   UNL     1      19.779  23.405  17.276  1.00  0.00     0.028 C 
BRANCH  13  14
ATOM     14  C   UNL     1      19.776  24.794  17.917  1.00  0.00     0.156 C 
BRANCH  14  15
ATOM     15  O   UNL     1      18.649  24.943  18.736  1.00  0.00    -0.396 OA
ATOM     16  H   UNL     1      18.946  24.715  19.656  1.00  0.00     0.210 HD
ENDBRANCH  14  15
ENDBRANCH  13  14
ENDBRANCH  12  13
ENDBRANCH  11  12
ENDBRANCH  10  11
ENDBRANCH   9  10
ENDBRANCH   1   9
TORSDOF 13
ENDMDL
MODEL 7
REMARK VINA RESULT:    -4.449     16.382     19.176
REMARK INTER + INTRA:          -8.252
REMARK INTER:                  -7.292
REMARK INTRA:                  -0.960
REMARK UNBOUND:                -0.552
REMARK SMILES CCCCCCCCCCCCCCO
REMARK SMILES IDX 8 1 7 2 6 3 5 4 4 5 3 6 2 7 1 8 9 9 10 10 11 11 12 12 13 13
REMARK SMILES IDX 14 14 15 15
REMARK H PARENT 15 16
REMARK Flexibility Score: inf
ROOT
ATOM      1  C   UNL     1      21.120  21.744  21.034  1.00  0.00     0.000 C 
ENDROOT
BRANCH   1   2
ATOM      2  C   UNL     1      22.509  21.115  20.796  1.00  0.00    -0.000 C 
BRANCH   2   3
ATOM      3  C   UNL     1      22.889  19.976  21.758  1.00  0.00    -0.000 C 
BRANCH   3   4
ATOM      4  C   UNL     1      22.351  18.609  21.305  1.00  0.00    -0.000 C 
BRANCH   4   5
ATOM      5  C   UNL     1      23.450  17.537  21.211  1.00  0.00    -0.000 C 
BRANCH   5   6
ATOM      6  C   UNL     1      24.891  18.063  21.365  1.00  0.00    -0.000 C 
BRANCH   6   7
ATOM      7  C   UNL     1      25.633  18.251  20.025  1.00  0.00    -0.003 C 
ATOM      8  C   UNL     1      25.257  17.187  18.995  1.00  0.00     0.004 C 
ENDBRANCH   6   7
ENDBRANCH   5   6
ENDBRANCH   4   5
ENDBRANCH   3   4
ENDBRANCH   2   3
ENDBRANCH   1   2
BRANCH   1   9
ATOM      9  C   UNL     1      21.124  23.253  21.341  1.00  0.00     0.000 C 
BRANCH   9  10
ATOM     10  C   UNL     1      19.719  23.875  21.302  1.00  0.00     0.000 C 
BRANCH  10  11
ATOM     11  C   UNL     1      18.893  23.403  20.094  1.00  0.00     0.000 C 
BRANCH  11  12
ATOM     12  C   UNL     1      19.157  24.212  18.807  1.00  0.00     0.002 C 
BRANCH  12  13
ATOM     13  C   UNL     1      19.835  23.363  17.718  1.00  0.00     0.028 C 
BRANCH  13  14
ATOM     14  C   UNL     1      21.328  23.672  17.605  1.00  0.00     0.156 C 
BRANCH  14  15
ATOM     15  O   UNL     1      22.072  22.488  17.697  1.00  0.00    -0.396 OA
ATOM     16  H   UNL     1      21.750  22.024  18.513  1.00  0.00     0.210 HD
ENDBRANCH  14  15
ENDBRANCH  13  14
ENDBRANCH  12  13
ENDBRANCH  11  12
ENDBRANCH  10  11
ENDBRANCH   9  10
ENDBRANCH   1   9
TORSDOF 13
ENDMDL
MODEL 8
REMARK VINA RESULT:    -4.446     15.881     17.819
REMARK INTER + INTRA:          -8.246
REMARK INTER:                  -6.703
REMARK INTRA:                  -1.544
REMARK UNBOUND:                -0.552
REMARK SMILES CCCCCCCCCCCCCCO
REMARK SMILES IDX 8 1 7 2 6 3 5 4 4 5 3 6 2 7 1 8 9 9 10 10 11 11 12 12 13 13
REMARK SMILES IDX 14 14 15 15
REMARK H PARENT 15 16
REMARK Flexibility Score: inf
ROOT
ATOM      1  C   UNL     1      21.197  24.130  18.874  1.00  0.00     0.000 C 
ENDROOT
BRANCH   1   2
ATOM      2  C   UNL     1      20.277  24.735  19.957  1.00  0.00    -0.000 C 
BRANCH   2   3
ATOM      3  C   UNL     1      19.105  23.842  20.398  1.00  0.00    -0.000 C 
BRANCH   3   4
ATOM      4  C   UNL     1      19.123  23.538  21.906  1.00  0.00    -0.000 C 
BRANCH   4   5
ATOM      5  C   UNL     1      18.105  22.457  22.309  1.00  0.00    -0.000 C 
BRANCH   5   6
ATOM      6  C   UNL     1      17.564  21.604  21.146  1.00  0.00    -0.000 C 
BRANCH   6   7
ATOM      7  C   UNL     1      18.308  20.266  20.955  1.00  0.00    -0.003 C 
ATOM      8  C   UNL     1      18.788  20.063  19.518  1.00  0.00     0.004 C 
ENDBRANCH   6   7
ENDBRANCH   5   6
ENDBRANCH   4   5
ENDBRANCH   3   4
ENDBRANCH   2   3
ENDBRANCH   1   2
BRANCH   1   9
ATOM      9  C   UNL     1      21.405  22.607  18.962  1.00  0.00     0.000 C 
BRANCH   9  10
ATOM     10  C   UNL     1      22.595  22.217  19.853  1.00  0.00     0.000 C 
BRANCH  10  11
ATOM     11  C   UNL     1      22.158  21.634  21.208  1.00  0.00     0.000 C 
BRANCH  11  12
ATOM     12  C   UNL     1      22.161  20.091  21.249  1.00  0.00     0.002 C 
BRANCH  12  13
ATOM     13  C   UNL     1      23.577  19.511  21.101  1.00  0.00     0.028 C 
BRANCH  13  14
ATOM     14  C   UNL     1      23.599  18.000  21.339  1.00  0.00     0.156 C 
BRANCH  14  15
ATOM     15  O   UNL     1      24.903  17.579  21.633  1.00  0.00    -0.396 OA
ATOM     16  H   UNL     1      25.487  17.993  20.946  1.00  0.00     0.210 HD
ENDBRANCH  14  15
ENDBRANCH  13  14
ENDBRANCH  12  13
ENDBRANCH  11  12
ENDBRANCH  10  11
ENDBRANCH   9  10
ENDBRANCH   1   9
TORSDOF 13
ENDMDL
MODEL 9
REMARK VINA RESULT:    -4.422     15.997     18.577
REMARK INTER + INTRA:          -8.204
REMARK INTER:                  -7.241
REMARK INTRA:                  -0.963
REMARK UNBOUND:                -0.552
REMARK SMILES CCCCCCCCCCCCCCO
REMARK SMILES IDX 8 1 7 2 6 3 5 4 4 5 3 6 2 7 1 8 9 9 10 10 11 11 12 12 13 13
REMARK SMILES IDX 14 14 15 15
REMARK H PARENT 15 16
REMARK Flexibility Score: inf
ROOT
ATOM      1  C   UNL     1      22.501  22.453  19.072  1.00  0.00     0.000 C 
ENDROOT
BRANCH   1   2
ATOM      2  C   UNL     1      22.284  22.253  20.588  1.00  0.00    -0.000 C 
BRANCH   2   3
ATOM      3  C   UNL     1      21.795  20.855  21.004  1.00  0.00    -0.000 C 
BRANCH   3   4
ATOM      4  C   UNL     1      22.878  20.038  21.729  1.00  0.00    -0.000 C 
BRANCH   4   5
ATOM      5  C   UNL     1      22.831  18.541  21.376  1.00  0.00    -0.000 C 
BRANCH   5   6
ATOM      6  C   UNL     1      24.206  17.863  21.219  1.00  0.00    -0.000 C 
BRANCH   6   7
ATOM      7  C   UNL     1      25.173  18.624  20.288  1.00  0.00    -0.003 C 
ATOM      8  C   UNL     1      26.513  17.907  20.125  1.00  0.00     0.004 C 
ENDBRANCH   6   7
ENDBRANCH   5   6
ENDBRANCH   4   5
ENDBRANCH   3   4
ENDBRANCH   2   3
ENDBRANCH   1   2
BRANCH   1   9
ATOM      9  C   UNL     1      21.271  22.952  18.291  1.00  0.00     0.000 C 
BRANCH   9  10
ATOM     10  C   UNL     1      20.720  24.282  18.829  1.00  0.00     0.000 C 
BRANCH  10  11
ATOM     11  C   UNL     1      19.200  24.247  19.059  1.00  0.00     0.000 C 
BRANCH  11  12
ATOM     12  C   UNL     1      18.729  23.049  19.910  1.00  0.00     0.002 C 
BRANCH  12  13
ATOM     13  C   UNL     1      18.874  23.317  21.417  1.00  0.00     0.028 C 
BRANCH  13  14
ATOM     14  C   UNL     1      18.003  22.374  22.248  1.00  0.00     0.156 C 
BRANCH  14  15
ATOM     15  O   UNL     1      17.915  22.838  23.567  1.00  0.00    -0.396 OA
ATOM     16  H   UNL     1      17.337  23.644  23.537  1.00  0.00     0.210 HD
ENDBRANCH  14  15
ENDBRANCH  13  14
ENDBRANCH  12  13
ENDBRANCH  11  12
ENDBRANCH  10  11
ENDBRANCH   9  10
ENDBRANCH   1   9
TORSDOF 13
ENDMDL
