MODEL 1
REMARK VINA RESULT:    -3.809      0.000      0.000
REMARK INTER + INTRA:         -15.364
REMARK INTER:                  -9.598
REMARK INTRA:                  -5.765
REMARK UNBOUND:                -5.765
REMARK SMILES CCCCCCCCCCCCCCCCCCCCCCCCCCCC(=O)[O-]
REMARK SMILES IDX 15 1 16 2 17 3 18 4 19 5 20 6 21 7 22 8 23 9 24 10 25 11
REMARK SMILES IDX 26 12 27 13 28 14 29 15 30 16 14 17 13 18 12 19 11 20 10 21
REMARK SMILES IDX 9 22 8 23 7 24 6 25 5 26 4 27 3 28 2 29 1 30
REMARK H PARENT
REMARK Flexibility Score: inf
ROOT
ATOM      1  C   UNL     1     -12.306 -16.539  27.375  1.00  0.00     0.000 C 
ENDROOT
BRANCH   1   2
ATOM      2  C   UNL     1     -11.115 -17.358  26.839  1.00  0.00     0.000 C 
BRANCH   2   3
ATOM      3  C   UNL     1     -10.515 -16.762  25.555  1.00  0.00     0.000 C 
BRANCH   3   4
ATOM      4  C   UNL     1      -9.051 -16.312  25.727  1.00  0.00     0.000 C 
BRANCH   4   5
ATOM      5  C   UNL     1      -8.568 -16.196  27.185  1.00  0.00     0.000 C 
BRANCH   5   6
ATOM      6  C   UNL     1      -8.450 -14.740  27.666  1.00  0.00     0.000 C 
BRANCH   6   7
ATOM      7  C   UNL     1      -9.194 -14.531  28.990  1.00  0.00     0.000 C 
BRANCH   7   8
ATOM      8  C   UNL     1     -10.102 -13.295  28.917  1.00  0.00     0.000 C 
BRANCH   8   9
ATOM      9  C   UNL     1     -11.583 -13.632  29.160  1.00  0.00     0.000 C 
BRANCH   9  10
ATOM     10  C   UNL     1     -12.530 -12.635  28.465  1.00  0.00     0.000 C 
BRANCH  10  11
ATOM     11  C   UNL     1     -13.767 -12.303  29.314  1.00  0.00     0.000 C 
BRANCH  11  12
ATOM     12  C   UNL     1     -13.662 -10.938  30.011  1.00  0.00     0.006 C 
BRANCH  12  13
ATOM     13  C   UNL     1     -12.306 -10.280  29.735  1.00  0.00     0.053 C 
BRANCH  13  14
ATOM     14  C   UNL     1     -11.616  -9.942  31.018  1.00  0.00     0.041 C 
ATOM     15  O   UNL     1     -11.370  -8.742  31.308  1.00  0.00    -0.550 OA
ATOM     16  O   UNL     1     -11.213 -10.955  31.880  1.00  0.00    -0.550 OA
ENDBRANCH  13  14
ENDBRANCH  12  13
ENDBRANCH  11  12
ENDBRANCH  10  11
ENDBRANCH   9  10
ENDBRANCH   8   9
ENDBRANCH   7   8
ENDBRANCH   6   7
ENDBRANCH   5   6
ENDBRANCH   4   5
ENDBRANCH   3   4
ENDBRANCH   2   3
ENDBRANCH   1   2
BRANCH   1  17
ATOM     17  C   UNL     1     -12.979 -15.610  26.347  1.00  0.00     0.000 C 
BRANCH  17  18
ATOM     18  C   UNL     1     -14.270 -16.203  25.754  1.00  0.00     0.000 C 
BRANCH  18  19
ATOM     19  C   UNL     1     -15.160 -15.127  25.103  1.00  0.00     0.000 C 
BRANCH  19  20
ATOM     20  C   UNL     1     -14.438 -13.787  24.875  1.00  0.00     0.000 C 
BRANCH  20  21
ATOM     21  C   UNL     1     -15.063 -12.644  25.695  1.00  0.00     0.000 C 
BRANCH  21  22
ATOM     22  C   UNL     1     -14.503 -11.264  25.312  1.00  0.00    -0.000 C 
BRANCH  22  23
ATOM     23  C   UNL     1     -14.730 -10.206  26.406  1.00  0.00    -0.000 C 
BRANCH  23  24
ATOM     24  C   UNL     1     -13.741  -9.027  26.309  1.00  0.00    -0.000 C 
BRANCH  24  25
ATOM     25  C   UNL     1     -12.404  -9.351  25.610  1.00  0.00    -0.000 C 
BRANCH  25  26
ATOM     26  C   UNL     1     -11.171  -9.386  26.535  1.00  0.00    -0.000 C 
BRANCH  26  27
ATOM     27  C   UNL     1     -10.373 -10.700  26.495  1.00  0.00    -0.000 C 
BRANCH  27  28
ATOM     28  C   UNL     1     -10.418 -11.377  25.114  1.00  0.00    -0.000 C 
BRANCH  28  29
ATOM     29  C   UNL     1     -10.863 -12.846  25.203  1.00  0.00    -0.003 C 
ATOM     30  C   UNL     1     -10.778 -13.564  23.856  1.00  0.00     0.004 C 
ENDBRANCH  28  29
ENDBRANCH  27  28
ENDBRANCH  26  27
ENDBRANCH  25  26
ENDBRANCH  24  25
ENDBRANCH  23  24
ENDBRANCH  22  23
ENDBRANCH  21  22
ENDBRANCH  20  21
ENDBRANCH  19  20
ENDBRANCH  18  19
ENDBRANCH  17  18
ENDBRANCH   1  17
TORSDOF 26
ENDMDL
MODEL 2
REMARK VINA RESULT:    -3.767      2.823      6.837
REMARK INTER + INTRA:         -15.257
REMARK INTER:                  -9.633
REMARK INTRA:                  -5.624
REMARK UNBOUND:                -5.765
REMARK SMILES CCCCCCCCCCCCCCCCCCCCCCCCCCCC(=O)[O-]
REMARK SMILES IDX 15 1 16 2 17 3 18 4 19 5 20 6 21 7 22 8 23 9 24 10 25 11
REMARK SMILES IDX 26 12 27 13 28 14 29 15 30 16 14 17 13 18 12 19 11 20 10 21
REMARK SMILES IDX 9 22 8 23 7 24 6 25 5 26 4 27 3 28 2 29 1 30
REMARK H PARENT
REMARK Flexibility Score: inf
ROOT
ATOM      1  C   UNL     1     -12.411  -8.926  26.598  1.00  0.00     0.000 C 
ENDROOT
BRANCH   1   2
ATOM      2  C   UNL     1     -13.820  -9.111  27.196  1.00  0.00     0.000 C 
BRANCH   2   3
ATOM      3  C   UNL     1     -14.721 -10.005  26.329  1.00  0.00     0.000 C 
BRANCH   3   4
ATOM      4  C   UNL     1     -13.932 -11.059  25.528  1.00  0.00     0.000 C 
BRANCH   4   5
ATOM      5  C   UNL     1     -13.977 -10.889  23.998  1.00  0.00     0.000 C 
BRANCH   5   6
ATOM      6  C   UNL     1     -14.112 -12.225  23.248  1.00  0.00     0.000 C 
BRANCH   6   7
ATOM      7  C   UNL     1     -14.819 -13.276  24.111  1.00  0.00     0.000 C 
BRANCH   7   8
ATOM      8  C   UNL     1     -13.890 -14.467  24.391  1.00  0.00     0.000 C 
BRANCH   8   9
ATOM      9  C   UNL     1     -13.652 -14.693  25.894  1.00  0.00     0.000 C 
BRANCH   9  10
ATOM     10  C   UNL     1     -13.579 -16.189  26.255  1.00  0.00     0.000 C 
BRANCH  10  11
ATOM     11  C   UNL     1     -12.209 -16.596  26.821  1.00  0.00     0.000 C 
BRANCH  11  12
ATOM     12  C   UNL     1     -11.231 -17.065  25.732  1.00  0.00     0.006 C 
BRANCH  12  13
ATOM     13  C   UNL     1      -9.827 -16.499  25.971  1.00  0.00     0.053 C 
BRANCH  13  14
ATOM     14  C   UNL     1      -9.150 -16.209  24.670  1.00  0.00     0.041 C 
ATOM     15  O   UNL     1      -7.958 -16.569  24.482  1.00  0.00    -0.550 OA
ATOM     16  O   UNL     1      -9.823 -15.510  23.675  1.00  0.00    -0.550 OA
ENDBRANCH  13  14
ENDBRANCH  12  13
ENDBRANCH  11  12
ENDBRANCH  10  11
ENDBRANCH   9  10
ENDBRANCH   8   9
ENDBRANCH   7   8
ENDBRANCH   6   7
ENDBRANCH   5   6
ENDBRANCH   4   5
ENDBRANCH   3   4
ENDBRANCH   2   3
ENDBRANCH   1   2
BRANCH   1  17
ATOM     17  C   UNL     1     -11.274  -8.785  27.629  1.00  0.00     0.000 C 
BRANCH  17  18
ATOM     18  C   UNL     1     -11.618  -7.815  28.774  1.00  0.00     0.000 C 
BRANCH  18  19
ATOM     19  C   UNL     1     -11.419  -8.457  30.161  1.00  0.00     0.000 C 
BRANCH  19  20
ATOM     20  C   UNL     1     -11.302  -9.991  30.117  1.00  0.00     0.000 C 
BRANCH  20  21
ATOM     21  C   UNL     1     -11.808 -10.650  31.412  1.00  0.00     0.000 C 
BRANCH  21  22
ATOM     22  C   UNL     1     -12.829 -11.770  31.149  1.00  0.00    -0.000 C 
BRANCH  22  23
ATOM     23  C   UNL     1     -13.610 -11.567  29.839  1.00  0.00    -0.000 C 
BRANCH  23  24
ATOM     24  C   UNL     1     -13.442 -12.744  28.858  1.00  0.00    -0.000 C 
BRANCH  24  25
ATOM     25  C   UNL     1     -12.291 -13.715  29.191  1.00  0.00    -0.000 C 
BRANCH  25  26
ATOM     26  C   UNL     1     -10.979 -13.468  28.420  1.00  0.00    -0.000 C 
BRANCH  26  27
ATOM     27  C   UNL     1     -11.067 -12.390  27.326  1.00  0.00    -0.000 C 
BRANCH  27  28
ATOM     28  C   UNL     1     -10.679 -12.924  25.937  1.00  0.00    -0.000 C 
BRANCH  28  29
ATOM     29  C   UNL     1     -10.168 -11.809  25.010  1.00  0.00    -0.003 C 
ATOM     30  C   UNL     1     -10.439 -12.107  23.534  1.00  0.00     0.004 C 
ENDBRANCH  28  29
ENDBRANCH  27  28
ENDBRANCH  26  27
ENDBRANCH  25  26
ENDBRANCH  24  25
ENDBRANCH  23  24
ENDBRANCH  22  23
ENDBRANCH  21  22
ENDBRANCH  20  21
ENDBRANCH  19  20
ENDBRANCH  18  19
ENDBRANCH  17  18
ENDBRANCH   1  17
TORSDOF 26
ENDMDL
MODEL 3
REMARK VINA RESULT:    -3.751      2.582      5.932
REMARK INTER + INTRA:         -15.218
REMARK INTER:                  -9.957
REMARK INTRA:                  -5.261
REMARK UNBOUND:                -5.765
REMARK SMILES CCCCCCCCCCCCCCCCCCCCCCCCCCCC(=O)[O-]
REMARK SMILES IDX 15 1 16 2 17 3 18 4 19 5 20 6 21 7 22 8 23 9 24 10 25 11
REMARK SMILES IDX 26 12 27 13 28 14 29 15 30 16 14 17 13 18 12 19 11 20 10 21
REMARK SMILES IDX 9 22 8 23 7 24 6 25 5 26 4 27 3 28 2 29 1 30
REMARK H PARENT
REMARK Flexibility Score: inf
ROOT
ATOM      1  C   UNL     1     -13.905 -11.970  28.364  1.00  0.00     0.000 C 
ENDROOT
BRANCH   1   2
ATOM      2  C   UNL     1     -13.057 -12.160  27.092  1.00  0.00     0.000 C 
BRANCH   2   3
ATOM      3  C   UNL     1     -12.044 -13.309  27.220  1.00  0.00     0.000 C 
BRANCH   3   4
ATOM      4  C   UNL     1     -10.594 -12.817  27.396  1.00  0.00     0.000 C 
BRANCH   4   5
ATOM      5  C   UNL     1      -9.762 -12.751  26.101  1.00  0.00     0.000 C 
BRANCH   5   6
ATOM      6  C   UNL     1     -10.266 -11.684  25.116  1.00  0.00     0.000 C 
BRANCH   6   7
ATOM      7  C   UNL     1     -10.324 -12.233  23.686  1.00  0.00     0.000 C 
BRANCH   7   8
ATOM      8  C   UNL     1     -10.704 -13.722  23.687  1.00  0.00     0.000 C 
BRANCH   8   9
ATOM      9  C   UNL     1      -9.600 -14.617  23.100  1.00  0.00     0.000 C 
BRANCH   9  10
ATOM     10  C   UNL     1      -9.407 -15.913  23.909  1.00  0.00     0.000 C 
BRANCH  10  11
ATOM     11  C   UNL     1     -10.588 -16.207  24.848  1.00  0.00     0.000 C 
BRANCH  11  12
ATOM     12  C   UNL     1     -10.139 -16.676  26.240  1.00  0.00     0.006 C 
BRANCH  12  13
ATOM     13  C   UNL     1     -11.324 -17.210  27.051  1.00  0.00     0.053 C 
BRANCH  13  14
ATOM     14  C   UNL     1     -10.853 -18.168  28.099  1.00  0.00     0.041 C 
ATOM     15  O   UNL     1     -10.739 -19.393  27.832  1.00  0.00    -0.550 OA
ATOM     16  O   UNL     1     -10.573 -17.713  29.383  1.00  0.00    -0.550 OA
ENDBRANCH  13  14
ENDBRANCH  12  13
ENDBRANCH  11  12
ENDBRANCH  10  11
ENDBRANCH   9  10
ENDBRANCH   8   9
ENDBRANCH   7   8
ENDBRANCH   6   7
ENDBRANCH   5   6
ENDBRANCH   4   5
ENDBRANCH   3   4
ENDBRANCH   2   3
ENDBRANCH   1   2
BRANCH   1  17
ATOM     17  C   UNL     1     -13.670 -10.646  29.117  1.00  0.00     0.000 C 
BRANCH  17  18
ATOM     18  C   UNL     1     -12.375 -10.649  29.949  1.00  0.00     0.000 C 
BRANCH  18  19
ATOM     19  C   UNL     1     -11.306  -9.704  29.366  1.00  0.00     0.000 C 
BRANCH  19  20
ATOM     20  C   UNL     1     -11.877  -8.650  28.402  1.00  0.00     0.000 C 
BRANCH  20  21
ATOM     21  C   UNL     1     -11.208  -8.706  27.016  1.00  0.00     0.000 C 
BRANCH  21  22
ATOM     22  C   UNL     1     -12.226  -8.669  25.864  1.00  0.00    -0.000 C 
BRANCH  22  23
ATOM     23  C   UNL     1     -13.604  -8.144  26.305  1.00  0.00    -0.000 C 
BRANCH  23  24
ATOM     24  C   UNL     1     -14.737  -8.576  25.353  1.00  0.00    -0.000 C 
BRANCH  24  25
ATOM     25  C   UNL     1     -15.713  -9.623  25.927  1.00  0.00    -0.000 C 
BRANCH  25  26
ATOM     26  C   UNL     1     -15.901 -10.888  25.066  1.00  0.00    -0.000 C 
BRANCH  26  27
ATOM     27  C   UNL     1     -14.769 -11.156  24.059  1.00  0.00    -0.000 C 
BRANCH  27  28
ATOM     28  C   UNL     1     -14.957 -12.480  23.298  1.00  0.00    -0.000 C 
BRANCH  28  29
ATOM     29  C   UNL     1     -14.371 -13.677  24.065  1.00  0.00    -0.003 C 
ATOM     30  C   UNL     1     -15.452 -14.528  24.733  1.00  0.00     0.004 C 
ENDBRANCH  28  29
ENDBRANCH  27  28
ENDBRANCH  26  27
ENDBRANCH  25  26
ENDBRANCH  24  25
ENDBRANCH  23  24
ENDBRANCH  22  23
ENDBRANCH  21  22
ENDBRANCH  20  21
ENDBRANCH  19  20
ENDBRANCH  18  19
ENDBRANCH  17  18
ENDBRANCH   1  17
TORSDOF 26
ENDMDL
MODEL 4
REMARK VINA RESULT:    -3.742      2.890      6.187
REMARK INTER + INTRA:         -15.196
REMARK INTER:                  -9.787
REMARK INTRA:                  -5.409
REMARK UNBOUND:                -5.765
REMARK SMILES CCCCCCCCCCCCCCCCCCCCCCCCCCCC(=O)[O-]
REMARK SMILES IDX 15 1 16 2 17 3 18 4 19 5 20 6 21 7 22 8 23 9 24 10 25 11
REMARK SMILES IDX 26 12 27 13 28 14 29 15 30 16 14 17 13 18 12 19 11 20 10 21
REMARK SMILES IDX 9 22 8 23 7 24 6 25 5 26 4 27 3 28 2 29 1 30
REMARK H PARENT
REMARK Flexibility Score: inf
ROOT
ATOM      1  C   UNL     1     -11.372 -10.197  29.038  1.00  0.00     0.000 C 
ENDROOT
BRANCH   1   2
ATOM      2  C   UNL     1     -12.494 -11.217  28.760  1.00  0.00     0.000 C 
BRANCH   2   3
ATOM      3  C   UNL     1     -12.106 -12.250  27.690  1.00  0.00     0.000 C 
BRANCH   3   4
ATOM      4  C   UNL     1     -10.584 -12.345  27.468  1.00  0.00     0.000 C 
BRANCH   4   5
ATOM      5  C   UNL     1     -10.126 -12.226  26.002  1.00  0.00     0.000 C 
BRANCH   5   6
ATOM      6  C   UNL     1     -11.229 -11.702  25.068  1.00  0.00     0.000 C 
BRANCH   6   7
ATOM      7  C   UNL     1     -11.033 -12.215  23.637  1.00  0.00     0.000 C 
BRANCH   7   8
ATOM      8  C   UNL     1     -11.701 -13.586  23.453  1.00  0.00     0.000 C 
BRANCH   8   9
ATOM      9  C   UNL     1     -13.157 -13.608  23.949  1.00  0.00     0.000 C 
BRANCH   9  10
ATOM     10  C   UNL     1     -13.380 -14.655  25.056  1.00  0.00     0.000 C 
BRANCH  10  11
ATOM     11  C   UNL     1     -12.105 -15.444  25.392  1.00  0.00     0.000 C 
BRANCH  11  12
ATOM     12  C   UNL     1     -12.394 -16.744  26.158  1.00  0.00     0.006 C 
BRANCH  12  13
ATOM     13  C   UNL     1     -11.129 -17.598  26.292  1.00  0.00     0.053 C 
BRANCH  13  14
ATOM     14  C   UNL     1     -10.602 -17.538  27.690  1.00  0.00     0.041 C 
ATOM     15  O   UNL     1     -10.179 -16.450  28.162  1.00  0.00    -0.550 OA
ATOM     16  O   UNL     1     -10.543 -18.692  28.463  1.00  0.00    -0.550 OA
ENDBRANCH  13  14
ENDBRANCH  12  13
ENDBRANCH  11  12
ENDBRANCH  10  11
ENDBRANCH   9  10
ENDBRANCH   8   9
ENDBRANCH   7   8
ENDBRANCH   6   7
ENDBRANCH   5   6
ENDBRANCH   4   5
ENDBRANCH   3   4
ENDBRANCH   2   3
ENDBRANCH   1   2
BRANCH   1  17
ATOM     17  C   UNL     1     -11.630  -8.775  28.503  1.00  0.00     0.000 C 
BRANCH  17  18
ATOM     18  C   UNL     1     -11.230  -8.608  27.025  1.00  0.00     0.000 C 
BRANCH  18  19
ATOM     19  C   UNL     1     -12.456  -8.492  26.099  1.00  0.00     0.000 C 
BRANCH  19  20
ATOM     20  C   UNL     1     -13.769  -8.202  26.850  1.00  0.00     0.000 C 
BRANCH  20  21
ATOM     21  C   UNL     1     -14.979  -8.887  26.190  1.00  0.00     0.000 C 
BRANCH  21  22
ATOM     22  C   UNL     1     -14.754 -10.389  25.952  1.00  0.00    -0.000 C 
BRANCH  22  23
ATOM     23  C   UNL     1     -15.395 -10.886  24.644  1.00  0.00    -0.000 C 
BRANCH  23  24
ATOM     24  C   UNL     1     -15.168  -9.918  23.466  1.00  0.00    -0.000 C 
BRANCH  24  25
ATOM     25  C   UNL     1     -14.020 -10.307  22.511  1.00  0.00    -0.000 C 
BRANCH  25  26
ATOM     26  C   UNL     1     -13.047  -9.165  22.155  1.00  0.00    -0.000 C 
BRANCH  26  27
ATOM     27  C   UNL     1     -13.310  -7.841  22.893  1.00  0.00    -0.000 C 
BRANCH  27  28
ATOM     28  C   UNL     1     -13.725  -6.707  21.940  1.00  0.00    -0.000 C 
BRANCH  28  29
ATOM     29  C   UNL     1     -14.484  -5.586  22.670  1.00  0.00    -0.003 C 
ATOM     30  C   UNL     1     -14.304  -5.650  24.187  1.00  0.00     0.004 C 
ENDBRANCH  28  29
ENDBRANCH  27  28
ENDBRANCH  26  27
ENDBRANCH  25  26
ENDBRANCH  24  25
ENDBRANCH  23  24
ENDBRANCH  22  23
ENDBRANCH  21  22
ENDBRANCH  20  21
ENDBRANCH  19  20
ENDBRANCH  18  19
ENDBRANCH  17  18
ENDBRANCH   1  17
TORSDOF 26
ENDMDL
MODEL 5
REMARK VINA RESULT:    -3.734      2.539      6.379
REMARK INTER + INTRA:         -15.174
REMARK INTER:                  -9.338
REMARK INTRA:                  -5.836
REMARK UNBOUND:                -5.765
REMARK SMILES CCCCCCCCCCCCCCCCCCCCCCCCCCCC(=O)[O-]
REMARK SMILES IDX 15 1 16 2 17 3 18 4 19 5 20 6 21 7 22 8 23 9 24 10 25 11
REMARK SMILES IDX 26 12 27 13 28 14 29 15 30 16 14 17 13 18 12 19 11 20 10 21
REMARK SMILES IDX 9 22 8 23 7 24 6 25 5 26 4 27 3 28 2 29 1 30
REMARK H PARENT
REMARK Flexibility Score: inf
ROOT
ATOM      1  C   UNL     1     -10.697  -9.645  27.259  1.00  0.00     0.000 C 
ENDROOT
BRANCH   1   2
ATOM      2  C   UNL     1     -10.751 -11.117  26.806  1.00  0.00     0.000 C 
BRANCH   2   3
ATOM      3  C   UNL     1     -10.235 -11.317  25.371  1.00  0.00     0.000 C 
BRANCH   3   4
ATOM      4  C   UNL     1     -11.069 -12.334  24.568  1.00  0.00     0.000 C 
BRANCH   4   5
ATOM      5  C   UNL     1     -12.132 -13.097  25.379  1.00  0.00     0.000 C 
BRANCH   5   6
ATOM      6  C   UNL     1     -13.416 -13.374  24.580  1.00  0.00     0.000 C 
BRANCH   6   7
ATOM      7  C   UNL     1     -14.663 -12.987  25.383  1.00  0.00     0.000 C 
BRANCH   7   8
ATOM      8  C   UNL     1     -14.279 -12.182  26.634  1.00  0.00     0.000 C 
BRANCH   8   9
ATOM      9  C   UNL     1     -14.571 -10.679  26.486  1.00  0.00     0.000 C 
BRANCH   9  10
ATOM     10  C   UNL     1     -15.362 -10.363  25.202  1.00  0.00     0.000 C 
BRANCH  10  11
ATOM     11  C   UNL     1     -14.746  -9.208  24.396  1.00  0.00     0.000 C 
BRANCH  11  12
ATOM     12  C   UNL     1     -13.210  -9.233  24.400  1.00  0.00     0.006 C 
BRANCH  12  13
ATOM     13  C   UNL     1     -12.637  -7.852  24.734  1.00  0.00     0.053 C 
BRANCH  13  14
ATOM     14  C   UNL     1     -13.184  -6.818  23.802  1.00  0.00     0.041 C 
ATOM     15  O   UNL     1     -12.892  -6.851  22.577  1.00  0.00    -0.550 OA
ATOM     16  O   UNL     1     -13.988  -5.795  24.290  1.00  0.00    -0.550 OA
ENDBRANCH  13  14
ENDBRANCH  12  13
ENDBRANCH  11  12
ENDBRANCH  10  11
ENDBRANCH   9  10
ENDBRANCH   8   9
ENDBRANCH   7   8
ENDBRANCH   6   7
ENDBRANCH   5   6
ENDBRANCH   4   5
ENDBRANCH   3   4
ENDBRANCH   2   3
ENDBRANCH   1   2
BRANCH   1  17
ATOM     17  C   UNL     1     -11.905  -9.169  28.089  1.00  0.00     0.000 C 
BRANCH  17  18
ATOM     18  C   UNL     1     -11.548  -8.880  29.559  1.00  0.00     0.000 C 
BRANCH  18  19
ATOM     19  C   UNL     1     -11.996 -10.013  30.502  1.00  0.00     0.000 C 
BRANCH  19  20
ATOM     20  C   UNL     1     -13.093 -10.913  29.903  1.00  0.00     0.000 C 
BRANCH  20  21
ATOM     21  C   UNL     1     -12.916 -12.388  30.304  1.00  0.00     0.000 C 
BRANCH  21  22
ATOM     22  C   UNL     1     -11.467 -12.877  30.146  1.00  0.00    -0.000 C 
BRANCH  22  23
ATOM     23  C   UNL     1     -11.302 -13.885  28.995  1.00  0.00    -0.000 C 
BRANCH  23  24
ATOM     24  C   UNL     1      -9.825 -14.126  28.623  1.00  0.00    -0.000 C 
BRANCH  24  25
ATOM     25  C   UNL     1      -9.551 -15.423  27.835  1.00  0.00    -0.000 C 
BRANCH  25  26
ATOM     26  C   UNL     1      -9.490 -15.262  26.303  1.00  0.00    -0.000 C 
BRANCH  26  27
ATOM     27  C   UNL     1      -9.980 -16.484  25.506  1.00  0.00    -0.000 C 
BRANCH  27  28
ATOM     28  C   UNL     1     -11.059 -17.284  26.255  1.00  0.00    -0.000 C 
BRANCH  28  29
ATOM     29  C   UNL     1     -12.480 -16.812  25.903  1.00  0.00    -0.003 C 
ATOM     30  C   UNL     1     -13.212 -16.216  27.107  1.00  0.00     0.004 C 
ENDBRANCH  28  29
ENDBRANCH  27  28
ENDBRANCH  26  27
ENDBRANCH  25  26
ENDBRANCH  24  25
ENDBRANCH  23  24
ENDBRANCH  22  23
ENDBRANCH  21  22
ENDBRANCH  20  21
ENDBRANCH  19  20
ENDBRANCH  18  19
ENDBRANCH  17  18
ENDBRANCH   1  17
TORSDOF 26
ENDMDL
MODEL 6
REMARK VINA RESULT:    -3.720      3.182      6.585
REMARK INTER + INTRA:         -15.139
REMARK INTER:                  -9.874
REMARK INTRA:                  -5.265
REMARK UNBOUND:                -5.765
REMARK SMILES CCCCCCCCCCCCCCCCCCCCCCCCCCCC(=O)[O-]
REMARK SMILES IDX 15 1 16 2 17 3 18 4 19 5 20 6 21 7 22 8 23 9 24 10 25 11
REMARK SMILES IDX 26 12 27 13 28 14 29 15 30 16 14 17 13 18 12 19 11 20 10 21
REMARK SMILES IDX 9 22 8 23 7 24 6 25 5 26 4 27 3 28 2 29 1 30
REMARK H PARENT
REMARK Flexibility Score: inf
ROOT
ATOM      1  C   UNL     1     -14.178 -12.769  26.052  1.00  0.00     0.000 C 
ENDROOT
BRANCH   1   2
ATOM      2  C   UNL     1     -13.397 -11.674  26.803  1.00  0.00     0.000 C 
BRANCH   2   3
ATOM      3  C   UNL     1     -13.625 -11.719  28.323  1.00  0.00     0.000 C 
BRANCH   3   4
ATOM      4  C   UNL     1     -12.691 -10.770  29.100  1.00  0.00     0.000 C 
BRANCH   4   5
ATOM      5  C   UNL     1     -11.556 -10.142  28.270  1.00  0.00     0.000 C 
BRANCH   5   6
ATOM      6  C   UNL     1     -11.722  -8.626  28.075  1.00  0.00     0.000 C 
BRANCH   6   7
ATOM      7  C   UNL     1     -12.045  -8.287  26.615  1.00  0.00     0.000 C 
BRANCH   7   8
ATOM      8  C   UNL     1     -13.541  -7.979  26.445  1.00  0.00     0.000 C 
BRANCH   8   9
ATOM      9  C   UNL     1     -14.158  -8.693  25.230  1.00  0.00     0.000 C 
BRANCH   9  10
ATOM     10  C   UNL     1     -13.109  -9.024  24.153  1.00  0.00     0.000 C 
BRANCH  10  11
ATOM     11  C   UNL     1     -13.727  -9.196  22.756  1.00  0.00     0.000 C 
BRANCH  11  12
ATOM     12  C   UNL     1     -13.392  -8.032  21.810  1.00  0.00     0.006 C 
BRANCH  12  13
ATOM     13  C   UNL     1     -13.044  -6.765  22.597  1.00  0.00     0.053 C 
BRANCH  13  14
ATOM     14  C   UNL     1     -14.244  -5.882  22.728  1.00  0.00     0.041 C 
ATOM     15  O   UNL     1     -14.552  -5.394  23.847  1.00  0.00    -0.550 OA
ATOM     16  O   UNL     1     -15.045  -5.626  21.621  1.00  0.00    -0.550 OA
ENDBRANCH  13  14
ENDBRANCH  12  13
ENDBRANCH  11  12
ENDBRANCH  10  11
ENDBRANCH   9  10
ENDBRANCH   8   9
ENDBRANCH   7   8
ENDBRANCH   6   7
ENDBRANCH   5   6
ENDBRANCH   4   5
ENDBRANCH   3   4
ENDBRANCH   2   3
ENDBRANCH   1   2
BRANCH   1  17
ATOM     17  C   UNL     1     -14.224 -12.608  24.520  1.00  0.00     0.000 C 
BRANCH  17  18
ATOM     18  C   UNL     1     -13.815 -13.888  23.768  1.00  0.00     0.000 C 
BRANCH  18  19
ATOM     19  C   UNL     1     -12.560 -13.677  22.899  1.00  0.00     0.000 C 
BRANCH  19  20
ATOM     20  C   UNL     1     -11.867 -12.323  23.137  1.00  0.00     0.000 C 
BRANCH  20  21
ATOM     21  C   UNL     1     -10.473 -12.487  23.769  1.00  0.00     0.000 C 
BRANCH  21  22
ATOM     22  C   UNL     1     -10.284 -11.616  25.022  1.00  0.00    -0.000 C 
BRANCH  22  23
ATOM     23  C   UNL     1      -9.800 -12.424  26.240  1.00  0.00    -0.000 C 
BRANCH  23  24
ATOM     24  C   UNL     1     -10.481 -13.803  26.347  1.00  0.00    -0.000 C 
BRANCH  24  25
ATOM     25  C   UNL     1      -9.526 -14.986  26.605  1.00  0.00    -0.000 C 
BRANCH  25  26
ATOM     26  C   UNL     1      -9.776 -16.234  25.735  1.00  0.00    -0.000 C 
BRANCH  26  27
ATOM     27  C   UNL     1     -11.163 -16.289  25.070  1.00  0.00    -0.000 C 
BRANCH  27  28
ATOM     28  C   UNL     1     -12.167 -17.139  25.865  1.00  0.00    -0.000 C 
BRANCH  28  29
ATOM     29  C   UNL     1     -13.306 -16.291  26.455  1.00  0.00    -0.003 C 
ATOM     30  C   UNL     1     -14.665 -16.634  25.844  1.00  0.00     0.004 C 
ENDBRANCH  28  29
ENDBRANCH  27  28
ENDBRANCH  26  27
ENDBRANCH  25  26
ENDBRANCH  24  25
ENDBRANCH  23  24
ENDBRANCH  22  23
ENDBRANCH  21  22
ENDBRANCH  20  21
ENDBRANCH  19  20
ENDBRANCH  18  19
ENDBRANCH  17  18
ENDBRANCH   1  17
TORSDOF 26
ENDMDL
MODEL 7
REMARK VINA RESULT:    -3.715      3.323      7.255
REMARK INTER + INTRA:         -15.127
REMARK INTER:                  -9.649
REMARK INTRA:                  -5.478
REMARK UNBOUND:                -5.765
REMARK SMILES CCCCCCCCCCCCCCCCCCCCCCCCCCCC(=O)[O-]
REMARK SMILES IDX 15 1 16 2 17 3 18 4 19 5 20 6 21 7 22 8 23 9 24 10 25 11
REMARK SMILES IDX 26 12 27 13 28 14 29 15 30 16 14 17 13 18 12 19 11 20 10 21
REMARK SMILES IDX 9 22 8 23 7 24 6 25 5 26 4 27 3 28 2 29 1 30
REMARK H PARENT
REMARK Flexibility Score: inf
ROOT
ATOM      1  C   UNL     1     -10.860 -12.226  26.772  1.00  0.00     0.000 C 
ENDROOT
BRANCH   1   2
ATOM      2  C   UNL     1     -10.851 -10.751  26.326  1.00  0.00     0.000 C 
BRANCH   2   3
ATOM      3  C   UNL     1     -11.108  -9.777  27.489  1.00  0.00     0.000 C 
BRANCH   3   4
ATOM      4  C   UNL     1     -11.445  -8.350  27.015  1.00  0.00     0.000 C 
BRANCH   4   5
ATOM      5  C   UNL     1     -12.142  -8.261  25.644  1.00  0.00     0.000 C 
BRANCH   5   6
ATOM      6  C   UNL     1     -13.631  -7.893  25.749  1.00  0.00     0.000 C 
BRANCH   6   7
ATOM      7  C   UNL     1     -14.524  -9.084  25.382  1.00  0.00     0.000 C 
BRANCH   7   8
ATOM      8  C   UNL     1     -14.744  -9.995  26.599  1.00  0.00     0.000 C 
BRANCH   8   9
ATOM      9  C   UNL     1     -14.483 -11.478  26.284  1.00  0.00     0.000 C 
BRANCH   9  10
ATOM     10  C   UNL     1     -14.314 -11.733  24.775  1.00  0.00     0.000 C 
BRANCH  10  11
ATOM     11  C   UNL     1     -14.018 -13.206  24.452  1.00  0.00     0.000 C 
BRANCH  11  12
ATOM     12  C   UNL     1     -12.631 -13.411  23.823  1.00  0.00     0.006 C 
BRANCH  12  13
ATOM     13  C   UNL     1     -12.734 -14.164  22.493  1.00  0.00     0.053 C 
BRANCH  13  14
ATOM     14  C   UNL     1     -12.968 -13.209  21.366  1.00  0.00     0.041 C 
ATOM     15  O   UNL     1     -12.410 -12.080  21.367  1.00  0.00    -0.550 OA
ATOM     16  O   UNL     1     -13.830 -13.550  20.330  1.00  0.00    -0.550 OA
ENDBRANCH  13  14
ENDBRANCH  12  13
ENDBRANCH  11  12
ENDBRANCH  10  11
ENDBRANCH   9  10
ENDBRANCH   8   9
ENDBRANCH   7   8
ENDBRANCH   6   7
ENDBRANCH   5   6
ENDBRANCH   4   5
ENDBRANCH   3   4
ENDBRANCH   2   3
ENDBRANCH   1   2
BRANCH   1  17
ATOM     17  C   UNL     1     -10.986 -12.451  28.292  1.00  0.00     0.000 C 
BRANCH  17  18
ATOM     18  C   UNL     1     -11.784 -13.719  28.648  1.00  0.00     0.000 C 
BRANCH  18  19
ATOM     19  C   UNL     1     -12.494 -14.325  27.421  1.00  0.00     0.000 C 
BRANCH  19  20
ATOM     20  C   UNL     1     -12.726 -15.842  27.532  1.00  0.00     0.000 C 
BRANCH  20  21
ATOM     21  C   UNL     1     -12.910 -16.505  26.155  1.00  0.00     0.000 C 
BRANCH  21  22
ATOM     22  C   UNL     1     -11.640 -17.221  25.667  1.00  0.00    -0.000 C 
BRANCH  22  23
ATOM     23  C   UNL     1     -10.662 -16.274  24.948  1.00  0.00    -0.000 C 
BRANCH  23  24
ATOM     24  C   UNL     1      -9.240 -16.325  25.542  1.00  0.00    -0.000 C 
BRANCH  24  25
ATOM     25  C   UNL     1      -8.993 -15.376  26.732  1.00  0.00    -0.000 C 
BRANCH  25  26
ATOM     26  C   UNL     1      -8.487 -16.055  28.020  1.00  0.00    -0.000 C 
BRANCH  26  27
ATOM     27  C   UNL     1      -9.567 -16.804  28.820  1.00  0.00    -0.000 C 
BRANCH  27  28
ATOM     28  C   UNL     1      -9.417 -18.332  28.730  1.00  0.00    -0.000 C 
BRANCH  28  29
ATOM     29  C   UNL     1     -10.769 -19.037  28.537  1.00  0.00    -0.003 C 
ATOM     30  C   UNL     1     -11.536 -19.199  29.850  1.00  0.00     0.004 C 
ENDBRANCH  28  29
ENDBRANCH  27  28
ENDBRANCH  26  27
ENDBRANCH  25  26
ENDBRANCH  24  25
ENDBRANCH  23  24
ENDBRANCH  22  23
ENDBRANCH  21  22
ENDBRANCH  20  21
ENDBRANCH  19  20
ENDBRANCH  18  19
ENDBRANCH  17  18
ENDBRANCH   1  17
TORSDOF 26
ENDMDL
MODEL 8
REMARK VINA RESULT:    -3.683      2.300      5.202
REMARK INTER + INTRA:         -15.046
REMARK INTER:                  -9.225
REMARK INTRA:                  -5.821
REMARK UNBOUND:                -5.765
REMARK SMILES CCCCCCCCCCCCCCCCCCCCCCCCCCCC(=O)[O-]
REMARK SMILES IDX 15 1 16 2 17 3 18 4 19 5 20 6 21 7 22 8 23 9 24 10 25 11
REMARK SMILES IDX 26 12 27 13 28 14 29 15 30 16 14 17 13 18 12 19 11 20 10 21
REMARK SMILES IDX 9 22 8 23 7 24 6 25 5 26 4 27 3 28 2 29 1 30
REMARK H PARENT
REMARK Flexibility Score: inf
ROOT
ATOM      1  C   UNL     1     -13.449 -11.890  25.960  1.00  0.00     0.000 C 
ENDROOT
BRANCH   1   2
ATOM      2  C   UNL     1     -14.141 -12.574  24.765  1.00  0.00     0.000 C 
BRANCH   2   3
ATOM      3  C   UNL     1     -13.428 -12.303  23.431  1.00  0.00     0.000 C 
BRANCH   3   4
ATOM      4  C   UNL     1     -12.238 -11.333  23.570  1.00  0.00     0.000 C 
BRANCH   4   5
ATOM      5  C   UNL     1     -10.846 -11.985  23.475  1.00  0.00     0.000 C 
BRANCH   5   6
ATOM      6  C   UNL     1     -10.123 -12.057  24.830  1.00  0.00     0.000 C 
BRANCH   6   7
ATOM      7  C   UNL     1     -10.320 -13.427  25.490  1.00  0.00     0.000 C 
BRANCH   7   8
ATOM      8  C   UNL     1     -10.558 -14.514  24.432  1.00  0.00     0.000 C 
BRANCH   8   9
ATOM      9  C   UNL     1     -11.084 -15.827  25.038  1.00  0.00     0.000 C 
BRANCH   9  10
ATOM     10  C   UNL     1     -12.497 -15.670  25.630  1.00  0.00     0.000 C 
BRANCH  10  11
ATOM     11  C   UNL     1     -12.612 -16.248  27.050  1.00  0.00     0.000 C 
BRANCH  11  12
ATOM     12  C   UNL     1     -12.179 -15.251  28.135  1.00  0.00     0.006 C 
BRANCH  12  13
ATOM     13  C   UNL     1     -12.841 -15.575  29.478  1.00  0.00     0.053 C 
BRANCH  13  14
ATOM     14  C   UNL     1     -12.712 -14.419  30.419  1.00  0.00     0.041 C 
ATOM     15  O   UNL     1     -11.593 -13.872  30.600  1.00  0.00    -0.550 OA
ATOM     16  O   UNL     1     -13.822 -13.967  31.123  1.00  0.00    -0.550 OA
ENDBRANCH  13  14
ENDBRANCH  12  13
ENDBRANCH  11  12
ENDBRANCH  10  11
ENDBRANCH   9  10
ENDBRANCH   8   9
ENDBRANCH   7   8
ENDBRANCH   6   7
ENDBRANCH   5   6
ENDBRANCH   4   5
ENDBRANCH   3   4
ENDBRANCH   2   3
ENDBRANCH   1   2
BRANCH   1  17
ATOM     17  C   UNL     1     -14.317 -11.745  27.226  1.00  0.00     0.000 C 
BRANCH  17  18
ATOM     18  C   UNL     1     -13.494 -11.408  28.483  1.00  0.00     0.000 C 
BRANCH  18  19
ATOM     19  C   UNL     1     -11.984 -11.326  28.187  1.00  0.00     0.000 C 
BRANCH  19  20
ATOM     20  C   UNL     1     -11.298 -10.105  28.825  1.00  0.00     0.000 C 
BRANCH  20  21
ATOM     21  C   UNL     1     -11.588  -8.806  28.051  1.00  0.00     0.000 C 
BRANCH  21  22
ATOM     22  C   UNL     1     -11.378  -8.959  26.536  1.00  0.00    -0.000 C 
BRANCH  22  23
ATOM     23  C   UNL     1     -12.386  -8.138  25.711  1.00  0.00    -0.000 C 
BRANCH  23  24
ATOM     24  C   UNL     1     -13.783  -8.086  26.359  1.00  0.00    -0.000 C 
BRANCH  24  25
ATOM     25  C   UNL     1     -14.955  -7.891  25.376  1.00  0.00    -0.000 C 
BRANCH  25  26
ATOM     26  C   UNL     1     -15.043  -8.934  24.244  1.00  0.00    -0.000 C 
BRANCH  26  27
ATOM     27  C   UNL     1     -15.034  -8.345  22.823  1.00  0.00    -0.000 C 
BRANCH  27  28
ATOM     28  C   UNL     1     -13.614  -8.210  22.248  1.00  0.00    -0.000 C 
BRANCH  28  29
ATOM     29  C   UNL     1     -13.164  -6.742  22.155  1.00  0.00    -0.003 C 
ATOM     30  C   UNL     1     -14.329  -5.764  22.304  1.00  0.00     0.004 C 
ENDBRANCH  28  29
ENDBRANCH  27  28
ENDBRANCH  26  27
ENDBRANCH  25  26
ENDBRANCH  24  25
ENDBRANCH  23  24
ENDBRANCH  22  23
ENDBRANCH  21  22
ENDBRANCH  20  21
ENDBRANCH  19  20
ENDBRANCH  18  19
ENDBRANCH  17  18
ENDBRANCH   1  17
TORSDOF 26
ENDMDL
MODEL 9
REMARK VINA RESULT:    -3.657      1.976      5.110
REMARK INTER + INTRA:         -14.982
REMARK INTER:                  -9.195
REMARK INTRA:                  -5.787
REMARK UNBOUND:                -5.765
REMARK SMILES CCCCCCCCCCCCCCCCCCCCCCCCCCCC(=O)[O-]
REMARK SMILES IDX 15 1 16 2 17 3 18 4 19 5 20 6 21 7 22 8 23 9 24 10 25 11
REMARK SMILES IDX 26 12 27 13 28 14 29 15 30 16 14 17 13 18 12 19 11 20 10 21
REMARK SMILES IDX 9 22 8 23 7 24 6 25 5 26 4 27 3 28 2 29 1 30
REMARK H PARENT
REMARK Flexibility Score: inf
ROOT
ATOM      1  C   UNL     1     -14.258 -10.839  26.665  1.00  0.00     0.000 C 
ENDROOT
BRANCH   1   2
ATOM      2  C   UNL     1     -14.999  -9.497  26.506  1.00  0.00     0.000 C 
BRANCH   2   3
ATOM      3  C   UNL     1     -14.065  -8.283  26.639  1.00  0.00     0.000 C 
BRANCH   3   4
ATOM      4  C   UNL     1     -12.800  -8.397  25.765  1.00  0.00     0.000 C 
BRANCH   4   5
ATOM      5  C   UNL     1     -11.466  -8.283  26.525  1.00  0.00     0.000 C 
BRANCH   5   6
ATOM      6  C   UNL     1     -11.632  -8.372  28.051  1.00  0.00     0.000 C 
BRANCH   6   7
ATOM      7  C   UNL     1     -11.310  -9.782  28.561  1.00  0.00     0.000 C 
BRANCH   7   8
ATOM      8  C   UNL     1     -11.882  -9.995  29.971  1.00  0.00     0.000 C 
BRANCH   8   9
ATOM      9  C   UNL     1     -11.431 -11.326  30.598  1.00  0.00     0.000 C 
BRANCH   9  10
ATOM     10  C   UNL     1     -12.573 -12.031  31.354  1.00  0.00     0.000 C 
BRANCH  10  11
ATOM     11  C   UNL     1     -13.523 -12.793  30.416  1.00  0.00     0.000 C 
BRANCH  11  12
ATOM     12  C   UNL     1     -12.776 -13.631  29.366  1.00  0.00     0.006 C 
BRANCH  12  13
ATOM     13  C   UNL     1     -12.774 -15.115  29.745  1.00  0.00     0.053 C 
BRANCH  13  14
ATOM     14  C   UNL     1     -11.381 -15.584  30.020  1.00  0.00     0.041 C 
ATOM     15  O   UNL     1     -10.596 -14.872  30.700  1.00  0.00    -0.550 OA
ATOM     16  O   UNL     1     -10.936 -16.793  29.497  1.00  0.00    -0.550 OA
ENDBRANCH  13  14
ENDBRANCH  12  13
ENDBRANCH  11  12
ENDBRANCH  10  11
ENDBRANCH   9  10
ENDBRANCH   8   9
ENDBRANCH   7   8
ENDBRANCH   6   7
ENDBRANCH   5   6
ENDBRANCH   4   5
ENDBRANCH   3   4
ENDBRANCH   2   3
ENDBRANCH   1   2
BRANCH   1  17
ATOM     17  C   UNL     1     -14.608 -11.911  25.615  1.00  0.00     0.000 C 
BRANCH  17  18
ATOM     18  C   UNL     1     -14.191 -13.330  26.042  1.00  0.00     0.000 C 
BRANCH  18  19
ATOM     19  C   UNL     1     -14.141 -14.306  24.850  1.00  0.00     0.000 C 
BRANCH  19  20
ATOM     20  C   UNL     1     -13.852 -13.618  23.504  1.00  0.00     0.000 C 
BRANCH  20  21
ATOM     21  C   UNL     1     -12.629 -14.224  22.792  1.00  0.00     0.000 C 
BRANCH  21  22
ATOM     22  C   UNL     1     -11.377 -13.339  22.906  1.00  0.00    -0.000 C 
BRANCH  22  23
ATOM     23  C   UNL     1     -11.716 -11.861  23.170  1.00  0.00    -0.000 C 
BRANCH  23  24
ATOM     24  C   UNL     1     -11.210 -11.371  24.542  1.00  0.00    -0.000 C 
BRANCH  24  25
ATOM     25  C   UNL     1     -10.138 -12.263  25.201  1.00  0.00    -0.000 C 
BRANCH  25  26
ATOM     26  C   UNL     1     -10.511 -12.823  26.588  1.00  0.00    -0.000 C 
BRANCH  26  27
ATOM     27  C   UNL     1     -10.055 -14.271  26.841  1.00  0.00    -0.000 C 
BRANCH  27  28
ATOM     28  C   UNL     1     -11.015 -15.308  26.234  1.00  0.00    -0.000 C 
BRANCH  28  29
ATOM     29  C   UNL     1     -10.266 -16.498  25.613  1.00  0.00    -0.003 C 
ATOM     30  C   UNL     1      -9.466 -16.102  24.372  1.00  0.00     0.004 C 
ENDBRANCH  28  29
ENDBRANCH  27  28
ENDBRANCH  26  27
ENDBRANCH  25  26
ENDBRANCH  24  25
ENDBRANCH  23  24
ENDBRANCH  22  23
ENDBRANCH  21  22
ENDBRANCH  20  21
ENDBRANCH  19  20
ENDBRANCH  18  19
ENDBRANCH  17  18
ENDBRANCH   1  17
TORSDOF 26
ENDMDL
