MODEL 1
REMARK VINA RESULT:    16.549      0.000      0.000
REMARK INTER + INTRA:          39.819
REMARK INTER:                  41.704
REMARK INTRA:                  -1.885
REMARK UNBOUND:                -1.885
REMARK SMILES CCCCCCCCCCCCCCCCCCCCCCCCCCCC(=O)[O-]
REMARK SMILES IDX 15 1 16 2 17 3 18 4 19 5 20 6 21 7 22 8 23 9 24 10 25 11
REMARK SMILES IDX 26 12 27 13 28 14 29 15 30 16 14 17 13 18 12 19 11 20 10 21
REMARK SMILES IDX 9 22 8 23 7 24 6 25 5 26 4 27 3 28 2 29 1 30
REMARK H PARENT
REMARK Flexibility Score: inf
ROOT
ATOM      1  C   UNL     1      17.096 -19.105  24.595  1.00  0.00     0.000 C 
ENDROOT
BRANCH   1   2
ATOM      2  C   UNL     1      17.492 -19.147  23.111  1.00  0.00     0.000 C 
BRANCH   2   3
ATOM      3  C   UNL     1      16.771 -20.287  22.376  1.00  0.00     0.000 C 
BRANCH   3   4
ATOM      4  C   UNL     1      17.258 -21.679  22.814  1.00  0.00     0.000 C 
BRANCH   4   5
ATOM      5  C   UNL     1      16.842 -22.788  21.836  1.00  0.00     0.000 C 
BRANCH   5   6
ATOM      6  C   UNL     1      17.988 -23.787  21.618  1.00  0.00     0.000 C 
BRANCH   6   7
ATOM      7  C   UNL     1      17.726 -24.750  20.447  1.00  0.00     0.000 C 
BRANCH   7   8
ATOM      8  C   UNL     1      17.755 -24.107  19.045  1.00  0.00     0.000 C 
BRANCH   8   9
ATOM      9  C   UNL     1      18.819 -23.010  18.838  1.00  0.00     0.000 C 
BRANCH   9  10
ATOM     10  C   UNL     1      18.283 -21.565  18.933  1.00  0.00     0.000 C 
BRANCH  10  11
ATOM     11  C   UNL     1      18.775 -20.634  17.807  1.00  0.00     0.000 C 
BRANCH  11  12
ATOM     12  C   UNL     1      17.682 -20.246  16.788  1.00  0.00     0.006 C 
BRANCH  12  13
ATOM     13  C   UNL     1      17.800 -21.002  15.456  1.00  0.00     0.053 C 
BRANCH  13  14
ATOM     14  C   UNL     1      17.806 -20.065  14.288  1.00  0.00     0.041 C 
ATOM     15  O   UNL     1      17.977 -20.504  13.120  1.00  0.00    -0.550 OA
ATOM     16  O   UNL     1      17.652 -18.698  14.492  1.00  0.00    -0.550 OA
ENDBRANCH  13  14
ENDBRANCH  12  13
ENDBRANCH  11  12
ENDBRANCH  10  11
ENDBRANCH   9  10
ENDBRANCH   8   9
ENDBRANCH   7   8
ENDBRANCH   6   7
ENDBRANCH   5   6
ENDBRANCH   4   5
ENDBRANCH   3   4
ENDBRANCH   2   3
ENDBRANCH   1   2
BRANCH   1  17
ATOM     17  C   UNL     1      18.254 -18.632  25.488  1.00  0.00     0.000 C 
BRANCH  17  18
ATOM     18  C   UNL     1      18.824 -19.767  26.357  1.00  0.00     0.000 C 
BRANCH  18  19
ATOM     19  C   UNL     1      20.088 -19.352  27.130  1.00  0.00     0.000 C 
BRANCH  19  20
ATOM     20  C   UNL     1      21.416 -19.787  26.488  1.00  0.00     0.000 C 
BRANCH  20  21
ATOM     21  C   UNL     1      21.407 -21.256  26.026  1.00  0.00     0.000 C 
BRANCH  21  22
ATOM     22  C   UNL     1      22.082 -21.433  24.655  1.00  0.00    -0.000 C 
BRANCH  22  23
ATOM     23  C   UNL     1      23.173 -20.379  24.400  1.00  0.00    -0.000 C 
BRANCH  23  24
ATOM     24  C   UNL     1      24.362 -20.949  23.607  1.00  0.00    -0.000 C 
BRANCH  24  25
ATOM     25  C   UNL     1      24.445 -22.482  23.712  1.00  0.00    -0.000 C 
BRANCH  25  26
ATOM     26  C   UNL     1      25.870 -22.991  23.998  1.00  0.00    -0.000 C 
BRANCH  26  27
ATOM     27  C   UNL     1      26.276 -22.999  25.483  1.00  0.00    -0.000 C 
BRANCH  27  28
ATOM     28  C   UNL     1      25.400 -22.081  26.351  1.00  0.00    -0.000 C 
BRANCH  28  29
ATOM     29  C   UNL     1      25.148 -22.707  27.727  1.00  0.00    -0.003 C 
ATOM     30  C   UNL     1      23.811 -22.251  28.304  1.00  0.00     0.004 C 
ENDBRANCH  28  29
ENDBRANCH  27  28
ENDBRANCH  26  27
ENDBRANCH  25  26
ENDBRANCH  24  25
ENDBRANCH  23  24
ENDBRANCH  22  23
ENDBRANCH  21  22
ENDBRANCH  20  21
ENDBRANCH  19  20
ENDBRANCH  18  19
ENDBRANCH  17  18
ENDBRANCH   1  17
TORSDOF 26
ENDMDL
MODEL 2
REMARK VINA RESULT:    16.859      4.321      9.925
REMARK INTER + INTRA:          40.599
REMARK INTER:                  42.124
REMARK INTRA:                  -1.525
REMARK UNBOUND:                -1.885
REMARK SMILES CCCCCCCCCCCCCCCCCCCCCCCCCCCC(=O)[O-]
REMARK SMILES IDX 15 1 16 2 17 3 18 4 19 5 20 6 21 7 22 8 23 9 24 10 25 11
REMARK SMILES IDX 26 12 27 13 28 14 29 15 30 16 14 17 13 18 12 19 11 20 10 21
REMARK SMILES IDX 9 22 8 23 7 24 6 25 5 26 4 27 3 28 2 29 1 30
REMARK H PARENT
REMARK Flexibility Score: inf
ROOT
ATOM      1  C   UNL     1      18.340 -19.466  23.844  1.00  0.00     0.000 C 
ENDROOT
BRANCH   1   2
ATOM      2  C   UNL     1      18.071 -18.471  24.982  1.00  0.00     0.000 C 
BRANCH   2   3
ATOM      3  C   UNL     1      17.683 -19.200  26.277  1.00  0.00     0.000 C 
BRANCH   3   4
ATOM      4  C   UNL     1      18.900 -19.553  27.148  1.00  0.00     0.000 C 
BRANCH   4   5
ATOM      5  C   UNL     1      20.228 -19.441  26.385  1.00  0.00     0.000 C 
BRANCH   5   6
ATOM      6  C   UNL     1      20.973 -20.784  26.377  1.00  0.00     0.000 C 
BRANCH   6   7
ATOM      7  C   UNL     1      21.655 -21.081  25.030  1.00  0.00     0.000 C 
BRANCH   7   8
ATOM      8  C   UNL     1      23.046 -20.443  24.839  1.00  0.00     0.000 C 
BRANCH   8   9
ATOM      9  C   UNL     1      23.585 -20.439  23.393  1.00  0.00     0.000 C 
BRANCH   9  10
ATOM     10  C   UNL     1      24.316 -21.732  22.973  1.00  0.00     0.000 C 
BRANCH  10  11
ATOM     11  C   UNL     1      24.577 -22.713  24.133  1.00  0.00     0.000 C 
BRANCH  11  12
ATOM     12  C   UNL     1      25.980 -23.359  24.108  1.00  0.00     0.006 C 
BRANCH  12  13
ATOM     13  C   UNL     1      26.396 -23.958  25.460  1.00  0.00     0.053 C 
BRANCH  13  14
ATOM     14  C   UNL     1      26.982 -22.920  26.367  1.00  0.00     0.041 C 
ATOM     15  O   UNL     1      28.212 -22.654  26.319  1.00  0.00    -0.550 OA
ATOM     16  O   UNL     1      26.173 -22.266  27.289  1.00  0.00    -0.550 OA
ENDBRANCH  13  14
ENDBRANCH  12  13
ENDBRANCH  11  12
ENDBRANCH  10  11
ENDBRANCH   9  10
ENDBRANCH   8   9
ENDBRANCH   7   8
ENDBRANCH   6   7
ENDBRANCH   5   6
ENDBRANCH   4   5
ENDBRANCH   3   4
ENDBRANCH   2   3
ENDBRANCH   1   2
BRANCH   1  17
ATOM     17  C   UNL     1      17.104 -19.673  22.954  1.00  0.00     0.000 C 
BRANCH  17  18
ATOM     18  C   UNL     1      17.258 -20.879  22.009  1.00  0.00     0.000 C 
BRANCH  18  19
ATOM     19  C   UNL     1      16.301 -22.033  22.352  1.00  0.00     0.000 C 
BRANCH  19  20
ATOM     20  C   UNL     1      16.624 -23.372  21.665  1.00  0.00     0.000 C 
BRANCH  20  21
ATOM     21  C   UNL     1      18.026 -23.902  22.014  1.00  0.00     0.000 C 
BRANCH  21  22
ATOM     22  C   UNL     1      18.816 -24.312  20.760  1.00  0.00    -0.000 C 
BRANCH  22  23
ATOM     23  C   UNL     1      18.066 -23.975  19.459  1.00  0.00    -0.000 C 
BRANCH  23  24
ATOM     24  C   UNL     1      18.628 -22.721  18.768  1.00  0.00    -0.000 C 
BRANCH  24  25
ATOM     25  C   UNL     1      17.771 -22.290  17.565  1.00  0.00    -0.000 C 
BRANCH  25  26
ATOM     26  C   UNL     1      18.130 -20.887  17.041  1.00  0.00    -0.000 C 
BRANCH  26  27
ATOM     27  C   UNL     1      17.302 -20.407  15.834  1.00  0.00    -0.000 C 
BRANCH  27  28
ATOM     28  C   UNL     1      18.059 -19.407  14.945  1.00  0.00    -0.000 C 
BRANCH  28  29
ATOM     29  C   UNL     1      17.706 -19.613  13.469  1.00  0.00    -0.003 C 
ATOM     30  C   UNL     1      17.957 -21.056  13.038  1.00  0.00     0.004 C 
ENDBRANCH  28  29
ENDBRANCH  27  28
ENDBRANCH  26  27
ENDBRANCH  25  26
ENDBRANCH  24  25
ENDBRANCH  23  24
ENDBRANCH  22  23
ENDBRANCH  21  22
ENDBRANCH  20  21
ENDBRANCH  19  20
ENDBRANCH  18  19
ENDBRANCH  17  18
ENDBRANCH   1  17
TORSDOF 26
ENDMDL
MODEL 3
REMARK VINA RESULT:    16.884      1.412      3.413
REMARK INTER + INTRA:          40.661
REMARK INTER:                  41.899
REMARK INTRA:                  -1.238
REMARK UNBOUND:                -1.885
REMARK SMILES CCCCCCCCCCCCCCCCCCCCCCCCCCCC(=O)[O-]
REMARK SMILES IDX 15 1 16 2 17 3 18 4 19 5 20 6 21 7 22 8 23 9 24 10 25 11
REMARK SMILES IDX 26 12 27 13 28 14 29 15 30 16 14 17 13 18 12 19 11 20 10 21
REMARK SMILES IDX 9 22 8 23 7 24 6 25 5 26 4 27 3 28 2 29 1 30
REMARK H PARENT
REMARK Flexibility Score: inf
ROOT
ATOM      1  C   UNL     1      17.562 -21.460  22.489  1.00  0.00     0.000 C 
ENDROOT
BRANCH   1   2
ATOM      2  C   UNL     1      16.380 -22.358  22.092  1.00  0.00     0.000 C 
BRANCH   2   3
ATOM      3  C   UNL     1      16.867 -23.651  21.421  1.00  0.00     0.000 C 
BRANCH   3   4
ATOM      4  C   UNL     1      18.363 -23.612  21.067  1.00  0.00     0.000 C 
BRANCH   4   5
ATOM      5  C   UNL     1      18.649 -24.107  19.643  1.00  0.00     0.000 C 
BRANCH   5   6
ATOM      6  C   UNL     1      17.979 -23.201  18.599  1.00  0.00     0.000 C 
BRANCH   6   7
ATOM      7  C   UNL     1      18.825 -21.964  18.251  1.00  0.00     0.000 C 
BRANCH   7   8
ATOM      8  C   UNL     1      18.043 -20.775  17.656  1.00  0.00     0.000 C 
BRANCH   8   9
ATOM      9  C   UNL     1      18.108 -20.638  16.120  1.00  0.00     0.000 C 
BRANCH   9  10
ATOM     10  C   UNL     1      17.330 -19.433  15.547  1.00  0.00     0.000 C 
BRANCH  10  11
ATOM     11  C   UNL     1      17.845 -18.943  14.180  1.00  0.00     0.000 C 
BRANCH  11  12
ATOM     12  C   UNL     1      17.494 -19.880  13.002  1.00  0.00     0.006 C 
BRANCH  12  13
ATOM     13  C   UNL     1      18.097 -21.285  13.146  1.00  0.00     0.053 C 
BRANCH  13  14
ATOM     14  C   UNL     1      18.055 -22.039  11.853  1.00  0.00     0.041 C 
ATOM     15  O   UNL     1      17.380 -21.603  10.883  1.00  0.00    -0.550 OA
ATOM     16  O   UNL     1      18.739 -23.243  11.727  1.00  0.00    -0.550 OA
ENDBRANCH  13  14
ENDBRANCH  12  13
ENDBRANCH  11  12
ENDBRANCH  10  11
ENDBRANCH   9  10
ENDBRANCH   8   9
ENDBRANCH   7   8
ENDBRANCH   6   7
ENDBRANCH   5   6
ENDBRANCH   4   5
ENDBRANCH   3   4
ENDBRANCH   2   3
ENDBRANCH   1   2
BRANCH   1  17
ATOM     17  C   UNL     1      17.269 -19.973  22.232  1.00  0.00     0.000 C 
BRANCH  17  18
ATOM     18  C   UNL     1      16.808 -19.239  23.504  1.00  0.00     0.000 C 
BRANCH  18  19
ATOM     19  C   UNL     1      17.974 -18.621  24.294  1.00  0.00     0.000 C 
BRANCH  19  20
ATOM     20  C   UNL     1      17.865 -18.751  25.823  1.00  0.00     0.000 C 
BRANCH  20  21
ATOM     21  C   UNL     1      18.815 -19.813  26.404  1.00  0.00     0.000 C 
BRANCH  21  22
ATOM     22  C   UNL     1      20.103 -19.189  26.966  1.00  0.00    -0.000 C 
BRANCH  22  23
ATOM     23  C   UNL     1      21.338 -20.074  26.724  1.00  0.00    -0.000 C 
BRANCH  23  24
ATOM     24  C   UNL     1      21.170 -20.987  25.497  1.00  0.00    -0.000 C 
BRANCH  24  25
ATOM     25  C   UNL     1      22.480 -21.706  25.127  1.00  0.00    -0.000 C 
BRANCH  25  26
ATOM     26  C   UNL     1      23.439 -20.826  24.305  1.00  0.00    -0.000 C 
BRANCH  26  27
ATOM     27  C   UNL     1      24.480 -21.595  23.471  1.00  0.00    -0.000 C 
BRANCH  27  28
ATOM     28  C   UNL     1      25.281 -22.614  24.298  1.00  0.00    -0.000 C 
BRANCH  28  29
ATOM     29  C   UNL     1      25.808 -21.976  25.588  1.00  0.00    -0.003 C 
ATOM     30  C   UNL     1      26.567 -22.993  26.435  1.00  0.00     0.004 C 
ENDBRANCH  28  29
ENDBRANCH  27  28
ENDBRANCH  26  27
ENDBRANCH  25  26
ENDBRANCH  24  25
ENDBRANCH  23  24
ENDBRANCH  22  23
ENDBRANCH  21  22
ENDBRANCH  20  21
ENDBRANCH  19  20
ENDBRANCH  18  19
ENDBRANCH  17  18
ENDBRANCH   1  17
TORSDOF 26
ENDMDL
MODEL 4
REMARK VINA RESULT:    16.976      0.722      2.176
REMARK INTER + INTRA:          40.894
REMARK INTER:                  42.691
REMARK INTRA:                  -1.797
REMARK UNBOUND:                -1.885
REMARK SMILES CCCCCCCCCCCCCCCCCCCCCCCCCCCC(=O)[O-]
REMARK SMILES IDX 15 1 16 2 17 3 18 4 19 5 20 6 21 7 22 8 23 9 24 10 25 11
REMARK SMILES IDX 26 12 27 13 28 14 29 15 30 16 14 17 13 18 12 19 11 20 10 21
REMARK SMILES IDX 9 22 8 23 7 24 6 25 5 26 4 27 3 28 2 29 1 30
REMARK H PARENT
REMARK Flexibility Score: inf
ROOT
ATOM      1  C   UNL     1      17.094 -19.121  24.454  1.00  0.00     0.000 C 
ENDROOT
BRANCH   1   2
ATOM      2  C   UNL     1      18.102 -19.506  23.361  1.00  0.00     0.000 C 
BRANCH   2   3
ATOM      3  C   UNL     1      17.435 -20.343  22.260  1.00  0.00     0.000 C 
BRANCH   3   4
ATOM      4  C   UNL     1      16.362 -21.299  22.808  1.00  0.00     0.000 C 
BRANCH   4   5
ATOM      5  C   UNL     1      16.375 -22.668  22.112  1.00  0.00     0.000 C 
BRANCH   5   6
ATOM      6  C   UNL     1      17.814 -23.144  21.860  1.00  0.00     0.000 C 
BRANCH   6   7
ATOM      7  C   UNL     1      17.886 -24.348  20.906  1.00  0.00     0.000 C 
BRANCH   7   8
ATOM      8  C   UNL     1      17.857 -24.003  19.403  1.00  0.00     0.000 C 
BRANCH   8   9
ATOM      9  C   UNL     1      18.947 -23.022  18.924  1.00  0.00     0.000 C 
BRANCH   9  10
ATOM     10  C   UNL     1      18.442 -21.597  18.612  1.00  0.00     0.000 C 
BRANCH  10  11
ATOM     11  C   UNL     1      18.746 -21.120  17.178  1.00  0.00     0.000 C 
BRANCH  11  12
ATOM     12  C   UNL     1      17.726 -20.102  16.623  1.00  0.00     0.006 C 
BRANCH  12  13
ATOM     13  C   UNL     1      17.039 -20.573  15.333  1.00  0.00     0.053 C 
BRANCH  13  14
ATOM     14  C   UNL     1      17.689 -19.990  14.116  1.00  0.00     0.041 C 
ATOM     15  O   UNL     1      17.663 -18.747  13.914  1.00  0.00    -0.550 OA
ATOM     16  O   UNL     1      18.301 -20.823  13.187  1.00  0.00    -0.550 OA
ENDBRANCH  13  14
ENDBRANCH  12  13
ENDBRANCH  11  12
ENDBRANCH  10  11
ENDBRANCH   9  10
ENDBRANCH   8   9
ENDBRANCH   7   8
ENDBRANCH   6   7
ENDBRANCH   5   6
ENDBRANCH   4   5
ENDBRANCH   3   4
ENDBRANCH   2   3
ENDBRANCH   1   2
BRANCH   1  17
ATOM     17  C   UNL     1      17.723 -19.154  25.857  1.00  0.00     0.000 C 
BRANCH  17  18
ATOM     18  C   UNL     1      19.201 -18.724  25.846  1.00  0.00     0.000 C 
BRANCH  18  19
ATOM     19  C   UNL     1      20.119 -19.719  26.576  1.00  0.00     0.000 C 
BRANCH  19  20
ATOM     20  C   UNL     1      20.968 -20.614  25.657  1.00  0.00     0.000 C 
BRANCH  20  21
ATOM     21  C   UNL     1      21.620 -21.793  26.402  1.00  0.00     0.000 C 
BRANCH  21  22
ATOM     22  C   UNL     1      23.014 -21.432  26.943  1.00  0.00    -0.000 C 
BRANCH  22  23
ATOM     23  C   UNL     1      23.525 -22.455  27.973  1.00  0.00    -0.000 C 
BRANCH  23  24
ATOM     24  C   UNL     1      25.043 -22.678  27.870  1.00  0.00    -0.000 C 
BRANCH  24  25
ATOM     25  C   UNL     1      25.654 -21.952  26.659  1.00  0.00    -0.000 C 
BRANCH  25  26
ATOM     26  C   UNL     1      26.184 -22.917  25.582  1.00  0.00    -0.000 C 
BRANCH  26  27
ATOM     27  C   UNL     1      25.643 -22.672  24.161  1.00  0.00    -0.000 C 
BRANCH  27  28
ATOM     28  C   UNL     1      24.184 -22.189  24.147  1.00  0.00    -0.000 C 
BRANCH  28  29
ATOM     29  C   UNL     1      24.113 -20.673  23.935  1.00  0.00    -0.003 C 
ATOM     30  C   UNL     1      23.347 -20.330  22.660  1.00  0.00     0.004 C 
ENDBRANCH  28  29
ENDBRANCH  27  28
ENDBRANCH  26  27
ENDBRANCH  25  26
ENDBRANCH  24  25
ENDBRANCH  23  24
ENDBRANCH  22  23
ENDBRANCH  21  22
ENDBRANCH  20  21
ENDBRANCH  19  20
ENDBRANCH  18  19
ENDBRANCH  17  18
ENDBRANCH   1  17
TORSDOF 26
ENDMDL
MODEL 5
REMARK VINA RESULT:    17.321      4.330      6.919
REMARK INTER + INTRA:          41.763
REMARK INTER:                  43.387
REMARK INTRA:                  -1.623
REMARK UNBOUND:                -1.885
REMARK SMILES CCCCCCCCCCCCCCCCCCCCCCCCCCCC(=O)[O-]
REMARK SMILES IDX 15 1 16 2 17 3 18 4 19 5 20 6 21 7 22 8 23 9 24 10 25 11
REMARK SMILES IDX 26 12 27 13 28 14 29 15 30 16 14 17 13 18 12 19 11 20 10 21
REMARK SMILES IDX 9 22 8 23 7 24 6 25 5 26 4 27 3 28 2 29 1 30
REMARK H PARENT
REMARK Flexibility Score: inf
ROOT
ATOM      1  C   UNL     1      23.173 -20.615  24.776  1.00  0.00     0.000 C 
ENDROOT
BRANCH   1   2
ATOM      2  C   UNL     1      21.810 -21.315  24.872  1.00  0.00     0.000 C 
BRANCH   2   3
ATOM      3  C   UNL     1      21.133 -21.034  26.222  1.00  0.00     0.000 C 
BRANCH   3   4
ATOM      4  C   UNL     1      20.891 -19.535  26.464  1.00  0.00     0.000 C 
BRANCH   4   5
ATOM      5  C   UNL     1      19.509 -19.247  27.070  1.00  0.00     0.000 C 
BRANCH   5   6
ATOM      6  C   UNL     1      18.646 -18.421  26.104  1.00  0.00     0.000 C 
BRANCH   6   7
ATOM      7  C   UNL     1      17.491 -19.233  25.492  1.00  0.00     0.000 C 
BRANCH   7   8
ATOM      8  C   UNL     1      17.219 -18.971  23.997  1.00  0.00     0.000 C 
BRANCH   8   9
ATOM      9  C   UNL     1      17.976 -19.886  23.012  1.00  0.00     0.000 C 
BRANCH   9  10
ATOM     10  C   UNL     1      17.078 -20.610  21.984  1.00  0.00     0.000 C 
BRANCH  10  11
ATOM     11  C   UNL     1      16.441 -21.911  22.509  1.00  0.00     0.000 C 
BRANCH  11  12
ATOM     12  C   UNL     1      16.528 -23.097  21.524  1.00  0.00     0.006 C 
BRANCH  12  13
ATOM     13  C   UNL     1      17.971 -23.488  21.172  1.00  0.00     0.053 C 
BRANCH  13  14
ATOM     14  C   UNL     1      18.130 -23.750  19.706  1.00  0.00     0.041 C 
ATOM     15  O   UNL     1      18.075 -24.926  19.260  1.00  0.00    -0.550 OA
ATOM     16  O   UNL     1      18.370 -22.695  18.834  1.00  0.00    -0.550 OA
ENDBRANCH  13  14
ENDBRANCH  12  13
ENDBRANCH  11  12
ENDBRANCH  10  11
ENDBRANCH   9  10
ENDBRANCH   8   9
ENDBRANCH   7   8
ENDBRANCH   6   7
ENDBRANCH   5   6
ENDBRANCH   4   5
ENDBRANCH   3   4
ENDBRANCH   2   3
ENDBRANCH   1   2
BRANCH   1  17
ATOM     17  C   UNL     1      23.918 -20.974  23.481  1.00  0.00     0.000 C 
BRANCH  17  18
ATOM     18  C   UNL     1      24.887 -22.154  23.671  1.00  0.00     0.000 C 
BRANCH  18  19
ATOM     19  C   UNL     1      25.355 -22.315  25.128  1.00  0.00     0.000 C 
BRANCH  19  20
ATOM     20  C   UNL     1      26.447 -23.377  25.346  1.00  0.00     0.000 C 
BRANCH  20  21
ATOM     21  C   UNL     1      27.508 -22.945  26.374  1.00  0.00     0.000 C 
BRANCH  21  22
ATOM     22  C   UNL     1      27.356 -21.467  26.773  1.00  0.00    -0.000 C 
BRANCH  22  23
ATOM     23  C   UNL     1      28.640 -20.658  26.522  1.00  0.00    -0.000 C 
BRANCH  23  24
ATOM     24  C   UNL     1      28.483 -19.178  26.911  1.00  0.00    -0.000 C 
BRANCH  24  25
ATOM     25  C   UNL     1      29.823 -18.422  26.861  1.00  0.00    -0.000 C 
BRANCH  25  26
ATOM     26  C   UNL     1      29.753 -17.126  26.031  1.00  0.00    -0.000 C 
BRANCH  26  27
ATOM     27  C   UNL     1      30.885 -16.945  25.004  1.00  0.00    -0.000 C 
BRANCH  27  28
ATOM     28  C   UNL     1      31.985 -15.985  25.485  1.00  0.00    -0.000 C 
BRANCH  28  29
ATOM     29  C   UNL     1      33.376 -16.550  25.179  1.00  0.00    -0.003 C 
ATOM     30  C   UNL     1      34.424 -15.986  26.135  1.00  0.00     0.004 C 
ENDBRANCH  28  29
ENDBRANCH  27  28
ENDBRANCH  26  27
ENDBRANCH  25  26
ENDBRANCH  24  25
ENDBRANCH  23  24
ENDBRANCH  22  23
ENDBRANCH  21  22
ENDBRANCH  20  21
ENDBRANCH  19  20
ENDBRANCH  18  19
ENDBRANCH  17  18
ENDBRANCH   1  17
TORSDOF 26
ENDMDL
MODEL 6
REMARK VINA RESULT:    17.614      1.440      2.353
REMARK INTER + INTRA:          42.500
REMARK INTER:                  44.414
REMARK INTRA:                  -1.914
REMARK UNBOUND:                -1.885
REMARK SMILES CCCCCCCCCCCCCCCCCCCCCCCCCCCC(=O)[O-]
REMARK SMILES IDX 15 1 16 2 17 3 18 4 19 5 20 6 21 7 22 8 23 9 24 10 25 11
REMARK SMILES IDX 26 12 27 13 28 14 29 15 30 16 14 17 13 18 12 19 11 20 10 21
REMARK SMILES IDX 9 22 8 23 7 24 6 25 5 26 4 27 3 28 2 29 1 30
REMARK H PARENT
REMARK Flexibility Score: inf
ROOT
ATOM      1  C   UNL     1      17.983 -19.558  23.126  1.00  0.00     0.000 C 
ENDROOT
BRANCH   1   2
ATOM      2  C   UNL     1      17.270 -20.366  22.031  1.00  0.00     0.000 C 
BRANCH   2   3
ATOM      3  C   UNL     1      16.541 -21.581  22.623  1.00  0.00     0.000 C 
BRANCH   3   4
ATOM      4  C   UNL     1      16.767 -22.866  21.809  1.00  0.00     0.000 C 
BRANCH   4   5
ATOM      5  C   UNL     1      18.075 -22.835  21.005  1.00  0.00     0.000 C 
BRANCH   5   6
ATOM      6  C   UNL     1      18.087 -23.934  19.931  1.00  0.00     0.000 C 
BRANCH   6   7
ATOM      7  C   UNL     1      18.363 -23.387  18.520  1.00  0.00     0.000 C 
BRANCH   7   8
ATOM      8  C   UNL     1      18.245 -21.856  18.370  1.00  0.00     0.000 C 
BRANCH   8   9
ATOM      9  C   UNL     1      18.568 -21.297  16.969  1.00  0.00     0.000 C 
BRANCH   9  10
ATOM     10  C   UNL     1      17.532 -20.290  16.422  1.00  0.00     0.000 C 
BRANCH  10  11
ATOM     11  C   UNL     1      17.768 -19.877  14.956  1.00  0.00     0.000 C 
BRANCH  11  12
ATOM     12  C   UNL     1      18.160 -21.047  14.028  1.00  0.00     0.006 C 
BRANCH  12  13
ATOM     13  C   UNL     1      17.457 -20.999  12.663  1.00  0.00     0.053 C 
BRANCH  13  14
ATOM     14  C   UNL     1      17.921 -22.104  11.764  1.00  0.00     0.041 C 
ATOM     15  O   UNL     1      18.324 -23.194  12.249  1.00  0.00    -0.550 OA
ATOM     16  O   UNL     1      17.935 -21.919  10.386  1.00  0.00    -0.550 OA
ENDBRANCH  13  14
ENDBRANCH  12  13
ENDBRANCH  11  12
ENDBRANCH  10  11
ENDBRANCH   9  10
ENDBRANCH   8   9
ENDBRANCH   7   8
ENDBRANCH   6   7
ENDBRANCH   5   6
ENDBRANCH   4   5
ENDBRANCH   3   4
ENDBRANCH   2   3
ENDBRANCH   1   2
BRANCH   1  17
ATOM     17  C   UNL     1      17.019 -19.119  24.239  1.00  0.00     0.000 C 
BRANCH  17  18
ATOM     18  C   UNL     1      17.726 -18.961  25.597  1.00  0.00     0.000 C 
BRANCH  18  19
ATOM     19  C   UNL     1      19.254 -19.106  25.497  1.00  0.00     0.000 C 
BRANCH  19  20
ATOM     20  C   UNL     1      19.957 -19.495  26.809  1.00  0.00     0.000 C 
BRANCH  20  21
ATOM     21  C   UNL     1      20.811 -20.769  26.678  1.00  0.00     0.000 C 
BRANCH  21  22
ATOM     22  C   UNL     1      21.356 -20.954  25.252  1.00  0.00    -0.000 C 
BRANCH  22  23
ATOM     23  C   UNL     1      22.885 -20.800  25.185  1.00  0.00    -0.000 C 
BRANCH  23  24
ATOM     24  C   UNL     1      23.380 -20.497  23.761  1.00  0.00    -0.000 C 
BRANCH  24  25
ATOM     25  C   UNL     1      24.672 -21.262  23.422  1.00  0.00    -0.000 C 
BRANCH  25  26
ATOM     26  C   UNL     1      24.630 -22.739  23.855  1.00  0.00    -0.000 C 
BRANCH  26  27
ATOM     27  C   UNL     1      25.823 -23.205  24.710  1.00  0.00    -0.000 C 
BRANCH  27  28
ATOM     28  C   UNL     1      25.799 -22.635  26.138  1.00  0.00    -0.000 C 
BRANCH  28  29
ATOM     29  C   UNL     1      27.178 -22.749  26.795  1.00  0.00    -0.003 C 
ATOM     30  C   UNL     1      28.294 -22.570  25.768  1.00  0.00     0.004 C 
ENDBRANCH  28  29
ENDBRANCH  27  28
ENDBRANCH  26  27
ENDBRANCH  25  26
ENDBRANCH  24  25
ENDBRANCH  23  24
ENDBRANCH  22  23
ENDBRANCH  21  22
ENDBRANCH  20  21
ENDBRANCH  19  20
ENDBRANCH  18  19
ENDBRANCH  17  18
ENDBRANCH   1  17
TORSDOF 26
ENDMDL
MODEL 7
REMARK VINA RESULT:    17.735      4.038     10.272
REMARK INTER + INTRA:          42.807
REMARK INTER:                  44.483
REMARK INTRA:                  -1.676
REMARK UNBOUND:                -1.885
REMARK SMILES CCCCCCCCCCCCCCCCCCCCCCCCCCCC(=O)[O-]
REMARK SMILES IDX 15 1 16 2 17 3 18 4 19 5 20 6 21 7 22 8 23 9 24 10 25 11
REMARK SMILES IDX 26 12 27 13 28 14 29 15 30 16 14 17 13 18 12 19 11 20 10 21
REMARK SMILES IDX 9 22 8 23 7 24 6 25 5 26 4 27 3 28 2 29 1 30
REMARK H PARENT
REMARK Flexibility Score: inf
ROOT
ATOM      1  C   UNL     1      16.162 -21.601  22.435  1.00  0.00     0.000 C 
ENDROOT
BRANCH   1   2
ATOM      2  C   UNL     1      17.364 -20.663  22.252  1.00  0.00     0.000 C 
BRANCH   2   3
ATOM      3  C   UNL     1      17.130 -19.317  22.955  1.00  0.00     0.000 C 
BRANCH   3   4
ATOM      4  C   UNL     1      18.134 -19.056  24.090  1.00  0.00     0.000 C 
BRANCH   4   5
ATOM      5  C   UNL     1      17.472 -19.044  25.476  1.00  0.00     0.000 C 
BRANCH   5   6
ATOM      6  C   UNL     1      18.507 -18.775  26.578  1.00  0.00     0.000 C 
BRANCH   6   7
ATOM      7  C   UNL     1      19.549 -19.901  26.707  1.00  0.00     0.000 C 
BRANCH   7   8
ATOM      8  C   UNL     1      21.011 -19.478  26.455  1.00  0.00     0.000 C 
BRANCH   8   9
ATOM      9  C   UNL     1      21.983 -20.622  26.099  1.00  0.00     0.000 C 
BRANCH   9  10
ATOM     10  C   UNL     1      22.206 -20.831  24.585  1.00  0.00     0.000 C 
BRANCH  10  11
ATOM     11  C   UNL     1      23.689 -20.849  24.164  1.00  0.00     0.000 C 
BRANCH  11  12
ATOM     12  C   UNL     1      24.247 -22.262  23.884  1.00  0.00     0.006 C 
BRANCH  12  13
ATOM     13  C   UNL     1      25.648 -22.487  24.470  1.00  0.00     0.053 C 
BRANCH  13  14
ATOM     14  C   UNL     1      25.682 -22.209  25.942  1.00  0.00     0.041 C 
ATOM     15  O   UNL     1      24.648 -22.364  26.644  1.00  0.00    -0.550 OA
ATOM     16  O   UNL     1      26.852 -21.748  26.535  1.00  0.00    -0.550 OA
ENDBRANCH  13  14
ENDBRANCH  12  13
ENDBRANCH  11  12
ENDBRANCH  10  11
ENDBRANCH   9  10
ENDBRANCH   8   9
ENDBRANCH   7   8
ENDBRANCH   6   7
ENDBRANCH   5   6
ENDBRANCH   4   5
ENDBRANCH   3   4
ENDBRANCH   2   3
ENDBRANCH   1   2
BRANCH   1  17
ATOM     17  C   UNL     1      16.419 -22.993  21.836  1.00  0.00     0.000 C 
BRANCH  17  18
ATOM     18  C   UNL     1      17.859 -23.478  22.081  1.00  0.00     0.000 C 
BRANCH  18  19
ATOM     19  C   UNL     1      18.237 -24.693  21.216  1.00  0.00     0.000 C 
BRANCH  19  20
ATOM     20  C   UNL     1      17.946 -24.537  19.714  1.00  0.00     0.000 C 
BRANCH  20  21
ATOM     21  C   UNL     1      18.871 -23.517  19.026  1.00  0.00     0.000 C 
BRANCH  21  22
ATOM     22  C   UNL     1      18.081 -22.499  18.186  1.00  0.00    -0.000 C 
BRANCH  22  23
ATOM     23  C   UNL     1      18.516 -21.049  18.462  1.00  0.00    -0.000 C 
BRANCH  23  24
ATOM     24  C   UNL     1      18.788 -20.264  17.168  1.00  0.00    -0.000 C 
BRANCH  24  25
ATOM     25  C   UNL     1      17.761 -20.586  16.068  1.00  0.00    -0.000 C 
BRANCH  25  26
ATOM     26  C   UNL     1      17.547 -19.422  15.083  1.00  0.00    -0.000 C 
BRANCH  26  27
ATOM     27  C   UNL     1      17.666 -19.795  13.593  1.00  0.00    -0.000 C 
BRANCH  27  28
ATOM     28  C   UNL     1      18.206 -21.217  13.370  1.00  0.00    -0.000 C 
BRANCH  28  29
ATOM     29  C   UNL     1      17.336 -21.979  12.364  1.00  0.00    -0.003 C 
ATOM     30  C   UNL     1      17.956 -21.952  10.969  1.00  0.00     0.004 C 
ENDBRANCH  28  29
ENDBRANCH  27  28
ENDBRANCH  26  27
ENDBRANCH  25  26
ENDBRANCH  24  25
ENDBRANCH  23  24
ENDBRANCH  22  23
ENDBRANCH  21  22
ENDBRANCH  20  21
ENDBRANCH  19  20
ENDBRANCH  18  19
ENDBRANCH  17  18
ENDBRANCH   1  17
TORSDOF 26
ENDMDL
MODEL 8
REMARK VINA RESULT:    17.874      5.286     10.562
REMARK INTER + INTRA:          43.156
REMARK INTER:                  44.705
REMARK INTRA:                  -1.549
REMARK UNBOUND:                -1.885
REMARK SMILES CCCCCCCCCCCCCCCCCCCCCCCCCCCC(=O)[O-]
REMARK SMILES IDX 15 1 16 2 17 3 18 4 19 5 20 6 21 7 22 8 23 9 24 10 25 11
REMARK SMILES IDX 26 12 27 13 28 14 29 15 30 16 14 17 13 18 12 19 11 20 10 21
REMARK SMILES IDX 9 22 8 23 7 24 6 25 5 26 4 27 3 28 2 29 1 30
REMARK H PARENT
REMARK Flexibility Score: inf
ROOT
ATOM      1  C   UNL     1      21.967 -21.635  24.495  1.00  0.00     0.000 C 
ENDROOT
BRANCH   1   2
ATOM      2  C   UNL     1      22.631 -20.347  23.986  1.00  0.00     0.000 C 
BRANCH   2   3
ATOM      3  C   UNL     1      24.094 -20.597  23.589  1.00  0.00     0.000 C 
BRANCH   3   4
ATOM      4  C   UNL     1      24.589 -21.997  23.989  1.00  0.00     0.000 C 
BRANCH   4   5
ATOM      5  C   UNL     1      25.170 -22.037  25.410  1.00  0.00     0.000 C 
BRANCH   5   6
ATOM      6  C   UNL     1      26.138 -23.218  25.576  1.00  0.00     0.000 C 
BRANCH   6   7
ATOM      7  C   UNL     1      27.117 -23.027  26.748  1.00  0.00     0.000 C 
BRANCH   7   8
ATOM      8  C   UNL     1      28.311 -22.093  26.465  1.00  0.00     0.000 C 
BRANCH   8   9
ATOM      9  C   UNL     1      28.194 -20.668  27.046  1.00  0.00     0.000 C 
BRANCH   9  10
ATOM     10  C   UNL     1      29.185 -19.645  26.450  1.00  0.00     0.000 C 
BRANCH  10  11
ATOM     11  C   UNL     1      29.204 -18.287  27.180  1.00  0.00     0.000 C 
BRANCH  11  12
ATOM     12  C   UNL     1      28.838 -17.085  26.282  1.00  0.00     0.006 C 
BRANCH  12  13
ATOM     13  C   UNL     1      30.000 -16.102  26.082  1.00  0.00     0.053 C 
BRANCH  13  14
ATOM     14  C   UNL     1      31.029 -16.647  25.139  1.00  0.00     0.041 C 
ATOM     15  O   UNL     1      30.726 -17.558  24.324  1.00  0.00    -0.550 OA
ATOM     16  O   UNL     1      32.333 -16.168  25.181  1.00  0.00    -0.550 OA
ENDBRANCH  13  14
ENDBRANCH  12  13
ENDBRANCH  11  12
ENDBRANCH  10  11
ENDBRANCH   9  10
ENDBRANCH   8   9
ENDBRANCH   7   8
ENDBRANCH   6   7
ENDBRANCH   5   6
ENDBRANCH   4   5
ENDBRANCH   3   4
ENDBRANCH   2   3
ENDBRANCH   1   2
BRANCH   1  17
ATOM     17  C   UNL     1      21.420 -21.477  25.923  1.00  0.00     0.000 C 
BRANCH  17  18
ATOM     18  C   UNL     1      21.839 -20.142  26.565  1.00  0.00     0.000 C 
BRANCH  18  19
ATOM     19  C   UNL     1      20.655 -19.376  27.180  1.00  0.00     0.000 C 
BRANCH  19  20
ATOM     20  C   UNL     1      19.268 -19.804  26.670  1.00  0.00     0.000 C 
BRANCH  20  21
ATOM     21  C   UNL     1      18.963 -19.287  25.252  1.00  0.00     0.000 C 
BRANCH  21  22
ATOM     22  C   UNL     1      17.558 -18.672  25.154  1.00  0.00    -0.000 C 
BRANCH  22  23
ATOM     23  C   UNL     1      16.687 -19.368  24.093  1.00  0.00    -0.000 C 
BRANCH  23  24
ATOM     24  C   UNL     1      17.405 -19.495  22.739  1.00  0.00    -0.000 C 
BRANCH  24  25
ATOM     25  C   UNL     1      17.834 -20.944  22.446  1.00  0.00    -0.000 C 
BRANCH  25  26
ATOM     26  C   UNL     1      16.755 -21.754  21.704  1.00  0.00    -0.000 C 
BRANCH  26  27
ATOM     27  C   UNL     1      16.822 -23.278  21.911  1.00  0.00    -0.000 C 
BRANCH  27  28
ATOM     28  C   UNL     1      18.066 -23.917  21.272  1.00  0.00    -0.000 C 
BRANCH  28  29
ATOM     29  C   UNL     1      17.880 -24.082  19.760  1.00  0.00    -0.003 C 
ATOM     30  C   UNL     1      18.557 -22.948  18.995  1.00  0.00     0.004 C 
ENDBRANCH  28  29
ENDBRANCH  27  28
ENDBRANCH  26  27
ENDBRANCH  25  26
ENDBRANCH  24  25
ENDBRANCH  23  24
ENDBRANCH  22  23
ENDBRANCH  21  22
ENDBRANCH  20  21
ENDBRANCH  19  20
ENDBRANCH  18  19
ENDBRANCH  17  18
ENDBRANCH   1  17
TORSDOF 26
ENDMDL
MODEL 9
REMARK VINA RESULT:    18.070      4.290      9.535
REMARK INTER + INTRA:          43.650
REMARK INTER:                  46.038
REMARK INTRA:                  -2.388
REMARK UNBOUND:                -1.885
REMARK SMILES CCCCCCCCCCCCCCCCCCCCCCCCCCCC(=O)[O-]
REMARK SMILES IDX 15 1 16 2 17 3 18 4 19 5 20 6 21 7 22 8 23 9 24 10 25 11
REMARK SMILES IDX 26 12 27 13 28 14 29 15 30 16 14 17 13 18 12 19 11 20 10 21
REMARK SMILES IDX 9 22 8 23 7 24 6 25 5 26 4 27 3 28 2 29 1 30
REMARK H PARENT
REMARK Flexibility Score: inf
ROOT
ATOM      1  C   UNL     1      20.458 -19.629  26.666  1.00  0.00     0.000 C 
ENDROOT
BRANCH   1   2
ATOM      2  C   UNL     1      21.096 -20.987  26.333  1.00  0.00     0.000 C 
BRANCH   2   3
ATOM      3  C   UNL     1      21.755 -20.965  24.946  1.00  0.00     0.000 C 
BRANCH   3   4
ATOM      4  C   UNL     1      23.117 -20.250  24.946  1.00  0.00     0.000 C 
BRANCH   4   5
ATOM      5  C   UNL     1      23.733 -20.146  23.543  1.00  0.00     0.000 C 
BRANCH   5   6
ATOM      6  C   UNL     1      24.149 -21.529  23.021  1.00  0.00     0.000 C 
BRANCH   6   7
ATOM      7  C   UNL     1      24.717 -22.438  24.125  1.00  0.00     0.000 C 
BRANCH   7   8
ATOM      8  C   UNL     1      25.650 -23.565  23.637  1.00  0.00     0.000 C 
BRANCH   8   9
ATOM      9  C   UNL     1      26.697 -24.052  24.660  1.00  0.00     0.000 C 
BRANCH   9  10
ATOM     10  C   UNL     1      27.536 -22.930  25.310  1.00  0.00     0.000 C 
BRANCH  10  11
ATOM     11  C   UNL     1      27.444 -22.884  26.847  1.00  0.00     0.000 C 
BRANCH  11  12
ATOM     12  C   UNL     1      26.044 -23.222  27.405  1.00  0.00     0.006 C 
BRANCH  12  13
ATOM     13  C   UNL     1      25.178 -21.980  27.663  1.00  0.00     0.053 C 
BRANCH  13  14
ATOM     14  C   UNL     1      24.000 -22.299  28.532  1.00  0.00     0.041 C 
ATOM     15  O   UNL     1      23.204 -23.221  28.213  1.00  0.00    -0.550 OA
ATOM     16  O   UNL     1      23.763 -21.555  29.682  1.00  0.00    -0.550 OA
ENDBRANCH  13  14
ENDBRANCH  12  13
ENDBRANCH  11  12
ENDBRANCH  10  11
ENDBRANCH   9  10
ENDBRANCH   8   9
ENDBRANCH   7   8
ENDBRANCH   6   7
ENDBRANCH   5   6
ENDBRANCH   4   5
ENDBRANCH   3   4
ENDBRANCH   2   3
ENDBRANCH   1   2
BRANCH   1  17
ATOM     17  C   UNL     1      18.947 -19.616  26.380  1.00  0.00     0.000 C 
BRANCH  17  18
ATOM     18  C   UNL     1      18.518 -18.387  25.560  1.00  0.00     0.000 C 
BRANCH  18  19
ATOM     19  C   UNL     1      17.320 -18.671  24.638  1.00  0.00     0.000 C 
BRANCH  19  20
ATOM     20  C   UNL     1      17.655 -19.460  23.360  1.00  0.00     0.000 C 
BRANCH  20  21
ATOM     21  C   UNL     1      16.961 -20.832  23.301  1.00  0.00     0.000 C 
BRANCH  21  22
ATOM     22  C   UNL     1      16.584 -21.226  21.863  1.00  0.00    -0.000 C 
BRANCH  22  23
ATOM     23  C   UNL     1      16.431 -22.748  21.694  1.00  0.00    -0.000 C 
BRANCH  23  24
ATOM     24  C   UNL     1      17.686 -23.515  22.143  1.00  0.00    -0.000 C 
BRANCH  24  25
ATOM     25  C   UNL     1      17.995 -24.709  21.223  1.00  0.00    -0.000 C 
BRANCH  25  26
ATOM     26  C   UNL     1      17.873 -24.364  19.727  1.00  0.00    -0.000 C 
BRANCH  26  27
ATOM     27  C   UNL     1      18.873 -23.312  19.213  1.00  0.00    -0.000 C 
BRANCH  27  28
ATOM     28  C   UNL     1      18.201 -22.177  18.424  1.00  0.00    -0.000 C 
BRANCH  28  29
ATOM     29  C   UNL     1      18.998 -20.875  18.554  1.00  0.00    -0.003 C 
ATOM     30  C   UNL     1      18.829 -20.261  19.942  1.00  0.00     0.004 C 
ENDBRANCH  28  29
ENDBRANCH  27  28
ENDBRANCH  26  27
ENDBRANCH  25  26
ENDBRANCH  24  25
ENDBRANCH  23  24
ENDBRANCH  22  23
ENDBRANCH  21  22
ENDBRANCH  20  21
ENDBRANCH  19  20
ENDBRANCH  18  19
ENDBRANCH  17  18
ENDBRANCH   1  17
TORSDOF 26
ENDMDL
