MODEL 1
REMARK VINA RESULT:    -2.052      0.000      0.000
REMARK INTER + INTRA:          -2.345
REMARK INTER:                  -2.292
REMARK INTRA:                  -0.053
REMARK UNBOUND:                -0.053
REMARK SMILES COc1cc2ccc(=O)oc2c(O)c1O
REMARK SMILES IDX 3 1 14 2 12 3 11 4 5 5 4 6 6 7 7 8 8 9 9 10 10 11 2 12 1 13
REMARK SMILES IDX 15 14 13 16
REMARK H PARENT 15 15 13 17
REMARK Flexibility Score: inf
ROOT
ATOM      1  C   UNL     1       7.032   2.345  18.543  1.00  0.00     0.165 A 
ATOM      2  C   UNL     1       8.416   2.317  18.302  1.00  0.00     0.204 A 
ATOM      3  C   UNL     1       9.128   3.529  18.117  1.00  0.00     0.205 A 
ATOM      4  C   UNL     1       8.444   4.750  18.176  1.00  0.00     0.184 A 
ATOM      5  C   UNL     1       7.055   4.775  18.418  1.00  0.00     0.025 A 
ATOM      6  C   UNL     1       6.355   3.577  18.600  1.00  0.00     0.062 A 
ATOM      7  C   UNL     1       6.407   6.012  18.469  1.00  0.00     0.020 A 
ATOM      8  C   UNL     1       7.143   7.181  18.282  1.00  0.00     0.094 A 
ATOM      9  C   UNL     1       8.518   7.082  18.047  1.00  0.00     0.336 A 
ATOM     10  O   UNL     1       9.202   8.124  17.876  1.00  0.00    -0.246 OA
ATOM     11  O   UNL     1       9.109   5.892  18.002  1.00  0.00    -0.419 OA
ENDROOT
BRANCH   1  12
ATOM     12  O   UNL     1       6.364   1.123  18.721  1.00  0.00    -0.493 OA
ATOM     13  C   UNL     1       5.030   0.993  19.203  1.00  0.00     0.278 C 
ENDBRANCH   1  12
BRANCH   2  14
ATOM     14  O   UNL     1       9.042   1.069  18.255  1.00  0.00    -0.502 OA
ATOM     15  H   UNL     1       8.625   0.211  18.586  1.00  0.00     0.293 HD
ENDBRANCH   2  14
BRANCH   3  16
ATOM     16  O   UNL     1      10.505   3.561  17.875  1.00  0.00    -0.502 OA
ATOM     17  H   UNL     1      11.097   4.356  18.071  1.00  0.00     0.293 HD
ENDBRANCH   3  16
TORSDOF 3
ENDMDL
MODEL 2
REMARK VINA RESULT:     0.102      1.223      4.688
REMARK INTER + INTRA:           0.062
REMARK INTER:                   0.115
REMARK INTRA:                  -0.053
REMARK UNBOUND:                -0.053
REMARK SMILES COc1cc2ccc(=O)oc2c(O)c1O
REMARK SMILES IDX 3 1 14 2 12 3 11 4 5 5 4 6 6 7 7 8 8 9 9 10 10 11 2 12 1 13
REMARK SMILES IDX 15 14 13 16
REMARK H PARENT 15 15 13 17
REMARK Flexibility Score: inf
ROOT
ATOM      1  C   UNL     1       8.209   6.348  18.163  1.00  0.00     0.165 A 
ATOM      2  C   UNL     1       9.525   5.876  18.022  1.00  0.00     0.204 A 
ATOM      3  C   UNL     1       9.781   4.482  18.014  1.00  0.00     0.205 A 
ATOM      4  C   UNL     1       8.717   3.581  18.148  1.00  0.00     0.184 A 
ATOM      5  C   UNL     1       7.397   4.058  18.291  1.00  0.00     0.025 A 
ATOM      6  C   UNL     1       7.147   5.434  18.298  1.00  0.00     0.062 A 
ATOM      7  C   UNL     1       6.361   3.129  18.423  1.00  0.00     0.020 A 
ATOM      8  C   UNL     1       6.654   1.767  18.410  1.00  0.00     0.094 A 
ATOM      9  C   UNL     1       7.986   1.364  18.265  1.00  0.00     0.336 A 
ATOM     10  O   UNL     1       8.274   0.139  18.251  1.00  0.00    -0.246 OA
ATOM     11  O   UNL     1       8.952   2.270  18.142  1.00  0.00    -0.419 OA
ENDROOT
BRANCH   1  12
ATOM     12  O   UNL     1       7.998   7.736  18.166  1.00  0.00    -0.493 OA
ATOM     13  C   UNL     1       6.754   8.366  17.875  1.00  0.00     0.278 C 
ENDBRANCH   1  12
BRANCH   2  14
ATOM     14  O   UNL     1      10.544   6.822  17.891  1.00  0.00    -0.502 OA
ATOM     15  H   UNL     1      10.999   7.279  18.668  1.00  0.00     0.293 HD
ENDBRANCH   2  14
BRANCH   3  16
ATOM     16  O   UNL     1      11.069   3.956  17.875  1.00  0.00    -0.502 OA
ATOM     17  H   UNL     1      11.725   4.241  17.162  1.00  0.00     0.293 HD
ENDBRANCH   3  16
TORSDOF 3
ENDMDL
