MODEL 1
REMARK VINA RESULT:    -4.437      0.000      0.000
REMARK INTER + INTRA:         -10.625
REMARK INTER:                  -8.068
REMARK INTRA:                  -2.557
REMARK UNBOUND:                -2.557
REMARK SMILES CCCCCCCCCCCCCC[C@H](C)C(=O)[O-]
REMARK SMILES IDX 9 1 10 2 11 3 12 4 13 5 14 6 15 7 16 8 17 9 18 10 19 11 8 12
REMARK SMILES IDX 7 13 6 14 5 15 4 16 3 17 2 18 1 19
REMARK H PARENT
REMARK Flexibility Score: inf
ROOT
ATOM      1  C   UNL     1     -35.896  22.520 -28.282  1.00  0.00     0.000 C 
ENDROOT
BRANCH   1   2
ATOM      2  C   UNL     1     -36.008  22.697 -29.808  1.00  0.00     0.000 C 
BRANCH   2   3
ATOM      3  C   UNL     1     -35.276  21.600 -30.596  1.00  0.00     0.000 C 
BRANCH   3   4
ATOM      4  C   UNL     1     -36.267  20.572 -31.156  1.00  0.00     0.000 C 
BRANCH   4   5
ATOM      5  C   UNL     1     -37.709  21.091 -31.064  1.00  0.00     0.001 C 
BRANCH   5   6
ATOM      6  C   UNL     1     -38.662  20.121 -30.339  1.00  0.00     0.009 C 
BRANCH   6   7
ATOM      7  C   UNL     1     -39.167  20.640 -28.971  1.00  0.00     0.032 C 
ATOM      8  C   UNL     1     -40.171  19.657 -28.359  1.00  0.00     0.014 C 
BRANCH   7   9
ATOM      9  C   UNL     1     -39.816  21.993 -29.089  1.00  0.00     0.044 C 
ATOM     10  O   UNL     1     -40.803  22.154 -29.854  1.00  0.00    -0.550 OA
ATOM     11  O   UNL     1     -39.310  23.081 -28.388  1.00  0.00    -0.550 OA
ENDBRANCH   7   9
ENDBRANCH   6   7
ENDBRANCH   5   6
ENDBRANCH   4   5
ENDBRANCH   3   4
ENDBRANCH   2   3
ENDBRANCH   1   2
BRANCH   1  12
ATOM     12  C   UNL     1     -34.461  22.406 -27.738  1.00  0.00     0.000 C 
BRANCH  12  13
ATOM     13  C   UNL     1     -34.290  21.255 -26.732  1.00  0.00    -0.000 C 
BRANCH  13  14
ATOM     14  C   UNL     1     -34.401  19.866 -27.386  1.00  0.00    -0.000 C 
BRANCH  14  15
ATOM     15  C   UNL     1     -35.614  19.022 -26.944  1.00  0.00    -0.000 C 
BRANCH  15  16
ATOM     16  C   UNL     1     -36.355  18.296 -28.081  1.00  0.00    -0.000 C 
BRANCH  16  17
ATOM     17  C   UNL     1     -35.428  17.900 -29.239  1.00  0.00    -0.000 C 
BRANCH  17  18
ATOM     18  C   UNL     1     -36.005  16.714 -30.022  1.00  0.00    -0.003 C 
ATOM     19  C   UNL     1     -37.531  16.737 -30.013  1.00  0.00     0.004 C 
ENDBRANCH  17  18
ENDBRANCH  16  17
ENDBRANCH  15  16
ENDBRANCH  14  15
ENDBRANCH  13  14
ENDBRANCH  12  13
ENDBRANCH   1  12
TORSDOF 14
ENDMDL
MODEL 2
REMARK VINA RESULT:    -4.433      2.888      5.489
REMARK INTER + INTRA:         -10.618
REMARK INTER:                  -8.297
REMARK INTRA:                  -2.322
REMARK UNBOUND:                -2.557
REMARK SMILES CCCCCCCCCCCCCC[C@H](C)C(=O)[O-]
REMARK SMILES IDX 9 1 10 2 11 3 12 4 13 5 14 6 15 7 16 8 17 9 18 10 19 11 8 12
REMARK SMILES IDX 7 13 6 14 5 15 4 16 3 17 2 18 1 19
REMARK H PARENT
REMARK Flexibility Score: inf
ROOT
ATOM      1  C   UNL     1     -34.455  19.759 -30.400  1.00  0.00     0.000 C 
ENDROOT
BRANCH   1   2
ATOM      2  C   UNL     1     -34.258  19.176 -28.988  1.00  0.00     0.000 C 
BRANCH   2   3
ATOM      3  C   UNL     1     -34.716  20.130 -27.874  1.00  0.00     0.000 C 
BRANCH   3   4
ATOM      4  C   UNL     1     -36.080  19.709 -27.316  1.00  0.00     0.000 C 
BRANCH   4   5
ATOM      5  C   UNL     1     -36.432  18.277 -27.745  1.00  0.00     0.001 C 
BRANCH   5   6
ATOM      6  C   UNL     1     -37.707  18.193 -28.606  1.00  0.00     0.009 C 
BRANCH   6   7
ATOM      7  C   UNL     1     -37.478  17.594 -30.014  1.00  0.00     0.032 C 
ATOM      8  C   UNL     1     -38.812  17.419 -30.748  1.00  0.00     0.014 C 
BRANCH   7   9
ATOM      9  C   UNL     1     -36.776  16.265 -29.950  1.00  0.00     0.044 C 
ATOM     10  O   UNL     1     -37.311  15.297 -29.347  1.00  0.00    -0.550 OA
ATOM     11  O   UNL     1     -35.519  16.103 -30.521  1.00  0.00    -0.550 OA
ENDBRANCH   7   9
ENDBRANCH   6   7
ENDBRANCH   5   6
ENDBRANCH   4   5
ENDBRANCH   3   4
ENDBRANCH   2   3
ENDBRANCH   1   2
BRANCH   1  12
ATOM     12  C   UNL     1     -35.406  20.966 -30.485  1.00  0.00     0.000 C 
BRANCH  12  13
ATOM     13  C   UNL     1     -36.367  20.890 -31.683  1.00  0.00    -0.000 C 
BRANCH  13  14
ATOM     14  C   UNL     1     -37.848  20.980 -31.271  1.00  0.00    -0.000 C 
BRANCH  14  15
ATOM     15  C   UNL     1     -38.112  21.617 -29.891  1.00  0.00    -0.000 C 
BRANCH  15  16
ATOM     16  C   UNL     1     -39.489  21.302 -29.278  1.00  0.00    -0.000 C 
BRANCH  16  17
ATOM     17  C   UNL     1     -40.344  22.557 -29.058  1.00  0.00    -0.000 C 
BRANCH  17  18
ATOM     18  C   UNL     1     -41.334  22.756 -30.212  1.00  0.00    -0.003 C 
ATOM     19  C   UNL     1     -42.500  23.647 -29.792  1.00  0.00     0.004 C 
ENDBRANCH  17  18
ENDBRANCH  16  17
ENDBRANCH  15  16
ENDBRANCH  14  15
ENDBRANCH  13  14
ENDBRANCH  12  13
ENDBRANCH   1  12
TORSDOF 14
ENDMDL
MODEL 3
REMARK VINA RESULT:    -4.421      1.523      2.308
REMARK INTER + INTRA:         -10.596
REMARK INTER:                  -8.365
REMARK INTRA:                  -2.230
REMARK UNBOUND:                -2.557
REMARK SMILES CCCCCCCCCCCCCC[C@H](C)C(=O)[O-]
REMARK SMILES IDX 9 1 10 2 11 3 12 4 13 5 14 6 15 7 16 8 17 9 18 10 19 11 8 12
REMARK SMILES IDX 7 13 6 14 5 15 4 16 3 17 2 18 1 19
REMARK H PARENT
REMARK Flexibility Score: inf
ROOT
ATOM      1  C   UNL     1     -34.150  21.130 -28.784  1.00  0.00     0.000 C 
ENDROOT
BRANCH   1   2
ATOM      2  C   UNL     1     -34.549  22.606 -28.971  1.00  0.00     0.000 C 
BRANCH   2   3
ATOM      3  C   UNL     1     -35.618  22.808 -30.056  1.00  0.00     0.000 C 
BRANCH   3   4
ATOM      4  C   UNL     1     -35.729  21.571 -30.955  1.00  0.00     0.000 C 
BRANCH   4   5
ATOM      5  C   UNL     1     -37.149  20.989 -30.918  1.00  0.00     0.001 C 
BRANCH   5   6
ATOM      6  C   UNL     1     -37.745  20.922 -29.498  1.00  0.00     0.009 C 
BRANCH   6   7
ATOM      7  C   UNL     1     -39.277  20.706 -29.468  1.00  0.00     0.032 C 
ATOM      8  C   UNL     1     -40.004  22.039 -29.259  1.00  0.00     0.014 C 
BRANCH   7   9
ATOM      9  C   UNL     1     -39.688  19.749 -28.381  1.00  0.00     0.044 C 
ATOM     10  O   UNL     1     -40.908  19.578 -28.120  1.00  0.00    -0.550 OA
ATOM     11  O   UNL     1     -38.727  19.079 -27.632  1.00  0.00    -0.550 OA
ENDBRANCH   7   9
ENDBRANCH   6   7
ENDBRANCH   5   6
ENDBRANCH   4   5
ENDBRANCH   3   4
ENDBRANCH   2   3
ENDBRANCH   1   2
BRANCH   1  12
ATOM     12  C   UNL     1     -34.648  20.476 -27.484  1.00  0.00     0.000 C 
BRANCH  12  13
ATOM     13  C   UNL     1     -35.105  19.021 -27.681  1.00  0.00    -0.000 C 
BRANCH  13  14
ATOM     14  C   UNL     1     -34.342  18.300 -28.808  1.00  0.00    -0.000 C 
BRANCH  14  15
ATOM     15  C   UNL     1     -35.182  17.946 -30.053  1.00  0.00    -0.000 C 
BRANCH  15  16
ATOM     16  C   UNL     1     -35.741  16.512 -30.077  1.00  0.00    -0.000 C 
BRANCH  16  17
ATOM     17  C   UNL     1     -37.242  16.453 -29.758  1.00  0.00    -0.000 C 
BRANCH  17  18
ATOM     18  C   UNL     1     -38.023  17.464 -30.605  1.00  0.00    -0.003 C 
ATOM     19  C   UNL     1     -39.297  16.843 -31.171  1.00  0.00     0.004 C 
ENDBRANCH  17  18
ENDBRANCH  16  17
ENDBRANCH  15  16
ENDBRANCH  14  15
ENDBRANCH  13  14
ENDBRANCH  12  13
ENDBRANCH   1  12
TORSDOF 14
ENDMDL
MODEL 4
REMARK VINA RESULT:    -4.410      2.767      4.866
REMARK INTER + INTRA:         -10.576
REMARK INTER:                  -8.226
REMARK INTRA:                  -2.350
REMARK UNBOUND:                -2.557
REMARK SMILES CCCCCCCCCCCCCC[C@H](C)C(=O)[O-]
REMARK SMILES IDX 9 1 10 2 11 3 12 4 13 5 14 6 15 7 16 8 17 9 18 10 19 11 8 12
REMARK SMILES IDX 7 13 6 14 5 15 4 16 3 17 2 18 1 19
REMARK H PARENT
REMARK Flexibility Score: inf
ROOT
ATOM      1  C   UNL     1     -35.274  21.809 -28.098  1.00  0.00     0.000 C 
ENDROOT
BRANCH   1   2
ATOM      2  C   UNL     1     -34.284  21.348 -27.012  1.00  0.00     0.000 C 
BRANCH   2   3
ATOM      3  C   UNL     1     -34.524  19.901 -26.554  1.00  0.00     0.000 C 
BRANCH   3   4
ATOM      4  C   UNL     1     -35.167  19.071 -27.671  1.00  0.00     0.000 C 
BRANCH   4   5
ATOM      5  C   UNL     1     -36.600  18.663 -27.298  1.00  0.00     0.001 C 
BRANCH   5   6
ATOM      6  C   UNL     1     -37.121  17.459 -28.106  1.00  0.00     0.009 C 
BRANCH   6   7
ATOM      7  C   UNL     1     -36.887  17.574 -29.631  1.00  0.00     0.032 C 
ATOM      8  C   UNL     1     -38.186  17.301 -30.397  1.00  0.00     0.014 C 
BRANCH   7   9
ATOM      9  C   UNL     1     -35.827  16.620 -30.110  1.00  0.00     0.044 C 
ATOM     10  O   UNL     1     -34.755  17.063 -30.602  1.00  0.00    -0.550 OA
ATOM     11  O   UNL     1     -36.036  15.247 -30.051  1.00  0.00    -0.550 OA
ENDBRANCH   7   9
ENDBRANCH   6   7
ENDBRANCH   5   6
ENDBRANCH   4   5
ENDBRANCH   3   4
ENDBRANCH   2   3
ENDBRANCH   1   2
BRANCH   1  12
ATOM     12  C   UNL     1     -34.691  22.765 -29.154  1.00  0.00     0.000 C 
BRANCH  12  13
ATOM     13  C   UNL     1     -34.948  22.294 -30.595  1.00  0.00    -0.000 C 
BRANCH  13  14
ATOM     14  C   UNL     1     -35.822  21.029 -30.666  1.00  0.00    -0.000 C 
BRANCH  14  15
ATOM     15  C   UNL     1     -37.004  21.097 -31.655  1.00  0.00    -0.000 C 
BRANCH  15  16
ATOM     16  C   UNL     1     -38.388  20.820 -31.040  1.00  0.00    -0.000 C 
BRANCH  16  17
ATOM     17  C   UNL     1     -38.415  21.025 -29.519  1.00  0.00    -0.000 C 
BRANCH  17  18
ATOM     18  C   UNL     1     -39.856  21.042 -28.994  1.00  0.00    -0.003 C 
ATOM     19  C   UNL     1     -40.218  19.716 -28.332  1.00  0.00     0.004 C 
ENDBRANCH  17  18
ENDBRANCH  16  17
ENDBRANCH  15  16
ENDBRANCH  14  15
ENDBRANCH  13  14
ENDBRANCH  12  13
ENDBRANCH   1  12
TORSDOF 14
ENDMDL
MODEL 5
REMARK VINA RESULT:    -4.399      0.816      1.607
REMARK INTER + INTRA:         -10.555
REMARK INTER:                  -7.823
REMARK INTRA:                  -2.732
REMARK UNBOUND:                -2.557
REMARK SMILES CCCCCCCCCCCCCC[C@H](C)C(=O)[O-]
REMARK SMILES IDX 9 1 10 2 11 3 12 4 13 5 14 6 15 7 16 8 17 9 18 10 19 11 8 12
REMARK SMILES IDX 7 13 6 14 5 15 4 16 3 17 2 18 1 19
REMARK H PARENT
REMARK Flexibility Score: inf
ROOT
ATOM      1  C   UNL     1     -34.520  21.547 -28.152  1.00  0.00     0.000 C 
ENDROOT
BRANCH   1   2
ATOM      2  C   UNL     1     -33.918  20.977 -29.449  1.00  0.00     0.000 C 
BRANCH   2   3
ATOM      3  C   UNL     1     -34.927  20.918 -30.606  1.00  0.00     0.000 C 
BRANCH   3   4
ATOM      4  C   UNL     1     -36.304  21.423 -30.160  1.00  0.00     0.000 C 
BRANCH   4   5
ATOM      5  C   UNL     1     -37.376  21.096 -31.209  1.00  0.00     0.001 C 
BRANCH   5   6
ATOM      6  C   UNL     1     -38.585  20.334 -30.630  1.00  0.00     0.009 C 
BRANCH   6   7
ATOM      7  C   UNL     1     -38.952  20.742 -29.184  1.00  0.00     0.032 C 
ATOM      8  C   UNL     1     -39.843  19.677 -28.534  1.00  0.00     0.014 C 
BRANCH   7   9
ATOM      9  C   UNL     1     -39.663  22.068 -29.139  1.00  0.00     0.044 C 
ATOM     10  O   UNL     1     -39.309  22.945 -28.306  1.00  0.00    -0.550 OA
ATOM     11  O   UNL     1     -40.737  22.321 -29.984  1.00  0.00    -0.550 OA
ENDBRANCH   7   9
ENDBRANCH   6   7
ENDBRANCH   5   6
ENDBRANCH   4   5
ENDBRANCH   3   4
ENDBRANCH   2   3
ENDBRANCH   1   2
BRANCH   1  12
ATOM     12  C   UNL     1     -34.117  20.811 -26.862  1.00  0.00     0.000 C 
BRANCH  12  13
ATOM     13  C   UNL     1     -34.698  19.389 -26.777  1.00  0.00    -0.000 C 
BRANCH  13  14
ATOM     14  C   UNL     1     -36.169  19.314 -27.227  1.00  0.00    -0.000 C 
BRANCH  14  15
ATOM     15  C   UNL     1     -36.562  18.031 -27.987  1.00  0.00    -0.000 C 
BRANCH  15  16
ATOM     16  C   UNL     1     -35.690  17.706 -29.214  1.00  0.00    -0.000 C 
BRANCH  16  17
ATOM     17  C   UNL     1     -36.512  17.230 -30.420  1.00  0.00    -0.000 C 
BRANCH  17  18
ATOM     18  C   UNL     1     -37.912  16.779 -29.986  1.00  0.00    -0.003 C 
ATOM     19  C   UNL     1     -38.947  17.071 -31.069  1.00  0.00     0.004 C 
ENDBRANCH  17  18
ENDBRANCH  16  17
ENDBRANCH  15  16
ENDBRANCH  14  15
ENDBRANCH  13  14
ENDBRANCH  12  13
ENDBRANCH   1  12
TORSDOF 14
ENDMDL
MODEL 6
REMARK VINA RESULT:    -4.342      2.921      5.038
REMARK INTER + INTRA:         -10.452
REMARK INTER:                  -7.765
REMARK INTRA:                  -2.687
REMARK UNBOUND:                -2.557
REMARK SMILES CCCCCCCCCCCCCC[C@H](C)C(=O)[O-]
REMARK SMILES IDX 9 1 10 2 11 3 12 4 13 5 14 6 15 7 16 8 17 9 18 10 19 11 8 12
REMARK SMILES IDX 7 13 6 14 5 15 4 16 3 17 2 18 1 19
REMARK H PARENT
REMARK Flexibility Score: inf
ROOT
ATOM      1  C   UNL     1     -38.432  21.198 -30.959  1.00  0.00     0.000 C 
ENDROOT
BRANCH   1   2
ATOM      2  C   UNL     1     -38.568  21.367 -29.434  1.00  0.00     0.000 C 
BRANCH   2   3
ATOM      3  C   UNL     1     -39.841  20.719 -28.869  1.00  0.00     0.000 C 
BRANCH   3   4
ATOM      4  C   UNL     1     -39.509  19.438 -28.096  1.00  0.00     0.000 C 
BRANCH   4   5
ATOM      5  C   UNL     1     -37.992  19.205 -28.041  1.00  0.00     0.001 C 
BRANCH   5   6
ATOM      6  C   UNL     1     -37.587  17.747 -28.331  1.00  0.00     0.009 C 
BRANCH   6   7
ATOM      7  C   UNL     1     -37.277  17.465 -29.821  1.00  0.00     0.032 C 
ATOM      8  C   UNL     1     -38.576  17.331 -30.625  1.00  0.00     0.014 C 
BRANCH   7   9
ATOM      9  C   UNL     1     -36.462  16.212 -29.997  1.00  0.00     0.044 C 
ATOM     10  O   UNL     1     -36.884  15.116 -29.542  1.00  0.00    -0.550 OA
ATOM     11  O   UNL     1     -35.223  16.260 -30.626  1.00  0.00    -0.550 OA
ENDBRANCH   7   9
ENDBRANCH   6   7
ENDBRANCH   5   6
ENDBRANCH   4   5
ENDBRANCH   3   4
ENDBRANCH   2   3
ENDBRANCH   1   2
BRANCH   1  12
ATOM     12  C   UNL     1     -37.105  20.580 -31.435  1.00  0.00     0.000 C 
BRANCH  12  13
ATOM     13  C   UNL     1     -35.994  21.625 -31.631  1.00  0.00    -0.000 C 
BRANCH  13  14
ATOM     14  C   UNL     1     -34.612  21.124 -31.173  1.00  0.00    -0.000 C 
BRANCH  14  15
ATOM     15  C   UNL     1     -34.611  19.765 -30.443  1.00  0.00    -0.000 C 
BRANCH  15  16
ATOM     16  C   UNL     1     -34.408  19.843 -28.919  1.00  0.00    -0.000 C 
BRANCH  16  17
ATOM     17  C   UNL     1     -34.116  21.268 -28.428  1.00  0.00    -0.000 C 
BRANCH  17  18
ATOM     18  C   UNL     1     -35.317  21.843 -27.668  1.00  0.00    -0.003 C 
ATOM     19  C   UNL     1     -35.671  23.240 -28.171  1.00  0.00     0.004 C 
ENDBRANCH  17  18
ENDBRANCH  16  17
ENDBRANCH  15  16
ENDBRANCH  14  15
ENDBRANCH  13  14
ENDBRANCH  12  13
ENDBRANCH   1  12
TORSDOF 14
ENDMDL
MODEL 7
REMARK VINA RESULT:    -4.229     14.880     17.100
REMARK INTER + INTRA:         -10.247
REMARK INTER:                  -7.794
REMARK INTRA:                  -2.452
REMARK UNBOUND:                -2.557
REMARK SMILES CCCCCCCCCCCCCC[C@H](C)C(=O)[O-]
REMARK SMILES IDX 9 1 10 2 11 3 12 4 13 5 14 6 15 7 16 8 17 9 18 10 19 11 8 12
REMARK SMILES IDX 7 13 6 14 5 15 4 16 3 17 2 18 1 19
REMARK H PARENT
REMARK Flexibility Score: inf
ROOT
ATOM      1  C   UNL     1     -48.072   8.170 -33.332  1.00  0.00     0.000 C 
ENDROOT
BRANCH   1   2
ATOM      2  C   UNL     1     -49.233   9.152 -33.087  1.00  0.00     0.000 C 
BRANCH   2   3
ATOM      3  C   UNL     1     -50.568   8.446 -32.803  1.00  0.00     0.000 C 
BRANCH   3   4
ATOM      4  C   UNL     1     -51.391   9.222 -31.768  1.00  0.00     0.000 C 
BRANCH   4   5
ATOM      5  C   UNL     1     -51.329  10.732 -32.036  1.00  0.00     0.001 C 
BRANCH   5   6
ATOM      6  C   UNL     1     -52.301  11.548 -31.160  1.00  0.00     0.009 C 
BRANCH   6   7
ATOM      7  C   UNL     1     -51.681  12.051 -29.835  1.00  0.00     0.032 C 
ATOM      8  C   UNL     1     -52.696  11.944 -28.691  1.00  0.00     0.014 C 
BRANCH   7   9
ATOM      9  C   UNL     1     -51.212  13.477 -29.940  1.00  0.00     0.044 C 
ATOM     10  O   UNL     1     -50.199  13.759 -30.633  1.00  0.00    -0.550 OA
ATOM     11  O   UNL     1     -51.867  14.487 -29.245  1.00  0.00    -0.550 OA
ENDBRANCH   7   9
ENDBRANCH   6   7
ENDBRANCH   5   6
ENDBRANCH   4   5
ENDBRANCH   3   4
ENDBRANCH   2   3
ENDBRANCH   1   2
BRANCH   1  12
ATOM     12  C   UNL     1     -48.416   6.684 -33.128  1.00  0.00     0.000 C 
BRANCH  12  13
ATOM     13  C   UNL     1     -47.841   6.108 -31.823  1.00  0.00    -0.000 C 
BRANCH  13  14
ATOM     14  C   UNL     1     -48.870   6.074 -30.678  1.00  0.00    -0.000 C 
BRANCH  14  15
ATOM     15  C   UNL     1     -48.713   7.182 -29.617  1.00  0.00    -0.000 C 
BRANCH  15  16
ATOM     16  C   UNL     1     -47.313   7.818 -29.536  1.00  0.00    -0.000 C 
BRANCH  16  17
ATOM     17  C   UNL     1     -47.313   9.308 -29.905  1.00  0.00    -0.000 C 
BRANCH  17  18
ATOM     18  C   UNL     1     -48.638   9.971 -29.507  1.00  0.00    -0.003 C 
ATOM     19  C   UNL     1     -48.397  11.285 -28.770  1.00  0.00     0.004 C 
ENDBRANCH  17  18
ENDBRANCH  16  17
ENDBRANCH  15  16
ENDBRANCH  14  15
ENDBRANCH  13  14
ENDBRANCH  12  13
ENDBRANCH   1  12
TORSDOF 14
ENDMDL
MODEL 8
REMARK VINA RESULT:    -4.226      2.303      4.166
REMARK INTER + INTRA:         -10.242
REMARK INTER:                  -7.879
REMARK INTRA:                  -2.363
REMARK UNBOUND:                -2.557
REMARK SMILES CCCCCCCCCCCCCC[C@H](C)C(=O)[O-]
REMARK SMILES IDX 9 1 10 2 11 3 12 4 13 5 14 6 15 7 16 8 17 9 18 10 19 11 8 12
REMARK SMILES IDX 7 13 6 14 5 15 4 16 3 17 2 18 1 19
REMARK H PARENT
REMARK Flexibility Score: inf
ROOT
ATOM      1  C   UNL     1     -34.297  23.143 -30.002  1.00  0.00     0.000 C 
ENDROOT
BRANCH   1   2
ATOM      2  C   UNL     1     -34.238  22.073 -31.107  1.00  0.00     0.000 C 
BRANCH   2   3
ATOM      3  C   UNL     1     -35.627  21.640 -31.601  1.00  0.00     0.000 C 
BRANCH   3   4
ATOM      4  C   UNL     1     -36.064  20.332 -30.933  1.00  0.00     0.000 C 
BRANCH   4   5
ATOM      5  C   UNL     1     -34.854  19.559 -30.389  1.00  0.00     0.001 C 
BRANCH   5   6
ATOM      6  C   UNL     1     -35.243  18.360 -29.502  1.00  0.00     0.009 C 
BRANCH   6   7
ATOM      7  C   UNL     1     -36.743  18.316 -29.127  1.00  0.00     0.032 C 
ATOM      8  C   UNL     1     -36.916  18.249 -27.605  1.00  0.00     0.014 C 
BRANCH   7   9
ATOM      9  C   UNL     1     -37.443  17.138 -29.750  1.00  0.00     0.044 C 
ATOM     10  O   UNL     1     -37.060  15.967 -29.492  1.00  0.00    -0.550 OA
ATOM     11  O   UNL     1     -38.489  17.334 -30.645  1.00  0.00    -0.550 OA
ENDBRANCH   7   9
ENDBRANCH   6   7
ENDBRANCH   5   6
ENDBRANCH   4   5
ENDBRANCH   3   4
ENDBRANCH   2   3
ENDBRANCH   1   2
BRANCH   1  12
ATOM     12  C   UNL     1     -33.914  22.655 -28.594  1.00  0.00     0.000 C 
BRANCH  12  13
ATOM     13  C   UNL     1     -35.134  22.419 -27.688  1.00  0.00    -0.000 C 
BRANCH  13  14
ATOM     14  C   UNL     1     -36.418  23.073 -28.229  1.00  0.00    -0.000 C 
BRANCH  14  15
ATOM     15  C   UNL     1     -37.585  22.105 -28.511  1.00  0.00    -0.000 C 
BRANCH  15  16
ATOM     16  C   UNL     1     -38.968  22.769 -28.643  1.00  0.00    -0.000 C 
BRANCH  16  17
ATOM     17  C   UNL     1     -40.020  21.836 -29.259  1.00  0.00    -0.000 C 
BRANCH  17  18
ATOM     18  C   UNL     1     -39.578  20.371 -29.162  1.00  0.00    -0.003 C 
ATOM     19  C   UNL     1     -40.450  19.595 -28.178  1.00  0.00     0.004 C 
ENDBRANCH  17  18
ENDBRANCH  16  17
ENDBRANCH  15  16
ENDBRANCH  14  15
ENDBRANCH  13  14
ENDBRANCH  12  13
ENDBRANCH   1  12
TORSDOF 14
ENDMDL
MODEL 9
REMARK VINA RESULT:    -4.027     14.781     16.187
REMARK INTER + INTRA:          -9.879
REMARK INTER:                  -7.792
REMARK INTRA:                  -2.087
REMARK UNBOUND:                -2.557
REMARK SMILES CCCCCCCCCCCCCC[C@H](C)C(=O)[O-]
REMARK SMILES IDX 9 1 10 2 11 3 12 4 13 5 14 6 15 7 16 8 17 9 18 10 19 11 8 12
REMARK SMILES IDX 7 13 6 14 5 15 4 16 3 17 2 18 1 19
REMARK H PARENT
REMARK Flexibility Score: inf
ROOT
ATOM      1  C   UNL     1     -48.701  10.426 -28.853  1.00  0.00     0.000 C 
ENDROOT
BRANCH   1   2
ATOM      2  C   UNL     1     -48.930  11.925 -29.123  1.00  0.00     0.000 C 
BRANCH   2   3
ATOM      3  C   UNL     1     -50.369  12.245 -29.554  1.00  0.00     0.000 C 
BRANCH   3   4
ATOM      4  C   UNL     1     -50.388  13.299 -30.667  1.00  0.00     0.000 C 
BRANCH   4   5
ATOM      5  C   UNL     1     -51.756  13.340 -31.364  1.00  0.00     0.001 C 
BRANCH   5   6
ATOM      6  C   UNL     1     -52.775  14.253 -30.655  1.00  0.00     0.009 C 
BRANCH   6   7
ATOM      7  C   UNL     1     -52.133  15.410 -29.853  1.00  0.00     0.032 C 
ATOM      8  C   UNL     1     -52.826  15.575 -28.496  1.00  0.00     0.014 C 
BRANCH   7   9
ATOM      9  C   UNL     1     -52.201  16.716 -30.599  1.00  0.00     0.044 C 
ATOM     10  O   UNL     1     -53.309  17.146 -31.016  1.00  0.00    -0.550 OA
ATOM     11  O   UNL     1     -51.043  17.435 -30.868  1.00  0.00    -0.550 OA
ENDBRANCH   7   9
ENDBRANCH   6   7
ENDBRANCH   5   6
ENDBRANCH   4   5
ENDBRANCH   3   4
ENDBRANCH   2   3
ENDBRANCH   1   2
BRANCH   1  12
ATOM     12  C   UNL     1     -47.537   9.790 -29.633  1.00  0.00     0.000 C 
BRANCH  12  13
ATOM     13  C   UNL     1     -47.573   8.252 -29.614  1.00  0.00    -0.000 C 
BRANCH  13  14
ATOM     14  C   UNL     1     -47.689   7.638 -31.022  1.00  0.00    -0.000 C 
BRANCH  14  15
ATOM     15  C   UNL     1     -47.659   8.647 -32.187  1.00  0.00    -0.000 C 
BRANCH  15  16
ATOM     16  C   UNL     1     -48.968   8.758 -32.990  1.00  0.00    -0.000 C 
BRANCH  16  17
ATOM     17  C   UNL     1     -49.857   9.920 -32.525  1.00  0.00    -0.000 C 
BRANCH  17  18
ATOM     18  C   UNL     1     -51.273   9.432 -32.200  1.00  0.00    -0.003 C 
ATOM     19  C   UNL     1     -51.323   8.750 -30.835  1.00  0.00     0.004 C 
ENDBRANCH  17  18
ENDBRANCH  16  17
ENDBRANCH  15  16
ENDBRANCH  14  15
ENDBRANCH  13  14
ENDBRANCH  12  13
ENDBRANCH   1  12
TORSDOF 14
ENDMDL
