MODEL 1
REMARK VINA RESULT:    67.118      0.000      0.000
REMARK INTER + INTRA:         147.776
REMARK INTER:                 141.669
REMARK INTRA:                   6.107
REMARK UNBOUND:                 6.107
REMARK SMILES CCC(=O)CCCCC[C@H]1NC(=O)[C@H]2CCCCN2C(=O)[C@H]([C@H](C)CC)NC(=O)[C@@H](Cc2cn(OC)c3ccccc23)NC1=O
REMARK SMILES IDX 9 1 10 2 44 3 43 4 45 6 30 7 28 8 27 9 29 11 22 12 23 14
REMARK SMILES IDX 24 15 25 16 26 17 31 18 32 19 33 20 42 21 34 22 37 23 41 24
REMARK SMILES IDX 38 25 40 26 39 27 35 28 36 29 11 30 12 31 13 33 14 34 19 35
REMARK SMILES IDX 15 36 18 37 16 38 17 39 20 40 21 41 8 43 7 44 6 45 5 46 3 47
REMARK SMILES IDX 4 48 2 49 1 50
REMARK H PARENT 43 5 27 10 11 32
REMARK Flexibility Score: 80.00
ROOT
ATOM      1  C   UNL     1     -29.971  13.346  17.643  1.00  0.00     0.035 C 
ENDROOT
BRANCH   1   2
ATOM      2  C   UNL     1     -31.181  12.396  17.476  1.00  0.00     0.171 C 
BRANCH   2   3
ATOM      3  C   UNL     1     -32.484  13.118  17.261  1.00  0.00     0.243 C 
ATOM      4  N   UNL     1     -32.912  13.417  15.921  1.00  0.00    -0.342 N 
ATOM      5  H   UNL     1     -32.182  13.453  15.172  1.00  0.00     0.164 HD
ATOM      6  O   UNL     1     -33.244  13.361  18.236  1.00  0.00    -0.273 OA
BRANCH   4   7
ATOM      7  C   UNL     1     -34.312  13.313  15.489  1.00  0.00     0.175 C 
BRANCH   7   8
ATOM      8  C   UNL     1     -35.090  12.493  16.500  1.00  0.00     0.243 C 
ATOM      9  N   UNL     1     -34.538  11.331  17.155  1.00  0.00    -0.342 N 
ATOM     10  H   UNL     1     -33.505  11.181  17.130  1.00  0.00     0.164 HD
ATOM     11  O   UNL     1     -36.276  12.840  16.729  1.00  0.00    -0.273 OA
BRANCH   9  12
ATOM     12  C   UNL     1     -35.330  10.203  17.676  1.00  0.00     0.174 CG0
ATOM     13  G   UNL     1     -35.310  10.166  19.196  1.00  0.00     0.000 G0
BRANCH  12  14
ATOM     14  C   UNL     1     -35.075   8.866  16.907  1.00  0.00     0.018 C 
ATOM     15  C   UNL     1     -33.595   8.583  16.621  1.00  0.00     0.010 C 
BRANCH  14  16
ATOM     16  C   UNL     1     -35.860   8.806  15.570  1.00  0.00     0.002 C 
ATOM     17  C   UNL     1     -35.043   8.233  14.408  1.00  0.00     0.004 C 
ENDBRANCH  14  16
ENDBRANCH  12  14
ENDBRANCH   9  12
ENDBRANCH   7   8
BRANCH   7  18
ATOM     18  C   UNL     1     -34.910  14.704  15.182  1.00  0.00     0.073 C 
BRANCH  18  19
ATOM     19  C   UNL     1     -35.154  15.539  16.414  1.00  0.00    -0.016 A 
ATOM     20  C   UNL     1     -34.355  16.565  16.926  1.00  0.00     0.134 A 
ATOM     21  C   UNL     1     -36.328  15.584  17.147  1.00  0.00     0.006 A 
ATOM     22  N   UNL     1     -34.999  17.183  17.945  1.00  0.00    -0.191 N 
ATOM     23  C   UNL     1     -36.195  16.589  18.073  1.00  0.00     0.087 A 
ATOM     24  C   UNL     1     -37.509  14.850  17.030  1.00  0.00     0.011 A 
ATOM     25  C   UNL     1     -37.233  16.927  18.944  1.00  0.00     0.030 A 
ATOM     26  C   UNL     1     -38.570  15.161  17.900  1.00  0.00     0.001 A 
ATOM     27  C   UNL     1     -38.434  16.197  18.852  1.00  0.00     0.002 A 
BRANCH  22  28
ATOM     28  O   UNL     1     -34.555  18.262  18.687  1.00  0.00    -0.417 OA
ATOM     29  C   UNL     1     -33.174  18.486  18.953  1.00  0.00     0.313 C 
ENDBRANCH  22  28
ENDBRANCH  18  19
ENDBRANCH   7  18
ENDBRANCH   4   7
ENDBRANCH   2   3
BRANCH   2  30
ATOM     30  N   UNL     1     -31.326  11.462  18.606  1.00  0.00    -0.343 N 
ATOM     31  C   UNL     1     -32.562  11.203  19.299  1.00  0.00     0.243 C 
ATOM     32  H   UNL     1     -30.570  10.749  18.715  1.00  0.00     0.164 HD
ATOM     33  O   UNL     1     -33.351  12.148  19.573  1.00  0.00    -0.273 OA
BRANCH  31  34
ATOM     34  C   UNL     1     -32.888   9.802  19.774  1.00  0.00     0.174 C 
ATOM     35  N   UNL     1     -34.329   9.640  20.076  1.00  0.00    -0.329 N 
ATOM     36  C   UNL     1     -32.014   9.462  20.997  1.00  0.00     0.035 C 
ATOM     37  C   UNL     1     -34.733   9.247  21.433  1.00  0.00     0.120 C 
ATOM     38  C   UNL     1     -32.437   8.133  21.646  1.00  0.00     0.004 C 
ATOM     39  C   UNL     1     -33.963   7.996  21.854  1.00  0.00     0.022 C 
BRANCH  35  40
ATOM     40  C   UNL     1     -35.332  10.179  19.196  1.00  0.00     0.246 CG0
ATOM     41  O   UNL     1     -36.399  10.623  19.698  1.00  0.00    -0.272 OA
ATOM     42  G   UNL     1     -35.216  10.182  17.680  1.00  0.00     0.000 G0
ENDBRANCH  35  40
ENDBRANCH  31  34
ENDBRANCH   2  30
ENDBRANCH   1   2
BRANCH   1  43
ATOM     43  C   UNL     1     -29.118  13.487  16.366  1.00  0.00     0.003 C 
BRANCH  43  44
ATOM     44  C   UNL     1     -27.681  13.949  16.648  1.00  0.00     0.001 C 
BRANCH  44  45
ATOM     45  C   UNL     1     -27.618  14.750  17.957  1.00  0.00     0.008 C 
BRANCH  45  46
ATOM     46  C   UNL     1     -26.220  15.334  18.218  1.00  0.00     0.075 C 
BRANCH  46  47
ATOM     47  C   UNL     1     -26.188  16.246  19.421  1.00  0.00     0.132 C 
ATOM     48  O   UNL     1     -25.352  17.133  19.480  1.00  0.00    -0.300 OA
BRANCH  47  49
ATOM     49  C   UNL     1     -27.118  16.031  20.589  1.00  0.00     0.072 C 
ATOM     50  C   UNL     1     -26.478  16.488  21.890  1.00  0.00     0.012 C 
ENDBRANCH  47  49
ENDBRANCH  46  47
ENDBRANCH  45  46
ENDBRANCH  44  45
ENDBRANCH  43  44
ENDBRANCH   1  43
TORSDOF 12
ENDMDL
MODEL 2
REMARK VINA RESULT:    67.187      0.985      1.869
REMARK INTER + INTRA:         147.922
REMARK INTER:                 140.398
REMARK INTRA:                   7.524
REMARK UNBOUND:                 6.107
REMARK SMILES CCC(=O)CCCCC[C@H]1NC(=O)[C@H]2CCCCN2C(=O)[C@H]([C@H](C)CC)NC(=O)[C@@H](Cc2cn(OC)c3ccccc23)NC1=O
REMARK SMILES IDX 9 1 10 2 44 3 43 4 45 6 30 7 28 8 27 9 29 11 22 12 23 14
REMARK SMILES IDX 24 15 25 16 26 17 31 18 32 19 33 20 42 21 34 22 37 23 41 24
REMARK SMILES IDX 38 25 40 26 39 27 35 28 36 29 11 30 12 31 13 33 14 34 19 35
REMARK SMILES IDX 15 36 18 37 16 38 17 39 20 40 21 41 8 43 7 44 6 45 5 46 3 47
REMARK SMILES IDX 4 48 2 49 1 50
REMARK H PARENT 43 5 27 10 11 32
REMARK Flexibility Score: 80.00
ROOT
ATOM      1  C   UNL     1     -29.956  13.340  17.432  1.00  0.00     0.035 C 
ENDROOT
BRANCH   1   2
ATOM      2  C   UNL     1     -31.187  12.410  17.314  1.00  0.00     0.171 C 
BRANCH   2   3
ATOM      3  C   UNL     1     -32.486  13.153  17.148  1.00  0.00     0.243 C 
ATOM      4  N   UNL     1     -32.906  13.555  15.833  1.00  0.00    -0.342 N 
ATOM      5  H   UNL     1     -32.172  13.644  15.092  1.00  0.00     0.164 HD
ATOM      6  O   UNL     1     -33.250  13.326  18.136  1.00  0.00    -0.273 OA
BRANCH   4   7
ATOM      7  C   UNL     1     -34.305  13.492  15.388  1.00  0.00     0.175 C 
BRANCH   7   8
ATOM      8  C   UNL     1     -35.096  12.620  16.343  1.00  0.00     0.243 C 
ATOM      9  N   UNL     1     -34.502  11.534  17.086  1.00  0.00    -0.342 N 
ATOM     10  H   UNL     1     -33.462  11.489  17.168  1.00  0.00     0.164 HD
ATOM     11  O   UNL     1     -36.327  12.850  16.443  1.00  0.00    -0.273 OA
BRANCH   9  12
ATOM     12  C   UNL     1     -35.227  10.343  17.562  1.00  0.00     0.174 CG0
ATOM     13  G   UNL     1     -35.189  10.241  19.079  1.00  0.00     0.000 G0
BRANCH  12  14
ATOM     14  C   UNL     1     -34.910   9.058  16.732  1.00  0.00     0.018 C 
ATOM     15  C   UNL     1     -33.455   8.963  16.259  1.00  0.00     0.010 C 
BRANCH  14  16
ATOM     16  C   UNL     1     -35.843   8.917  15.500  1.00  0.00     0.002 C 
ATOM     17  C   UNL     1     -35.166   8.260  14.294  1.00  0.00     0.004 C 
ENDBRANCH  14  16
ENDBRANCH  12  14
ENDBRANCH   9  12
ENDBRANCH   7   8
BRANCH   7  18
ATOM     18  C   UNL     1     -34.887  14.905  15.164  1.00  0.00     0.073 C 
BRANCH  18  19
ATOM     19  C   UNL     1     -35.637  15.443  16.356  1.00  0.00    -0.016 A 
ATOM     20  C   UNL     1     -36.741  14.878  17.000  1.00  0.00     0.134 A 
ATOM     21  C   UNL     1     -35.234  16.492  17.165  1.00  0.00     0.006 A 
ATOM     22  N   UNL     1     -37.019  15.572  18.129  1.00  0.00    -0.191 N 
ATOM     23  C   UNL     1     -36.101  16.546  18.228  1.00  0.00     0.087 A 
ATOM     24  C   UNL     1     -34.148  17.362  17.063  1.00  0.00     0.011 A 
ATOM     25  C   UNL     1     -35.940  17.472  19.261  1.00  0.00     0.030 A 
ATOM     26  C   UNL     1     -33.964  18.312  18.084  1.00  0.00     0.001 A 
ATOM     27  C   UNL     1     -34.855  18.367  19.180  1.00  0.00     0.002 A 
BRANCH  22  28
ATOM     28  O   UNL     1     -38.014  15.309  19.053  1.00  0.00    -0.417 OA
ATOM     29  C   UNL     1     -39.344  15.791  18.896  1.00  0.00     0.313 C 
ENDBRANCH  22  28
ENDBRANCH  18  19
ENDBRANCH   7  18
ENDBRANCH   4   7
ENDBRANCH   2   3
BRANCH   2  30
ATOM     30  N   UNL     1     -31.304  11.480  18.450  1.00  0.00    -0.343 N 
ATOM     31  C   UNL     1     -32.513  11.251  19.199  1.00  0.00     0.243 C 
ATOM     32  H   UNL     1     -30.562  10.748  18.525  1.00  0.00     0.164 HD
ATOM     33  O   UNL     1     -33.265  12.215  19.507  1.00  0.00    -0.273 OA
BRANCH  31  34
ATOM     34  C   UNL     1     -32.852   9.858  19.689  1.00  0.00     0.174 C 
ATOM     35  N   UNL     1     -34.295   9.711  19.988  1.00  0.00    -0.329 N 
ATOM     36  C   UNL     1     -31.985   9.526  20.920  1.00  0.00     0.035 C 
ATOM     37  C   UNL     1     -34.707   9.338  21.348  1.00  0.00     0.120 C 
ATOM     38  C   UNL     1     -32.420   8.209  21.583  1.00  0.00     0.004 C 
ATOM     39  C   UNL     1     -33.948   8.087  21.787  1.00  0.00     0.022 C 
BRANCH  35  40
ATOM     40  C   UNL     1     -35.291  10.247  19.098  1.00  0.00     0.246 CG0
ATOM     41  O   UNL     1     -36.388  10.633  19.583  1.00  0.00    -0.272 OA
ATOM     42  G   UNL     1     -35.129  10.313  17.587  1.00  0.00     0.000 G0
ENDBRANCH  35  40
ENDBRANCH  31  34
ENDBRANCH   2  30
ENDBRANCH   1   2
BRANCH   1  43
ATOM     43  C   UNL     1     -28.738  12.854  16.621  1.00  0.00     0.003 C 
BRANCH  43  44
ATOM     44  C   UNL     1     -27.919  14.005  16.016  1.00  0.00     0.001 C 
BRANCH  44  45
ATOM     45  C   UNL     1     -26.895  14.532  17.031  1.00  0.00     0.008 C 
BRANCH  45  46
ATOM     46  C   UNL     1     -27.263  15.928  17.561  1.00  0.00     0.075 C 
BRANCH  46  47
ATOM     47  C   UNL     1     -26.422  16.338  18.746  1.00  0.00     0.132 C 
ATOM     48  O   UNL     1     -26.152  17.517  18.911  1.00  0.00    -0.300 OA
BRANCH  47  49
ATOM     49  C   UNL     1     -25.843  15.310  19.686  1.00  0.00     0.072 C 
ATOM     50  C   UNL     1     -26.498  15.389  21.055  1.00  0.00     0.012 C 
ENDBRANCH  47  49
ENDBRANCH  46  47
ENDBRANCH  45  46
ENDBRANCH  44  45
ENDBRANCH  43  44
ENDBRANCH   1  43
TORSDOF 12
ENDMDL
MODEL 3
REMARK VINA RESULT:    68.516      2.121      6.154
REMARK INTER + INTRA:         150.726
REMARK INTER:                 144.350
REMARK INTRA:                   6.376
REMARK UNBOUND:                 6.107
REMARK SMILES CCC(=O)CCCCC[C@H]1NC(=O)[C@H]2CCCCN2C(=O)[C@H]([C@H](C)CC)NC(=O)[C@@H](Cc2cn(OC)c3ccccc23)NC1=O
REMARK SMILES IDX 9 1 10 2 44 3 43 4 45 6 30 7 28 8 27 9 29 11 22 12 23 14
REMARK SMILES IDX 24 15 25 16 26 17 31 18 32 19 33 20 42 21 34 22 37 23 41 24
REMARK SMILES IDX 38 25 40 26 39 27 35 28 36 29 11 30 12 31 13 33 14 34 19 35
REMARK SMILES IDX 15 36 18 37 16 38 17 39 20 40 21 41 8 43 7 44 6 45 5 46 3 47
REMARK SMILES IDX 4 48 2 49 1 50
REMARK H PARENT 43 5 27 10 11 32
REMARK Flexibility Score: 80.00
ROOT
ATOM      1  C   UNL     1     -30.721  12.595  16.721  1.00  0.00     0.035 C 
ENDROOT
BRANCH   1   2
ATOM      2  C   UNL     1     -31.334  12.740  18.135  1.00  0.00     0.171 C 
BRANCH   2   3
ATOM      3  C   UNL     1     -31.883  11.451  18.685  1.00  0.00     0.243 C 
ATOM      4  N   UNL     1     -32.595  11.462  19.933  1.00  0.00    -0.342 N 
ATOM      5  H   UNL     1     -32.419  12.259  20.589  1.00  0.00     0.164 HD
ATOM      6  O   UNL     1     -31.814  10.390  18.007  1.00  0.00    -0.273 OA
BRANCH   4   7
ATOM      7  C   UNL     1     -33.792  10.646  20.176  1.00  0.00     0.175 C 
BRANCH   7   8
ATOM      8  C   UNL     1     -34.577  10.510  18.886  1.00  0.00     0.243 C 
ATOM      9  N   UNL     1     -34.106  11.030  17.625  1.00  0.00    -0.342 N 
ATOM     10  H   UNL     1     -33.098  11.289  17.531  1.00  0.00     0.164 HD
ATOM     11  O   UNL     1     -35.701   9.951  18.955  1.00  0.00    -0.273 OA
BRANCH   9  12
ATOM     12  C   UNL     1     -34.972  11.440  16.506  1.00  0.00     0.174 CG0
ATOM     13  G   UNL     1     -36.158  12.259  16.993  1.00  0.00     0.000 G0
BRANCH  12  14
ATOM     14  C   UNL     1     -35.245  10.288  15.486  1.00  0.00     0.018 C 
ATOM     15  C   UNL     1     -36.644  10.329  14.858  1.00  0.00     0.010 C 
BRANCH  14  16
ATOM     16  C   UNL     1     -35.026   8.888  16.119  1.00  0.00     0.002 C 
ATOM     17  C   UNL     1     -33.595   8.365  15.963  1.00  0.00     0.004 C 
ENDBRANCH  14  16
ENDBRANCH  12  14
ENDBRANCH   9  12
ENDBRANCH   7   8
BRANCH   7  18
ATOM     18  C   UNL     1     -33.431   9.310  20.862  1.00  0.00     0.073 C 
BRANCH  18  19
ATOM     19  C   UNL     1     -33.692   9.307  22.347  1.00  0.00    -0.016 A 
ATOM     20  C   UNL     1     -33.782  10.407  23.204  1.00  0.00     0.134 A 
ATOM     21  C   UNL     1     -34.105   8.218  23.098  1.00  0.00     0.006 A 
ATOM     22  N   UNL     1     -34.196  10.002  24.429  1.00  0.00    -0.191 N 
ATOM     23  C   UNL     1     -34.394   8.677  24.359  1.00  0.00     0.087 A 
ATOM     24  C   UNL     1     -34.288   6.881  22.747  1.00  0.00     0.011 A 
ATOM     25  C   UNL     1     -34.886   7.829  25.354  1.00  0.00     0.030 A 
ATOM     26  C   UNL     1     -34.775   6.000  23.730  1.00  0.00     0.001 A 
ATOM     27  C   UNL     1     -35.075   6.472  25.028  1.00  0.00     0.002 A 
BRANCH  22  28
ATOM     28  O   UNL     1     -34.435  10.793  25.538  1.00  0.00    -0.417 OA
ATOM     29  C   UNL     1     -35.730  10.920  26.117  1.00  0.00     0.313 C 
ENDBRANCH  22  28
ENDBRANCH  18  19
ENDBRANCH   7  18
ENDBRANCH   4   7
ENDBRANCH   2   3
BRANCH   2  30
ATOM     30  N   UNL     1     -32.380  13.775  18.194  1.00  0.00    -0.343 N 
ATOM     31  C   UNL     1     -33.604  13.746  17.436  1.00  0.00     0.243 C 
ATOM     32  H   UNL     1     -32.364  14.398  19.034  1.00  0.00     0.164 HD
ATOM     33  O   UNL     1     -33.598  13.379  16.230  1.00  0.00    -0.273 OA
BRANCH  31  34
ATOM     34  C   UNL     1     -34.896  14.231  18.059  1.00  0.00     0.174 C 
ATOM     35  N   UNL     1     -36.085  13.673  17.374  1.00  0.00    -0.329 N 
ATOM     36  C   UNL     1     -34.917  15.773  18.056  1.00  0.00     0.035 C 
ATOM     37  C   UNL     1     -37.057  14.594  16.768  1.00  0.00     0.120 C 
ATOM     38  C   UNL     1     -36.285  16.324  18.492  1.00  0.00     0.004 C 
ATOM     39  C   UNL     1     -37.485  15.637  17.800  1.00  0.00     0.022 C 
BRANCH  35  40
ATOM     40  C   UNL     1     -36.135  12.286  16.995  1.00  0.00     0.246 CG0
ATOM     41  O   UNL     1     -37.233  11.674  17.086  1.00  0.00    -0.272 OA
ATOM     42  G   UNL     1     -34.919  11.485  16.553  1.00  0.00     0.000 G0
ENDBRANCH  35  40
ENDBRANCH  31  34
ENDBRANCH   2  30
ENDBRANCH   1   2
BRANCH   1  43
ATOM     43  C   UNL     1     -29.184  12.715  16.702  1.00  0.00     0.003 C 
BRANCH  43  44
ATOM     44  C   UNL     1     -28.691  14.067  16.164  1.00  0.00     0.001 C 
BRANCH  44  45
ATOM     45  C   UNL     1     -27.336  14.435  16.786  1.00  0.00     0.008 C 
BRANCH  45  46
ATOM     46  C   UNL     1     -27.383  15.775  17.538  1.00  0.00     0.075 C 
BRANCH  46  47
ATOM     47  C   UNL     1     -26.255  15.923  18.531  1.00  0.00     0.132 C 
ATOM     48  O   UNL     1     -25.247  16.531  18.208  1.00  0.00    -0.300 OA
BRANCH  47  49
ATOM     49  C   UNL     1     -26.317  15.264  19.886  1.00  0.00     0.072 C 
ATOM     50  C   UNL     1     -26.442  16.299  20.992  1.00  0.00     0.012 C 
ENDBRANCH  47  49
ENDBRANCH  46  47
ENDBRANCH  45  46
ENDBRANCH  44  45
ENDBRANCH  43  44
ENDBRANCH   1  43
TORSDOF 12
ENDMDL
MODEL 4
REMARK VINA RESULT:    69.529      3.406      5.593
REMARK INTER + INTRA:         152.864
REMARK INTER:                 146.146
REMARK INTRA:                   6.718
REMARK UNBOUND:                 6.107
REMARK SMILES CCC(=O)CCCCC[C@H]1NC(=O)[C@H]2CCCCN2C(=O)[C@H]([C@H](C)CC)NC(=O)[C@@H](Cc2cn(OC)c3ccccc23)NC1=O
REMARK SMILES IDX 9 1 10 2 44 3 43 4 45 6 30 7 28 8 27 9 29 11 22 12 23 14
REMARK SMILES IDX 24 15 25 16 26 17 31 18 32 19 33 20 42 21 34 22 37 23 41 24
REMARK SMILES IDX 38 25 40 26 39 27 35 28 36 29 11 30 12 31 13 33 14 34 19 35
REMARK SMILES IDX 15 36 18 37 16 38 17 39 20 40 21 41 8 43 7 44 6 45 5 46 3 47
REMARK SMILES IDX 4 48 2 49 1 50
REMARK H PARENT 43 5 27 10 11 32
REMARK Flexibility Score: 80.00
ROOT
ATOM      1  C   UNL     1     -34.583  12.158  21.649  1.00  0.00     0.035 C 
ENDROOT
BRANCH   1   2
ATOM      2  C   UNL     1     -33.657  11.801  20.462  1.00  0.00     0.171 C 
BRANCH   2   3
ATOM      3  C   UNL     1     -33.624  12.857  19.390  1.00  0.00     0.243 C 
ATOM      4  N   UNL     1     -32.695  12.728  18.300  1.00  0.00    -0.342 N 
ATOM      5  H   UNL     1     -31.850  12.127  18.447  1.00  0.00     0.164 HD
ATOM      6  O   UNL     1     -34.473  13.788  19.389  1.00  0.00    -0.273 OA
BRANCH   4   7
ATOM      7  C   UNL     1     -33.036  13.078  16.915  1.00  0.00     0.175 C 
BRANCH   7   8
ATOM      8  C   UNL     1     -34.178  12.200  16.442  1.00  0.00     0.243 C 
ATOM      9  N   UNL     1     -35.100  11.559  17.350  1.00  0.00    -0.342 N 
ATOM     10  H   UNL     1     -35.148  11.892  18.339  1.00  0.00     0.164 HD
ATOM     11  O   UNL     1     -34.279  12.008  15.204  1.00  0.00    -0.273 OA
BRANCH   9  12
ATOM     12  C   UNL     1     -35.835  10.315  17.065  1.00  0.00     0.174 CG0
ATOM     13  G   UNL     1     -35.307   9.155  17.894  1.00  0.00     0.000 G0
BRANCH  12  14
ATOM     14  C   UNL     1     -36.072  10.077  15.538  1.00  0.00     0.018 C 
ATOM     15  C   UNL     1     -37.549  10.090  15.126  1.00  0.00     0.010 C 
BRANCH  14  16
ATOM     16  C   UNL     1     -35.431   8.751  15.051  1.00  0.00     0.002 C 
ATOM     17  C   UNL     1     -36.037   8.223  13.747  1.00  0.00     0.004 C 
ENDBRANCH  14  16
ENDBRANCH  12  14
ENDBRANCH   9  12
ENDBRANCH   7   8
BRANCH   7  18
ATOM     18  C   UNL     1     -33.277  14.596  16.763  1.00  0.00     0.073 C 
BRANCH  18  19
ATOM     19  C   UNL     1     -34.690  15.016  17.082  1.00  0.00    -0.016 A 
ATOM     20  C   UNL     1     -35.805  14.197  17.273  1.00  0.00     0.134 A 
ATOM     21  C   UNL     1     -35.096  16.286  17.457  1.00  0.00     0.006 A 
ATOM     22  N   UNL     1     -36.851  14.938  17.710  1.00  0.00    -0.191 N 
ATOM     23  C   UNL     1     -36.416  16.203  17.824  1.00  0.00     0.087 A 
ATOM     24  C   UNL     1     -34.387  17.485  17.543  1.00  0.00     0.011 A 
ATOM     25  C   UNL     1     -37.116  17.312  18.303  1.00  0.00     0.030 A 
ATOM     26  C   UNL     1     -35.068  18.623  18.014  1.00  0.00     0.001 A 
ATOM     27  C   UNL     1     -36.427  18.537  18.395  1.00  0.00     0.002 A 
BRANCH  22  28
ATOM     28  O   UNL     1     -38.117  14.492  18.042  1.00  0.00    -0.417 OA
ATOM     29  C   UNL     1     -39.052  15.307  18.740  1.00  0.00     0.313 C 
ENDBRANCH  22  28
ENDBRANCH  18  19
ENDBRANCH   7  18
ENDBRANCH   4   7
ENDBRANCH   2   3
BRANCH   2  30
ATOM     30  N   UNL     1     -33.996  10.503  19.851  1.00  0.00    -0.343 N 
ATOM     31  C   UNL     1     -34.067   9.256  20.567  1.00  0.00     0.243 C 
ATOM     32  H   UNL     1     -34.486  10.543  18.929  1.00  0.00     0.164 HD
ATOM     33  O   UNL     1     -33.205   8.972  21.442  1.00  0.00    -0.273 OA
BRANCH  31  34
ATOM     34  C   UNL     1     -35.136   8.240  20.220  1.00  0.00     0.174 C 
ATOM     35  N   UNL     1     -35.941   8.659  19.049  1.00  0.00    -0.329 N 
ATOM     36  C   UNL     1     -36.025   7.993  21.455  1.00  0.00     0.035 C 
ATOM     37  C   UNL     1     -37.392   8.828  19.205  1.00  0.00     0.120 C 
ATOM     38  C   UNL     1     -37.247   7.124  21.112  1.00  0.00     0.004 C 
ATOM     39  C   UNL     1     -37.988   7.568  19.829  1.00  0.00     0.022 C 
BRANCH  35  40
ATOM     40  C   UNL     1     -35.310   9.226  17.886  1.00  0.00     0.246 CG0
ATOM     41  O   UNL     1     -34.169   8.808  17.554  1.00  0.00    -0.272 OA
ATOM     42  G   UNL     1     -35.909  10.358  17.065  1.00  0.00     0.000 G0
ENDBRANCH  35  40
ENDBRANCH  31  34
ENDBRANCH   2  30
ENDBRANCH   1   2
BRANCH   1  43
ATOM     43  C   UNL     1     -34.090  11.604  23.002  1.00  0.00     0.003 C 
BRANCH  43  44
ATOM     44  C   UNL     1     -34.955  12.055  24.189  1.00  0.00     0.001 C 
BRANCH  44  45
ATOM     45  C   UNL     1     -34.229  11.793  25.516  1.00  0.00     0.008 C 
BRANCH  45  46
ATOM     46  C   UNL     1     -33.323  10.552  25.453  1.00  0.00     0.075 C 
BRANCH  46  47
ATOM     47  C   UNL     1     -33.834   9.417  26.306  1.00  0.00     0.132 C 
ATOM     48  O   UNL     1     -33.134   8.979  27.205  1.00  0.00    -0.300 OA
BRANCH  47  49
ATOM     49  C   UNL     1     -35.161   8.760  26.020  1.00  0.00     0.072 C 
ATOM     50  C   UNL     1     -36.298   9.499  26.707  1.00  0.00     0.012 C 
ENDBRANCH  47  49
ENDBRANCH  46  47
ENDBRANCH  45  46
ENDBRANCH  44  45
ENDBRANCH  43  44
ENDBRANCH   1  43
TORSDOF 12
ENDMDL
MODEL 5
REMARK VINA RESULT:    69.827      1.505      2.327
REMARK INTER + INTRA:         153.494
REMARK INTER:                 143.055
REMARK INTRA:                  10.439
REMARK UNBOUND:                 6.107
REMARK SMILES CCC(=O)CCCCC[C@H]1NC(=O)[C@H]2CCCCN2C(=O)[C@H]([C@H](C)CC)NC(=O)[C@@H](Cc2cn(OC)c3ccccc23)NC1=O
REMARK SMILES IDX 9 1 10 2 44 3 43 4 45 6 30 7 28 8 27 9 29 11 22 12 23 14
REMARK SMILES IDX 24 15 25 16 26 17 31 18 32 19 33 20 42 21 34 22 37 23 41 24
REMARK SMILES IDX 38 25 40 26 39 27 35 28 36 29 11 30 12 31 13 33 14 34 19 35
REMARK SMILES IDX 15 36 18 37 16 38 17 39 20 40 21 41 8 43 7 44 6 45 5 46 3 47
REMARK SMILES IDX 4 48 2 49 1 50
REMARK H PARENT 43 5 27 10 11 32
REMARK Flexibility Score: 80.00
ROOT
ATOM      1  C   UNL     1     -29.616  12.800  17.173  1.00  0.00     0.035 C 
ENDROOT
BRANCH   1   2
ATOM      2  C   UNL     1     -30.958  12.061  16.952  1.00  0.00     0.171 C 
BRANCH   2   3
ATOM      3  C   UNL     1     -32.158  12.968  17.012  1.00  0.00     0.243 C 
ATOM      4  N   UNL     1     -32.596  13.639  15.819  1.00  0.00    -0.342 N 
ATOM      5  H   UNL     1     -31.899  13.770  15.049  1.00  0.00     0.164 HD
ATOM      6  O   UNL     1     -32.837  13.053  18.071  1.00  0.00    -0.273 OA
BRANCH   4   7
ATOM      7  C   UNL     1     -34.014  13.818  15.478  1.00  0.00     0.175 C 
BRANCH   7   8
ATOM      8  C   UNL     1     -34.870  13.094  16.499  1.00  0.00     0.243 C 
ATOM      9  N   UNL     1     -34.484  12.950  17.883  1.00  0.00    -0.342 N 
ATOM     10  H   UNL     1     -33.725  13.559  18.261  1.00  0.00     0.164 HD
ATOM     11  O   UNL     1     -35.937  12.575  16.086  1.00  0.00    -0.273 OA
BRANCH   9  12
ATOM     12  C   UNL     1     -34.918  11.855  18.768  1.00  0.00     0.174 CG0
ATOM     13  G   UNL     1     -34.247  11.944  20.130  1.00  0.00     0.000 G0
BRANCH  12  14
ATOM     14  C   UNL     1     -34.949  10.464  18.055  1.00  0.00     0.018 C 
ATOM     15  C   UNL     1     -35.696  10.466  16.716  1.00  0.00     0.010 C 
BRANCH  14  16
ATOM     16  C   UNL     1     -35.556   9.361  18.962  1.00  0.00     0.002 C 
ATOM     17  C   UNL     1     -36.976   8.952  18.558  1.00  0.00     0.004 C 
ENDBRANCH  14  16
ENDBRANCH  12  14
ENDBRANCH   9  12
ENDBRANCH   7   8
BRANCH   7  18
ATOM     18  C   UNL     1     -34.360  15.310  15.280  1.00  0.00     0.073 C 
BRANCH  18  19
ATOM     19  C   UNL     1     -35.344  15.839  16.293  1.00  0.00    -0.016 A 
ATOM     20  C   UNL     1     -36.579  15.294  16.654  1.00  0.00     0.134 A 
ATOM     21  C   UNL     1     -35.104  16.850  17.209  1.00  0.00     0.006 A 
ATOM     22  N   UNL     1     -37.083  15.965  17.718  1.00  0.00    -0.191 N 
ATOM     23  C   UNL     1     -36.185  16.904  18.053  1.00  0.00     0.087 A 
ATOM     24  C   UNL     1     -33.999  17.684  17.382  1.00  0.00     0.011 A 
ATOM     25  C   UNL     1     -36.234  17.794  19.128  1.00  0.00     0.030 A 
ATOM     26  C   UNL     1     -34.023  18.598  18.452  1.00  0.00     0.001 A 
ATOM     27  C   UNL     1     -35.135  18.652  19.323  1.00  0.00     0.002 A 
BRANCH  22  28
ATOM     28  O   UNL     1     -38.266  15.710  18.386  1.00  0.00    -0.417 OA
ATOM     29  C   UNL     1     -38.432  14.579  19.236  1.00  0.00     0.313 C 
ENDBRANCH  22  28
ENDBRANCH  18  19
ENDBRANCH   7  18
ENDBRANCH   4   7
ENDBRANCH   2   3
BRANCH   2  30
ATOM     30  N   UNL     1     -31.149  10.943  17.892  1.00  0.00    -0.343 N 
ATOM     31  C   UNL     1     -31.574  11.088  19.260  1.00  0.00     0.243 C 
ATOM     32  H   UNL     1     -31.263   9.996  17.465  1.00  0.00     0.164 HD
ATOM     33  O   UNL     1     -31.116  12.021  19.975  1.00  0.00    -0.273 OA
BRANCH  31  34
ATOM     34  C   UNL     1     -32.517  10.075  19.876  1.00  0.00     0.174 C 
ATOM     35  N   UNL     1     -33.600  10.724  20.650  1.00  0.00    -0.329 N 
ATOM     36  C   UNL     1     -31.710   9.094  20.750  1.00  0.00     0.035 C 
ATOM     37  C   UNL     1     -33.740  10.414  22.079  1.00  0.00     0.120 C 
ATOM     38  C   UNL     1     -32.630   8.165  21.559  1.00  0.00     0.004 C 
ATOM     39  C   UNL     1     -33.790   8.899  22.270  1.00  0.00     0.022 C 
BRANCH  35  40
ATOM     40  C   UNL     1     -34.284  11.880  20.134  1.00  0.00     0.246 CG0
ATOM     41  O   UNL     1     -34.393  12.896  20.873  1.00  0.00    -0.272 OA
ATOM     42  G   UNL     1     -34.950  11.932  18.768  1.00  0.00     0.000 G0
ENDBRANCH  35  40
ENDBRANCH  31  34
ENDBRANCH   2  30
ENDBRANCH   1   2
BRANCH   1  43
ATOM     43  C   UNL     1     -29.204  13.694  15.986  1.00  0.00     0.003 C 
BRANCH  43  44
ATOM     44  C   UNL     1     -27.816  14.327  16.162  1.00  0.00     0.001 C 
BRANCH  44  45
ATOM     45  C   UNL     1     -27.413  14.345  17.643  1.00  0.00     0.008 C 
BRANCH  45  46
ATOM     46  C   UNL     1     -27.044  15.756  18.132  1.00  0.00     0.075 C 
BRANCH  46  47
ATOM     47  C   UNL     1     -26.085  15.733  19.297  1.00  0.00     0.132 C 
ATOM     48  O   UNL     1     -24.975  15.247  19.152  1.00  0.00    -0.300 OA
BRANCH  47  49
ATOM     49  C   UNL     1     -26.501  16.227  20.661  1.00  0.00     0.072 C 
ATOM     50  C   UNL     1     -27.000  15.083  21.528  1.00  0.00     0.012 C 
ENDBRANCH  47  49
ENDBRANCH  46  47
ENDBRANCH  45  46
ENDBRANCH  44  45
ENDBRANCH  43  44
ENDBRANCH   1  43
TORSDOF 12
ENDMDL
