MODEL 1
REMARK VINA RESULT:    -3.316      0.000      0.000
REMARK INTER + INTRA:          -3.444
REMARK INTER:                  -3.995
REMARK INTRA:                   0.551
REMARK UNBOUND:                 0.551
REMARK SMILES O=c1c(O)c(-c2ccc(O)c(O)c2)oc2cc(O)cc(O)c12
REMARK SMILES IDX 5 1 3 2 2 3 1 4 22 5 20 6 19 7 17 8 16 9 15 10 14 11 6 12
REMARK SMILES IDX 7 13 8 14 9 15 13 16 11 17 10 18 12 20 4 22 21 24 18 26
REMARK H PARENT 10 19 12 21 4 23 21 25 18 27
REMARK Flexibility Score: inf
ROOT
ATOM      1  C   UNL     1      72.244  40.874  20.273  1.00  0.00     0.180 A 
ATOM      2  C   UNL     1      73.122  40.940  19.177  1.00  0.00     0.208 A 
ATOM      3  C   UNL     1      74.506  40.893  19.409  1.00  0.00     0.238 A 
ATOM      4  O   UNL     1      75.285  40.897  18.420  1.00  0.00    -0.285 OA
ATOM      5  C   UNL     1      74.995  40.798  20.734  1.00  0.00     0.111 A 
ATOM      6  C   UNL     1      76.378  40.784  21.088  1.00  0.00     0.134 A 
ATOM      7  C   UNL     1      76.747  40.555  22.420  1.00  0.00     0.093 A 
ATOM      8  C   UNL     1      75.782  40.404  23.419  1.00  0.00     0.123 A 
ATOM      9  C   UNL     1      74.431  40.476  23.092  1.00  0.00     0.094 A 
ATOM     10  C   UNL     1      74.030  40.668  21.768  1.00  0.00     0.146 A 
ATOM     11  O   UNL     1      72.732  40.719  21.498  1.00  0.00    -0.452 OA
ENDROOT
BRANCH   1  12
ATOM     12  C   UNL     1      70.774  40.942  20.110  1.00  0.00     0.025 A 
ATOM     13  C   UNL     1      70.227  41.079  18.825  1.00  0.00     0.016 A 
ATOM     14  C   UNL     1      68.841  41.125  18.646  1.00  0.00     0.051 A 
ATOM     15  C   UNL     1      67.983  41.018  19.744  1.00  0.00     0.157 A 
ATOM     16  C   UNL     1      69.908  40.815  21.212  1.00  0.00     0.062 A 
ATOM     17  C   UNL     1      68.517  40.858  21.033  1.00  0.00     0.158 A 
BRANCH  15  18
ATOM     18  O   UNL     1      66.605  41.070  19.535  1.00  0.00    -0.504 OA
ATOM     19  H   UNL     1      66.098  40.309  19.098  1.00  0.00     0.293 HD
ENDBRANCH  15  18
BRANCH  17  20
ATOM     20  O   UNL     1      67.667  40.738  22.131  1.00  0.00    -0.504 OA
ATOM     21  H   UNL     1      68.016  40.481  23.048  1.00  0.00     0.293 HD
ENDBRANCH  17  20
ENDBRANCH   1  12
BRANCH   2  22
ATOM     22  O   UNL     1      72.618  41.011  17.875  1.00  0.00    -0.502 OA
ATOM     23  H   UNL     1      71.644  40.835  17.658  1.00  0.00     0.293 HD
ENDBRANCH   2  22
BRANCH   6  24
ATOM     24  O   UNL     1      77.417  41.015  20.183  1.00  0.00    -0.507 OA
ATOM     25  H   UNL     1      77.363  41.640  19.393  1.00  0.00     0.293 HD
ENDBRANCH   6  24
BRANCH   8  26
ATOM     26  O   UNL     1      76.159  40.193  24.744  1.00  0.00    -0.508 OA
ATOM     27  H   UNL     1      76.506  39.296  25.060  1.00  0.00     0.293 HD
ENDBRANCH   8  26
TORSDOF 6
ENDMDL
MODEL 2
REMARK VINA RESULT:    -2.139      1.229      2.866
REMARK INTER + INTRA:          -2.026
REMARK INTER:                  -2.500
REMARK INTRA:                   0.474
REMARK UNBOUND:                 0.551
REMARK SMILES O=c1c(O)c(-c2ccc(O)c(O)c2)oc2cc(O)cc(O)c12
REMARK SMILES IDX 5 1 3 2 2 3 1 4 22 5 20 6 19 7 17 8 16 9 15 10 14 11 6 12
REMARK SMILES IDX 7 13 8 14 9 15 13 16 11 17 10 18 12 20 4 22 21 24 18 26
REMARK H PARENT 10 19 12 21 4 23 21 25 18 27
REMARK Flexibility Score: inf
ROOT
ATOM      1  C   UNL     1      71.994  40.845  20.630  1.00  0.00     0.180 A 
ATOM      2  C   UNL     1      72.411  40.681  21.963  1.00  0.00     0.208 A 
ATOM      3  C   UNL     1      73.784  40.581  22.240  1.00  0.00     0.238 A 
ATOM      4  O   UNL     1      74.153  40.490  23.440  1.00  0.00    -0.285 OA
ATOM      5  C   UNL     1      74.721  40.630  21.180  1.00  0.00     0.111 A 
ATOM      6  C   UNL     1      76.134  40.498  21.342  1.00  0.00     0.134 A 
ATOM      7  C   UNL     1      76.976  40.692  20.239  1.00  0.00     0.093 A 
ATOM      8  C   UNL     1      76.452  40.949  18.970  1.00  0.00     0.123 A 
ATOM      9  C   UNL     1      75.073  41.021  18.791  1.00  0.00     0.094 A 
ATOM     10  C   UNL     1      74.208  40.866  19.878  1.00  0.00     0.146 A 
ATOM     11  O   UNL     1      72.901  40.953  19.666  1.00  0.00    -0.452 OA
ENDROOT
BRANCH   1  12
ATOM     12  C   UNL     1      70.564  40.933  20.257  1.00  0.00     0.025 A 
ATOM     13  C   UNL     1      70.210  41.061  18.905  1.00  0.00     0.016 A 
ATOM     14  C   UNL     1      68.865  41.125  18.529  1.00  0.00     0.051 A 
ATOM     15  C   UNL     1      67.856  41.046  19.493  1.00  0.00     0.157 A 
ATOM     16  C   UNL     1      69.548  40.833  21.224  1.00  0.00     0.062 A 
ATOM     17  C   UNL     1      68.198  40.895  20.848  1.00  0.00     0.158 A 
BRANCH  15  18
ATOM     18  O   UNL     1      66.524  41.115  19.088  1.00  0.00    -0.504 OA
ATOM     19  H   UNL     1      65.828  40.452  19.409  1.00  0.00     0.293 HD
ENDBRANCH  15  18
BRANCH  17  20
ATOM     20  O   UNL     1      67.196  40.802  21.813  1.00  0.00    -0.504 OA
ATOM     21  H   UNL     1      66.218  40.731  21.559  1.00  0.00     0.293 HD
ENDBRANCH  17  20
ENDBRANCH   1  12
BRANCH   2  22
ATOM     22  O   UNL     1      71.470  40.658  22.996  1.00  0.00    -0.502 OA
ATOM     23  H   UNL     1      70.476  40.760  22.830  1.00  0.00     0.293 HD
ENDBRANCH   2  22
BRANCH   6  24
ATOM     24  O   UNL     1      76.752  40.153  22.547  1.00  0.00    -0.507 OA
ATOM     25  H   UNL     1      77.661  40.478  22.840  1.00  0.00     0.293 HD
ENDBRANCH   6  24
BRANCH   8  26
ATOM     26  O   UNL     1      77.297  41.125  17.875  1.00  0.00    -0.508 OA
ATOM     27  H   UNL     1      76.932  41.252  16.939  1.00  0.00     0.293 HD
ENDBRANCH   8  26
TORSDOF 6
ENDMDL
