MODEL 1
REMARK VINA RESULT:    -5.496      0.000      0.000
REMARK INTER + INTRA:          -5.621
REMARK INTER:                  -5.978
REMARK INTRA:                   0.358
REMARK UNBOUND:                 0.358
REMARK SMILES CC(=O)[C@H]1CC[C@@H]2[C@H]3CC=C4C[C@@H](O)CC[C@]4(C)[C@H]3CC[C@]12C
REMARK SMILES IDX 4 1 5 2 6 3 7 4 22 5 21 6 20 7 19 8 8 9 9 10 10 11 11 12
REMARK SMILES IDX 17 13 16 14 15 15 13 16 12 17 18 18 23 19 2 20 1 21 3 22
REMARK SMILES IDX 14 23
REMARK H PARENT 14 24
REMARK Flexibility Score: inf
ROOT
ATOM      1  C   UNL     1       2.798  41.641  11.344  1.00  0.00     0.062 C 
ATOM      2  C   UNL     1       1.689  42.129  12.284  1.00  0.00     0.012 C 
ATOM      3  C   UNL     1       1.644  43.651  12.160  1.00  0.00     0.005 C 
ATOM      4  C   UNL     1       2.633  44.053  11.051  1.00  0.00    -0.001 C 
ATOM      5  C   UNL     1       2.937  42.750  10.259  1.00  0.00    -0.020 C 
ATOM      6  C   UNL     1       1.875  42.500   9.147  1.00  0.00     0.008 C 
ATOM      7  C   UNL     1       1.562  43.735   8.292  1.00  0.00     0.005 C 
ATOM      8  C   UNL     1       1.047  44.901   9.174  1.00  0.00     0.003 C 
ATOM      9  C   UNL     1       2.124  45.274  10.224  1.00  0.00     0.000 C 
ATOM     10  C   UNL     1       3.286  46.032   9.562  1.00  0.00     0.031 C 
ATOM     11  C   UNL     1       2.798  47.218   8.794  1.00  0.00    -0.027 C 
ATOM     12  C   UNL     1       1.584  47.273   8.209  1.00  0.00    -0.065 C 
ATOM     13  C   UNL     1       0.515  46.184   8.396  1.00  0.00    -0.008 C 
ATOM     14  C   UNL     1      -0.635  46.828   9.238  1.00  0.00     0.014 C 
ATOM     15  C   UNL     1      -1.124  48.193   8.706  1.00  0.00     0.033 C 
ATOM     16  C   UNL     1       0.032  49.190   8.519  1.00  0.00     0.118 C 
ATOM     17  C   UNL     1       1.132  48.597   7.625  1.00  0.00     0.063 C 
ATOM     18  C   UNL     1      -0.056  45.783   7.008  1.00  0.00     0.016 C 
ATOM     19  C   UNL     1       4.353  42.737   9.618  1.00  0.00     0.012 C 
ENDROOT
BRANCH   1  20
ATOM     20  C   UNL     1       4.075  41.384  12.140  1.00  0.00     0.133 C 
ATOM     21  C   UNL     1       4.497  39.990  12.502  1.00  0.00     0.088 C 
ATOM     22  O   UNL     1       4.773  42.321  12.498  1.00  0.00    -0.300 OA
ENDBRANCH   1  20
BRANCH  16  23
ATOM     23  O   UNL     1      -0.467  50.368   7.945  1.00  0.00    -0.393 OA
ATOM     24  H   UNL     1       0.302  50.990   7.849  1.00  0.00     0.210 HD
ENDBRANCH  16  23
TORSDOF 2
ENDMDL
MODEL 2
REMARK VINA RESULT:    -4.072      1.518      6.961
REMARK INTER + INTRA:          -4.072
REMARK INTER:                  -4.390
REMARK INTRA:                   0.318
REMARK UNBOUND:                 0.358
REMARK SMILES CC(=O)[C@H]1CC[C@@H]2[C@H]3CC=C4C[C@@H](O)CC[C@]4(C)[C@H]3CC[C@]12C
REMARK SMILES IDX 4 1 5 2 6 3 7 4 22 5 21 6 20 7 19 8 8 9 9 10 10 11 11 12
REMARK SMILES IDX 17 13 16 14 15 15 13 16 12 17 18 18 23 19 2 20 1 21 3 22
REMARK SMILES IDX 14 23
REMARK H PARENT 14 24
REMARK Flexibility Score: inf
ROOT
ATOM      1  C   UNL     1      -0.114  47.980   9.065  1.00  0.00     0.062 C 
ATOM      2  C   UNL     1      -1.124  47.464  10.096  1.00  0.00     0.012 C 
ATOM      3  C   UNL     1      -0.952  45.948  10.163  1.00  0.00     0.005 C 
ATOM      4  C   UNL     1       0.249  45.581   9.272  1.00  0.00    -0.001 C 
ATOM      5  C   UNL     1       1.018  46.909   9.025  1.00  0.00    -0.020 C 
ATOM      6  C   UNL     1       2.028  47.203  10.174  1.00  0.00     0.008 C 
ATOM      7  C   UNL     1       2.896  46.000  10.566  1.00  0.00     0.005 C 
ATOM      8  C   UNL     1       2.016  44.806  11.014  1.00  0.00     0.003 C 
ATOM      9  C   UNL     1       1.072  44.392   9.857  1.00  0.00     0.000 C 
ATOM     10  C   UNL     1       1.854  43.652   8.759  1.00  0.00     0.031 C 
ATOM     11  C   UNL     1       2.619  42.496   9.318  1.00  0.00    -0.027 C 
ATOM     12  C   UNL     1       3.103  42.467  10.577  1.00  0.00    -0.065 C 
ATOM     13  C   UNL     1       2.791  43.553  11.619  1.00  0.00    -0.008 C 
ATOM     14  C   UNL     1       1.878  42.886  12.700  1.00  0.00     0.014 C 
ATOM     15  C   UNL     1       2.415  41.542  13.240  1.00  0.00     0.033 C 
ATOM     16  C   UNL     1       2.732  40.547  12.112  1.00  0.00     0.118 C 
ATOM     17  C   UNL     1       3.693  41.167  11.085  1.00  0.00     0.063 C 
ATOM     18  C   UNL     1       4.112  44.005  12.300  1.00  0.00     0.016 C 
ATOM     19  C   UNL     1       1.773  46.938   7.667  1.00  0.00     0.012 C 
ENDROOT
BRANCH   1  20
ATOM     20  C   UNL     1      -0.808  48.203   7.726  1.00  0.00     0.133 C 
ATOM     21  C   UNL     1      -1.122  49.586   7.234  1.00  0.00     0.088 C 
ATOM     22  O   UNL     1      -1.124  47.247   7.032  1.00  0.00    -0.300 OA
ENDBRANCH   1  20
BRANCH  16  23
ATOM     23  O   UNL     1       3.303  39.392  12.665  1.00  0.00    -0.393 OA
ATOM     24  H   UNL     1       3.299  39.512  13.651  1.00  0.00     0.210 HD
ENDBRANCH  16  23
TORSDOF 2
ENDMDL
MODEL 3
REMARK VINA RESULT:    -2.779      1.357      2.477
REMARK INTER + INTRA:          -2.665
REMARK INTER:                  -2.710
REMARK INTRA:                   0.044
REMARK UNBOUND:                 0.358
REMARK SMILES CC(=O)[C@H]1CC[C@@H]2[C@H]3CC=C4C[C@@H](O)CC[C@]4(C)[C@H]3CC[C@]12C
REMARK SMILES IDX 4 1 5 2 6 3 7 4 22 5 21 6 20 7 19 8 8 9 9 10 10 11 11 12
REMARK SMILES IDX 17 13 16 14 15 15 13 16 12 17 18 18 23 19 2 20 1 21 3 22
REMARK SMILES IDX 14 23
REMARK H PARENT 14 24
REMARK Flexibility Score: inf
ROOT
ATOM      1  C   UNL     1       4.008  42.474  12.499  1.00  0.00     0.062 C 
ATOM      2  C   UNL     1       4.805  43.775  12.350  1.00  0.00     0.012 C 
ATOM      3  C   UNL     1       4.388  44.399  11.019  1.00  0.00     0.005 C 
ATOM      4  C   UNL     1       3.249  43.536  10.443  1.00  0.00    -0.001 C 
ATOM      5  C   UNL     1       2.732  42.669  11.625  1.00  0.00    -0.020 C 
ATOM      6  C   UNL     1       1.661  43.429  12.462  1.00  0.00     0.008 C 
ATOM      7  C   UNL     1       0.575  44.110  11.619  1.00  0.00     0.005 C 
ATOM      8  C   UNL     1       1.201  45.126  10.629  1.00  0.00     0.003 C 
ATOM      9  C   UNL     1       2.188  44.394   9.686  1.00  0.00     0.000 C 
ATOM     10  C   UNL     1       1.424  43.559   8.646  1.00  0.00     0.031 C 
ATOM     11  C   UNL     1       0.429  44.389   7.903  1.00  0.00    -0.027 C 
ATOM     12  C   UNL     1      -0.189  45.462   8.438  1.00  0.00    -0.065 C 
ATOM     13  C   UNL     1       0.175  46.034   9.818  1.00  0.00    -0.008 C 
ATOM     14  C   UNL     1       0.846  47.424   9.562  1.00  0.00     0.014 C 
ATOM     15  C   UNL     1       0.046  48.349   8.617  1.00  0.00     0.033 C 
ATOM     16  C   UNL     1      -0.298  47.662   7.286  1.00  0.00     0.118 C 
ATOM     17  C   UNL     1      -1.030  46.332   7.526  1.00  0.00     0.063 C 
ATOM     18  C   UNL     1      -1.124  46.258  10.640  1.00  0.00     0.016 C 
ATOM     19  C   UNL     1       2.146  41.303  11.173  1.00  0.00     0.012 C 
ENDROOT
BRANCH   1  20
ATOM     20  C   UNL     1       4.872  41.288  12.084  1.00  0.00     0.133 C 
ATOM     21  C   UNL     1       4.880  40.016  12.881  1.00  0.00     0.088 C 
ATOM     22  O   UNL     1       5.579  41.361  11.090  1.00  0.00    -0.300 OA
ENDBRANCH   1  20
BRANCH  16  23
ATOM     23  O   UNL     1      -1.103  48.519   6.521  1.00  0.00    -0.393 OA
ATOM     24  H   UNL     1      -1.598  47.950   5.875  1.00  0.00     0.210 HD
ENDBRANCH  16  23
TORSDOF 2
ENDMDL
