MODEL 1
REMARK VINA RESULT:    -6.051      0.000      0.000
REMARK INTER + INTRA:         -20.330
REMARK INTER:                 -15.248
REMARK INTRA:                  -5.082
REMARK UNBOUND:                -5.082
REMARK SMILES CCCCCCCCCCCCCCCCCCCCCCCCCCCC(=O)[O-]
REMARK SMILES IDX 15 1 16 2 17 3 18 4 19 5 20 6 21 7 22 8 23 9 24 10 25 11
REMARK SMILES IDX 26 12 27 13 28 14 29 15 30 16 14 17 13 18 12 19 11 20 10 21
REMARK SMILES IDX 9 22 8 23 7 24 6 25 5 26 4 27 3 28 2 29 1 30
REMARK H PARENT
REMARK Flexibility Score: inf
ROOT
ATOM      1  C   UNL     1      14.491  -3.459  16.476  1.00  0.00     0.000 C 
ENDROOT
BRANCH   1   2
ATOM      2  C   UNL     1      15.339  -4.447  15.648  1.00  0.00     0.000 C 
BRANCH   2   3
ATOM      3  C   UNL     1      15.365  -5.878  16.217  1.00  0.00     0.000 C 
BRANCH   3   4
ATOM      4  C   UNL     1      14.844  -6.971  15.265  1.00  0.00     0.000 C 
BRANCH   4   5
ATOM      5  C   UNL     1      14.536  -6.497  13.833  1.00  0.00     0.000 C 
BRANCH   5   6
ATOM      6  C   UNL     1      15.508  -7.073  12.789  1.00  0.00     0.000 C 
BRANCH   6   7
ATOM      7  C   UNL     1      16.771  -6.209  12.625  1.00  0.00     0.000 C 
BRANCH   7   8
ATOM      8  C   UNL     1      17.065  -5.879  11.150  1.00  0.00     0.000 C 
BRANCH   8   9
ATOM      9  C   UNL     1      15.989  -4.980  10.512  1.00  0.00     0.000 C 
BRANCH   9  10
ATOM     10  C   UNL     1      15.102  -5.668   9.459  1.00  0.00     0.000 C 
BRANCH  10  11
ATOM     11  C   UNL     1      13.603  -5.567   9.777  1.00  0.00     0.000 C 
BRANCH  11  12
ATOM     12  C   UNL     1      13.342  -4.540  10.884  1.00  0.00     0.006 C 
BRANCH  12  13
ATOM     13  C   UNL     1      11.844  -4.421  11.181  1.00  0.00     0.053 C 
BRANCH  13  14
ATOM     14  C   UNL     1      11.170  -3.557  10.163  1.00  0.00     0.041 C 
ATOM     15  O   UNL     1      10.392  -4.069   9.315  1.00  0.00    -0.550 OA
ATOM     16  O   UNL     1      11.368  -2.181  10.176  1.00  0.00    -0.550 OA
ENDBRANCH  13  14
ENDBRANCH  12  13
ENDBRANCH  11  12
ENDBRANCH  10  11
ENDBRANCH   9  10
ENDBRANCH   8   9
ENDBRANCH   7   8
ENDBRANCH   6   7
ENDBRANCH   5   6
ENDBRANCH   4   5
ENDBRANCH   3   4
ENDBRANCH   2   3
ENDBRANCH   1   2
BRANCH   1  17
ATOM     17  C   UNL     1      13.045  -3.341  15.960  1.00  0.00     0.000 C 
BRANCH  17  18
ATOM     18  C   UNL     1      12.968  -3.319  14.424  1.00  0.00     0.000 C 
BRANCH  18  19
ATOM     19  C   UNL     1      12.646  -1.921  13.871  1.00  0.00     0.000 C 
BRANCH  19  20
ATOM     20  C   UNL     1      13.716  -1.414  12.891  1.00  0.00     0.000 C 
BRANCH  20  21
ATOM     21  C   UNL     1      14.966  -2.312  12.865  1.00  0.00     0.000 C 
BRANCH  21  22
ATOM     22  C   UNL     1      16.261  -1.514  12.650  1.00  0.00    -0.000 C 
BRANCH  22  23
ATOM     23  C   UNL     1      17.164  -1.503  13.897  1.00  0.00    -0.000 C 
BRANCH  23  24
ATOM     24  C   UNL     1      18.657  -1.642  13.553  1.00  0.00    -0.000 C 
BRANCH  24  25
ATOM     25  C   UNL     1      18.990  -2.988  12.884  1.00  0.00    -0.000 C 
BRANCH  25  26
ATOM     26  C   UNL     1      19.290  -4.102  13.903  1.00  0.00    -0.000 C 
BRANCH  26  27
ATOM     27  C   UNL     1      19.676  -3.605  15.308  1.00  0.00    -0.000 C 
BRANCH  27  28
ATOM     28  C   UNL     1      18.571  -3.850  16.352  1.00  0.00    -0.000 C 
BRANCH  28  29
ATOM     29  C   UNL     1      18.772  -3.017  17.627  1.00  0.00    -0.003 C 
ATOM     30  C   UNL     1      17.535  -3.006  18.525  1.00  0.00     0.004 C 
ENDBRANCH  28  29
ENDBRANCH  27  28
ENDBRANCH  26  27
ENDBRANCH  25  26
ENDBRANCH  24  25
ENDBRANCH  23  24
ENDBRANCH  22  23
ENDBRANCH  21  22
ENDBRANCH  20  21
ENDBRANCH  19  20
ENDBRANCH  18  19
ENDBRANCH  17  18
ENDBRANCH   1  17
TORSDOF 26
ENDMDL
MODEL 2
REMARK VINA RESULT:    -5.990      3.290      6.843
REMARK INTER + INTRA:         -20.178
REMARK INTER:                 -15.132
REMARK INTRA:                  -5.046
REMARK UNBOUND:                -5.082
REMARK SMILES CCCCCCCCCCCCCCCCCCCCCCCCCCCC(=O)[O-]
REMARK SMILES IDX 15 1 16 2 17 3 18 4 19 5 20 6 21 7 22 8 23 9 24 10 25 11
REMARK SMILES IDX 26 12 27 13 28 14 29 15 30 16 14 17 13 18 12 19 11 20 10 21
REMARK SMILES IDX 9 22 8 23 7 24 6 25 5 26 4 27 3 28 2 29 1 30
REMARK H PARENT
REMARK Flexibility Score: inf
ROOT
ATOM      1  C   UNL     1      13.996  -4.984  11.061  1.00  0.00     0.000 C 
ENDROOT
BRANCH   1   2
ATOM      2  C   UNL     1      13.930  -6.353  11.770  1.00  0.00     0.000 C 
BRANCH   2   3
ATOM      3  C   UNL     1      14.119  -6.276  13.297  1.00  0.00     0.000 C 
BRANCH   3   4
ATOM      4  C   UNL     1      15.233  -7.173  13.866  1.00  0.00     0.000 C 
BRANCH   4   5
ATOM      5  C   UNL     1      15.327  -7.203  15.403  1.00  0.00     0.000 C 
BRANCH   5   6
ATOM      6  C   UNL     1      16.339  -6.186  15.960  1.00  0.00     0.000 C 
BRANCH   6   7
ATOM      7  C   UNL     1      15.973  -4.736  15.594  1.00  0.00     0.000 C 
BRANCH   7   8
ATOM      8  C   UNL     1      14.718  -4.245  16.338  1.00  0.00     0.000 C 
BRANCH   8   9
ATOM      9  C   UNL     1      14.987  -3.007  17.213  1.00  0.00     0.000 C 
BRANCH   9  10
ATOM     10  C   UNL     1      16.458  -2.561  17.282  1.00  0.00     0.000 C 
BRANCH  10  11
ATOM     11  C   UNL     1      17.101  -2.818  18.653  1.00  0.00     0.000 C 
BRANCH  11  12
ATOM     12  C   UNL     1      18.609  -3.054  18.519  1.00  0.00     0.006 C 
BRANCH  12  13
ATOM     13  C   UNL     1      19.048  -2.985  17.053  1.00  0.00     0.053 C 
BRANCH  13  14
ATOM     14  C   UNL     1      20.463  -2.509  16.947  1.00  0.00     0.041 C 
ATOM     15  O   UNL     1      20.844  -1.882  15.924  1.00  0.00    -0.550 OA
ATOM     16  O   UNL     1      21.349  -2.722  17.996  1.00  0.00    -0.550 OA
ENDBRANCH  13  14
ENDBRANCH  12  13
ENDBRANCH  11  12
ENDBRANCH  10  11
ENDBRANCH   9  10
ENDBRANCH   8   9
ENDBRANCH   7   8
ENDBRANCH   6   7
ENDBRANCH   5   6
ENDBRANCH   4   5
ENDBRANCH   3   4
ENDBRANCH   2   3
ENDBRANCH   1   2
BRANCH   1  17
ATOM     17  C   UNL     1      15.440  -4.506  10.828  1.00  0.00     0.000 C 
BRANCH  17  18
ATOM     18  C   UNL     1      16.350  -5.622  10.290  1.00  0.00     0.000 C 
BRANCH  18  19
ATOM     19  C   UNL     1      17.515  -5.944  11.242  1.00  0.00     0.000 C 
BRANCH  19  20
ATOM     20  C   UNL     1      17.563  -4.998  12.453  1.00  0.00     0.000 C 
BRANCH  20  21
ATOM     21  C   UNL     1      18.998  -4.566  12.808  1.00  0.00     0.000 C 
BRANCH  21  22
ATOM     22  C   UNL     1      19.167  -3.039  12.820  1.00  0.00    -0.000 C 
BRANCH  22  23
ATOM     23  C   UNL     1      18.123  -2.333  13.705  1.00  0.00    -0.000 C 
BRANCH  23  24
ATOM     24  C   UNL     1      17.181  -1.420  12.903  1.00  0.00    -0.000 C 
BRANCH  24  25
ATOM     25  C   UNL     1      15.695  -1.740  13.145  1.00  0.00    -0.000 C 
BRANCH  25  26
ATOM     26  C   UNL     1      14.777  -1.176  12.045  1.00  0.00    -0.000 C 
BRANCH  26  27
ATOM     27  C   UNL     1      13.270  -1.329  12.321  1.00  0.00    -0.000 C 
BRANCH  27  28
ATOM     28  C   UNL     1      12.971  -1.817  13.751  1.00  0.00    -0.000 C 
BRANCH  28  29
ATOM     29  C   UNL     1      12.266  -3.181  13.771  1.00  0.00    -0.003 C 
ATOM     30  C   UNL     1      11.397  -3.378  15.014  1.00  0.00     0.004 C 
ENDBRANCH  28  29
ENDBRANCH  27  28
ENDBRANCH  26  27
ENDBRANCH  25  26
ENDBRANCH  24  25
ENDBRANCH  23  24
ENDBRANCH  22  23
ENDBRANCH  21  22
ENDBRANCH  20  21
ENDBRANCH  19  20
ENDBRANCH  18  19
ENDBRANCH  17  18
ENDBRANCH   1  17
TORSDOF 26
ENDMDL
MODEL 3
REMARK VINA RESULT:    -5.876      0.844      3.521
REMARK INTER + INTRA:         -19.890
REMARK INTER:                 -14.833
REMARK INTRA:                  -5.057
REMARK UNBOUND:                -5.082
REMARK SMILES CCCCCCCCCCCCCCCCCCCCCCCCCCCC(=O)[O-]
REMARK SMILES IDX 15 1 16 2 17 3 18 4 19 5 20 6 21 7 22 8 23 9 24 10 25 11
REMARK SMILES IDX 26 12 27 13 28 14 29 15 30 16 14 17 13 18 12 19 11 20 10 21
REMARK SMILES IDX 9 22 8 23 7 24 6 25 5 26 4 27 3 28 2 29 1 30
REMARK H PARENT
REMARK Flexibility Score: inf
ROOT
ATOM      1  C   UNL     1      14.389  -3.560  16.905  1.00  0.00     0.000 C 
ENDROOT
BRANCH   1   2
ATOM      2  C   UNL     1      14.009  -4.861  16.167  1.00  0.00     0.000 C 
BRANCH   2   3
ATOM      3  C   UNL     1      15.207  -5.782  15.867  1.00  0.00     0.000 C 
BRANCH   3   4
ATOM      4  C   UNL     1      14.865  -7.073  15.100  1.00  0.00     0.000 C 
BRANCH   4   5
ATOM      5  C   UNL     1      15.534  -7.209  13.719  1.00  0.00     0.000 C 
BRANCH   5   6
ATOM      6  C   UNL     1      16.423  -6.004  13.364  1.00  0.00     0.000 C 
BRANCH   6   7
ATOM      7  C   UNL     1      17.103  -6.163  11.993  1.00  0.00     0.000 C 
BRANCH   7   8
ATOM      8  C   UNL     1      16.669  -5.074  10.996  1.00  0.00     0.000 C 
BRANCH   8   9
ATOM      9  C   UNL     1      15.880  -5.637   9.799  1.00  0.00     0.000 C 
BRANCH   9  10
ATOM     10  C   UNL     1      14.351  -5.507   9.904  1.00  0.00     0.000 C 
BRANCH  10  11
ATOM     11  C   UNL     1      13.902  -4.591  11.052  1.00  0.00     0.000 C 
BRANCH  11  12
ATOM     12  C   UNL     1      12.644  -5.137  11.734  1.00  0.00     0.006 C 
BRANCH  12  13
ATOM     13  C   UNL     1      11.528  -4.088  11.750  1.00  0.00     0.053 C 
BRANCH  13  14
ATOM     14  C   UNL     1      11.307  -3.531  10.379  1.00  0.00     0.041 C 
ATOM     15  O   UNL     1      10.924  -4.284   9.445  1.00  0.00    -0.550 OA
ATOM     16  O   UNL     1      11.485  -2.173  10.142  1.00  0.00    -0.550 OA
ENDBRANCH  13  14
ENDBRANCH  12  13
ENDBRANCH  11  12
ENDBRANCH  10  11
ENDBRANCH   9  10
ENDBRANCH   8   9
ENDBRANCH   7   8
ENDBRANCH   6   7
ENDBRANCH   5   6
ENDBRANCH   4   5
ENDBRANCH   3   4
ENDBRANCH   2   3
ENDBRANCH   1   2
BRANCH   1  17
ATOM     17  C   UNL     1      15.744  -2.992  16.446  1.00  0.00     0.000 C 
BRANCH  17  18
ATOM     18  C   UNL     1      16.654  -2.615  17.627  1.00  0.00     0.000 C 
BRANCH  18  19
ATOM     19  C   UNL     1      18.001  -3.359  17.593  1.00  0.00     0.000 C 
BRANCH  19  20
ATOM     20  C   UNL     1      18.229  -4.104  16.269  1.00  0.00     0.000 C 
BRANCH  20  21
ATOM     21  C   UNL     1      19.378  -3.501  15.441  1.00  0.00     0.000 C 
BRANCH  21  22
ATOM     22  C   UNL     1      19.377  -3.992  13.985  1.00  0.00    -0.000 C 
BRANCH  22  23
ATOM     23  C   UNL     1      19.036  -2.874  12.983  1.00  0.00    -0.000 C 
BRANCH  23  24
ATOM     24  C   UNL     1      18.962  -1.485  13.641  1.00  0.00    -0.000 C 
BRANCH  24  25
ATOM     25  C   UNL     1      17.654  -0.742  13.318  1.00  0.00    -0.000 C 
BRANCH  25  26
ATOM     26  C   UNL     1      16.463  -1.695  13.111  1.00  0.00    -0.000 C 
BRANCH  26  27
ATOM     27  C   UNL     1      15.518  -1.307  11.959  1.00  0.00    -0.000 C 
BRANCH  27  28
ATOM     28  C   UNL     1      14.059  -1.129  12.417  1.00  0.00    -0.000 C 
BRANCH  28  29
ATOM     29  C   UNL     1      13.676  -2.093  13.549  1.00  0.00    -0.003 C 
ATOM     30  C   UNL     1      12.294  -1.800  14.133  1.00  0.00     0.004 C 
ENDBRANCH  28  29
ENDBRANCH  27  28
ENDBRANCH  26  27
ENDBRANCH  25  26
ENDBRANCH  24  25
ENDBRANCH  23  24
ENDBRANCH  22  23
ENDBRANCH  21  22
ENDBRANCH  20  21
ENDBRANCH  19  20
ENDBRANCH  18  19
ENDBRANCH  17  18
ENDBRANCH   1  17
TORSDOF 26
ENDMDL
MODEL 4
REMARK VINA RESULT:    -5.875      0.816      5.296
REMARK INTER + INTRA:         -19.887
REMARK INTER:                 -15.702
REMARK INTRA:                  -4.185
REMARK UNBOUND:                -5.082
REMARK SMILES CCCCCCCCCCCCCCCCCCCCCCCCCCCC(=O)[O-]
REMARK SMILES IDX 15 1 16 2 17 3 18 4 19 5 20 6 21 7 22 8 23 9 24 10 25 11
REMARK SMILES IDX 26 12 27 13 28 14 29 15 30 16 14 17 13 18 12 19 11 20 10 21
REMARK SMILES IDX 9 22 8 23 7 24 6 25 5 26 4 27 3 28 2 29 1 30
REMARK H PARENT
REMARK Flexibility Score: inf
ROOT
ATOM      1  C   UNL     1      19.591  -3.078  15.901  1.00  0.00     0.000 C 
ENDROOT
BRANCH   1   2
ATOM      2  C   UNL     1      19.264  -4.465  15.309  1.00  0.00     0.000 C 
BRANCH   2   3
ATOM      3  C   UNL     1      19.620  -4.607  13.817  1.00  0.00     0.000 C 
BRANCH   3   4
ATOM      4  C   UNL     1      19.226  -3.410  12.932  1.00  0.00     0.000 C 
BRANCH   4   5
ATOM      5  C   UNL     1      17.800  -2.873  13.156  1.00  0.00     0.000 C 
BRANCH   5   6
ATOM      6  C   UNL     1      17.744  -1.337  13.234  1.00  0.00     0.000 C 
BRANCH   6   7
ATOM      7  C   UNL     1      16.309  -0.797  13.109  1.00  0.00     0.000 C 
BRANCH   7   8
ATOM      8  C   UNL     1      15.372  -1.786  12.393  1.00  0.00     0.000 C 
BRANCH   8   9
ATOM      9  C   UNL     1      13.900  -1.334  12.407  1.00  0.00     0.000 C 
BRANCH   9  10
ATOM     10  C   UNL     1      13.025  -1.990  13.490  1.00  0.00     0.000 C 
BRANCH  10  11
ATOM     11  C   UNL     1      12.952  -3.519  13.359  1.00  0.00     0.000 C 
BRANCH  11  12
ATOM     12  C   UNL     1      11.778  -3.941  12.470  1.00  0.00     0.006 C 
BRANCH  12  13
ATOM     13  C   UNL     1      12.203  -4.023  11.000  1.00  0.00     0.053 C 
BRANCH  13  14
ATOM     14  C   UNL     1      11.159  -3.421  10.114  1.00  0.00     0.041 C 
ATOM     15  O   UNL     1      11.150  -2.179   9.902  1.00  0.00    -0.550 OA
ATOM     16  O   UNL     1      10.221  -4.234   9.489  1.00  0.00    -0.550 OA
ENDBRANCH  13  14
ENDBRANCH  12  13
ENDBRANCH  11  12
ENDBRANCH  10  11
ENDBRANCH   9  10
ENDBRANCH   8   9
ENDBRANCH   7   8
ENDBRANCH   6   7
ENDBRANCH   5   6
ENDBRANCH   4   5
ENDBRANCH   3   4
ENDBRANCH   2   3
ENDBRANCH   1   2
BRANCH   1  17
ATOM     17  C   UNL     1      19.269  -2.982  17.403  1.00  0.00     0.000 C 
BRANCH  17  18
ATOM     18  C   UNL     1      17.832  -3.426  17.725  1.00  0.00     0.000 C 
BRANCH  18  19
ATOM     19  C   UNL     1      16.776  -2.576  16.998  1.00  0.00     0.000 C 
BRANCH  19  20
ATOM     20  C   UNL     1      15.368  -2.753  17.589  1.00  0.00     0.000 C 
BRANCH  20  21
ATOM     21  C   UNL     1      14.430  -3.539  16.656  1.00  0.00     0.000 C 
BRANCH  21  22
ATOM     22  C   UNL     1      15.191  -4.482  15.712  1.00  0.00    -0.000 C 
BRANCH  22  23
ATOM     23  C   UNL     1      14.909  -5.968  16.004  1.00  0.00    -0.000 C 
BRANCH  23  24
ATOM     24  C   UNL     1      14.987  -6.849  14.745  1.00  0.00    -0.000 C 
BRANCH  24  25
ATOM     25  C   UNL     1      15.359  -6.051  13.483  1.00  0.00    -0.000 C 
BRANCH  25  26
ATOM     26  C   UNL     1      16.656  -6.550  12.822  1.00  0.00    -0.000 C 
BRANCH  26  27
ATOM     27  C   UNL     1      16.980  -5.902  11.464  1.00  0.00    -0.000 C 
BRANCH  27  28
ATOM     28  C   UNL     1      15.774  -5.167  10.851  1.00  0.00    -0.000 C 
BRANCH  28  29
ATOM     29  C   UNL     1      15.521  -5.567   9.390  1.00  0.00    -0.003 C 
ATOM     30  C   UNL     1      14.079  -6.005   9.139  1.00  0.00     0.004 C 
ENDBRANCH  28  29
ENDBRANCH  27  28
ENDBRANCH  26  27
ENDBRANCH  25  26
ENDBRANCH  24  25
ENDBRANCH  23  24
ENDBRANCH  22  23
ENDBRANCH  21  22
ENDBRANCH  20  21
ENDBRANCH  19  20
ENDBRANCH  18  19
ENDBRANCH  17  18
ENDBRANCH   1  17
TORSDOF 26
ENDMDL
MODEL 5
REMARK VINA RESULT:    -5.864      2.848      6.412
REMARK INTER + INTRA:         -19.859
REMARK INTER:                 -14.897
REMARK INTRA:                  -4.962
REMARK UNBOUND:                -5.082
REMARK SMILES CCCCCCCCCCCCCCCCCCCCCCCCCCCC(=O)[O-]
REMARK SMILES IDX 15 1 16 2 17 3 18 4 19 5 20 6 21 7 22 8 23 9 24 10 25 11
REMARK SMILES IDX 26 12 27 13 28 14 29 15 30 16 14 17 13 18 12 19 11 20 10 21
REMARK SMILES IDX 9 22 8 23 7 24 6 25 5 26 4 27 3 28 2 29 1 30
REMARK H PARENT
REMARK Flexibility Score: inf
ROOT
ATOM      1  C   UNL     1      12.167  -3.751  12.633  1.00  0.00     0.000 C 
ENDROOT
BRANCH   1   2
ATOM      2  C   UNL     1      12.461  -2.436  11.880  1.00  0.00     0.000 C 
BRANCH   2   3
ATOM      3  C   UNL     1      13.215  -1.389  12.721  1.00  0.00     0.000 C 
BRANCH   3   4
ATOM      4  C   UNL     1      14.499  -0.833  12.078  1.00  0.00     0.000 C 
BRANCH   4   5
ATOM      5  C   UNL     1      15.788  -1.602  12.425  1.00  0.00     0.000 C 
BRANCH   5   6
ATOM      6  C   UNL     1      16.775  -0.769  13.262  1.00  0.00     0.000 C 
BRANCH   6   7
ATOM      7  C   UNL     1      18.167  -1.418  13.345  1.00  0.00     0.000 C 
BRANCH   7   8
ATOM      8  C   UNL     1      18.154  -2.887  12.883  1.00  0.00     0.000 C 
BRANCH   8   9
ATOM      9  C   UNL     1      19.435  -3.648  13.273  1.00  0.00     0.000 C 
BRANCH   9  10
ATOM     10  C   UNL     1      19.415  -4.288  14.672  1.00  0.00     0.000 C 
BRANCH  10  11
ATOM     11  C   UNL     1      20.370  -3.603  15.660  1.00  0.00     0.000 C 
BRANCH  11  12
ATOM     12  C   UNL     1      19.593  -2.847  16.743  1.00  0.00     0.006 C 
BRANCH  12  13
ATOM     13  C   UNL     1      18.190  -3.435  16.925  1.00  0.00     0.053 C 
BRANCH  13  14
ATOM     14  C   UNL     1      17.580  -2.959  18.205  1.00  0.00     0.041 C 
ATOM     15  O   UNL     1      18.258  -2.961  19.267  1.00  0.00    -0.550 OA
ATOM     16  O   UNL     1      16.277  -2.476  18.219  1.00  0.00    -0.550 OA
ENDBRANCH  13  14
ENDBRANCH  12  13
ENDBRANCH  11  12
ENDBRANCH  10  11
ENDBRANCH   9  10
ENDBRANCH   8   9
ENDBRANCH   7   8
ENDBRANCH   6   7
ENDBRANCH   5   6
ENDBRANCH   4   5
ENDBRANCH   3   4
ENDBRANCH   2   3
ENDBRANCH   1   2
BRANCH   1  17
ATOM     17  C   UNL     1      12.765  -4.983  11.932  1.00  0.00     0.000 C 
BRANCH  17  18
ATOM     18  C   UNL     1      13.062  -4.728  10.445  1.00  0.00     0.000 C 
BRANCH  18  19
ATOM     19  C   UNL     1      13.767  -5.918   9.772  1.00  0.00     0.000 C 
BRANCH  19  20
ATOM     20  C   UNL     1      15.219  -5.600   9.384  1.00  0.00     0.000 C 
BRANCH  20  21
ATOM     21  C   UNL     1      16.025  -5.002  10.551  1.00  0.00     0.000 C 
BRANCH  21  22
ATOM     22  C   UNL     1      17.178  -5.915  10.999  1.00  0.00    -0.000 C 
BRANCH  22  23
ATOM     23  C   UNL     1      17.087  -6.296  12.488  1.00  0.00    -0.000 C 
BRANCH  23  24
ATOM     24  C   UNL     1      15.749  -6.961  12.853  1.00  0.00    -0.000 C 
BRANCH  24  25
ATOM     25  C   UNL     1      15.741  -7.540  14.279  1.00  0.00    -0.000 C 
BRANCH  25  26
ATOM     26  C   UNL     1      16.309  -6.561  15.322  1.00  0.00    -0.000 C 
BRANCH  26  27
ATOM     27  C   UNL     1      15.303  -5.520  15.846  1.00  0.00    -0.000 C 
BRANCH  27  28
ATOM     28  C   UNL     1      15.452  -4.149  15.161  1.00  0.00    -0.000 C 
BRANCH  28  29
ATOM     29  C   UNL     1      14.249  -3.228  15.418  1.00  0.00    -0.003 C 
ATOM     30  C   UNL     1      13.377  -3.706  16.579  1.00  0.00     0.004 C 
ENDBRANCH  28  29
ENDBRANCH  27  28
ENDBRANCH  26  27
ENDBRANCH  25  26
ENDBRANCH  24  25
ENDBRANCH  23  24
ENDBRANCH  22  23
ENDBRANCH  21  22
ENDBRANCH  20  21
ENDBRANCH  19  20
ENDBRANCH  18  19
ENDBRANCH  17  18
ENDBRANCH   1  17
TORSDOF 26
ENDMDL
MODEL 6
REMARK VINA RESULT:    -5.824      1.909      5.402
REMARK INTER + INTRA:         -19.758
REMARK INTER:                 -15.068
REMARK INTRA:                  -4.690
REMARK UNBOUND:                -5.082
REMARK SMILES CCCCCCCCCCCCCCCCCCCCCCCCCCCC(=O)[O-]
REMARK SMILES IDX 15 1 16 2 17 3 18 4 19 5 20 6 21 7 22 8 23 9 24 10 25 11
REMARK SMILES IDX 26 12 27 13 28 14 29 15 30 16 14 17 13 18 12 19 11 20 10 21
REMARK SMILES IDX 9 22 8 23 7 24 6 25 5 26 4 27 3 28 2 29 1 30
REMARK H PARENT
REMARK Flexibility Score: inf
ROOT
ATOM      1  C   UNL     1      13.617  -2.881  14.523  1.00  0.00     0.000 C 
ENDROOT
BRANCH   1   2
ATOM      2  C   UNL     1      13.113  -3.633  15.773  1.00  0.00     0.000 C 
BRANCH   2   3
ATOM      3  C   UNL     1      13.972  -3.400  17.031  1.00  0.00     0.000 C 
BRANCH   3   4
ATOM      4  C   UNL     1      15.434  -2.999  16.761  1.00  0.00     0.000 C 
BRANCH   4   5
ATOM      5  C   UNL     1      16.164  -2.351  17.952  1.00  0.00     0.000 C 
BRANCH   5   6
ATOM      6  C   UNL     1      17.518  -3.015  18.257  1.00  0.00     0.000 C 
BRANCH   6   7
ATOM      7  C   UNL     1      18.237  -3.490  16.982  1.00  0.00     0.000 C 
BRANCH   7   8
ATOM      8  C   UNL     1      19.630  -2.856  16.826  1.00  0.00     0.000 C 
BRANCH   8   9
ATOM      9  C   UNL     1      20.420  -3.432  15.636  1.00  0.00     0.000 C 
BRANCH   9  10
ATOM     10  C   UNL     1      19.669  -4.481  14.798  1.00  0.00     0.000 C 
BRANCH  10  11
ATOM     11  C   UNL     1      19.417  -4.028  13.352  1.00  0.00     0.000 C 
BRANCH  11  12
ATOM     12  C   UNL     1      18.982  -2.559  13.303  1.00  0.00     0.006 C 
BRANCH  12  13
ATOM     13  C   UNL     1      17.458  -2.435  13.391  1.00  0.00     0.053 C 
BRANCH  13  14
ATOM     14  C   UNL     1      17.025  -1.034  13.092  1.00  0.00     0.041 C 
ATOM     15  O   UNL     1      15.837  -0.801  12.744  1.00  0.00    -0.550 OA
ATOM     16  O   UNL     1      17.921   0.018  13.237  1.00  0.00    -0.550 OA
ENDBRANCH  13  14
ENDBRANCH  12  13
ENDBRANCH  11  12
ENDBRANCH  10  11
ENDBRANCH   9  10
ENDBRANCH   8   9
ENDBRANCH   7   8
ENDBRANCH   6   7
ENDBRANCH   5   6
ENDBRANCH   4   5
ENDBRANCH   3   4
ENDBRANCH   2   3
ENDBRANCH   1   2
BRANCH   1  17
ATOM     17  C   UNL     1      12.530  -2.002  13.881  1.00  0.00     0.000 C 
BRANCH  17  18
ATOM     18  C   UNL     1      12.568  -2.047  12.344  1.00  0.00     0.000 C 
BRANCH  18  19
ATOM     19  C   UNL     1      12.309  -3.458  11.789  1.00  0.00     0.000 C 
BRANCH  19  20
ATOM     20  C   UNL     1      13.547  -4.058  11.103  1.00  0.00     0.000 C 
BRANCH  20  21
ATOM     21  C   UNL     1      13.269  -5.441  10.487  1.00  0.00     0.000 C 
BRANCH  21  22
ATOM     22  C   UNL     1      14.226  -5.774   9.332  1.00  0.00    -0.000 C 
BRANCH  22  23
ATOM     23  C   UNL     1      15.594  -5.081   9.477  1.00  0.00    -0.000 C 
BRANCH  23  24
ATOM     24  C   UNL     1      16.696  -6.033   9.971  1.00  0.00    -0.000 C 
BRANCH  24  25
ATOM     25  C   UNL     1      17.239  -5.647  11.358  1.00  0.00    -0.000 C 
BRANCH  25  26
ATOM     26  C   UNL     1      16.590  -6.452  12.498  1.00  0.00    -0.000 C 
BRANCH  26  27
ATOM     27  C   UNL     1      15.642  -5.643  13.401  1.00  0.00    -0.000 C 
BRANCH  27  28
ATOM     28  C   UNL     1      14.560  -6.516  14.064  1.00  0.00    -0.000 C 
BRANCH  28  29
ATOM     29  C   UNL     1      14.972  -7.004  15.461  1.00  0.00    -0.003 C 
ATOM     30  C   UNL     1      16.239  -6.320  15.976  1.00  0.00     0.004 C 
ENDBRANCH  28  29
ENDBRANCH  27  28
ENDBRANCH  26  27
ENDBRANCH  25  26
ENDBRANCH  24  25
ENDBRANCH  23  24
ENDBRANCH  22  23
ENDBRANCH  21  22
ENDBRANCH  20  21
ENDBRANCH  19  20
ENDBRANCH  18  19
ENDBRANCH  17  18
ENDBRANCH   1  17
TORSDOF 26
ENDMDL
MODEL 7
REMARK VINA RESULT:    -5.771      3.207      7.176
REMARK INTER + INTRA:         -19.625
REMARK INTER:                 -14.533
REMARK INTRA:                  -5.092
REMARK UNBOUND:                -5.082
REMARK SMILES CCCCCCCCCCCCCCCCCCCCCCCCCCCC(=O)[O-]
REMARK SMILES IDX 15 1 16 2 17 3 18 4 19 5 20 6 21 7 22 8 23 9 24 10 25 11
REMARK SMILES IDX 26 12 27 13 28 14 29 15 30 16 14 17 13 18 12 19 11 20 10 21
REMARK SMILES IDX 9 22 8 23 7 24 6 25 5 26 4 27 3 28 2 29 1 30
REMARK H PARENT
REMARK Flexibility Score: inf
ROOT
ATOM      1  C   UNL     1      17.345  -5.929  11.142  1.00  0.00     0.000 C 
ENDROOT
BRANCH   1   2
ATOM      2  C   UNL     1      15.844  -5.603  10.993  1.00  0.00     0.000 C 
BRANCH   2   3
ATOM      3  C   UNL     1      15.111  -5.408  12.334  1.00  0.00     0.000 C 
BRANCH   3   4
ATOM      4  C   UNL     1      14.605  -6.702  12.998  1.00  0.00     0.000 C 
BRANCH   4   5
ATOM      5  C   UNL     1      14.554  -6.670  14.537  1.00  0.00     0.000 C 
BRANCH   5   6
ATOM      6  C   UNL     1      15.948  -6.735  15.184  1.00  0.00     0.000 C 
BRANCH   6   7
ATOM      7  C   UNL     1      16.346  -5.408  15.853  1.00  0.00     0.000 C 
BRANCH   7   8
ATOM      8  C   UNL     1      15.200  -4.380  15.839  1.00  0.00     0.000 C 
BRANCH   8   9
ATOM      9  C   UNL     1      15.290  -3.367  16.995  1.00  0.00     0.000 C 
BRANCH   9  10
ATOM     10  C   UNL     1      16.622  -2.603  17.094  1.00  0.00     0.000 C 
BRANCH  10  11
ATOM     11  C   UNL     1      17.318  -2.780  18.451  1.00  0.00     0.000 C 
BRANCH  11  12
ATOM     12  C   UNL     1      18.821  -3.022  18.273  1.00  0.00     0.006 C 
BRANCH  12  13
ATOM     13  C   UNL     1      19.207  -3.010  16.790  1.00  0.00     0.053 C 
BRANCH  13  14
ATOM     14  C   UNL     1      20.591  -2.470  16.610  1.00  0.00     0.041 C 
ATOM     15  O   UNL     1      21.544  -2.936  17.288  1.00  0.00    -0.550 OA
ATOM     16  O   UNL     1      20.835  -1.482  15.664  1.00  0.00    -0.550 OA
ENDBRANCH  13  14
ENDBRANCH  12  13
ENDBRANCH  11  12
ENDBRANCH  10  11
ENDBRANCH   9  10
ENDBRANCH   8   9
ENDBRANCH   7   8
ENDBRANCH   6   7
ENDBRANCH   5   6
ENDBRANCH   4   5
ENDBRANCH   3   4
ENDBRANCH   2   3
ENDBRANCH   1   2
BRANCH   1  17
ATOM     17  C   UNL     1      17.934  -5.418  12.468  1.00  0.00     0.000 C 
BRANCH  17  18
ATOM     18  C   UNL     1      19.324  -4.784  12.289  1.00  0.00     0.000 C 
BRANCH  18  19
ATOM     19  C   UNL     1      19.407  -3.367  12.882  1.00  0.00     0.000 C 
BRANCH  19  20
ATOM     20  C   UNL     1      18.064  -2.892  13.461  1.00  0.00     0.000 C 
BRANCH  20  21
ATOM     21  C   UNL     1      17.997  -1.362  13.618  1.00  0.00     0.000 C 
BRANCH  21  22
ATOM     22  C   UNL     1      16.737  -0.758  12.977  1.00  0.00    -0.000 C 
BRANCH  22  23
ATOM     23  C   UNL     1      15.635  -1.806  12.738  1.00  0.00    -0.000 C 
BRANCH  23  24
ATOM     24  C   UNL     1      14.358  -1.200  12.130  1.00  0.00    -0.000 C 
BRANCH  24  25
ATOM     25  C   UNL     1      13.142  -1.311  13.067  1.00  0.00    -0.000 C 
BRANCH  25  26
ATOM     26  C   UNL     1      13.125  -2.624  13.869  1.00  0.00    -0.000 C 
BRANCH  26  27
ATOM     27  C   UNL     1      11.782  -3.376  13.847  1.00  0.00    -0.000 C 
BRANCH  27  28
ATOM     28  C   UNL     1      11.691  -4.403  12.703  1.00  0.00    -0.000 C 
BRANCH  28  29
ATOM     29  C   UNL     1      11.582  -3.738  11.323  1.00  0.00    -0.003 C 
ATOM     30  C   UNL     1      12.397  -4.463  10.252  1.00  0.00     0.004 C 
ENDBRANCH  28  29
ENDBRANCH  27  28
ENDBRANCH  26  27
ENDBRANCH  25  26
ENDBRANCH  24  25
ENDBRANCH  23  24
ENDBRANCH  22  23
ENDBRANCH  21  22
ENDBRANCH  20  21
ENDBRANCH  19  20
ENDBRANCH  18  19
ENDBRANCH  17  18
ENDBRANCH   1  17
TORSDOF 26
ENDMDL
MODEL 8
REMARK VINA RESULT:    -5.766      1.154      4.681
REMARK INTER + INTRA:         -19.613
REMARK INTER:                 -15.190
REMARK INTRA:                  -4.423
REMARK UNBOUND:                -5.082
REMARK SMILES CCCCCCCCCCCCCCCCCCCCCCCCCCCC(=O)[O-]
REMARK SMILES IDX 15 1 16 2 17 3 18 4 19 5 20 6 21 7 22 8 23 9 24 10 25 11
REMARK SMILES IDX 26 12 27 13 28 14 29 15 30 16 14 17 13 18 12 19 11 20 10 21
REMARK SMILES IDX 9 22 8 23 7 24 6 25 5 26 4 27 3 28 2 29 1 30
REMARK H PARENT
REMARK Flexibility Score: inf
ROOT
ATOM      1  C   UNL     1      17.501  -5.965  11.155  1.00  0.00     0.000 C 
ENDROOT
BRANCH   1   2
ATOM      2  C   UNL     1      17.646  -4.942  12.301  1.00  0.00     0.000 C 
BRANCH   2   3
ATOM      3  C   UNL     1      19.104  -4.544  12.602  1.00  0.00     0.000 C 
BRANCH   3   4
ATOM      4  C   UNL     1      19.291  -3.607  13.810  1.00  0.00     0.000 C 
BRANCH   4   5
ATOM      5  C   UNL     1      19.044  -2.115  13.524  1.00  0.00     0.000 C 
BRANCH   5   6
ATOM      6  C   UNL     1      17.649  -1.642  13.970  1.00  0.00     0.000 C 
BRANCH   6   7
ATOM      7  C   UNL     1      16.789  -1.160  12.790  1.00  0.00     0.000 C 
BRANCH   7   8
ATOM      8  C   UNL     1      15.434  -1.888  12.719  1.00  0.00     0.000 C 
BRANCH   8   9
ATOM      9  C   UNL     1      14.279  -0.962  12.295  1.00  0.00     0.000 C 
BRANCH   9  10
ATOM     10  C   UNL     1      12.867  -1.528  12.532  1.00  0.00     0.000 C 
BRANCH  10  11
ATOM     11  C   UNL     1      12.856  -3.050  12.734  1.00  0.00     0.000 C 
BRANCH  11  12
ATOM     12  C   UNL     1      11.614  -3.682  12.095  1.00  0.00     0.006 C 
BRANCH  12  13
ATOM     13  C   UNL     1      11.695  -3.627  10.566  1.00  0.00     0.053 C 
BRANCH  13  14
ATOM     14  C   UNL     1      10.400  -4.057   9.953  1.00  0.00     0.041 C 
ATOM     15  O   UNL     1      10.356  -4.398   8.741  1.00  0.00    -0.550 OA
ATOM     16  O   UNL     1       9.249  -4.122  10.730  1.00  0.00    -0.550 OA
ENDBRANCH  13  14
ENDBRANCH  12  13
ENDBRANCH  11  12
ENDBRANCH  10  11
ENDBRANCH   9  10
ENDBRANCH   8   9
ENDBRANCH   7   8
ENDBRANCH   6   7
ENDBRANCH   5   6
ENDBRANCH   4   5
ENDBRANCH   3   4
ENDBRANCH   2   3
ENDBRANCH   1   2
BRANCH   1  17
ATOM     17  C   UNL     1      16.306  -5.658  10.234  1.00  0.00     0.000 C 
BRANCH  17  18
ATOM     18  C   UNL     1      15.073  -5.171  11.013  1.00  0.00     0.000 C 
BRANCH  18  19
ATOM     19  C   UNL     1      14.135  -6.324  11.411  1.00  0.00     0.000 C 
BRANCH  19  20
ATOM     20  C   UNL     1      13.940  -6.426  12.932  1.00  0.00     0.000 C 
BRANCH  20  21
ATOM     21  C   UNL     1      15.125  -7.111  13.636  1.00  0.00     0.000 C 
BRANCH  21  22
ATOM     22  C   UNL     1      14.992  -7.094  15.167  1.00  0.00    -0.000 C 
BRANCH  22  23
ATOM     23  C   UNL     1      15.781  -5.943  15.818  1.00  0.00    -0.000 C 
BRANCH  23  24
ATOM     24  C   UNL     1      15.389  -4.562  15.263  1.00  0.00    -0.000 C 
BRANCH  24  25
ATOM     25  C   UNL     1      14.234  -3.912  16.045  1.00  0.00    -0.000 C 
BRANCH  25  26
ATOM     26  C   UNL     1      14.725  -2.995  17.180  1.00  0.00    -0.000 C 
BRANCH  26  27
ATOM     27  C   UNL     1      16.250  -2.790  17.230  1.00  0.00    -0.000 C 
BRANCH  27  28
ATOM     28  C   UNL     1      16.819  -2.893  18.657  1.00  0.00    -0.000 C 
BRANCH  28  29
ATOM     29  C   UNL     1      18.347  -3.041  18.672  1.00  0.00    -0.003 C 
ATOM     30  C   UNL     1      18.949  -3.099  17.268  1.00  0.00     0.004 C 
ENDBRANCH  28  29
ENDBRANCH  27  28
ENDBRANCH  26  27
ENDBRANCH  25  26
ENDBRANCH  24  25
ENDBRANCH  23  24
ENDBRANCH  22  23
ENDBRANCH  21  22
ENDBRANCH  20  21
ENDBRANCH  19  20
ENDBRANCH  18  19
ENDBRANCH  17  18
ENDBRANCH   1  17
TORSDOF 26
ENDMDL
MODEL 9
REMARK VINA RESULT:    -5.763      3.627      6.622
REMARK INTER + INTRA:         -19.605
REMARK INTER:                 -14.843
REMARK INTRA:                  -4.761
REMARK UNBOUND:                -5.082
REMARK SMILES CCCCCCCCCCCCCCCCCCCCCCCCCCCC(=O)[O-]
REMARK SMILES IDX 15 1 16 2 17 3 18 4 19 5 20 6 21 7 22 8 23 9 24 10 25 11
REMARK SMILES IDX 26 12 27 13 28 14 29 15 30 16 14 17 13 18 12 19 11 20 10 21
REMARK SMILES IDX 9 22 8 23 7 24 6 25 5 26 4 27 3 28 2 29 1 30
REMARK H PARENT
REMARK Flexibility Score: inf
ROOT
ATOM      1  C   UNL     1      12.867  -5.028  12.374  1.00  0.00     0.000 C 
ENDROOT
BRANCH   1   2
ATOM      2  C   UNL     1      11.718  -4.111  12.841  1.00  0.00     0.000 C 
BRANCH   2   3
ATOM      3  C   UNL     1      11.999  -3.385  14.171  1.00  0.00     0.000 C 
BRANCH   3   4
ATOM      4  C   UNL     1      12.401  -1.904  14.036  1.00  0.00     0.000 C 
BRANCH   4   5
ATOM      5  C   UNL     1      12.935  -1.496  12.650  1.00  0.00     0.000 C 
BRANCH   5   6
ATOM      6  C   UNL     1      14.444  -1.197  12.655  1.00  0.00     0.000 C 
BRANCH   6   7
ATOM      7  C   UNL     1      15.253  -2.275  13.397  1.00  0.00     0.000 C 
BRANCH   7   8
ATOM      8  C   UNL     1      16.679  -2.424  12.837  1.00  0.00     0.000 C 
BRANCH   8   9
ATOM      9  C   UNL     1      17.624  -1.300  13.301  1.00  0.00     0.000 C 
BRANCH   9  10
ATOM     10  C   UNL     1      18.980  -1.772  13.855  1.00  0.00     0.000 C 
BRANCH  10  11
ATOM     11  C   UNL     1      19.015  -3.278  14.155  1.00  0.00     0.000 C 
BRANCH  11  12
ATOM     12  C   UNL     1      19.489  -3.543  15.588  1.00  0.00     0.006 C 
BRANCH  12  13
ATOM     13  C   UNL     1      20.349  -2.385  16.106  1.00  0.00     0.053 C 
BRANCH  13  14
ATOM     14  C   UNL     1      21.342  -2.874  17.112  1.00  0.00     0.041 C 
ATOM     15  O   UNL     1      22.319  -3.579  16.745  1.00  0.00    -0.550 OA
ATOM     16  O   UNL     1      21.213  -2.516  18.449  1.00  0.00    -0.550 OA
ENDBRANCH  13  14
ENDBRANCH  12  13
ENDBRANCH  11  12
ENDBRANCH  10  11
ENDBRANCH   9  10
ENDBRANCH   8   9
ENDBRANCH   7   8
ENDBRANCH   6   7
ENDBRANCH   5   6
ENDBRANCH   4   5
ENDBRANCH   3   4
ENDBRANCH   2   3
ENDBRANCH   1   2
BRANCH   1  17
ATOM     17  C   UNL     1      13.529  -4.535  11.076  1.00  0.00     0.000 C 
BRANCH  17  18
ATOM     18  C   UNL     1      13.454  -5.573   9.944  1.00  0.00     0.000 C 
BRANCH  18  19
ATOM     19  C   UNL     1      14.837  -5.913   9.363  1.00  0.00     0.000 C 
BRANCH  19  20
ATOM     20  C   UNL     1      15.960  -5.066   9.981  1.00  0.00     0.000 C 
BRANCH  20  21
ATOM     21  C   UNL     1      17.066  -5.925  10.620  1.00  0.00     0.000 C 
BRANCH  21  22
ATOM     22  C   UNL     1      17.202  -5.683  12.131  1.00  0.00    -0.000 C 
BRANCH  22  23
ATOM     23  C   UNL     1      16.322  -6.632  12.965  1.00  0.00    -0.000 C 
BRANCH  23  24
ATOM     24  C   UNL     1      16.298  -6.267  14.459  1.00  0.00    -0.000 C 
BRANCH  24  25
ATOM     25  C   UNL     1      14.912  -6.463  15.098  1.00  0.00    -0.000 C 
BRANCH  25  26
ATOM     26  C   UNL     1      14.536  -5.329  16.067  1.00  0.00    -0.000 C 
BRANCH  26  27
ATOM     27  C   UNL     1      15.593  -4.217  16.200  1.00  0.00    -0.000 C 
BRANCH  27  28
ATOM     28  C   UNL     1      15.141  -3.071  17.125  1.00  0.00    -0.000 C 
BRANCH  28  29
ATOM     29  C   UNL     1      16.322  -2.266  17.685  1.00  0.00    -0.003 C 
ATOM     30  C   UNL     1      17.361  -3.147  18.380  1.00  0.00     0.004 C 
ENDBRANCH  28  29
ENDBRANCH  27  28
ENDBRANCH  26  27
ENDBRANCH  25  26
ENDBRANCH  24  25
ENDBRANCH  23  24
ENDBRANCH  22  23
ENDBRANCH  21  22
ENDBRANCH  20  21
ENDBRANCH  19  20
ENDBRANCH  18  19
ENDBRANCH  17  18
ENDBRANCH   1  17
TORSDOF 26
ENDMDL
