MODEL 1
REMARK VINA RESULT:     9.538      0.000      0.000
REMARK INTER + INTRA:          20.418
REMARK INTER:                  20.690
REMARK INTRA:                  -0.272
REMARK UNBOUND:                -0.272
REMARK SMILES CCCCCCCCCCCCCCCCCCCCCC(=O)[O-]
REMARK SMILES IDX 12 1 11 2 10 3 9 4 8 5 7 6 6 7 5 8 4 9 3 10 2 11 1 12 13 13
REMARK SMILES IDX 14 14 15 15 16 16 17 17 18 18 19 19 20 20 21 21 22 22 23 23
REMARK SMILES IDX 24 24
REMARK H PARENT
REMARK Flexibility Score: inf
ROOT
ATOM      1  C   UNL     1       9.729   0.839 -13.745  1.00  0.00     0.000 C 
ENDROOT
BRANCH   1   2
ATOM      2  C   UNL     1      10.554   2.094 -14.077  1.00  0.00     0.000 C 
BRANCH   2   3
ATOM      3  C   UNL     1      10.962   2.158 -15.558  1.00  0.00     0.000 C 
BRANCH   3   4
ATOM      4  C   UNL     1      12.486   2.152 -15.758  1.00  0.00    -0.000 C 
BRANCH   4   5
ATOM      5  C   UNL     1      12.843   2.368 -17.237  1.00  0.00    -0.000 C 
BRANCH   5   6
ATOM      6  C   UNL     1      13.570   1.162 -17.855  1.00  0.00    -0.000 C 
BRANCH   6   7
ATOM      7  C   UNL     1      13.466  -0.101 -16.982  1.00  0.00    -0.000 C 
BRANCH   7   8
ATOM      8  C   UNL     1      12.024  -0.621 -16.867  1.00  0.00    -0.000 C 
BRANCH   8   9
ATOM      9  C   UNL     1      11.888  -2.086 -17.321  1.00  0.00    -0.000 C 
BRANCH   9  10
ATOM     10  C   UNL     1      10.816  -2.853 -16.529  1.00  0.00    -0.000 C 
BRANCH  10  11
ATOM     11  C   UNL     1      11.171  -4.334 -16.331  1.00  0.00    -0.003 C 
ATOM     12  C   UNL     1      11.623  -4.970 -17.644  1.00  0.00     0.004 C 
ENDBRANCH  10  11
ENDBRANCH   9  10
ENDBRANCH   8   9
ENDBRANCH   7   8
ENDBRANCH   6   7
ENDBRANCH   5   6
ENDBRANCH   4   5
ENDBRANCH   3   4
ENDBRANCH   2   3
ENDBRANCH   1   2
BRANCH   1  13
ATOM     13  C   UNL     1       8.417   1.158 -13.007  1.00  0.00     0.000 C 
BRANCH  13  14
ATOM     14  C   UNL     1       7.179   1.351 -13.908  1.00  0.00     0.000 C 
BRANCH  14  15
ATOM     15  C   UNL     1       5.839   1.502 -13.164  1.00  0.00     0.000 C 
BRANCH  15  16
ATOM     16  C   UNL     1       4.628   1.541 -14.112  1.00  0.00     0.000 C 
BRANCH  16  17
ATOM     17  C   UNL     1       3.353   0.965 -13.456  1.00  0.00     0.000 C 
BRANCH  17  18
ATOM     18  C   UNL     1       2.385   0.306 -14.455  1.00  0.00     0.000 C 
BRANCH  18  19
ATOM     19  C   UNL     1       0.923   0.716 -14.225  1.00  0.00     0.000 C 
BRANCH  19  20
ATOM     20  C   UNL     1      -0.070  -0.083 -15.089  1.00  0.00     0.006 C 
BRANCH  20  21
ATOM     21  C   UNL     1       0.362  -0.237 -16.559  1.00  0.00     0.053 C 
BRANCH  21  22
ATOM     22  C   UNL     1       0.152  -1.626 -17.082  1.00  0.00     0.041 C 
ATOM     23  O   UNL     1      -0.053  -2.580 -16.286  1.00  0.00    -0.550 OA
ATOM     24  O   UNL     1       0.212  -1.870 -18.448  1.00  0.00    -0.550 OA
ENDBRANCH  21  22
ENDBRANCH  20  21
ENDBRANCH  19  20
ENDBRANCH  18  19
ENDBRANCH  17  18
ENDBRANCH  16  17
ENDBRANCH  15  16
ENDBRANCH  14  15
ENDBRANCH  13  14
ENDBRANCH   1  13
TORSDOF 20
ENDMDL
MODEL 2
REMARK VINA RESULT:     9.745      4.571     10.287
REMARK INTER + INTRA:          20.866
REMARK INTER:                  21.142
REMARK INTRA:                  -0.276
REMARK UNBOUND:                -0.272
REMARK SMILES CCCCCCCCCCCCCCCCCCCCCC(=O)[O-]
REMARK SMILES IDX 12 1 11 2 10 3 9 4 8 5 7 6 6 7 5 8 4 9 3 10 2 11 1 12 13 13
REMARK SMILES IDX 14 14 15 15 16 16 17 17 18 18 19 19 20 20 21 21 22 22 23 23
REMARK SMILES IDX 24 24
REMARK H PARENT
REMARK Flexibility Score: inf
ROOT
ATOM      1  C   UNL     1      10.450   0.840 -13.806  1.00  0.00     0.000 C 
ENDROOT
BRANCH   1   2
ATOM      2  C   UNL     1       9.158   0.992 -12.986  1.00  0.00     0.000 C 
BRANCH   2   3
ATOM      3  C   UNL     1       7.940   1.329 -13.861  1.00  0.00     0.000 C 
BRANCH   3   4
ATOM      4  C   UNL     1       6.663   1.571 -13.039  1.00  0.00    -0.000 C 
BRANCH   4   5
ATOM      5  C   UNL     1       5.433   1.662 -13.956  1.00  0.00    -0.000 C 
BRANCH   5   6
ATOM      6  C   UNL     1       4.152   1.138 -13.286  1.00  0.00    -0.000 C 
BRANCH   6   7
ATOM      7  C   UNL     1       3.161   0.534 -14.298  1.00  0.00    -0.000 C 
BRANCH   7   8
ATOM      8  C   UNL     1       1.717   0.521 -13.771  1.00  0.00    -0.000 C 
BRANCH   8   9
ATOM      9  C   UNL     1       0.683   0.781 -14.880  1.00  0.00    -0.000 C 
BRANCH   9  10
ATOM     10  C   UNL     1       0.188  -0.516 -15.543  1.00  0.00    -0.000 C 
BRANCH  10  11
ATOM     11  C   UNL     1       0.296  -0.477 -17.075  1.00  0.00    -0.003 C 
ATOM     12  C   UNL     1       0.361  -1.887 -17.656  1.00  0.00     0.004 C 
ENDBRANCH  10  11
ENDBRANCH   9  10
ENDBRANCH   8   9
ENDBRANCH   7   8
ENDBRANCH   6   7
ENDBRANCH   5   6
ENDBRANCH   4   5
ENDBRANCH   3   4
ENDBRANCH   2   3
ENDBRANCH   1   2
BRANCH   1  13
ATOM     13  C   UNL     1      10.578   1.885 -14.928  1.00  0.00     0.000 C 
BRANCH  13  14
ATOM     14  C   UNL     1      11.791   1.705 -15.866  1.00  0.00     0.000 C 
BRANCH  14  15
ATOM     15  C   UNL     1      12.326   0.266 -15.982  1.00  0.00     0.000 C 
BRANCH  15  16
ATOM     16  C   UNL     1      11.209  -0.776 -16.169  1.00  0.00     0.000 C 
BRANCH  16  17
ATOM     17  C   UNL     1      11.738  -2.101 -16.762  1.00  0.00     0.000 C 
BRANCH  17  18
ATOM     18  C   UNL     1      10.824  -3.310 -16.493  1.00  0.00     0.000 C 
BRANCH  18  19
ATOM     19  C   UNL     1      11.036  -4.451 -17.498  1.00  0.00     0.000 C 
BRANCH  19  20
ATOM     20  C   UNL     1      12.470  -5.013 -17.479  1.00  0.00     0.006 C 
BRANCH  20  21
ATOM     21  C   UNL     1      12.710  -6.150 -18.489  1.00  0.00     0.053 C 
BRANCH  21  22
ATOM     22  C   UNL     1      14.151  -6.553 -18.576  1.00  0.00     0.041 C 
ATOM     23  O   UNL     1      14.947  -5.912 -19.312  1.00  0.00    -0.550 OA
ATOM     24  O   UNL     1      14.609  -7.656 -17.865  1.00  0.00    -0.550 OA
ENDBRANCH  21  22
ENDBRANCH  20  21
ENDBRANCH  19  20
ENDBRANCH  18  19
ENDBRANCH  17  18
ENDBRANCH  16  17
ENDBRANCH  15  16
ENDBRANCH  14  15
ENDBRANCH  13  14
ENDBRANCH   1  13
TORSDOF 20
ENDMDL
MODEL 3
REMARK VINA RESULT:     9.804      4.555     10.138
REMARK INTER + INTRA:          20.995
REMARK INTER:                  21.764
REMARK INTRA:                  -0.769
REMARK UNBOUND:                -0.272
REMARK SMILES CCCCCCCCCCCCCCCCCCCCCC(=O)[O-]
REMARK SMILES IDX 12 1 11 2 10 3 9 4 8 5 7 6 6 7 5 8 4 9 3 10 2 11 1 12 13 13
REMARK SMILES IDX 14 14 15 15 16 16 17 17 18 18 19 19 20 20 21 21 22 22 23 23
REMARK SMILES IDX 24 24
REMARK H PARENT
REMARK Flexibility Score: inf
ROOT
ATOM      1  C   UNL     1      10.412   1.995 -15.152  1.00  0.00     0.000 C 
ENDROOT
BRANCH   1   2
ATOM      2  C   UNL     1      10.111   1.755 -13.663  1.00  0.00     0.000 C 
BRANCH   2   3
ATOM      3  C   UNL     1       8.882   0.858 -13.446  1.00  0.00     0.000 C 
BRANCH   3   4
ATOM      4  C   UNL     1       7.605   1.658 -13.142  1.00  0.00    -0.000 C 
BRANCH   4   5
ATOM      5  C   UNL     1       6.499   1.328 -14.156  1.00  0.00    -0.000 C 
BRANCH   5   6
ATOM      6  C   UNL     1       5.150   1.972 -13.796  1.00  0.00    -0.000 C 
BRANCH   6   7
ATOM      7  C   UNL     1       4.132   0.948 -13.260  1.00  0.00    -0.000 C 
BRANCH   7   8
ATOM      8  C   UNL     1       3.065   0.578 -14.304  1.00  0.00    -0.000 C 
BRANCH   8   9
ATOM      9  C   UNL     1       1.637   0.891 -13.823  1.00  0.00    -0.000 C 
BRANCH   9  10
ATOM     10  C   UNL     1       0.563   0.160 -14.645  1.00  0.00    -0.000 C 
BRANCH  10  11
ATOM     11  C   UNL     1       1.158  -0.705 -15.765  1.00  0.00    -0.003 C 
ATOM     12  C   UNL     1       0.492  -0.403 -17.105  1.00  0.00     0.004 C 
ENDBRANCH  10  11
ENDBRANCH   9  10
ENDBRANCH   8   9
ENDBRANCH   7   8
ENDBRANCH   6   7
ENDBRANCH   5   6
ENDBRANCH   4   5
ENDBRANCH   3   4
ENDBRANCH   2   3
ENDBRANCH   1   2
BRANCH   1  13
ATOM     13  C   UNL     1      11.919   2.044 -15.461  1.00  0.00     0.000 C 
BRANCH  13  14
ATOM     14  C   UNL     1      12.316   1.615 -16.890  1.00  0.00     0.000 C 
BRANCH  14  15
ATOM     15  C   UNL     1      12.705   0.134 -17.050  1.00  0.00     0.000 C 
BRANCH  15  16
ATOM     16  C   UNL     1      11.549  -0.828 -16.722  1.00  0.00     0.000 C 
BRANCH  16  17
ATOM     17  C   UNL     1      11.935  -2.307 -16.952  1.00  0.00     0.000 C 
BRANCH  17  18
ATOM     18  C   UNL     1      10.751  -3.283 -16.829  1.00  0.00     0.000 C 
BRANCH  18  19
ATOM     19  C   UNL     1      11.175  -4.752 -16.974  1.00  0.00     0.000 C 
BRANCH  19  20
ATOM     20  C   UNL     1      12.232  -4.969 -18.072  1.00  0.00     0.006 C 
BRANCH  20  21
ATOM     21  C   UNL     1      12.669  -6.437 -18.239  1.00  0.00     0.053 C 
BRANCH  21  22
ATOM     22  C   UNL     1      14.124  -6.574 -18.568  1.00  0.00     0.041 C 
ATOM     23  O   UNL     1      14.712  -5.682 -19.234  1.00  0.00    -0.550 OA
ATOM     24  O   UNL     1      14.825  -7.703 -18.161  1.00  0.00    -0.550 OA
ENDBRANCH  21  22
ENDBRANCH  20  21
ENDBRANCH  19  20
ENDBRANCH  18  19
ENDBRANCH  17  18
ENDBRANCH  16  17
ENDBRANCH  15  16
ENDBRANCH  14  15
ENDBRANCH  13  14
ENDBRANCH   1  13
TORSDOF 20
ENDMDL
MODEL 4
REMARK VINA RESULT:    10.041      1.014      1.731
REMARK INTER + INTRA:          21.510
REMARK INTER:                  22.541
REMARK INTRA:                  -1.031
REMARK UNBOUND:                -0.272
REMARK SMILES CCCCCCCCCCCCCCCCCCCCCC(=O)[O-]
REMARK SMILES IDX 12 1 11 2 10 3 9 4 8 5 7 6 6 7 5 8 4 9 3 10 2 11 1 12 13 13
REMARK SMILES IDX 14 14 15 15 16 16 17 17 18 18 19 19 20 20 21 21 22 22 23 23
REMARK SMILES IDX 24 24
REMARK H PARENT
REMARK Flexibility Score: inf
ROOT
ATOM      1  C   UNL     1       9.272   0.713 -13.345  1.00  0.00     0.000 C 
ENDROOT
BRANCH   1   2
ATOM      2  C   UNL     1      10.220   1.643 -14.120  1.00  0.00     0.000 C 
BRANCH   2   3
ATOM      3  C   UNL     1      11.361   0.881 -14.812  1.00  0.00     0.000 C 
BRANCH   3   4
ATOM      4  C   UNL     1      11.697   1.443 -16.202  1.00  0.00    -0.000 C 
BRANCH   4   5
ATOM      5  C   UNL     1      12.521   0.432 -17.015  1.00  0.00    -0.000 C 
BRANCH   5   6
ATOM      6  C   UNL     1      12.476  -0.986 -16.422  1.00  0.00    -0.000 C 
BRANCH   6   7
ATOM      7  C   UNL     1      11.408  -1.871 -17.088  1.00  0.00    -0.000 C 
BRANCH   7   8
ATOM      8  C   UNL     1      10.826  -2.918 -16.124  1.00  0.00    -0.000 C 
BRANCH   8   9
ATOM      9  C   UNL     1      11.220  -4.356 -16.508  1.00  0.00    -0.000 C 
BRANCH   9  10
ATOM     10  C   UNL     1      11.725  -4.464 -17.956  1.00  0.00    -0.000 C 
BRANCH  10  11
ATOM     11  C   UNL     1      11.986  -5.916 -18.386  1.00  0.00    -0.003 C 
ATOM     12  C   UNL     1      13.481  -6.225 -18.393  1.00  0.00     0.004 C 
ENDBRANCH  10  11
ENDBRANCH   9  10
ENDBRANCH   8   9
ENDBRANCH   7   8
ENDBRANCH   6   7
ENDBRANCH   5   6
ENDBRANCH   4   5
ENDBRANCH   3   4
ENDBRANCH   2   3
ENDBRANCH   1   2
BRANCH   1  13
ATOM     13  C   UNL     1       8.026   1.436 -12.804  1.00  0.00     0.000 C 
BRANCH  13  14
ATOM     14  C   UNL     1       6.733   1.232 -13.623  1.00  0.00     0.000 C 
BRANCH  14  15
ATOM     15  C   UNL     1       5.662   2.324 -13.445  1.00  0.00     0.000 C 
BRANCH  15  16
ATOM     16  C   UNL     1       4.297   1.927 -14.035  1.00  0.00     0.000 C 
BRANCH  16  17
ATOM     17  C   UNL     1       3.552   0.904 -13.149  1.00  0.00     0.000 C 
BRANCH  17  18
ATOM     18  C   UNL     1       2.323   0.273 -13.828  1.00  0.00     0.000 C 
BRANCH  18  19
ATOM     19  C   UNL     1       1.195   1.286 -14.075  1.00  0.00     0.000 C 
BRANCH  19  20
ATOM     20  C   UNL     1       0.069   0.729 -14.966  1.00  0.00     0.006 C 
BRANCH  20  21
ATOM     21  C   UNL     1       0.357  -0.672 -15.536  1.00  0.00     0.053 C 
BRANCH  21  22
ATOM     22  C   UNL     1       0.291  -0.713 -17.032  1.00  0.00     0.041 C 
ATOM     23  O   UNL     1       0.022   0.329 -17.686  1.00  0.00    -0.550 OA
ATOM     24  O   UNL     1       0.499  -1.911 -17.705  1.00  0.00    -0.550 OA
ENDBRANCH  21  22
ENDBRANCH  20  21
ENDBRANCH  19  20
ENDBRANCH  18  19
ENDBRANCH  17  18
ENDBRANCH  16  17
ENDBRANCH  15  16
ENDBRANCH  14  15
ENDBRANCH  13  14
ENDBRANCH   1  13
TORSDOF 20
ENDMDL
MODEL 5
REMARK VINA RESULT:    10.260      4.559     10.502
REMARK INTER + INTRA:          21.984
REMARK INTER:                  22.977
REMARK INTRA:                  -0.993
REMARK UNBOUND:                -0.272
REMARK SMILES CCCCCCCCCCCCCCCCCCCCCC(=O)[O-]
REMARK SMILES IDX 12 1 11 2 10 3 9 4 8 5 7 6 6 7 5 8 4 9 3 10 2 11 1 12 13 13
REMARK SMILES IDX 14 14 15 15 16 16 17 17 18 18 19 19 20 20 21 21 22 22 23 23
REMARK SMILES IDX 24 24
REMARK H PARENT
REMARK Flexibility Score: inf
ROOT
ATOM      1  C   UNL     1       5.946   2.054 -14.832  1.00  0.00     0.000 C 
ENDROOT
BRANCH   1   2
ATOM      2  C   UNL     1       4.628   2.450 -14.146  1.00  0.00     0.000 C 
BRANCH   2   3
ATOM      3  C   UNL     1       4.370   1.654 -12.857  1.00  0.00     0.000 C 
BRANCH   3   4
ATOM      4  C   UNL     1       3.017   0.924 -12.867  1.00  0.00    -0.000 C 
BRANCH   4   5
ATOM      5  C   UNL     1       2.607   0.553 -14.300  1.00  0.00    -0.000 C 
BRANCH   5   6
ATOM      6  C   UNL     1       1.093   0.681 -14.538  1.00  0.00    -0.000 C 
BRANCH   6   7
ATOM      7  C   UNL     1       0.658   0.105 -15.898  1.00  0.00    -0.000 C 
BRANCH   7   8
ATOM      8  C   UNL     1      -0.036  -1.261 -15.764  1.00  0.00    -0.000 C 
BRANCH   8   9
ATOM      9  C   UNL     1       0.403  -2.254 -16.853  1.00  0.00    -0.000 C 
BRANCH   9  10
ATOM     10  C   UNL     1       0.292  -1.667 -18.270  1.00  0.00    -0.000 C 
BRANCH  10  11
ATOM     11  C   UNL     1      -0.116  -2.715 -19.316  1.00  0.00    -0.003 C 
ATOM     12  C   UNL     1       0.268  -2.264 -20.723  1.00  0.00     0.004 C 
ENDBRANCH  10  11
ENDBRANCH   9  10
ENDBRANCH   8   9
ENDBRANCH   7   8
ENDBRANCH   6   7
ENDBRANCH   5   6
ENDBRANCH   4   5
ENDBRANCH   3   4
ENDBRANCH   2   3
ENDBRANCH   1   2
BRANCH   1  13
ATOM     13  C   UNL     1       6.777   1.054 -14.008  1.00  0.00     0.000 C 
BRANCH  13  14
ATOM     14  C   UNL     1       7.916   1.672 -13.169  1.00  0.00     0.000 C 
BRANCH  14  15
ATOM     15  C   UNL     1       9.309   1.056 -13.397  1.00  0.00     0.000 C 
BRANCH  15  16
ATOM     16  C   UNL     1      10.434   2.106 -13.408  1.00  0.00     0.000 C 
BRANCH  16  17
ATOM     17  C   UNL     1      10.594   2.779 -14.790  1.00  0.00     0.000 C 
BRANCH  17  18
ATOM     18  C   UNL     1      11.699   2.154 -15.660  1.00  0.00     0.000 C 
BRANCH  18  19
ATOM     19  C   UNL     1      11.454   0.667 -15.956  1.00  0.00     0.000 C 
BRANCH  19  20
ATOM     20  C   UNL     1      12.521   0.052 -16.879  1.00  0.00     0.006 C 
BRANCH  20  21
ATOM     21  C   UNL     1      13.845   0.838 -16.916  1.00  0.00     0.053 C 
BRANCH  21  22
ATOM     22  C   UNL     1      14.235   1.251 -18.303  1.00  0.00     0.041 C 
ATOM     23  O   UNL     1      13.727   2.277 -18.827  1.00  0.00    -0.550 OA
ATOM     24  O   UNL     1      15.139   0.484 -19.027  1.00  0.00    -0.550 OA
ENDBRANCH  21  22
ENDBRANCH  20  21
ENDBRANCH  19  20
ENDBRANCH  18  19
ENDBRANCH  17  18
ENDBRANCH  16  17
ENDBRANCH  15  16
ENDBRANCH  14  15
ENDBRANCH  13  14
ENDBRANCH   1  13
TORSDOF 20
ENDMDL
MODEL 6
REMARK VINA RESULT:    10.264      2.235      3.869
REMARK INTER + INTRA:          21.993
REMARK INTER:                  23.023
REMARK INTRA:                  -1.030
REMARK UNBOUND:                -0.272
REMARK SMILES CCCCCCCCCCCCCCCCCCCCCC(=O)[O-]
REMARK SMILES IDX 12 1 11 2 10 3 9 4 8 5 7 6 6 7 5 8 4 9 3 10 2 11 1 12 13 13
REMARK SMILES IDX 14 14 15 15 16 16 17 17 18 18 19 19 20 20 21 21 22 22 23 23
REMARK SMILES IDX 24 24
REMARK H PARENT
REMARK Flexibility Score: inf
ROOT
ATOM      1  C   UNL     1       6.147   2.337 -13.565  1.00  0.00     0.000 C 
ENDROOT
BRANCH   1   2
ATOM      2  C   UNL     1       7.292   1.419 -14.026  1.00  0.00     0.000 C 
BRANCH   2   3
ATOM      3  C   UNL     1       8.211   0.996 -12.869  1.00  0.00     0.000 C 
BRANCH   3   4
ATOM      4  C   UNL     1       9.695   0.961 -13.269  1.00  0.00    -0.000 C 
BRANCH   4   5
ATOM      5  C   UNL     1      10.162   2.341 -13.759  1.00  0.00    -0.000 C 
BRANCH   5   6
ATOM      6  C   UNL     1      11.200   2.251 -14.890  1.00  0.00    -0.000 C 
BRANCH   6   7
ATOM      7  C   UNL     1      11.568   0.797 -15.238  1.00  0.00    -0.000 C 
BRANCH   7   8
ATOM      8  C   UNL     1      12.631   0.709 -16.346  1.00  0.00    -0.000 C 
BRANCH   8   9
ATOM      9  C   UNL     1      12.915   2.072 -16.999  1.00  0.00    -0.000 C 
BRANCH   9  10
ATOM     10  C   UNL     1      14.005   1.994 -18.082  1.00  0.00    -0.000 C 
BRANCH  10  11
ATOM     11  C   UNL     1      14.925   0.777 -17.911  1.00  0.00    -0.003 C 
ATOM     12  C   UNL     1      15.331   0.202 -19.266  1.00  0.00     0.004 C 
ENDBRANCH  10  11
ENDBRANCH   9  10
ENDBRANCH   8   9
ENDBRANCH   7   8
ENDBRANCH   6   7
ENDBRANCH   5   6
ENDBRANCH   4   5
ENDBRANCH   3   4
ENDBRANCH   2   3
ENDBRANCH   1   2
BRANCH   1  13
ATOM     13  C   UNL     1       4.761   1.845 -14.017  1.00  0.00     0.000 C 
BRANCH  13  14
ATOM     14  C   UNL     1       3.898   1.193 -12.915  1.00  0.00     0.000 C 
BRANCH  14  15
ATOM     15  C   UNL     1       2.896   0.131 -13.405  1.00  0.00     0.000 C 
BRANCH  15  16
ATOM     16  C   UNL     1       2.376   0.408 -14.827  1.00  0.00     0.000 C 
BRANCH  16  17
ATOM     17  C   UNL     1       1.293  -0.604 -15.263  1.00  0.00     0.000 C 
BRANCH  17  18
ATOM     18  C   UNL     1      -0.052   0.046 -15.631  1.00  0.00     0.000 C 
BRANCH  18  19
ATOM     19  C   UNL     1      -0.119   0.483 -17.102  1.00  0.00     0.000 C 
BRANCH  19  20
ATOM     20  C   UNL     1       0.563  -0.512 -18.058  1.00  0.00     0.006 C 
BRANCH  20  21
ATOM     21  C   UNL     1      -0.125  -1.888 -18.125  1.00  0.00     0.053 C 
BRANCH  21  22
ATOM     22  C   UNL     1      -0.085  -2.489 -19.497  1.00  0.00     0.041 C 
ATOM     23  O   UNL     1      -0.044  -1.749 -20.515  1.00  0.00    -0.550 OA
ATOM     24  O   UNL     1      -0.123  -3.870 -19.652  1.00  0.00    -0.550 OA
ENDBRANCH  21  22
ENDBRANCH  20  21
ENDBRANCH  19  20
ENDBRANCH  18  19
ENDBRANCH  17  18
ENDBRANCH  16  17
ENDBRANCH  15  16
ENDBRANCH  14  15
ENDBRANCH  13  14
ENDBRANCH   1  13
TORSDOF 20
ENDMDL
MODEL 7
REMARK VINA RESULT:    10.552      2.085      3.432
REMARK INTER + INTRA:          22.618
REMARK INTER:                  23.513
REMARK INTRA:                  -0.895
REMARK UNBOUND:                -0.272
REMARK SMILES CCCCCCCCCCCCCCCCCCCCCC(=O)[O-]
REMARK SMILES IDX 12 1 11 2 10 3 9 4 8 5 7 6 6 7 5 8 4 9 3 10 2 11 1 12 13 13
REMARK SMILES IDX 14 14 15 15 16 16 17 17 18 18 19 19 20 20 21 21 22 22 23 23
REMARK SMILES IDX 24 24
REMARK H PARENT
REMARK Flexibility Score: inf
ROOT
ATOM      1  C   UNL     1       6.920   1.412 -13.004  1.00  0.00     0.000 C 
ENDROOT
BRANCH   1   2
ATOM      2  C   UNL     1       8.372   1.103 -13.408  1.00  0.00     0.000 C 
BRANCH   2   3
ATOM      3  C   UNL     1       9.352   2.206 -12.977  1.00  0.00     0.000 C 
BRANCH   3   4
ATOM      4  C   UNL     1      10.755   2.025 -13.577  1.00  0.00    -0.000 C 
BRANCH   4   5
ATOM      5  C   UNL     1      10.675   1.379 -14.969  1.00  0.00    -0.000 C 
BRANCH   5   6
ATOM      6  C   UNL     1      11.810   1.834 -15.902  1.00  0.00    -0.000 C 
BRANCH   6   7
ATOM      7  C   UNL     1      12.439   0.664 -16.681  1.00  0.00    -0.000 C 
BRANCH   7   8
ATOM      8  C   UNL     1      13.974   0.738 -16.714  1.00  0.00    -0.000 C 
BRANCH   8   9
ATOM      9  C   UNL     1      14.574  -0.013 -17.917  1.00  0.00    -0.000 C 
BRANCH   9  10
ATOM     10  C   UNL     1      15.161   0.937 -18.974  1.00  0.00    -0.000 C 
BRANCH  10  11
ATOM     11  C   UNL     1      14.092   1.513 -19.914  1.00  0.00    -0.003 C 
ATOM     12  C   UNL     1      13.482   2.787 -19.335  1.00  0.00     0.004 C 
ENDBRANCH  10  11
ENDBRANCH   9  10
ENDBRANCH   8   9
ENDBRANCH   7   8
ENDBRANCH   6   7
ENDBRANCH   5   6
ENDBRANCH   4   5
ENDBRANCH   3   4
ENDBRANCH   2   3
ENDBRANCH   1   2
BRANCH   1  13
ATOM     13  C   UNL     1       5.970   1.523 -14.209  1.00  0.00     0.000 C 
BRANCH  13  14
ATOM     14  C   UNL     1       4.514   1.908 -13.871  1.00  0.00     0.000 C 
BRANCH  14  15
ATOM     15  C   UNL     1       3.489   0.763 -13.973  1.00  0.00     0.000 C 
BRANCH  15  16
ATOM     16  C   UNL     1       2.236   1.002 -13.112  1.00  0.00     0.000 C 
BRANCH  16  17
ATOM     17  C   UNL     1       0.972   0.360 -13.727  1.00  0.00     0.000 C 
BRANCH  17  18
ATOM     18  C   UNL     1      -0.000   1.378 -14.351  1.00  0.00     0.000 C 
BRANCH  18  19
ATOM     19  C   UNL     1      -0.063   1.278 -15.882  1.00  0.00     0.000 C 
BRANCH  19  20
ATOM     20  C   UNL     1       0.516  -0.040 -16.426  1.00  0.00     0.006 C 
BRANCH  20  21
ATOM     21  C   UNL     1      -0.115  -0.502 -17.752  1.00  0.00     0.053 C 
BRANCH  21  22
ATOM     22  C   UNL     1      -0.045  -1.987 -17.941  1.00  0.00     0.041 C 
ATOM     23  O   UNL     1       0.033  -2.752 -16.944  1.00  0.00    -0.550 OA
ATOM     24  O   UNL     1      -0.038  -2.525 -19.222  1.00  0.00    -0.550 OA
ENDBRANCH  21  22
ENDBRANCH  20  21
ENDBRANCH  19  20
ENDBRANCH  18  19
ENDBRANCH  17  18
ENDBRANCH  16  17
ENDBRANCH  15  16
ENDBRANCH  14  15
ENDBRANCH  13  14
ENDBRANCH   1  13
TORSDOF 20
ENDMDL
MODEL 8
REMARK VINA RESULT:    10.684      1.108      2.422
REMARK INTER + INTRA:          22.904
REMARK INTER:                  23.390
REMARK INTRA:                  -0.487
REMARK UNBOUND:                -0.272
REMARK SMILES CCCCCCCCCCCCCCCCCCCCCC(=O)[O-]
REMARK SMILES IDX 12 1 11 2 10 3 9 4 8 5 7 6 6 7 5 8 4 9 3 10 2 11 1 12 13 13
REMARK SMILES IDX 14 14 15 15 16 16 17 17 18 18 19 19 20 20 21 21 22 22 23 23
REMARK SMILES IDX 24 24
REMARK H PARENT
REMARK Flexibility Score: inf
ROOT
ATOM      1  C   UNL     1       6.871   1.838 -14.145  1.00  0.00     0.000 C 
ENDROOT
BRANCH   1   2
ATOM      2  C   UNL     1       7.755   1.090 -13.133  1.00  0.00     0.000 C 
BRANCH   2   3
ATOM      3  C   UNL     1       9.216   0.976 -13.595  1.00  0.00     0.000 C 
BRANCH   3   4
ATOM      4  C   UNL     1       9.972   2.313 -13.522  1.00  0.00    -0.000 C 
BRANCH   4   5
ATOM      5  C   UNL     1      10.882   2.494 -14.747  1.00  0.00    -0.000 C 
BRANCH   5   6
ATOM      6  C   UNL     1      11.538   1.179 -15.200  1.00  0.00    -0.000 C 
BRANCH   6   7
ATOM      7  C   UNL     1      12.060   1.248 -16.647  1.00  0.00    -0.000 C 
BRANCH   7   8
ATOM      8  C   UNL     1      12.459  -0.132 -17.195  1.00  0.00    -0.000 C 
BRANCH   8   9
ATOM      9  C   UNL     1      11.944  -1.286 -16.317  1.00  0.00    -0.000 C 
BRANCH   9  10
ATOM     10  C   UNL     1      10.855  -2.119 -17.014  1.00  0.00    -0.000 C 
BRANCH  10  11
ATOM     11  C   UNL     1      10.696  -3.519 -16.403  1.00  0.00    -0.003 C 
ATOM     12  C   UNL     1      11.576  -4.535 -17.126  1.00  0.00     0.004 C 
ENDBRANCH  10  11
ENDBRANCH   9  10
ENDBRANCH   8   9
ENDBRANCH   7   8
ENDBRANCH   6   7
ENDBRANCH   5   6
ENDBRANCH   4   5
ENDBRANCH   3   4
ENDBRANCH   2   3
ENDBRANCH   1   2
BRANCH   1  13
ATOM     13  C   UNL     1       5.461   2.138 -13.607  1.00  0.00     0.000 C 
BRANCH  13  14
ATOM     14  C   UNL     1       4.430   1.003 -13.782  1.00  0.00     0.000 C 
BRANCH  14  15
ATOM     15  C   UNL     1       2.954   1.442 -13.740  1.00  0.00     0.000 C 
BRANCH  15  16
ATOM     16  C   UNL     1       1.993   0.285 -13.417  1.00  0.00     0.000 C 
BRANCH  16  17
ATOM     17  C   UNL     1       0.513   0.678 -13.622  1.00  0.00     0.000 C 
BRANCH  17  18
ATOM     18  C   UNL     1       0.260   1.498 -14.899  1.00  0.00     0.000 C 
BRANCH  18  19
ATOM     19  C   UNL     1      -0.014   0.617 -16.128  1.00  0.00     0.000 C 
BRANCH  19  20
ATOM     20  C   UNL     1       0.850  -0.658 -16.160  1.00  0.00     0.006 C 
BRANCH  20  21
ATOM     21  C   UNL     1       0.143  -1.877 -16.780  1.00  0.00     0.053 C 
BRANCH  21  22
ATOM     22  C   UNL     1       0.003  -1.772 -18.267  1.00  0.00     0.041 C 
ATOM     23  O   UNL     1      -0.028  -0.642 -18.824  1.00  0.00    -0.550 OA
ATOM     24  O   UNL     1      -0.123  -2.921 -19.037  1.00  0.00    -0.550 OA
ENDBRANCH  21  22
ENDBRANCH  20  21
ENDBRANCH  19  20
ENDBRANCH  18  19
ENDBRANCH  17  18
ENDBRANCH  16  17
ENDBRANCH  15  16
ENDBRANCH  14  15
ENDBRANCH  13  14
ENDBRANCH   1  13
TORSDOF 20
ENDMDL
MODEL 9
REMARK VINA RESULT:    10.737      4.858     11.077
REMARK INTER + INTRA:          23.018
REMARK INTER:                  23.893
REMARK INTRA:                  -0.875
REMARK UNBOUND:                -0.272
REMARK SMILES CCCCCCCCCCCCCCCCCCCCCC(=O)[O-]
REMARK SMILES IDX 12 1 11 2 10 3 9 4 8 5 7 6 6 7 5 8 4 9 3 10 2 11 1 12 13 13
REMARK SMILES IDX 14 14 15 15 16 16 17 17 18 18 19 19 20 20 21 21 22 22 23 23
REMARK SMILES IDX 24 24
REMARK H PARENT
REMARK Flexibility Score: inf
ROOT
ATOM      1  C   UNL     1       7.468   1.529 -13.873  1.00  0.00     0.000 C 
ENDROOT
BRANCH   1   2
ATOM      2  C   UNL     1       6.134   1.615 -13.112  1.00  0.00     0.000 C 
BRANCH   2   3
ATOM      3  C   UNL     1       4.929   1.790 -14.050  1.00  0.00     0.000 C 
BRANCH   3   4
ATOM      4  C   UNL     1       3.829   0.744 -13.810  1.00  0.00    -0.000 C 
BRANCH   4   5
ATOM      5  C   UNL     1       2.435   1.377 -13.941  1.00  0.00    -0.000 C 
BRANCH   5   6
ATOM      6  C   UNL     1       1.299   0.356 -13.766  1.00  0.00    -0.000 C 
BRANCH   6   7
ATOM      7  C   UNL     1       0.030   0.745 -14.546  1.00  0.00    -0.000 C 
BRANCH   7   8
ATOM      8  C   UNL     1       0.339   1.204 -15.981  1.00  0.00    -0.000 C 
BRANCH   8   9
ATOM      9  C   UNL     1       0.041   0.114 -17.025  1.00  0.00    -0.000 C 
BRANCH   9  10
ATOM     10  C   UNL     1       0.467  -1.288 -16.556  1.00  0.00    -0.000 C 
BRANCH  10  11
ATOM     11  C   UNL     1      -0.124  -2.409 -17.423  1.00  0.00    -0.003 C 
ATOM     12  C   UNL     1       0.066  -2.112 -18.908  1.00  0.00     0.004 C 
ENDBRANCH  10  11
ENDBRANCH   9  10
ENDBRANCH   8   9
ENDBRANCH   7   8
ENDBRANCH   6   7
ENDBRANCH   5   6
ENDBRANCH   4   5
ENDBRANCH   3   4
ENDBRANCH   2   3
ENDBRANCH   1   2
BRANCH   1  13
ATOM     13  C   UNL     1       8.541   0.725 -13.119  1.00  0.00     0.000 C 
BRANCH  13  14
ATOM     14  C   UNL     1       9.996   1.189 -13.344  1.00  0.00     0.000 C 
BRANCH  14  15
ATOM     15  C   UNL     1      10.169   2.368 -14.320  1.00  0.00     0.000 C 
BRANCH  15  16
ATOM     16  C   UNL     1      11.465   2.279 -15.144  1.00  0.00     0.000 C 
BRANCH  16  17
ATOM     17  C   UNL     1      11.370   1.230 -16.274  1.00  0.00     0.000 C 
BRANCH  17  18
ATOM     18  C   UNL     1      12.644   1.124 -17.131  1.00  0.00     0.000 C 
BRANCH  18  19
ATOM     19  C   UNL     1      13.784   2.015 -16.616  1.00  0.00     0.000 C 
BRANCH  19  20
ATOM     20  C   UNL     1      15.180   1.422 -16.879  1.00  0.00     0.006 C 
BRANCH  20  21
ATOM     21  C   UNL     1      15.186   0.263 -17.894  1.00  0.00     0.053 C 
BRANCH  21  22
ATOM     22  C   UNL     1      15.427   0.725 -19.298  1.00  0.00     0.041 C 
ATOM     23  O   UNL     1      16.555   0.563 -19.836  1.00  0.00    -0.550 OA
ATOM     24  O   UNL     1      14.413   1.359 -20.005  1.00  0.00    -0.550 OA
ENDBRANCH  21  22
ENDBRANCH  20  21
ENDBRANCH  19  20
ENDBRANCH  18  19
ENDBRANCH  17  18
ENDBRANCH  16  17
ENDBRANCH  15  16
ENDBRANCH  14  15
ENDBRANCH  13  14
ENDBRANCH   1  13
TORSDOF 20
ENDMDL
