MODEL 1
REMARK VINA RESULT:    -5.527      0.000      0.000
REMARK INTER + INTRA:          -6.647
REMARK INTER:                  -7.628
REMARK INTRA:                   0.981
REMARK UNBOUND:                 0.981
REMARK SMILES CC[C@@H](CC[C@@H](C)[C@H]1CC[C@H]2[C@H]3CC=C4C[C@H](O)CC[C@]4(C)[C@H]3CC[C@]12C)C(C)C
REMARK SMILES IDX 5 1 4 2 3 3 2 4 1 5 28 6 29 7 30 8 6 9 7 10 8 11 9 12 26 13
REMARK SMILES IDX 10 14 11 15 25 16 27 17 12 18 24 19 23 20 13 21 21 22 14 23
REMARK SMILES IDX 15 24 20 25 22 26 16 27 19 28 17 29 18 30
REMARK H PARENT 18 31
REMARK Flexibility Score: inf
ROOT
ATOM      1  C   UNL     1     -23.503 -14.623 -13.216  1.00  0.00     0.004 C 
ENDROOT
BRANCH   1   2
ATOM      2  C   UNL     1     -22.019 -15.035 -13.357  1.00  0.00     0.004 C 
BRANCH   2   3
ATOM      3  C   UNL     1     -21.083 -13.875 -13.833  1.00  0.00    -0.009 C 
BRANCH   3   4
ATOM      4  C   UNL     1     -20.999 -13.875 -15.389  1.00  0.00     0.000 C 
ATOM      5  C   UNL     1     -22.354 -13.995 -16.098  1.00  0.00     0.004 C 
ENDBRANCH   3   4
BRANCH   3   6
ATOM      6  C   UNL     1     -19.666 -13.891 -13.147  1.00  0.00    -0.014 C 
ATOM      7  C   UNL     1     -18.801 -15.073 -13.616  1.00  0.00     0.007 C 
ATOM      8  C   UNL     1     -19.779 -13.945 -11.611  1.00  0.00     0.007 C 
ENDBRANCH   3   6
ENDBRANCH   2   3
ENDBRANCH   1   2
BRANCH   1   9
ATOM      9  C   UNL     1     -24.484 -15.653 -13.848  1.00  0.00    -0.011 C 
ATOM     10  C   UNL     1     -25.164 -15.043 -15.094  1.00  0.00     0.008 C 
BRANCH   9  11
ATOM     11  C   UNL     1     -23.835 -17.039 -14.222  1.00  0.00    -0.002 C 
ATOM     12  C   UNL     1     -22.320 -17.227 -13.930  1.00  0.00     0.005 C 
ATOM     13  C   UNL     1     -24.493 -18.328 -13.651  1.00  0.00    -0.026 C 
ATOM     14  C   UNL     1     -22.086 -18.745 -13.789  1.00  0.00     0.005 C 
ATOM     15  C   UNL     1     -23.450 -19.359 -14.099  1.00  0.00    -0.001 C 
ATOM     16  C   UNL     1     -25.837 -18.714 -14.315  1.00  0.00     0.007 C 
ATOM     17  C   UNL     1     -24.650 -18.221 -12.108  1.00  0.00     0.012 C 
ATOM     18  C   UNL     1     -23.741 -20.844 -13.788  1.00  0.00     0.000 C 
ATOM     19  C   UNL     1     -26.269 -20.146 -13.922  1.00  0.00     0.005 C 
ATOM     20  C   UNL     1     -25.196 -21.251 -14.216  1.00  0.00     0.003 C 
ATOM     21  C   UNL     1     -23.388 -21.398 -12.400  1.00  0.00     0.031 C 
ATOM     22  C   UNL     1     -25.611 -22.715 -13.714  1.00  0.00    -0.008 C 
ATOM     23  C   UNL     1     -23.424 -22.902 -12.505  1.00  0.00    -0.027 C 
ATOM     24  C   UNL     1     -24.356 -23.512 -13.280  1.00  0.00    -0.065 C 
ATOM     25  C   UNL     1     -26.401 -23.450 -14.847  1.00  0.00     0.014 C 
ATOM     26  C   UNL     1     -26.542 -22.686 -12.472  1.00  0.00     0.016 C 
ATOM     27  C   UNL     1     -24.040 -24.918 -13.775  1.00  0.00     0.063 C 
ATOM     28  C   UNL     1     -25.472 -24.206 -15.791  1.00  0.00     0.033 C 
ATOM     29  C   UNL     1     -24.812 -25.372 -15.036  1.00  0.00     0.118 C 
BRANCH  29  30
ATOM     30  O   UNL     1     -23.971 -26.100 -15.902  1.00  0.00    -0.393 OA
ATOM     31  H   UNL     1     -23.314 -26.594 -15.339  1.00  0.00     0.210 HD
ENDBRANCH  29  30
ENDBRANCH   9  11
ENDBRANCH   1   9
TORSDOF 7
ENDMDL
MODEL 2
REMARK VINA RESULT:    -5.178      1.538      2.852
REMARK INTER + INTRA:          -6.164
REMARK INTER:                  -5.717
REMARK INTRA:                  -0.447
REMARK UNBOUND:                 0.981
REMARK SMILES CC[C@@H](CC[C@@H](C)[C@H]1CC[C@H]2[C@H]3CC=C4C[C@H](O)CC[C@]4(C)[C@H]3CC[C@]12C)C(C)C
REMARK SMILES IDX 5 1 4 2 3 3 2 4 1 5 28 6 29 7 30 8 6 9 7 10 8 11 9 12 26 13
REMARK SMILES IDX 10 14 11 15 25 16 27 17 12 18 24 19 23 20 13 21 21 22 14 23
REMARK SMILES IDX 15 24 20 25 22 26 16 27 19 28 17 29 18 30
REMARK H PARENT 18 31
REMARK Flexibility Score: inf
ROOT
ATOM      1  C   UNL     1     -22.503 -15.110 -13.832  1.00  0.00     0.004 C 
ENDROOT
BRANCH   1   2
ATOM      2  C   UNL     1     -23.612 -14.356 -14.603  1.00  0.00     0.004 C 
BRANCH   2   3
ATOM      3  C   UNL     1     -24.195 -15.155 -15.815  1.00  0.00    -0.009 C 
BRANCH   3   4
ATOM      4  C   UNL     1     -23.453 -14.742 -17.121  1.00  0.00     0.000 C 
ATOM      5  C   UNL     1     -24.235 -15.018 -18.411  1.00  0.00     0.004 C 
ENDBRANCH   3   4
BRANCH   3   6
ATOM      6  C   UNL     1     -25.761 -15.045 -15.943  1.00  0.00    -0.014 C 
ATOM      7  C   UNL     1     -26.335 -13.875 -15.125  1.00  0.00     0.007 C 
ATOM      8  C   UNL     1     -26.461 -16.344 -15.500  1.00  0.00     0.007 C 
ENDBRANCH   3   6
ENDBRANCH   2   3
ENDBRANCH   1   2
BRANCH   1   9
ATOM      9  C   UNL     1     -23.040 -16.327 -13.026  1.00  0.00    -0.011 C 
ATOM     10  C   UNL     1     -24.542 -16.137 -12.715  1.00  0.00     0.008 C 
BRANCH   9  11
ATOM     11  C   UNL     1     -22.814 -17.726 -13.714  1.00  0.00    -0.002 C 
ATOM     12  C   UNL     1     -21.359 -18.267 -13.785  1.00  0.00     0.005 C 
ATOM     13  C   UNL     1     -23.642 -18.936 -13.193  1.00  0.00    -0.026 C 
ATOM     14  C   UNL     1     -21.466 -19.801 -13.904  1.00  0.00     0.005 C 
ATOM     15  C   UNL     1     -22.968 -20.060 -13.992  1.00  0.00    -0.001 C 
ATOM     16  C   UNL     1     -25.137 -18.916 -13.597  1.00  0.00     0.007 C 
ATOM     17  C   UNL     1     -23.488 -19.078 -11.653  1.00  0.00     0.012 C 
ATOM     18  C   UNL     1     -23.540 -21.486 -13.827  1.00  0.00     0.000 C 
ATOM     19  C   UNL     1     -25.814 -20.278 -13.316  1.00  0.00     0.005 C 
ATOM     20  C   UNL     1     -25.101 -21.506 -13.981  1.00  0.00     0.003 C 
ATOM     21  C   UNL     1     -23.081 -22.340 -12.636  1.00  0.00     0.031 C 
ATOM     22  C   UNL     1     -25.751 -22.921 -13.603  1.00  0.00    -0.008 C 
ATOM     23  C   UNL     1     -23.488 -23.762 -12.931  1.00  0.00    -0.027 C 
ATOM     24  C   UNL     1     -24.661 -24.021 -13.562  1.00  0.00    -0.065 C 
ATOM     25  C   UNL     1     -26.883 -23.266 -14.627  1.00  0.00     0.014 C 
ATOM     26  C   UNL     1     -26.409 -22.927 -12.197  1.00  0.00     0.016 C 
ATOM     27  C   UNL     1     -24.779 -25.350 -14.298  1.00  0.00     0.063 C 
ATOM     28  C   UNL     1     -26.344 -24.013 -15.842  1.00  0.00     0.033 C 
ATOM     29  C   UNL     1     -25.851 -25.405 -15.411  1.00  0.00     0.118 C 
BRANCH  29  30
ATOM     30  O   UNL     1     -25.375 -26.121 -16.528  1.00  0.00    -0.393 OA
ATOM     31  H   UNL     1     -25.471 -25.532 -17.327  1.00  0.00     0.210 HD
ENDBRANCH  29  30
ENDBRANCH   9  11
ENDBRANCH   1   9
TORSDOF 7
ENDMDL
MODEL 3
REMARK VINA RESULT:    -4.238      1.324      2.850
REMARK INTER + INTRA:          -4.868
REMARK INTER:                  -5.233
REMARK INTRA:                   0.365
REMARK UNBOUND:                 0.981
REMARK SMILES CC[C@@H](CC[C@@H](C)[C@H]1CC[C@H]2[C@H]3CC=C4C[C@H](O)CC[C@]4(C)[C@H]3CC[C@]12C)C(C)C
REMARK SMILES IDX 5 1 4 2 3 3 2 4 1 5 28 6 29 7 30 8 6 9 7 10 8 11 9 12 26 13
REMARK SMILES IDX 10 14 11 15 25 16 27 17 12 18 24 19 23 20 13 21 21 22 14 23
REMARK SMILES IDX 15 24 20 25 22 26 16 27 19 28 17 29 18 30
REMARK H PARENT 18 31
REMARK Flexibility Score: inf
ROOT
ATOM      1  C   UNL     1     -24.697 -15.571 -13.854  1.00  0.00     0.004 C 
ENDROOT
BRANCH   1   2
ATOM      2  C   UNL     1     -25.221 -14.274 -14.514  1.00  0.00     0.004 C 
BRANCH   2   3
ATOM      3  C   UNL     1     -25.584 -14.436 -16.028  1.00  0.00    -0.009 C 
BRANCH   3   4
ATOM      4  C   UNL     1     -26.087 -15.886 -16.293  1.00  0.00     0.000 C 
ATOM      5  C   UNL     1     -27.310 -16.296 -15.463  1.00  0.00     0.004 C 
ENDBRANCH   3   4
BRANCH   3   6
ATOM      6  C   UNL     1     -24.421 -14.008 -17.000  1.00  0.00    -0.014 C 
ATOM      7  C   UNL     1     -24.240 -14.993 -18.167  1.00  0.00     0.007 C 
ATOM      8  C   UNL     1     -23.078 -13.875 -16.256  1.00  0.00     0.007 C 
ENDBRANCH   3   6
ENDBRANCH   2   3
ENDBRANCH   1   2
BRANCH   1   9
ATOM      9  C   UNL     1     -23.173 -15.794 -14.076  1.00  0.00    -0.011 C 
ATOM     10  C   UNL     1     -22.375 -15.256 -12.867  1.00  0.00     0.008 C 
BRANCH   9  11
ATOM     11  C   UNL     1     -22.760 -17.288 -14.361  1.00  0.00    -0.002 C 
ATOM     12  C   UNL     1     -21.317 -17.721 -13.980  1.00  0.00     0.005 C 
ATOM     13  C   UNL     1     -23.659 -18.416 -13.779  1.00  0.00    -0.026 C 
ATOM     14  C   UNL     1     -21.359 -19.248 -13.769  1.00  0.00     0.005 C 
ATOM     15  C   UNL     1     -22.792 -19.631 -14.131  1.00  0.00    -0.001 C 
ATOM     16  C   UNL     1     -25.017 -18.594 -14.502  1.00  0.00     0.007 C 
ATOM     17  C   UNL     1     -23.869 -18.212 -12.253  1.00  0.00     0.012 C 
ATOM     18  C   UNL     1     -23.354 -21.028 -13.781  1.00  0.00     0.000 C 
ATOM     19  C   UNL     1     -25.711 -19.911 -14.080  1.00  0.00     0.005 C 
ATOM     20  C   UNL     1     -24.834 -21.196 -14.272  1.00  0.00     0.003 C 
ATOM     21  C   UNL     1     -23.169 -21.569 -12.355  1.00  0.00     0.031 C 
ATOM     22  C   UNL     1     -25.522 -22.542 -13.740  1.00  0.00    -0.008 C 
ATOM     23  C   UNL     1     -23.463 -23.047 -12.406  1.00  0.00    -0.027 C 
ATOM     24  C   UNL     1     -24.449 -23.522 -13.208  1.00  0.00    -0.065 C 
ATOM     25  C   UNL     1     -26.374 -23.181 -14.887  1.00  0.00     0.014 C 
ATOM     26  C   UNL     1     -26.493 -22.295 -12.554  1.00  0.00     0.016 C 
ATOM     27  C   UNL     1     -24.360 -24.984 -13.631  1.00  0.00     0.063 C 
ATOM     28  C   UNL     1     -25.547 -24.129 -15.749  1.00  0.00     0.033 C 
ATOM     29  C   UNL     1     -25.139 -25.356 -14.915  1.00  0.00     0.118 C 
BRANCH  29  30
ATOM     30  O   UNL     1     -24.397 -26.257 -15.705  1.00  0.00    -0.393 OA
ATOM     31  H   UNL     1     -23.475 -26.299 -15.330  1.00  0.00     0.210 HD
ENDBRANCH  29  30
ENDBRANCH   9  11
ENDBRANCH   1   9
TORSDOF 7
ENDMDL
MODEL 4
REMARK VINA RESULT:    -3.651      1.396      2.795
REMARK INTER + INTRA:          -4.058
REMARK INTER:                  -4.702
REMARK INTRA:                   0.644
REMARK UNBOUND:                 0.981
REMARK SMILES CC[C@@H](CC[C@@H](C)[C@H]1CC[C@H]2[C@H]3CC=C4C[C@H](O)CC[C@]4(C)[C@H]3CC[C@]12C)C(C)C
REMARK SMILES IDX 5 1 4 2 3 3 2 4 1 5 28 6 29 7 30 8 6 9 7 10 8 11 9 12 26 13
REMARK SMILES IDX 10 14 11 15 25 16 27 17 12 18 24 19 23 20 13 21 21 22 14 23
REMARK SMILES IDX 15 24 20 25 22 26 16 27 19 28 17 29 18 30
REMARK H PARENT 18 31
REMARK Flexibility Score: inf
ROOT
ATOM      1  C   UNL     1     -23.274 -15.647 -12.863  1.00  0.00     0.004 C 
ENDROOT
BRANCH   1   2
ATOM      2  C   UNL     1     -23.649 -14.448 -13.765  1.00  0.00     0.004 C 
BRANCH   2   3
ATOM      3  C   UNL     1     -23.102 -14.560 -15.227  1.00  0.00    -0.009 C 
BRANCH   3   4
ATOM      4  C   UNL     1     -21.706 -13.875 -15.318  1.00  0.00     0.000 C 
ATOM      5  C   UNL     1     -20.901 -13.897 -14.013  1.00  0.00     0.004 C 
ENDBRANCH   3   4
BRANCH   3   6
ATOM      6  C   UNL     1     -24.111 -14.035 -16.316  1.00  0.00    -0.014 C 
ATOM      7  C   UNL     1     -25.544 -13.905 -15.772  1.00  0.00     0.007 C 
ATOM      8  C   UNL     1     -24.137 -14.950 -17.556  1.00  0.00     0.007 C 
ENDBRANCH   3   6
ENDBRANCH   2   3
ENDBRANCH   1   2
BRANCH   1   9
ATOM      9  C   UNL     1     -24.303 -16.811 -12.938  1.00  0.00    -0.011 C 
ATOM     10  C   UNL     1     -25.164 -16.678 -14.214  1.00  0.00     0.008 C 
BRANCH   9  11
ATOM     11  C   UNL     1     -23.672 -18.254 -12.872  1.00  0.00    -0.002 C 
ATOM     12  C   UNL     1     -23.064 -18.712 -11.517  1.00  0.00     0.005 C 
ATOM     13  C   UNL     1     -24.556 -19.456 -13.315  1.00  0.00    -0.026 C 
ATOM     14  C   UNL     1     -23.097 -20.254 -11.521  1.00  0.00     0.005 C 
ATOM     15  C   UNL     1     -23.630 -20.609 -12.907  1.00  0.00    -0.001 C 
ATOM     16  C   UNL     1     -24.779 -19.562 -14.844  1.00  0.00     0.007 C 
ATOM     17  C   UNL     1     -25.914 -19.441 -12.558  1.00  0.00     0.012 C 
ATOM     18  C   UNL     1     -24.099 -22.044 -13.235  1.00  0.00     0.000 C 
ATOM     19  C   UNL     1     -25.393 -20.929 -15.229  1.00  0.00     0.005 C 
ATOM     20  C   UNL     1     -24.580 -22.170 -14.723  1.00  0.00     0.003 C 
ATOM     21  C   UNL     1     -25.062 -22.752 -12.270  1.00  0.00     0.031 C 
ATOM     22  C   UNL     1     -25.275 -23.579 -15.040  1.00  0.00    -0.008 C 
ATOM     23  C   UNL     1     -25.045 -24.216 -12.628  1.00  0.00    -0.027 C 
ATOM     24  C   UNL     1     -24.951 -24.603 -13.926  1.00  0.00    -0.065 C 
ATOM     25  C   UNL     1     -24.810 -24.085 -16.446  1.00  0.00     0.014 C 
ATOM     26  C   UNL     1     -26.824 -23.489 -15.092  1.00  0.00     0.016 C 
ATOM     27  C   UNL     1     -24.409 -26.002 -14.199  1.00  0.00     0.063 C 
ATOM     28  C   UNL     1     -23.532 -24.912 -16.359  1.00  0.00     0.033 C 
ATOM     29  C   UNL     1     -23.820 -26.225 -15.611  1.00  0.00     0.118 C 
BRANCH  29  30
ATOM     30  O   UNL     1     -22.654 -27.015 -15.547  1.00  0.00    -0.393 OA
ATOM     31  H   UNL     1     -22.190 -26.940 -16.426  1.00  0.00     0.210 HD
ENDBRANCH  29  30
ENDBRANCH   9  11
ENDBRANCH   1   9
TORSDOF 7
ENDMDL
