MODEL 1
REMARK VINA RESULT:    -3.396      0.000      0.000
REMARK INTER + INTRA:          -3.835
REMARK INTER:                  -3.793
REMARK INTRA:                  -0.042
REMARK UNBOUND:                -0.042
REMARK SMILES CCCC(=O)[O-]
REMARK SMILES IDX 3 1 4 2 5 3 6 4 2 5 1 6
REMARK H PARENT
REMARK Flexibility Score: inf
ROOT
ATOM      1  C   UNL     1      16.370  12.231  27.426  1.00  0.00     0.052 C 
ENDROOT
BRANCH   1   2
ATOM      2  C   UNL     1      15.665  12.997  26.351  1.00  0.00     0.041 C 
ATOM      3  O   UNL     1      14.701  12.476  25.731  1.00  0.00    -0.550 OA
ATOM      4  O   UNL     1      16.103  14.268  26.001  1.00  0.00    -0.550 OA
ENDBRANCH   1   2
BRANCH   1   5
ATOM      5  C   UNL     1      17.218  11.111  26.817  1.00  0.00     0.003 C 
ATOM      6  C   UNL     1      18.669  11.550  26.644  1.00  0.00     0.004 C 
ENDBRANCH   1   5
TORSDOF 2
ENDMDL
MODEL 2
REMARK VINA RESULT:    -3.261      2.378      3.484
REMARK INTER + INTRA:          -3.684
REMARK INTER:                  -3.668
REMARK INTRA:                  -0.016
REMARK UNBOUND:                -0.042
REMARK SMILES CCCC(=O)[O-]
REMARK SMILES IDX 3 1 4 2 5 3 6 4 2 5 1 6
REMARK H PARENT
REMARK Flexibility Score: inf
ROOT
ATOM      1  C   UNL     1      17.602  12.632  25.440  1.00  0.00     0.052 C 
ENDROOT
BRANCH   1   2
ATOM      2  C   UNL     1      17.959  11.556  26.415  1.00  0.00     0.041 C 
ATOM      3  O   UNL     1      19.089  11.554  26.970  1.00  0.00    -0.550 OA
ATOM      4  O   UNL     1      17.063  10.527  26.675  1.00  0.00    -0.550 OA
ENDBRANCH   1   2
BRANCH   1   5
ATOM      5  C   UNL     1      16.728  13.695  26.112  1.00  0.00     0.003 C 
ATOM      6  C   UNL     1      15.246  13.359  25.973  1.00  0.00     0.004 C 
ENDBRANCH   1   5
TORSDOF 2
ENDMDL
MODEL 3
REMARK VINA RESULT:    -3.195      2.190      2.975
REMARK INTER + INTRA:          -3.611
REMARK INTER:                  -3.586
REMARK INTRA:                  -0.025
REMARK UNBOUND:                -0.042
REMARK SMILES CCCC(=O)[O-]
REMARK SMILES IDX 3 1 4 2 5 3 6 4 2 5 1 6
REMARK H PARENT
REMARK Flexibility Score: inf
ROOT
ATOM      1  C   UNL     1      16.081  11.871  26.056  1.00  0.00     0.052 C 
ENDROOT
BRANCH   1   2
ATOM      2  C   UNL     1      17.115  11.868  27.137  1.00  0.00     0.041 C 
ATOM      3  O   UNL     1      16.796  12.165  28.319  1.00  0.00    -0.550 OA
ATOM      4  O   UNL     1      18.440  11.584  26.832  1.00  0.00    -0.550 OA
ENDBRANCH   1   2
BRANCH   1   5
ATOM      5  C   UNL     1      15.371  13.227  25.999  1.00  0.00     0.003 C 
ATOM      6  C   UNL     1      16.368  14.363  25.790  1.00  0.00     0.004 C 
ENDBRANCH   1   5
TORSDOF 2
ENDMDL
MODEL 4
REMARK VINA RESULT:    -2.864      2.176      2.485
REMARK INTER + INTRA:          -3.241
REMARK INTER:                  -3.310
REMARK INTRA:                   0.069
REMARK UNBOUND:                -0.042
REMARK SMILES CCCC(=O)[O-]
REMARK SMILES IDX 3 1 4 2 5 3 6 4 2 5 1 6
REMARK H PARENT
REMARK Flexibility Score: inf
ROOT
ATOM      1  C   UNL     1      16.099  13.727  26.035  1.00  0.00     0.052 C 
ENDROOT
BRANCH   1   2
ATOM      2  C   UNL     1      17.522  13.969  25.645  1.00  0.00     0.041 C 
ATOM      3  O   UNL     1      18.275  12.999  25.362  1.00  0.00    -0.550 OA
ATOM      4  O   UNL     1      18.033  15.260  25.641  1.00  0.00    -0.550 OA
ENDBRANCH   1   2
BRANCH   1   5
ATOM      5  C   UNL     1      15.915  12.289  26.527  1.00  0.00     0.003 C 
ATOM      6  C   UNL     1      16.486  12.110  27.932  1.00  0.00     0.004 C 
ENDBRANCH   1   5
TORSDOF 2
ENDMDL
MODEL 5
REMARK VINA RESULT:    -2.822     11.371     12.380
REMARK INTER + INTRA:          -3.194
REMARK INTER:                  -3.156
REMARK INTRA:                  -0.038
REMARK UNBOUND:                -0.042
REMARK SMILES CCCC(=O)[O-]
REMARK SMILES IDX 3 1 4 2 5 3 6 4 2 5 1 6
REMARK H PARENT
REMARK Flexibility Score: inf
ROOT
ATOM      1  C   UNL     1       8.745  21.925  30.209  1.00  0.00     0.052 C 
ENDROOT
BRANCH   1   2
ATOM      2  C   UNL     1       9.963  21.057  30.218  1.00  0.00     0.041 C 
ATOM      3  O   UNL     1      10.004  20.030  30.946  1.00  0.00    -0.550 OA
ATOM      4  O   UNL     1      11.072  21.406  29.458  1.00  0.00    -0.550 OA
ENDBRANCH   1   2
BRANCH   1   5
ATOM      5  C   UNL     1       7.590  21.220  29.493  1.00  0.00     0.003 C 
ATOM      6  C   UNL     1       6.461  20.886  30.464  1.00  0.00     0.004 C 
ENDBRANCH   1   5
TORSDOF 2
ENDMDL
MODEL 6
REMARK VINA RESULT:    -2.818     11.481     12.470
REMARK INTER + INTRA:          -3.190
REMARK INTER:                  -3.151
REMARK INTRA:                  -0.038
REMARK UNBOUND:                -0.042
REMARK SMILES CCCC(=O)[O-]
REMARK SMILES IDX 3 1 4 2 5 3 6 4 2 5 1 6
REMARK H PARENT
REMARK Flexibility Score: inf
ROOT
ATOM      1  C   UNL     1       8.815  22.026  30.253  1.00  0.00     0.052 C 
ENDROOT
BRANCH   1   2
ATOM      2  C   UNL     1      10.061  21.209  30.378  1.00  0.00     0.041 C 
ATOM      3  O   UNL     1      11.144  21.626  29.888  1.00  0.00    -0.550 OA
ATOM      4  O   UNL     1      10.018  19.965  30.994  1.00  0.00    -0.550 OA
ENDBRANCH   1   2
BRANCH   1   5
ATOM      5  C   UNL     1       7.736  21.245  29.497  1.00  0.00     0.003 C 
ATOM      6  C   UNL     1       6.547  20.932  30.402  1.00  0.00     0.004 C 
ENDBRANCH   1   5
TORSDOF 2
ENDMDL
MODEL 7
REMARK VINA RESULT:    -2.747     11.367     12.171
REMARK INTER + INTRA:          -3.110
REMARK INTER:                  -3.103
REMARK INTRA:                  -0.008
REMARK UNBOUND:                -0.042
REMARK SMILES CCCC(=O)[O-]
REMARK SMILES IDX 3 1 4 2 5 3 6 4 2 5 1 6
REMARK H PARENT
REMARK Flexibility Score: inf
ROOT
ATOM      1  C   UNL     1       9.084   3.830  21.719  1.00  0.00     0.052 C 
ENDROOT
BRANCH   1   2
ATOM      2  C   UNL     1      10.211   4.045  22.678  1.00  0.00     0.041 C 
ATOM      3  O   UNL     1      11.388   4.180  22.252  1.00  0.00    -0.550 OA
ATOM      4  O   UNL     1       9.969   4.050  24.046  1.00  0.00    -0.550 OA
ENDBRANCH   1   2
BRANCH   1   5
ATOM      5  C   UNL     1       7.787   4.426  22.273  1.00  0.00     0.003 C 
ATOM      6  C   UNL     1       6.805   4.748  21.149  1.00  0.00     0.004 C 
ENDBRANCH   1   5
TORSDOF 2
ENDMDL
MODEL 8
REMARK VINA RESULT:    -2.731     11.467     12.392
REMARK INTER + INTRA:          -3.092
REMARK INTER:                  -3.027
REMARK INTRA:                  -0.065
REMARK UNBOUND:                -0.042
REMARK SMILES CCCC(=O)[O-]
REMARK SMILES IDX 3 1 4 2 5 3 6 4 2 5 1 6
REMARK H PARENT
REMARK Flexibility Score: inf
ROOT
ATOM      1  C   UNL     1       8.813  22.107  30.269  1.00  0.00     0.052 C 
ENDROOT
BRANCH   1   2
ATOM      2  C   UNL     1       7.714  21.322  29.626  1.00  0.00     0.041 C 
ATOM      3  O   UNL     1       7.723  21.121  28.383  1.00  0.00    -0.550 OA
ATOM      4  O   UNL     1       6.654  20.853  30.392  1.00  0.00    -0.550 OA
ENDBRANCH   1   2
BRANCH   1   5
ATOM      5  C   UNL     1      10.122  21.314  30.245  1.00  0.00     0.003 C 
ATOM      6  C   UNL     1      10.013  20.045  31.086  1.00  0.00     0.004 C 
ENDBRANCH   1   5
TORSDOF 2
ENDMDL
MODEL 9
REMARK VINA RESULT:    -2.625     11.402     12.018
REMARK INTER + INTRA:          -2.974
REMARK INTER:                  -2.964
REMARK INTRA:                  -0.010
REMARK UNBOUND:                -0.042
REMARK SMILES CCCC(=O)[O-]
REMARK SMILES IDX 3 1 4 2 5 3 6 4 2 5 1 6
REMARK H PARENT
REMARK Flexibility Score: inf
ROOT
ATOM      1  C   UNL     1       9.344   3.654  21.535  1.00  0.00     0.052 C 
ENDROOT
BRANCH   1   2
ATOM      2  C   UNL     1       8.132   4.351  22.068  1.00  0.00     0.041 C 
ATOM      3  O   UNL     1       7.997   4.527  23.307  1.00  0.00    -0.550 OA
ATOM      4  O   UNL     1       7.130   4.764  21.200  1.00  0.00    -0.550 OA
ENDBRANCH   1   2
BRANCH   1   5
ATOM      5  C   UNL     1      10.597   4.108  22.289  1.00  0.00     0.003 C 
ATOM      6  C   UNL     1      11.821   3.304  21.856  1.00  0.00     0.004 C 
ENDBRANCH   1   5
TORSDOF 2
ENDMDL
