MODEL 1
REMARK VINA RESULT:    -4.311      0.000      0.000
REMARK INTER + INTRA:          -7.467
REMARK INTER:                  -6.580
REMARK INTRA:                  -0.888
REMARK UNBOUND:                -0.888
REMARK SMILES CCCCCCCCCCC(=O)[O-]
REMARK SMILES IDX 7 1 8 2 9 3 10 4 11 5 12 6 13 7 6 8 5 9 4 10 3 11 2 12 1 13
REMARK H PARENT
REMARK Flexibility Score: inf
ROOT
ATOM      1  C   UNL     1      53.653  23.658  48.703  1.00  0.00     0.000 C 
ENDROOT
BRANCH   1   2
ATOM      2  C   UNL     1      53.409  24.541  49.944  1.00  0.00     0.000 C 
BRANCH   2   3
ATOM      3  C   UNL     1      53.108  23.767  51.240  1.00  0.00     0.006 C 
BRANCH   3   4
ATOM      4  C   UNL     1      54.376  23.394  52.019  1.00  0.00     0.053 C 
BRANCH   4   5
ATOM      5  C   UNL     1      54.153  22.143  52.811  1.00  0.00     0.041 C 
ATOM      6  O   UNL     1      52.988  21.684  52.955  1.00  0.00    -0.550 OA
ATOM      7  O   UNL     1      55.234  21.458  53.347  1.00  0.00    -0.550 OA
ENDBRANCH   4   5
ENDBRANCH   3   4
ENDBRANCH   2   3
ENDBRANCH   1   2
BRANCH   1   8
ATOM      8  C   UNL     1      54.394  24.352  47.544  1.00  0.00     0.000 C 
BRANCH   8   9
ATOM      9  C   UNL     1      55.863  23.920  47.356  1.00  0.00    -0.000 C 
BRANCH   9  10
ATOM     10  C   UNL     1      56.359  22.853  48.349  1.00  0.00    -0.000 C 
BRANCH  10  11
ATOM     11  C   UNL     1      56.830  21.566  47.656  1.00  0.00    -0.000 C 
BRANCH  11  12
ATOM     12  C   UNL     1      56.508  20.334  48.509  1.00  0.00    -0.003 C 
ATOM     13  C   UNL     1      55.675  20.711  49.731  1.00  0.00     0.004 C 
ENDBRANCH  11  12
ENDBRANCH  10  11
ENDBRANCH   9  10
ENDBRANCH   8   9
ENDBRANCH   1   8
TORSDOF 9
ENDMDL
MODEL 2
REMARK VINA RESULT:    -4.200      0.950      1.309
REMARK INTER + INTRA:          -7.298
REMARK INTER:                  -6.451
REMARK INTRA:                  -0.848
REMARK UNBOUND:                -0.888
REMARK SMILES CCCCCCCCCCC(=O)[O-]
REMARK SMILES IDX 7 1 8 2 9 3 10 4 11 5 12 6 13 7 6 8 5 9 4 10 3 11 2 12 1 13
REMARK H PARENT
REMARK Flexibility Score: inf
ROOT
ATOM      1  C   UNL     1      53.716  24.521  49.739  1.00  0.00     0.000 C 
ENDROOT
BRANCH   1   2
ATOM      2  C   UNL     1      53.264  23.710  50.971  1.00  0.00     0.000 C 
BRANCH   2   3
ATOM      3  C   UNL     1      54.402  23.263  51.906  1.00  0.00     0.006 C 
BRANCH   3   4
ATOM      4  C   UNL     1      54.066  21.984  52.684  1.00  0.00     0.053 C 
BRANCH   4   5
ATOM      5  C   UNL     1      55.250  21.529  53.477  1.00  0.00     0.041 C 
ATOM      6  O   UNL     1      55.093  21.052  54.633  1.00  0.00    -0.550 OA
ATOM      7  O   UNL     1      56.522  21.586  52.923  1.00  0.00    -0.550 OA
ENDBRANCH   4   5
ENDBRANCH   3   4
ENDBRANCH   2   3
ENDBRANCH   1   2
BRANCH   1   8
ATOM      8  C   UNL     1      53.803  23.720  48.426  1.00  0.00     0.000 C 
BRANCH   8   9
ATOM      9  C   UNL     1      55.191  23.719  47.753  1.00  0.00    -0.000 C 
BRANCH   9  10
ATOM     10  C   UNL     1      56.279  22.932  48.507  1.00  0.00    -0.000 C 
BRANCH  10  11
ATOM     11  C   UNL     1      56.825  21.746  47.700  1.00  0.00    -0.000 C 
BRANCH  11  12
ATOM     12  C   UNL     1      56.501  20.417  48.391  1.00  0.00    -0.003 C 
ATOM     13  C   UNL     1      55.700  20.641  49.670  1.00  0.00     0.004 C 
ENDBRANCH  11  12
ENDBRANCH  10  11
ENDBRANCH   9  10
ENDBRANCH   8   9
ENDBRANCH   1   8
TORSDOF 9
ENDMDL
MODEL 3
REMARK VINA RESULT:    -4.195      3.171      4.689
REMARK INTER + INTRA:          -7.289
REMARK INTER:                  -6.332
REMARK INTRA:                  -0.958
REMARK UNBOUND:                -0.888
REMARK SMILES CCCCCCCCCCC(=O)[O-]
REMARK SMILES IDX 7 1 8 2 9 3 10 4 11 5 12 6 13 7 6 8 5 9 4 10 3 11 2 12 1 13
REMARK H PARENT
REMARK Flexibility Score: inf
ROOT
ATOM      1  C   UNL     1      53.644  24.577  49.416  1.00  0.00     0.000 C 
ENDROOT
BRANCH   1   2
ATOM      2  C   UNL     1      53.855  23.858  48.068  1.00  0.00     0.000 C 
BRANCH   2   3
ATOM      3  C   UNL     1      54.920  24.491  47.155  1.00  0.00     0.006 C 
BRANCH   3   4
ATOM      4  C   UNL     1      56.315  24.513  47.792  1.00  0.00     0.053 C 
BRANCH   4   5
ATOM      5  C   UNL     1      57.331  23.959  46.844  1.00  0.00     0.041 C 
ATOM      6  O   UNL     1      58.108  24.733  46.224  1.00  0.00    -0.550 OA
ATOM      7  O   UNL     1      57.454  22.585  46.681  1.00  0.00    -0.550 OA
ENDBRANCH   4   5
ENDBRANCH   3   4
ENDBRANCH   2   3
ENDBRANCH   1   2
BRANCH   1   8
ATOM      8  C   UNL     1      53.581  23.653  50.647  1.00  0.00     0.000 C 
BRANCH   8   9
ATOM      9  C   UNL     1      54.935  23.393  51.338  1.00  0.00    -0.000 C 
BRANCH   9  10
ATOM     10  C   UNL     1      55.239  21.913  51.637  1.00  0.00    -0.000 C 
BRANCH  10  11
ATOM     11  C   UNL     1      54.934  20.991  50.448  1.00  0.00    -0.000 C 
BRANCH  11  12
ATOM     12  C   UNL     1      55.971  21.172  49.333  1.00  0.00    -0.003 C 
ATOM     13  C   UNL     1      56.280  19.845  48.646  1.00  0.00     0.004 C 
ENDBRANCH  11  12
ENDBRANCH  10  11
ENDBRANCH   9  10
ENDBRANCH   8   9
ENDBRANCH   1   8
TORSDOF 9
ENDMDL
MODEL 4
REMARK VINA RESULT:    -4.187      1.170      1.463
REMARK INTER + INTRA:          -7.277
REMARK INTER:                  -6.425
REMARK INTRA:                  -0.852
REMARK UNBOUND:                -0.888
REMARK SMILES CCCCCCCCCCC(=O)[O-]
REMARK SMILES IDX 7 1 8 2 9 3 10 4 11 5 12 6 13 7 6 8 5 9 4 10 3 11 2 12 1 13
REMARK H PARENT
REMARK Flexibility Score: inf
ROOT
ATOM      1  C   UNL     1      53.788  24.062  48.142  1.00  0.00     0.000 C 
ENDROOT
BRANCH   1   2
ATOM      2  C   UNL     1      53.421  25.059  49.260  1.00  0.00     0.000 C 
BRANCH   2   3
ATOM      3  C   UNL     1      54.097  24.788  50.617  1.00  0.00     0.006 C 
BRANCH   3   4
ATOM      4  C   UNL     1      53.825  23.374  51.146  1.00  0.00     0.053 C 
BRANCH   4   5
ATOM      5  C   UNL     1      53.181  23.437  52.496  1.00  0.00     0.041 C 
ATOM      6  O   UNL     1      53.757  24.032  53.445  1.00  0.00    -0.550 OA
ATOM      7  O   UNL     1      51.924  22.883  52.692  1.00  0.00    -0.550 OA
ENDBRANCH   4   5
ENDBRANCH   3   4
ENDBRANCH   2   3
ENDBRANCH   1   2
BRANCH   1   8
ATOM      8  C   UNL     1      54.869  24.551  47.160  1.00  0.00     0.000 C 
BRANCH   8   9
ATOM      9  C   UNL     1      56.288  24.009  47.427  1.00  0.00    -0.000 C 
BRANCH   9  10
ATOM     10  C   UNL     1      56.351  22.781  48.355  1.00  0.00    -0.000 C 
BRANCH  10  11
ATOM     11  C   UNL     1      56.852  21.519  47.639  1.00  0.00    -0.000 C 
BRANCH  11  12
ATOM     12  C   UNL     1      56.604  20.270  48.492  1.00  0.00    -0.003 C 
ATOM     13  C   UNL     1      55.729  20.592  49.700  1.00  0.00     0.004 C 
ENDBRANCH  11  12
ENDBRANCH  10  11
ENDBRANCH   9  10
ENDBRANCH   8   9
ENDBRANCH   1   8
TORSDOF 9
ENDMDL
MODEL 5
REMARK VINA RESULT:    -4.055      0.932      1.939
REMARK INTER + INTRA:          -7.076
REMARK INTER:                  -6.075
REMARK INTRA:                  -1.001
REMARK UNBOUND:                -0.888
REMARK SMILES CCCCCCCCCCC(=O)[O-]
REMARK SMILES IDX 7 1 8 2 9 3 10 4 11 5 12 6 13 7 6 8 5 9 4 10 3 11 2 12 1 13
REMARK H PARENT
REMARK Flexibility Score: inf
ROOT
ATOM      1  C   UNL     1      53.403  24.047  50.790  1.00  0.00     0.000 C 
ENDROOT
BRANCH   1   2
ATOM      2  C   UNL     1      54.692  24.173  51.629  1.00  0.00     0.000 C 
BRANCH   2   3
ATOM      3  C   UNL     1      55.070  22.914  52.430  1.00  0.00     0.006 C 
BRANCH   3   4
ATOM      4  C   UNL     1      54.124  21.735  52.167  1.00  0.00     0.053 C 
BRANCH   4   5
ATOM      5  C   UNL     1      53.389  21.367  53.418  1.00  0.00     0.041 C 
ATOM      6  O   UNL     1      54.020  21.181  54.492  1.00  0.00    -0.550 OA
ATOM      7  O   UNL     1      52.004  21.277  53.409  1.00  0.00    -0.550 OA
ENDBRANCH   4   5
ENDBRANCH   3   4
ENDBRANCH   2   3
ENDBRANCH   1   2
BRANCH   1   8
ATOM      8  C   UNL     1      53.504  24.593  49.353  1.00  0.00     0.000 C 
BRANCH   8   9
ATOM      9  C   UNL     1      54.098  23.612  48.322  1.00  0.00    -0.000 C 
BRANCH   9  10
ATOM     10  C   UNL     1      55.583  23.841  47.987  1.00  0.00    -0.000 C 
BRANCH  10  11
ATOM     11  C   UNL     1      56.392  22.537  47.945  1.00  0.00    -0.000 C 
BRANCH  11  12
ATOM     12  C   UNL     1      55.886  21.544  48.998  1.00  0.00    -0.003 C 
ATOM     13  C   UNL     1      56.368  20.128  48.697  1.00  0.00     0.004 C 
ENDBRANCH  11  12
ENDBRANCH  10  11
ENDBRANCH   9  10
ENDBRANCH   8   9
ENDBRANCH   1   8
TORSDOF 9
ENDMDL
MODEL 6
REMARK VINA RESULT:    -3.932      1.424      3.343
REMARK INTER + INTRA:          -6.888
REMARK INTER:                  -6.075
REMARK INTRA:                  -0.813
REMARK UNBOUND:                -0.888
REMARK SMILES CCCCCCCCCCC(=O)[O-]
REMARK SMILES IDX 7 1 8 2 9 3 10 4 11 5 12 6 13 7 6 8 5 9 4 10 3 11 2 12 1 13
REMARK H PARENT
REMARK Flexibility Score: inf
ROOT
ATOM      1  C   UNL     1      55.052  21.043  50.619  1.00  0.00     0.000 C 
ENDROOT
BRANCH   1   2
ATOM      2  C   UNL     1      55.730  21.485  51.932  1.00  0.00     0.000 C 
BRANCH   2   3
ATOM      3  C   UNL     1      54.769  22.012  53.013  1.00  0.00     0.006 C 
BRANCH   3   4
ATOM      4  C   UNL     1      53.349  21.449  52.873  1.00  0.00     0.053 C 
BRANCH   4   5
ATOM      5  C   UNL     1      52.400  22.201  53.751  1.00  0.00     0.041 C 
ATOM      6  O   UNL     1      51.225  22.434  53.361  1.00  0.00    -0.550 OA
ATOM      7  O   UNL     1      52.796  22.603  55.020  1.00  0.00    -0.550 OA
ENDBRANCH   4   5
ENDBRANCH   3   4
ENDBRANCH   2   3
ENDBRANCH   1   2
BRANCH   1   8
ATOM      8  C   UNL     1      56.017  20.695  49.470  1.00  0.00     0.000 C 
BRANCH   8   9
ATOM      9  C   UNL     1      56.132  21.767  48.367  1.00  0.00    -0.000 C 
BRANCH   9  10
ATOM     10  C   UNL     1      55.715  23.187  48.794  1.00  0.00    -0.000 C 
BRANCH  10  11
ATOM     11  C   UNL     1      54.466  23.689  48.055  1.00  0.00    -0.000 C 
BRANCH  11  12
ATOM     12  C   UNL     1      53.738  24.760  48.875  1.00  0.00    -0.003 C 
ATOM     13  C   UNL     1      53.428  24.262  50.284  1.00  0.00     0.004 C 
ENDBRANCH  11  12
ENDBRANCH  10  11
ENDBRANCH   9  10
ENDBRANCH   8   9
ENDBRANCH   1   8
TORSDOF 9
ENDMDL
MODEL 7
REMARK VINA RESULT:    -3.890      1.440      3.134
REMARK INTER + INTRA:          -6.825
REMARK INTER:                  -6.452
REMARK INTRA:                  -0.373
REMARK UNBOUND:                -0.888
REMARK SMILES CCCCCCCCCCC(=O)[O-]
REMARK SMILES IDX 7 1 8 2 9 3 10 4 11 5 12 6 13 7 6 8 5 9 4 10 3 11 2 12 1 13
REMARK H PARENT
REMARK Flexibility Score: inf
ROOT
ATOM      1  C   UNL     1      55.376  20.566  49.606  1.00  0.00     0.000 C 
ENDROOT
BRANCH   1   2
ATOM      2  C   UNL     1      55.629  21.280  50.950  1.00  0.00     0.000 C 
BRANCH   2   3
ATOM      3  C   UNL     1      54.496  22.215  51.410  1.00  0.00     0.006 C 
BRANCH   3   4
ATOM      4  C   UNL     1      54.582  22.567  52.901  1.00  0.00     0.053 C 
BRANCH   4   5
ATOM      5  C   UNL     1      53.596  21.758  53.686  1.00  0.00     0.041 C 
ATOM      6  O   UNL     1      52.919  20.860  53.118  1.00  0.00    -0.550 OA
ATOM      7  O   UNL     1      53.461  21.962  55.052  1.00  0.00    -0.550 OA
ENDBRANCH   4   5
ENDBRANCH   3   4
ENDBRANCH   2   3
ENDBRANCH   1   2
BRANCH   1   8
ATOM      8  C   UNL     1      56.633  20.330  48.747  1.00  0.00     0.000 C 
BRANCH   8   9
ATOM      9  C   UNL     1      56.897  21.401  47.669  1.00  0.00    -0.000 C 
BRANCH   9  10
ATOM     10  C   UNL     1      56.324  22.795  47.983  1.00  0.00    -0.000 C 
BRANCH  10  11
ATOM     11  C   UNL     1      56.993  23.912  47.169  1.00  0.00    -0.000 C 
BRANCH  11  12
ATOM     12  C   UNL     1      55.980  25.000  46.795  1.00  0.00    -0.003 C 
ATOM     13  C   UNL     1      54.576  24.633  47.269  1.00  0.00     0.004 C 
ENDBRANCH  11  12
ENDBRANCH  10  11
ENDBRANCH   9  10
ENDBRANCH   8   9
ENDBRANCH   1   8
TORSDOF 9
ENDMDL
MODEL 8
REMARK VINA RESULT:    -3.882      1.299      2.263
REMARK INTER + INTRA:          -6.812
REMARK INTER:                  -5.849
REMARK INTRA:                  -0.963
REMARK UNBOUND:                -0.888
REMARK SMILES CCCCCCCCCCC(=O)[O-]
REMARK SMILES IDX 7 1 8 2 9 3 10 4 11 5 12 6 13 7 6 8 5 9 4 10 3 11 2 12 1 13
REMARK H PARENT
REMARK Flexibility Score: inf
ROOT
ATOM      1  C   UNL     1      53.310  24.397  49.989  1.00  0.00     0.000 C 
ENDROOT
BRANCH   1   2
ATOM      2  C   UNL     1      54.422  25.067  50.822  1.00  0.00     0.000 C 
BRANCH   2   3
ATOM      3  C   UNL     1      54.991  24.201  51.961  1.00  0.00     0.006 C 
BRANCH   3   4
ATOM      4  C   UNL     1      55.878  23.057  51.453  1.00  0.00     0.053 C 
BRANCH   4   5
ATOM      5  C   UNL     1      55.205  21.738  51.670  1.00  0.00     0.041 C 
ATOM      6  O   UNL     1      54.725  21.450  52.798  1.00  0.00    -0.550 OA
ATOM      7  O   UNL     1      55.065  20.848  50.614  1.00  0.00    -0.550 OA
ENDBRANCH   4   5
ENDBRANCH   3   4
ENDBRANCH   2   3
ENDBRANCH   1   2
BRANCH   1   8
ATOM      8  C   UNL     1      53.780  23.754  48.670  1.00  0.00     0.000 C 
BRANCH   8   9
ATOM      9  C   UNL     1      53.845  24.713  47.464  1.00  0.00    -0.000 C 
BRANCH   9  10
ATOM     10  C   UNL     1      55.257  24.952  46.898  1.00  0.00    -0.000 C 
BRANCH  10  11
ATOM     11  C   UNL     1      56.366  24.457  47.837  1.00  0.00    -0.000 C 
BRANCH  11  12
ATOM     12  C   UNL     1      57.209  23.368  47.163  1.00  0.00    -0.003 C 
ATOM     13  C   UNL     1      56.851  21.984  47.697  1.00  0.00     0.004 C 
ENDBRANCH  11  12
ENDBRANCH  10  11
ENDBRANCH   9  10
ENDBRANCH   8   9
ENDBRANCH   1   8
TORSDOF 9
ENDMDL
MODEL 9
REMARK VINA RESULT:    -3.809      2.094      3.947
REMARK INTER + INTRA:          -6.701
REMARK INTER:                  -5.942
REMARK INTRA:                  -0.760
REMARK UNBOUND:                -0.888
REMARK SMILES CCCCCCCCCCC(=O)[O-]
REMARK SMILES IDX 7 1 8 2 9 3 10 4 11 5 12 6 13 7 6 8 5 9 4 10 3 11 2 12 1 13
REMARK H PARENT
REMARK Flexibility Score: inf
ROOT
ATOM      1  C   UNL     1      54.915  21.364  51.182  1.00  0.00     0.000 C 
ENDROOT
BRANCH   1   2
ATOM      2  C   UNL     1      55.520  22.112  52.388  1.00  0.00     0.000 C 
BRANCH   2   3
ATOM      3  C   UNL     1      56.693  21.390  53.077  1.00  0.00     0.006 C 
BRANCH   3   4
ATOM      4  C   UNL     1      56.370  20.969  54.517  1.00  0.00     0.053 C 
BRANCH   4   5
ATOM      5  C   UNL     1      56.276  22.172  55.403  1.00  0.00     0.041 C 
ATOM      6  O   UNL     1      57.311  22.832  55.686  1.00  0.00    -0.550 OA
ATOM      7  O   UNL     1      55.041  22.592  55.877  1.00  0.00    -0.550 OA
ENDBRANCH   4   5
ENDBRANCH   3   4
ENDBRANCH   2   3
ENDBRANCH   1   2
BRANCH   1   8
ATOM      8  C   UNL     1      55.927  20.950  50.097  1.00  0.00     0.000 C 
BRANCH   8   9
ATOM      9  C   UNL     1      55.731  21.634  48.728  1.00  0.00    -0.000 C 
BRANCH   9  10
ATOM     10  C   UNL     1      55.591  23.166  48.780  1.00  0.00    -0.000 C 
BRANCH  10  11
ATOM     11  C   UNL     1      54.247  23.661  48.225  1.00  0.00    -0.000 C 
BRANCH  11  12
ATOM     12  C   UNL     1      53.748  24.882  49.005  1.00  0.00    -0.003 C 
ATOM     13  C   UNL     1      53.301  24.495  50.411  1.00  0.00     0.004 C 
ENDBRANCH  11  12
ENDBRANCH  10  11
ENDBRANCH   9  10
ENDBRANCH   8   9
ENDBRANCH   1   8
TORSDOF 9
ENDMDL
