MODEL 1
REMARK VINA RESULT:    -5.419      0.000      0.000
REMARK INTER + INTRA:          -7.644
REMARK INTER:                  -6.687
REMARK INTRA:                  -0.957
REMARK UNBOUND:                -0.957
REMARK SMILES C=C(CCC=C(C)C)[C@H]1CC=C(C)CC1
REMARK SMILES IDX 3 1 2 2 1 3 9 4 13 5 12 6 11 7 14 8 10 9 15 10 4 11 5 12
REMARK SMILES IDX 6 13 7 14 8 15
REMARK H PARENT
REMARK Flexibility Score: inf
ROOT
ATOM      1  C   UNL     1      -0.995   4.433  10.620  1.00  0.00     0.035 C 
ENDROOT
BRANCH   1   2
ATOM      2  C   UNL     1      -0.469   4.083  12.001  1.00  0.00    -0.074 C 
ATOM      3  C   UNL     1       0.177   5.022  12.713  1.00  0.00     0.008 C 
BRANCH   2   4
ATOM      4  C   UNL     1      -0.548   2.658  12.538  1.00  0.00     0.018 C 
ATOM      5  C   UNL     1      -1.797  -1.279  13.974  1.00  0.00     0.039 C 
ATOM      6  C   UNL     1      -1.522   0.101  13.444  1.00  0.00    -0.077 C 
ATOM      7  C   UNL     1      -1.560   1.149  14.294  1.00  0.00    -0.027 C 
ATOM      8  C   UNL     1      -1.078   0.255  12.001  1.00  0.00     0.031 C 
ATOM      9  C   UNL     1      -1.356   2.576  13.846  1.00  0.00     0.035 C 
ATOM     10  C   UNL     1      -1.152   1.703  11.498  1.00  0.00     0.013 C 
ENDBRANCH   2   4
ENDBRANCH   1   2
BRANCH   1  11
ATOM     11  C   UNL     1      -1.820   5.732  10.620  1.00  0.00     0.032 C 
BRANCH  11  12
ATOM     12  C   UNL     1      -3.253   5.504  10.206  1.00  0.00    -0.028 C 
ATOM     13  C   UNL     1      -4.254   5.184  11.054  1.00  0.00    -0.080 C 
ATOM     14  C   UNL     1      -5.629   4.948  10.483  1.00  0.00     0.039 C 
ATOM     15  C   UNL     1      -4.039   5.080  12.545  1.00  0.00     0.039 C 
ENDBRANCH  11  12
ENDBRANCH   1  11
TORSDOF 4
ENDMDL
MODEL 2
REMARK VINA RESULT:    -5.297      1.089      5.339
REMARK INTER + INTRA:          -7.493
REMARK INTER:                  -6.450
REMARK INTRA:                  -1.044
REMARK UNBOUND:                -0.957
REMARK SMILES C=C(CCC=C(C)C)[C@H]1CC=C(C)CC1
REMARK SMILES IDX 3 1 2 2 1 3 9 4 13 5 12 6 11 7 14 8 10 9 15 10 4 11 5 12
REMARK SMILES IDX 6 13 7 14 8 15
REMARK H PARENT
REMARK Flexibility Score: inf
ROOT
ATOM      1  C   UNL     1      -1.275   4.134  14.553  1.00  0.00     0.035 C 
ENDROOT
BRANCH   1   2
ATOM      2  C   UNL     1      -1.121   4.628  13.125  1.00  0.00    -0.074 C 
ATOM      3  C   UNL     1       0.114   4.814  12.626  1.00  0.00     0.008 C 
BRANCH   2   4
ATOM      4  C   UNL     1      -2.333   5.035  12.295  1.00  0.00     0.018 C 
ATOM      5  C   UNL     1      -5.993   5.178   9.905  1.00  0.00     0.039 C 
ATOM      6  C   UNL     1      -4.764   4.972  10.746  1.00  0.00    -0.077 C 
ATOM      7  C   UNL     1      -3.597   4.665  10.138  1.00  0.00    -0.027 C 
ATOM      8  C   UNL     1      -4.842   5.247  12.236  1.00  0.00     0.031 C 
ATOM      9  C   UNL     1      -2.326   4.383  10.900  1.00  0.00     0.035 C 
ATOM     10  C   UNL     1      -3.645   4.691  13.017  1.00  0.00     0.013 C 
ENDBRANCH   2   4
ENDBRANCH   1   2
BRANCH   1  11
ATOM     11  C   UNL     1      -0.459   2.858  14.823  1.00  0.00     0.032 C 
BRANCH  11  12
ATOM     12  C   UNL     1      -1.327   1.625  14.898  1.00  0.00    -0.028 C 
ATOM     13  C   UNL     1      -1.572   0.796  13.860  1.00  0.00    -0.080 C 
ATOM     14  C   UNL     1      -2.495  -0.376  14.081  1.00  0.00     0.039 C 
ATOM     15  C   UNL     1      -0.935   0.997  12.505  1.00  0.00     0.039 C 
ENDBRANCH  11  12
ENDBRANCH   1  11
TORSDOF 4
ENDMDL
MODEL 3
REMARK VINA RESULT:    -5.289      1.366      2.222
REMARK INTER + INTRA:          -7.483
REMARK INTER:                  -6.106
REMARK INTRA:                  -1.377
REMARK UNBOUND:                -0.957
REMARK SMILES C=C(CCC=C(C)C)[C@H]1CC=C(C)CC1
REMARK SMILES IDX 3 1 2 2 1 3 9 4 13 5 12 6 11 7 14 8 10 9 15 10 4 11 5 12
REMARK SMILES IDX 6 13 7 14 8 15
REMARK H PARENT
REMARK Flexibility Score: inf
ROOT
ATOM      1  C   UNL     1      -1.027   5.872  14.448  1.00  0.00     0.035 C 
ENDROOT
BRANCH   1   2
ATOM      2  C   UNL     1      -0.022   4.768  14.165  1.00  0.00    -0.074 C 
ATOM      3  C   UNL     1       1.203   5.096  13.718  1.00  0.00     0.008 C 
BRANCH   2   4
ATOM      4  C   UNL     1      -0.417   3.298  14.257  1.00  0.00     0.018 C 
ATOM      5  C   UNL     1      -2.368  -0.605  13.965  1.00  0.00     0.039 C 
ATOM      6  C   UNL     1      -1.811   0.792  13.965  1.00  0.00    -0.077 C 
ATOM      7  C   UNL     1      -2.240   1.669  14.897  1.00  0.00    -0.027 C 
ATOM      8  C   UNL     1      -0.685   1.129  13.005  1.00  0.00     0.031 C 
ATOM      9  C   UNL     1      -1.784   3.107  14.941  1.00  0.00     0.035 C 
ATOM     10  C   UNL     1      -0.438   2.638  12.871  1.00  0.00     0.013 C 
ENDBRANCH   2   4
ENDBRANCH   1   2
BRANCH   1  11
ATOM     11  C   UNL     1      -1.475   6.598  13.167  1.00  0.00     0.032 C 
BRANCH  11  12
ATOM     12  C   UNL     1      -2.460   5.787  12.360  1.00  0.00    -0.028 C 
ATOM     13  C   UNL     1      -2.215   5.287  11.130  1.00  0.00    -0.080 C 
ATOM     14  C   UNL     1      -3.316   4.529  10.432  1.00  0.00     0.039 C 
ATOM     15  C   UNL     1      -0.875   5.445  10.452  1.00  0.00     0.039 C 
ENDBRANCH  11  12
ENDBRANCH   1  11
TORSDOF 4
ENDMDL
MODEL 4
REMARK VINA RESULT:    -5.079      1.336      5.366
REMARK INTER + INTRA:          -7.224
REMARK INTER:                  -6.499
REMARK INTRA:                  -0.725
REMARK UNBOUND:                -0.957
REMARK SMILES C=C(CCC=C(C)C)[C@H]1CC=C(C)CC1
REMARK SMILES IDX 3 1 2 2 1 3 9 4 13 5 12 6 11 7 14 8 10 9 15 10 4 11 5 12
REMARK SMILES IDX 6 13 7 14 8 15
REMARK H PARENT
REMARK Flexibility Score: inf
ROOT
ATOM      1  C   UNL     1      -1.394   2.662  10.749  1.00  0.00     0.035 C 
ENDROOT
BRANCH   1   2
ATOM      2  C   UNL     1      -1.642   4.153  10.902  1.00  0.00    -0.074 C 
ATOM      3  C   UNL     1      -0.720   5.020  10.448  1.00  0.00     0.008 C 
BRANCH   2   4
ATOM      4  C   UNL     1      -2.850   4.679  11.669  1.00  0.00     0.018 C 
ATOM      5  C   UNL     1      -6.200   7.008  13.243  1.00  0.00     0.039 C 
ATOM      6  C   UNL     1      -5.033   6.321  12.590  1.00  0.00    -0.077 C 
ATOM      7  C   UNL     1      -3.783   6.601  13.018  1.00  0.00    -0.027 C 
ATOM      8  C   UNL     1      -5.304   5.237  11.563  1.00  0.00     0.031 C 
ATOM      9  C   UNL     1      -2.548   6.007  12.387  1.00  0.00     0.035 C 
ATOM     10  C   UNL     1      -4.063   4.857  10.744  1.00  0.00     0.013 C 
ENDBRANCH   2   4
ENDBRANCH   1   2
BRANCH   1  11
ATOM     11  C   UNL     1      -0.465   2.108  11.843  1.00  0.00     0.032 C 
BRANCH  11  12
ATOM     12  C   UNL     1      -0.988   0.828  12.449  1.00  0.00    -0.028 C 
ATOM     13  C   UNL     1      -1.636   0.749  13.632  1.00  0.00    -0.080 C 
ATOM     14  C   UNL     1      -2.065  -0.609  14.125  1.00  0.00     0.039 C 
ATOM     15  C   UNL     1      -1.959   1.975  14.453  1.00  0.00     0.039 C 
ENDBRANCH  11  12
ENDBRANCH   1  11
TORSDOF 4
ENDMDL
MODEL 5
REMARK VINA RESULT:    -5.075      1.454      5.283
REMARK INTER + INTRA:          -7.219
REMARK INTER:                  -6.301
REMARK INTRA:                  -0.918
REMARK UNBOUND:                -0.957
REMARK SMILES C=C(CCC=C(C)C)[C@H]1CC=C(C)CC1
REMARK SMILES IDX 3 1 2 2 1 3 9 4 13 5 12 6 11 7 14 8 10 9 15 10 4 11 5 12
REMARK SMILES IDX 6 13 7 14 8 15
REMARK H PARENT
REMARK Flexibility Score: inf
ROOT
ATOM      1  C   UNL     1      -1.729   2.541  10.874  1.00  0.00     0.035 C 
ENDROOT
BRANCH   1   2
ATOM      2  C   UNL     1      -1.738   3.992  11.321  1.00  0.00    -0.074 C 
ATOM      3  C   UNL     1      -2.581   4.856  10.727  1.00  0.00     0.008 C 
BRANCH   2   4
ATOM      4  C   UNL     1      -0.727   4.512  12.337  1.00  0.00     0.018 C 
ATOM      5  C   UNL     1       1.602   6.869  15.191  1.00  0.00     0.039 C 
ATOM      6  C   UNL     1       0.697   6.181  14.207  1.00  0.00    -0.077 C 
ATOM      7  C   UNL     1       0.912   6.356  12.886  1.00  0.00    -0.027 C 
ATOM      8  C   UNL     1      -0.344   5.207  14.728  1.00  0.00     0.031 C 
ATOM      9  C   UNL     1       0.024   5.755  11.824  1.00  0.00     0.035 C 
ATOM     10  C   UNL     1      -1.401   4.835  13.679  1.00  0.00     0.013 C 
ENDBRANCH   2   4
ENDBRANCH   1   2
BRANCH   1  11
ATOM     11  C   UNL     1      -0.612   1.727  11.551  1.00  0.00     0.032 C 
BRANCH  11  12
ATOM     12  C   UNL     1      -1.124   0.443  12.159  1.00  0.00    -0.028 C 
ATOM     13  C   UNL     1      -1.418   0.278  13.466  1.00  0.00    -0.080 C 
ATOM     14  C   UNL     1      -1.883  -1.078  13.932  1.00  0.00     0.039 C 
ATOM     15  C   UNL     1      -1.317   1.412  14.460  1.00  0.00     0.039 C 
ENDBRANCH  11  12
ENDBRANCH   1  11
TORSDOF 4
ENDMDL
MODEL 6
REMARK VINA RESULT:    -5.003      1.323      3.042
REMARK INTER + INTRA:          -7.130
REMARK INTER:                  -5.926
REMARK INTRA:                  -1.204
REMARK UNBOUND:                -0.957
REMARK SMILES C=C(CCC=C(C)C)[C@H]1CC=C(C)CC1
REMARK SMILES IDX 3 1 2 2 1 3 9 4 13 5 12 6 11 7 14 8 10 9 15 10 4 11 5 12
REMARK SMILES IDX 6 13 7 14 8 15
REMARK H PARENT
REMARK Flexibility Score: inf
ROOT
ATOM      1  C   UNL     1      -0.451   4.977  10.433  1.00  0.00     0.035 C 
ENDROOT
BRANCH   1   2
ATOM      2  C   UNL     1      -1.555   4.111  11.016  1.00  0.00    -0.074 C 
ATOM      3  C   UNL     1      -2.832   4.513  10.902  1.00  0.00     0.008 C 
BRANCH   2   4
ATOM      4  C   UNL     1      -1.232   2.864  11.832  1.00  0.00     0.018 C 
ATOM      5  C   UNL     1      -1.337  -0.843  14.150  1.00  0.00     0.039 C 
ATOM      6  C   UNL     1      -1.459   0.411  13.329  1.00  0.00    -0.077 C 
ATOM      7  C   UNL     1      -1.726   1.579  13.951  1.00  0.00    -0.027 C 
ATOM      8  C   UNL     1      -1.144   0.347  11.846  1.00  0.00     0.031 C 
ATOM      9  C   UNL     1      -1.923   2.877  13.208  1.00  0.00     0.035 C 
ATOM     10  C   UNL     1      -1.618   1.585  11.074  1.00  0.00     0.013 C 
ENDBRANCH   2   4
ENDBRANCH   1   2
BRANCH   1  11
ATOM     11  C   UNL     1      -0.240   6.274  11.234  1.00  0.00     0.032 C 
BRANCH  11  12
ATOM     12  C   UNL     1       0.471   6.033  12.543  1.00  0.00    -0.028 C 
ATOM     13  C   UNL     1      -0.101   6.160  13.760  1.00  0.00    -0.080 C 
ATOM     14  C   UNL     1       0.751   5.923  14.981  1.00  0.00     0.039 C 
ATOM     15  C   UNL     1      -1.561   6.506  13.928  1.00  0.00     0.039 C 
ENDBRANCH  11  12
ENDBRANCH   1  11
TORSDOF 4
ENDMDL
MODEL 7
REMARK VINA RESULT:    -4.971      1.639      2.949
REMARK INTER + INTRA:          -7.090
REMARK INTER:                  -6.481
REMARK INTRA:                  -0.610
REMARK UNBOUND:                -0.957
REMARK SMILES C=C(CCC=C(C)C)[C@H]1CC=C(C)CC1
REMARK SMILES IDX 3 1 2 2 1 3 9 4 13 5 12 6 11 7 14 8 10 9 15 10 4 11 5 12
REMARK SMILES IDX 6 13 7 14 8 15
REMARK H PARENT
REMARK Flexibility Score: inf
ROOT
ATOM      1  C   UNL     1      -2.163   4.810  10.761  1.00  0.00     0.035 C 
ENDROOT
BRANCH   1   2
ATOM      2  C   UNL     1      -1.283   4.120  11.790  1.00  0.00    -0.074 C 
ATOM      3  C   UNL     1      -0.115   4.687  12.139  1.00  0.00     0.008 C 
BRANCH   2   4
ATOM      4  C   UNL     1      -1.640   2.742  12.336  1.00  0.00     0.018 C 
ATOM      5  C   UNL     1      -1.632  -1.303  14.000  1.00  0.00     0.039 C 
ATOM      6  C   UNL     1      -1.476   0.090  13.455  1.00  0.00    -0.077 C 
ATOM      7  C   UNL     1      -1.235   0.256  12.137  1.00  0.00    -0.027 C 
ATOM      8  C   UNL     1      -1.729   1.269  14.377  1.00  0.00     0.031 C 
ATOM      9  C   UNL     1      -1.006   1.608  11.509  1.00  0.00     0.035 C 
ATOM     10  C   UNL     1      -1.223   2.601  13.808  1.00  0.00     0.013 C 
ENDBRANCH   2   4
ENDBRANCH   1   2
BRANCH   1  11
ATOM     11  C   UNL     1      -1.873   6.318  10.660  1.00  0.00     0.032 C 
BRANCH  11  12
ATOM     12  C   UNL     1      -1.981   6.830   9.244  1.00  0.00    -0.028 C 
ATOM     13  C   UNL     1      -0.935   6.994   8.406  1.00  0.00    -0.080 C 
ATOM     14  C   UNL     1      -1.198   7.555   7.032  1.00  0.00     0.039 C 
ATOM     15  C   UNL     1       0.473   6.612   8.797  1.00  0.00     0.039 C 
ENDBRANCH  11  12
ENDBRANCH   1  11
TORSDOF 4
ENDMDL
MODEL 8
REMARK VINA RESULT:    -4.844     12.838     14.299
REMARK INTER + INTRA:          -6.934
REMARK INTER:                  -5.915
REMARK INTRA:                  -1.019
REMARK UNBOUND:                -0.957
REMARK SMILES C=C(CCC=C(C)C)[C@H]1CC=C(C)CC1
REMARK SMILES IDX 3 1 2 2 1 3 9 4 13 5 12 6 11 7 14 8 10 9 15 10 4 11 5 12
REMARK SMILES IDX 6 13 7 14 8 15
REMARK H PARENT
REMARK Flexibility Score: inf
ROOT
ATOM      1  C   UNL     1       6.090  -7.985  14.761  1.00  0.00     0.035 C 
ENDROOT
BRANCH   1   2
ATOM      2  C   UNL     1       5.487  -9.116  13.946  1.00  0.00    -0.074 C 
ATOM      3  C   UNL     1       6.206 -10.234  13.744  1.00  0.00     0.008 C 
BRANCH   2   4
ATOM      4  C   UNL     1       4.140  -8.957  13.250  1.00  0.00     0.018 C 
ATOM      5  C   UNL     1       0.680  -9.181  10.584  1.00  0.00     0.039 C 
ATOM      6  C   UNL     1       1.934  -9.222  11.413  1.00  0.00    -0.077 C 
ATOM      7  C   UNL     1       2.971  -8.427  11.073  1.00  0.00    -0.027 C 
ATOM      8  C   UNL     1       1.945 -10.054  12.682  1.00  0.00     0.031 C 
ATOM      9  C   UNL     1       4.289  -8.440  11.807  1.00  0.00     0.035 C 
ATOM     10  C   UNL     1       3.355 -10.277  13.246  1.00  0.00     0.013 C 
ENDBRANCH   2   4
ENDBRANCH   1   2
BRANCH   1  11
ATOM     11  C   UNL     1       5.037  -7.245  15.604  1.00  0.00     0.032 C 
BRANCH  11  12
ATOM     12  C   UNL     1       5.036  -7.691  17.046  1.00  0.00    -0.028 C 
ATOM     13  C   UNL     1       4.107  -8.501  17.597  1.00  0.00    -0.080 C 
ATOM     14  C   UNL     1       4.219  -8.826  19.065  1.00  0.00     0.039 C 
ATOM     15  C   UNL     1       2.984  -9.102  16.786  1.00  0.00     0.039 C 
ENDBRANCH  11  12
ENDBRANCH   1  11
TORSDOF 4
ENDMDL
MODEL 9
REMARK VINA RESULT:    -4.792      1.499      2.354
REMARK INTER + INTRA:          -6.869
REMARK INTER:                  -6.312
REMARK INTRA:                  -0.557
REMARK UNBOUND:                -0.957
REMARK SMILES C=C(CCC=C(C)C)[C@H]1CC=C(C)CC1
REMARK SMILES IDX 3 1 2 2 1 3 9 4 13 5 12 6 11 7 14 8 10 9 15 10 4 11 5 12
REMARK SMILES IDX 6 13 7 14 8 15
REMARK H PARENT
REMARK Flexibility Score: inf
ROOT
ATOM      1  C   UNL     1      -2.687   5.585  12.673  1.00  0.00     0.035 C 
ENDROOT
BRANCH   1   2
ATOM      2  C   UNL     1      -1.728   4.659  13.401  1.00  0.00    -0.074 C 
ATOM      3  C   UNL     1      -0.622   5.174  13.966  1.00  0.00     0.008 C 
BRANCH   2   4
ATOM      4  C   UNL     1      -1.930   3.148  13.393  1.00  0.00     0.018 C 
ATOM      5  C   UNL     1      -1.680  -1.177  13.993  1.00  0.00     0.039 C 
ATOM      6  C   UNL     1      -1.649   0.323  13.896  1.00  0.00    -0.077 C 
ATOM      7  C   UNL     1      -0.842   0.904  12.982  1.00  0.00    -0.027 C 
ATOM      8  C   UNL     1      -2.623   1.131  14.733  1.00  0.00     0.031 C 
ATOM      9  C   UNL     1      -0.698   2.401  12.849  1.00  0.00     0.035 C 
ATOM     10  C   UNL     1      -2.273   2.624  14.795  1.00  0.00     0.013 C 
ENDBRANCH   2   4
ENDBRANCH   1   2
BRANCH   1  11
ATOM     11  C   UNL     1      -4.065   4.939  12.445  1.00  0.00     0.032 C 
BRANCH  11  12
ATOM     12  C   UNL     1      -5.166   5.963  12.310  1.00  0.00    -0.028 C 
ATOM     13  C   UNL     1      -5.917   6.140  11.202  1.00  0.00    -0.080 C 
ATOM     14  C   UNL     1      -6.955   7.233  11.206  1.00  0.00     0.039 C 
ATOM     15  C   UNL     1      -5.763   5.265   9.981  1.00  0.00     0.039 C 
ENDBRANCH  11  12
ENDBRANCH   1  11
TORSDOF 4
ENDMDL
