MODEL 1
REMARK VINA RESULT:    -2.859      0.000      0.000
REMARK INTER + INTRA:          -4.851
REMARK INTER:                  -4.113
REMARK INTRA:                  -0.738
REMARK UNBOUND:                -0.738
REMARK SMILES O=C(CO)[C@@H](O)[C@@H](O)[C@@H](O)CO
REMARK SMILES IDX 7 1 9 2 11 3 12 4 10 6 5 8 2 9 1 10 3 11 4 12 6 14 8 16
REMARK H PARENT 12 5 10 7 4 13 6 15 8 17
REMARK Flexibility Score: inf
ROOT
ATOM      1  C   UNL     1       0.102  -1.953  -0.519  1.00  0.00     0.181 C 
ENDROOT
BRANCH   1   2
ATOM      2  C   UNL     1      -0.653  -3.101  -1.237  1.00  0.00     0.171 C 
BRANCH   2   3
ATOM      3  C   UNL     1      -0.636  -2.930  -2.766  1.00  0.00     0.190 C 
BRANCH   3   4
ATOM      4  O   UNL     1      -1.138  -1.672  -3.124  1.00  0.00    -0.394 OA
ATOM      5  H   UNL     1      -0.379  -1.175  -3.525  1.00  0.00     0.210 HD
ENDBRANCH   3   4
ENDBRANCH   2   3
BRANCH   2   6
ATOM      6  O   UNL     1      -1.989  -3.125  -0.803  1.00  0.00    -0.388 OA
ATOM      7  H   UNL     1      -2.170  -4.043  -0.470  1.00  0.00     0.211 HD
ENDBRANCH   2   6
ENDBRANCH   1   2
BRANCH   1   8
ATOM      8  C   UNL     1       0.522  -2.354   0.915  1.00  0.00     0.214 C 
BRANCH   8   9
ATOM      9  C   UNL     1       1.021  -1.153   1.687  1.00  0.00     0.189 C 
ATOM     10  O   UNL     1       0.219  -0.436   2.268  1.00  0.00    -0.294 OA
BRANCH   9  11
ATOM     11  C   UNL     1       2.488  -0.827   1.769  1.00  0.00     0.234 C 
BRANCH  11  12
ATOM     12  O   UNL     1       2.897  -0.149   0.613  1.00  0.00    -0.388 OA
ATOM     13  H   UNL     1       2.132  -0.175  -0.020  1.00  0.00     0.211 HD
ENDBRANCH  11  12
ENDBRANCH   9  11
ENDBRANCH   8   9
BRANCH   8  14
ATOM     14  O   UNL     1      -0.564  -2.926   1.597  1.00  0.00    -0.382 OA
ATOM     15  H   UNL     1      -0.193  -3.640   2.181  1.00  0.00     0.211 HD
ENDBRANCH   8  14
ENDBRANCH   1   8
BRANCH   1  16
ATOM     16  O   UNL     1       1.259  -1.622  -1.248  1.00  0.00    -0.387 OA
ATOM     17  H   UNL     1       1.013  -0.902  -1.887  1.00  0.00     0.211 HD
ENDBRANCH   1  16
TORSDOF 10
ENDMDL
MODEL 2
REMARK VINA RESULT:    -2.829      0.943      1.444
REMARK INTER + INTRA:          -4.808
REMARK INTER:                  -4.159
REMARK INTRA:                  -0.649
REMARK UNBOUND:                -0.738
REMARK SMILES O=C(CO)[C@@H](O)[C@@H](O)[C@@H](O)CO
REMARK SMILES IDX 7 1 9 2 11 3 12 4 10 6 5 8 2 9 1 10 3 11 4 12 6 14 8 16
REMARK H PARENT 12 5 10 7 4 13 6 15 8 17
REMARK Flexibility Score: inf
ROOT
ATOM      1  C   UNL     1       0.391  -1.535  -0.262  1.00  0.00     0.181 C 
ENDROOT
BRANCH   1   2
ATOM      2  C   UNL     1      -0.561  -2.751  -0.395  1.00  0.00     0.171 C 
BRANCH   2   3
ATOM      3  C   UNL     1      -0.812  -3.125  -1.866  1.00  0.00     0.190 C 
BRANCH   3   4
ATOM      4  O   UNL     1      -0.983  -1.971  -2.643  1.00  0.00    -0.394 OA
ATOM      5  H   UNL     1      -1.935  -1.712  -2.548  1.00  0.00     0.210 HD
ENDBRANCH   3   4
ENDBRANCH   2   3
BRANCH   2   6
ATOM      6  O   UNL     1      -1.793  -2.449   0.207  1.00  0.00    -0.388 OA
ATOM      7  H   UNL     1      -2.021  -1.516  -0.049  1.00  0.00     0.211 HD
ENDBRANCH   2   6
ENDBRANCH   1   2
BRANCH   1   8
ATOM      8  C   UNL     1       1.056  -1.480   1.134  1.00  0.00     0.214 C 
BRANCH   8   9
ATOM      9  C   UNL     1       2.218  -0.511   1.140  1.00  0.00     0.189 C 
ATOM     10  O   UNL     1       2.273   0.367   0.292  1.00  0.00    -0.294 OA
BRANCH   9  11
ATOM     11  C   UNL     1       3.304  -0.596   2.179  1.00  0.00     0.234 C 
BRANCH  11  12
ATOM     12  O   UNL     1       4.538  -0.859   1.567  1.00  0.00    -0.388 OA
ATOM     13  H   UNL     1       5.036  -1.464   2.177  1.00  0.00     0.211 HD
ENDBRANCH  11  12
ENDBRANCH   9  11
ENDBRANCH   8   9
BRANCH   8  14
ATOM     14  O   UNL     1       0.120  -1.088   2.104  1.00  0.00    -0.382 OA
ATOM     15  H   UNL     1       0.222  -0.106   2.221  1.00  0.00     0.211 HD
ENDBRANCH   8  14
ENDBRANCH   1   8
BRANCH   1  16
ATOM     16  O   UNL     1       1.402  -1.619  -1.237  1.00  0.00    -0.387 OA
ATOM     17  H   UNL     1       1.610  -2.582  -1.367  1.00  0.00     0.211 HD
ENDBRANCH   1  16
TORSDOF 10
ENDMDL
MODEL 3
REMARK VINA RESULT:    -2.540      1.105      1.924
REMARK INTER + INTRA:          -4.391
REMARK INTER:                  -4.635
REMARK INTRA:                   0.243
REMARK UNBOUND:                -0.738
REMARK SMILES O=C(CO)[C@@H](O)[C@@H](O)[C@@H](O)CO
REMARK SMILES IDX 7 1 9 2 11 3 12 4 10 6 5 8 2 9 1 10 3 11 4 12 6 14 8 16
REMARK H PARENT 12 5 10 7 4 13 6 15 8 17
REMARK Flexibility Score: inf
ROOT
ATOM      1  C   UNL     1       0.188  -2.606   0.761  1.00  0.00     0.181 C 
ENDROOT
BRANCH   1   2
ATOM      2  C   UNL     1      -0.992  -2.986  -0.172  1.00  0.00     0.171 C 
BRANCH   2   3
ATOM      3  C   UNL     1      -0.543  -3.125  -1.637  1.00  0.00     0.190 C 
BRANCH   3   4
ATOM      4  O   UNL     1      -1.067  -2.081  -2.412  1.00  0.00    -0.394 OA
ATOM      5  H   UNL     1      -1.120  -1.292  -1.813  1.00  0.00     0.210 HD
ENDBRANCH   3   4
ENDBRANCH   2   3
BRANCH   2   6
ATOM      6  O   UNL     1      -1.984  -1.994  -0.099  1.00  0.00    -0.388 OA
ATOM      7  H   UNL     1      -2.831  -2.406  -0.414  1.00  0.00     0.211 HD
ENDBRANCH   2   6
ENDBRANCH   1   2
BRANCH   1   8
ATOM      8  C   UNL     1       0.809  -1.244   0.369  1.00  0.00     0.214 C 
BRANCH   8   9
ATOM      9  C   UNL     1       1.941  -0.879   1.305  1.00  0.00     0.189 C 
ATOM     10  O   UNL     1       1.746  -0.879   2.512  1.00  0.00    -0.294 OA
BRANCH   9  11
ATOM     11  C   UNL     1       3.308  -0.528   0.783  1.00  0.00     0.234 C 
BRANCH  11  12
ATOM     12  O   UNL     1       4.240  -0.530   1.830  1.00  0.00    -0.388 OA
ATOM     13  H   UNL     1       3.833  -1.049   2.573  1.00  0.00     0.211 HD
ENDBRANCH  11  12
ENDBRANCH   9  11
ENDBRANCH   8   9
BRANCH   8  14
ATOM     14  O   UNL     1       1.294  -1.292  -0.948  1.00  0.00    -0.382 OA
ATOM     15  H   UNL     1       1.637  -2.213  -1.095  1.00  0.00     0.211 HD
ENDBRANCH   8  14
ENDBRANCH   1   8
BRANCH   1  16
ATOM     16  O   UNL     1      -0.270  -2.524   2.089  1.00  0.00    -0.387 OA
ATOM     17  H   UNL     1       0.192  -1.756   2.516  1.00  0.00     0.211 HD
ENDBRANCH   1  16
TORSDOF 10
ENDMDL
MODEL 4
REMARK VINA RESULT:    -1.771      1.120      4.762
REMARK INTER + INTRA:          -3.286
REMARK INTER:                  -3.016
REMARK INTRA:                  -0.270
REMARK UNBOUND:                -0.738
REMARK SMILES O=C(CO)[C@@H](O)[C@@H](O)[C@@H](O)CO
REMARK SMILES IDX 7 1 9 2 11 3 12 4 10 6 5 8 2 9 1 10 3 11 4 12 6 14 8 16
REMARK H PARENT 12 5 10 7 4 13 6 15 8 17
REMARK Flexibility Score: inf
ROOT
ATOM      1  C   UNL     1       1.082  -1.028   0.565  1.00  0.00     0.181 C 
ENDROOT
BRANCH   1   2
ATOM      2  C   UNL     1       2.557  -0.549   0.580  1.00  0.00     0.171 C 
BRANCH   2   3
ATOM      3  C   UNL     1       3.140  -0.531   2.004  1.00  0.00     0.190 C 
BRANCH   3   4
ATOM      4  O   UNL     1       4.540  -0.568   1.961  1.00  0.00    -0.394 OA
ATOM      5  H   UNL     1       4.780  -1.400   1.477  1.00  0.00     0.210 HD
ENDBRANCH   3   4
ENDBRANCH   2   3
BRANCH   2   6
ATOM      6  O   UNL     1       2.632   0.749   0.048  1.00  0.00    -0.388 OA
ATOM      7  H   UNL     1       2.129   1.345   0.663  1.00  0.00     0.211 HD
ENDBRANCH   2   6
ENDBRANCH   1   2
BRANCH   1   8
ATOM      8  C   UNL     1       0.853  -2.140  -0.486  1.00  0.00     0.214 C 
BRANCH   8   9
ATOM      9  C   UNL     1      -0.573  -2.643  -0.437  1.00  0.00     0.189 C 
ATOM     10  O   UNL     1      -1.143  -2.728   0.641  1.00  0.00    -0.294 OA
BRANCH   9  11
ATOM     11  C   UNL     1      -1.311  -3.031  -1.690  1.00  0.00     0.234 C 
BRANCH  11  12
ATOM     12  O   UNL     1      -1.421  -1.927  -2.547  1.00  0.00    -0.388 OA
ATOM     13  H   UNL     1      -1.629  -2.285  -3.449  1.00  0.00     0.211 HD
ENDBRANCH  11  12
ENDBRANCH   9  11
ENDBRANCH   8   9
BRANCH   8  14
ATOM     14  O   UNL     1       1.130  -1.655  -1.774  1.00  0.00    -0.382 OA
ATOM     15  H   UNL     1       0.265  -1.354  -2.160  1.00  0.00     0.211 HD
ENDBRANCH   8  14
ENDBRANCH   1   8
BRANCH   1  16
ATOM     16  O   UNL     1       0.738  -1.533   1.833  1.00  0.00    -0.387 OA
ATOM     17  H   UNL     1       0.374  -0.777   2.365  1.00  0.00     0.211 HD
ENDBRANCH   1  16
TORSDOF 10
ENDMDL
MODEL 5
REMARK VINA RESULT:    -0.313      1.653      3.298
REMARK INTER + INTRA:          -1.188
REMARK INTER:                  -1.104
REMARK INTRA:                  -0.084
REMARK UNBOUND:                -0.738
REMARK SMILES O=C(CO)[C@@H](O)[C@@H](O)[C@@H](O)CO
REMARK SMILES IDX 7 1 9 2 11 3 12 4 10 6 5 8 2 9 1 10 3 11 4 12 6 14 8 16
REMARK H PARENT 12 5 10 7 4 13 6 15 8 17
REMARK Flexibility Score: inf
ROOT
ATOM      1  C   UNL     1       1.350  -1.426   0.948  1.00  0.00     0.181 C 
ENDROOT
BRANCH   1   2
ATOM      2  C   UNL     1       0.252  -1.635  -0.128  1.00  0.00     0.171 C 
BRANCH   2   3
ATOM      3  C   UNL     1      -0.630  -2.856   0.182  1.00  0.00     0.190 C 
BRANCH   3   4
ATOM      4  O   UNL     1      -0.630  -3.125   1.557  1.00  0.00    -0.394 OA
ATOM      5  H   UNL     1      -1.482  -3.595   1.747  1.00  0.00     0.210 HD
ENDBRANCH   3   4
ENDBRANCH   2   3
BRANCH   2   6
ATOM      6  O   UNL     1       0.856  -1.824  -1.382  1.00  0.00    -0.388 OA
ATOM      7  H   UNL     1       1.106  -0.925  -1.723  1.00  0.00     0.211 HD
ENDBRANCH   2   6
ENDBRANCH   1   2
BRANCH   1   8
ATOM      8  C   UNL     1       2.457  -0.466   0.455  1.00  0.00     0.214 C 
BRANCH   8   9
ATOM      9  C   UNL     1       3.659  -0.512   1.373  1.00  0.00     0.189 C 
ATOM     10  O   UNL     1       3.550  -0.120   2.525  1.00  0.00    -0.294 OA
BRANCH   9  11
ATOM     11  C   UNL     1       4.986  -1.044   0.901  1.00  0.00     0.234 C 
BRANCH  11  12
ATOM     12  O   UNL     1       5.667  -1.653   1.964  1.00  0.00    -0.388 OA
ATOM     13  H   UNL     1       4.983  -1.888   2.644  1.00  0.00     0.211 HD
ENDBRANCH  11  12
ENDBRANCH   9  11
ENDBRANCH   8   9
BRANCH   8  14
ATOM     14  O   UNL     1       2.855  -0.810  -0.847  1.00  0.00    -0.382 OA
ATOM     15  H   UNL     1       3.764  -1.205  -0.775  1.00  0.00     0.211 HD
ENDBRANCH   8  14
ENDBRANCH   1   8
BRANCH   1  16
ATOM     16  O   UNL     1       0.772  -0.885   2.111  1.00  0.00    -0.387 OA
ATOM     17  H   UNL     1      -0.061  -0.418   1.839  1.00  0.00     0.211 HD
ENDBRANCH   1  16
TORSDOF 10
ENDMDL
MODEL 6
REMARK VINA RESULT:    -0.147      1.398      4.652
REMARK INTER + INTRA:          -0.950
REMARK INTER:                  -0.522
REMARK INTRA:                  -0.428
REMARK UNBOUND:                -0.738
REMARK SMILES O=C(CO)[C@@H](O)[C@@H](O)[C@@H](O)CO
REMARK SMILES IDX 7 1 9 2 11 3 12 4 10 6 5 8 2 9 1 10 3 11 4 12 6 14 8 16
REMARK H PARENT 12 5 10 7 4 13 6 15 8 17
REMARK Flexibility Score: inf
ROOT
ATOM      1  C   UNL     1       2.202  -1.278   0.455  1.00  0.00     0.181 C 
ENDROOT
BRANCH   1   2
ATOM      2  C   UNL     1       2.766  -0.401   1.603  1.00  0.00     0.171 C 
BRANCH   2   3
ATOM      3  C   UNL     1       4.166  -0.863   2.043  1.00  0.00     0.190 C 
BRANCH   3   4
ATOM      4  O   UNL     1       5.040  -0.892   0.948  1.00  0.00    -0.394 OA
ATOM      5  H   UNL     1       5.924  -1.163   1.307  1.00  0.00     0.210 HD
ENDBRANCH   3   4
ENDBRANCH   2   3
BRANCH   2   6
ATOM      6  O   UNL     1       1.903  -0.467   2.709  1.00  0.00    -0.388 OA
ATOM      7  H   UNL     1       1.617   0.463   2.911  1.00  0.00     0.211 HD
ENDBRANCH   2   6
ENDBRANCH   1   2
BRANCH   1   8
ATOM      8  C   UNL     1       0.664  -1.159   0.347  1.00  0.00     0.214 C 
BRANCH   8   9
ATOM      9  C   UNL     1       0.126  -2.073  -0.732  1.00  0.00     0.189 C 
ATOM     10  O   UNL     1       0.547  -1.966  -1.874  1.00  0.00    -0.294 OA
BRANCH   9  11
ATOM     11  C   UNL     1      -0.909  -3.122  -0.426  1.00  0.00     0.234 C 
BRANCH  11  12
ATOM     12  O   UNL     1      -2.057  -2.525   0.113  1.00  0.00    -0.388 OA
ATOM     13  H   UNL     1      -1.746  -1.854   0.776  1.00  0.00     0.211 HD
ENDBRANCH  11  12
ENDBRANCH   9  11
ENDBRANCH   8   9
BRANCH   8  14
ATOM     14  O   UNL     1       0.064  -1.487   1.574  1.00  0.00    -0.382 OA
ATOM     15  H   UNL     1      -0.883  -1.191   1.519  1.00  0.00     0.211 HD
ENDBRANCH   8  14
ENDBRANCH   1   8
BRANCH   1  16
ATOM     16  O   UNL     1       2.770  -0.875  -0.768  1.00  0.00    -0.387 OA
ATOM     17  H   UNL     1       2.027  -0.574  -1.356  1.00  0.00     0.211 HD
ENDBRANCH   1  16
TORSDOF 10
ENDMDL
MODEL 7
REMARK VINA RESULT:    -0.021      1.002      4.419
REMARK INTER + INTRA:          -0.768
REMARK INTER:                  -0.156
REMARK INTRA:                  -0.613
REMARK UNBOUND:                -0.738
REMARK SMILES O=C(CO)[C@@H](O)[C@@H](O)[C@@H](O)CO
REMARK SMILES IDX 7 1 9 2 11 3 12 4 10 6 5 8 2 9 1 10 3 11 4 12 6 14 8 16
REMARK H PARENT 12 5 10 7 4 13 6 15 8 17
REMARK Flexibility Score: inf
ROOT
ATOM      1  C   UNL     1       0.998  -1.733   0.002  1.00  0.00     0.181 C 
ENDROOT
BRANCH   1   2
ATOM      2  C   UNL     1       0.816  -0.879   1.283  1.00  0.00     0.171 C 
BRANCH   2   3
ATOM      3  C   UNL     1       2.118  -0.784   2.099  1.00  0.00     0.190 C 
BRANCH   3   4
ATOM      4  O   UNL     1       3.201  -0.487   1.261  1.00  0.00    -0.394 OA
ATOM      5  H   UNL     1       2.975   0.367   0.809  1.00  0.00     0.210 HD
ENDBRANCH   3   4
ENDBRANCH   2   3
BRANCH   2   6
ATOM      6  O   UNL     1      -0.179  -1.453   2.091  1.00  0.00    -0.388 OA
ATOM      7  H   UNL     1      -0.467  -0.756   2.738  1.00  0.00     0.211 HD
ENDBRANCH   2   6
ENDBRANCH   1   2
BRANCH   1   8
ATOM      8  C   UNL     1      -0.360  -2.073  -0.655  1.00  0.00     0.214 C 
BRANCH   8   9
ATOM      9  C   UNL     1      -0.164  -2.582  -2.067  1.00  0.00     0.189 C 
ATOM     10  O   UNL     1       0.888  -3.125  -2.369  1.00  0.00    -0.294 OA
BRANCH   9  11
ATOM     11  C   UNL     1      -1.245  -2.447  -3.106  1.00  0.00     0.234 C 
BRANCH  11  12
ATOM     12  O   UNL     1      -1.737  -1.134  -3.123  1.00  0.00    -0.388 OA
ATOM     13  H   UNL     1      -1.798  -0.840  -2.176  1.00  0.00     0.211 HD
ENDBRANCH  11  12
ENDBRANCH   9  11
ENDBRANCH   8   9
BRANCH   8  14
ATOM     14  O   UNL     1      -1.035  -3.047   0.099  1.00  0.00    -0.382 OA
ATOM     15  H   UNL     1      -0.348  -3.688   0.422  1.00  0.00     0.211 HD
ENDBRANCH   8  14
ENDBRANCH   1   8
BRANCH   1  16
ATOM     16  O   UNL     1       1.781  -1.026  -0.929  1.00  0.00    -0.387 OA
ATOM     17  H   UNL     1       2.331  -0.374  -0.420  1.00  0.00     0.211 HD
ENDBRANCH   1  16
TORSDOF 10
ENDMDL
