MODEL 1
REMARK VINA RESULT:    -7.648      0.000      0.000
REMARK INTER + INTRA:         -13.718
REMARK INTER:                 -12.119
REMARK INTRA:                  -1.599
REMARK UNBOUND:                -1.599
REMARK SMILES C[C@H]1O[C@H](O[C@@H]2[C@H](Oc3cc(O)c4c(c3)O[C@H](c3ccc(O)cc3)CC4=O)O[C@@H](CO)[C@@H](O)[C@@H]2O)[C@H](O)[C@@H](O)[C@@H]1O
REMARK SMILES IDX 6 1 34 2 32 3 29 4 28 5 7 6 5 7 4 8 1 9 2 10 40 11 3 12
REMARK SMILES IDX 38 13 36 14 41 15 39 17 37 19 35 21 8 23 9 24 10 25 15 26
REMARK SMILES IDX 11 27 14 28 13 29 16 30 26 31 17 32 27 33 25 34 12 35 18 37
REMARK SMILES IDX 19 38 24 39 20 40 23 41 21 42 22 43 33 45 30 47 31 48
REMARK H PARENT 41 16 39 18 37 20 35 22 12 36 22 44 33 46 31 49
REMARK Flexibility Score: inf
ROOT
ATOM      1  C   UNL     1     171.983 145.303 157.732  1.00  0.00     0.221 C 
ATOM      2  C   UNL     1     171.570 146.048 159.041  1.00  0.00     0.181 C 
ATOM      3  C   UNL     1     172.551 147.182 159.444  1.00  0.00     0.177 C 
ATOM      4  C   UNL     1     174.029 146.762 159.170  1.00  0.00     0.179 C 
ATOM      5  O   UNL     1     174.261 146.027 157.966  1.00  0.00    -0.332 OA
ATOM      6  C   UNL     1     173.161 146.041 157.077  1.00  0.00     0.339 C 
ENDROOT
BRANCH   1   7
ATOM      7  O   UNL     1     172.375 143.974 158.048  1.00  0.00    -0.337 OA
BRANCH   7   8
ATOM      8  C   UNL     1     171.308 143.040 158.004  1.00  0.00     0.282 C 
ATOM      9  C   UNL     1     168.586 141.966 158.540  1.00  0.00     0.041 C 
ATOM     10  C   UNL     1     168.977 143.034 157.496  1.00  0.00     0.150 C 
ATOM     11  C   UNL     1     169.130 142.462 156.056  1.00  0.00     0.174 C 
ATOM     12  O   UNL     1     170.109 143.796 157.896  1.00  0.00    -0.344 OA
ATOM     13  C   UNL     1     170.611 142.458 155.616  1.00  0.00     0.179 C 
ATOM     14  C   UNL     1     171.510 142.056 156.806  1.00  0.00     0.202 C 
BRANCH  11  15
ATOM     15  O   UNL     1     168.378 143.248 155.163  1.00  0.00    -0.388 OA
ATOM     16  H   UNL     1     168.989 143.955 154.815  1.00  0.00     0.211 HD
ENDBRANCH  11  15
BRANCH  13  17
ATOM     17  O   UNL     1     170.811 141.600 154.518  1.00  0.00    -0.387 OA
ATOM     18  H   UNL     1     169.988 141.057 154.402  1.00  0.00     0.211 HD
ENDBRANCH  13  17
BRANCH  14  19
ATOM     19  O   UNL     1     172.859 141.953 156.422  1.00  0.00    -0.385 OA
ATOM     20  H   UNL     1     172.895 141.885 155.433  1.00  0.00     0.211 HD
ENDBRANCH  14  19
ENDBRANCH   7   8
ENDBRANCH   1   7
BRANCH   2  21
ATOM     21  O   UNL     1     171.460 145.136 160.107  1.00  0.00    -0.387 OA
ATOM     22  H   UNL     1     171.677 145.628 160.944  1.00  0.00     0.211 HD
ENDBRANCH   2  21
BRANCH   6  23
ATOM     23  O   UNL     1     173.537 145.440 155.842  1.00  0.00    -0.462 OA
BRANCH  23  24
ATOM     24  C   UNL     1     172.614 145.355 154.793  1.00  0.00     0.130 A 
ATOM     25  C   UNL     1     171.331 145.907 154.913  1.00  0.00     0.093 A 
ATOM     26  C   UNL     1     172.940 144.642 153.639  1.00  0.00     0.094 A 
ATOM     27  C   UNL     1     170.341 145.647 153.960  1.00  0.00     0.133 A 
ATOM     28  C   UNL     1     171.951 144.336 152.696  1.00  0.00     0.138 A 
ATOM     29  C   UNL     1     170.622 144.765 152.886  1.00  0.00     0.102 A 
ATOM     30  O   UNL     1     172.288 143.549 151.586  1.00  0.00    -0.484 OA
ATOM     31  C   UNL     1     169.572 144.146 152.030  1.00  0.00     0.174 C 
ATOM     32  C   UNL     1     171.398 143.309 150.495  1.00  0.00     0.211 C 
ATOM     33  O   UNL     1     168.347 144.318 152.278  1.00  0.00    -0.294 OA
ATOM     34  C   UNL     1     169.947 143.134 150.985  1.00  0.00     0.131 C 
BRANCH  27  35
ATOM     35  O   UNL     1     169.108 146.284 154.114  1.00  0.00    -0.507 OA
ATOM     36  H   UNL     1     168.275 145.824 154.459  1.00  0.00     0.293 HD
ENDBRANCH  27  35
BRANCH  32  37
ATOM     37  C   UNL     1     171.593 144.368 149.419  1.00  0.00    -0.007 A 
ATOM     38  C   UNL     1     171.305 145.734 149.620  1.00  0.00     0.011 A 
ATOM     39  C   UNL     1     172.093 143.958 148.169  1.00  0.00     0.011 A 
ATOM     40  C   UNL     1     171.475 146.648 148.579  1.00  0.00     0.046 A 
ATOM     41  C   UNL     1     172.266 144.879 147.133  1.00  0.00     0.046 A 
ATOM     42  C   UNL     1     171.947 146.224 147.332  1.00  0.00     0.115 A 
BRANCH  42  43
ATOM     43  O   UNL     1     172.099 147.130 146.286  1.00  0.00    -0.508 OA
ATOM     44  H   UNL     1     171.302 147.579 145.857  1.00  0.00     0.293 HD
ENDBRANCH  42  43
ENDBRANCH  32  37
ENDBRANCH  23  24
ENDBRANCH   6  23
BRANCH   3  45
ATOM     45  O   UNL     1     172.237 148.363 158.749  1.00  0.00    -0.387 OA
ATOM     46  H   UNL     1     172.409 148.194 157.787  1.00  0.00     0.211 HD
ENDBRANCH   3  45
BRANCH   4  47
ATOM     47  C   UNL     1     174.994 147.955 159.213  1.00  0.00     0.191 C 
BRANCH  47  48
ATOM     48  O   UNL     1     174.971 148.649 157.991  1.00  0.00    -0.394 OA
ATOM     49  H   UNL     1     174.596 149.548 158.178  1.00  0.00     0.210 HD
ENDBRANCH  47  48
ENDBRANCH   4  47
TORSDOF 14
ENDMDL
MODEL 2
REMARK VINA RESULT:    -7.613      2.311      7.957
REMARK INTER + INTRA:         -13.663
REMARK INTER:                 -11.445
REMARK INTRA:                  -2.219
REMARK UNBOUND:                -1.599
REMARK SMILES C[C@H]1O[C@H](O[C@@H]2[C@H](Oc3cc(O)c4c(c3)O[C@H](c3ccc(O)cc3)CC4=O)O[C@@H](CO)[C@@H](O)[C@@H]2O)[C@H](O)[C@@H](O)[C@@H]1O
REMARK SMILES IDX 6 1 34 2 32 3 29 4 28 5 7 6 5 7 4 8 1 9 2 10 40 11 3 12
REMARK SMILES IDX 38 13 36 14 41 15 39 17 37 19 35 21 8 23 9 24 10 25 15 26
REMARK SMILES IDX 11 27 14 28 13 29 16 30 26 31 17 32 27 33 25 34 12 35 18 37
REMARK SMILES IDX 19 38 24 39 20 40 23 41 21 42 22 43 33 45 30 47 31 48
REMARK H PARENT 41 16 39 18 37 20 35 22 12 36 22 44 33 46 31 49
REMARK Flexibility Score: inf
ROOT
ATOM      1  C   UNL     1     170.577 142.914 154.043  1.00  0.00     0.221 C 
ATOM      2  C   UNL     1     171.111 141.947 152.937  1.00  0.00     0.181 C 
ATOM      3  C   UNL     1     171.548 142.674 151.637  1.00  0.00     0.177 C 
ATOM      4  C   UNL     1     170.573 143.847 151.302  1.00  0.00     0.179 C 
ATOM      5  O   UNL     1     170.108 144.614 152.413  1.00  0.00    -0.332 OA
ATOM      6  C   UNL     1     170.823 144.367 153.608  1.00  0.00     0.339 C 
ENDROOT
BRANCH   1   7
ATOM      7  O   UNL     1     169.182 142.704 154.222  1.00  0.00    -0.337 OA
BRANCH   7   8
ATOM      8  C   UNL     1     168.842 142.207 155.506  1.00  0.00     0.282 C 
ATOM      9  C   UNL     1     169.277 140.875 158.130  1.00  0.00     0.041 C 
ATOM     10  C   UNL     1     169.701 142.305 157.730  1.00  0.00     0.150 C 
ATOM     11  C   UNL     1     168.719 143.403 158.232  1.00  0.00     0.174 C 
ATOM     12  O   UNL     1     169.975 142.421 156.339  1.00  0.00    -0.344 OA
ATOM     13  C   UNL     1     167.938 144.027 157.054  1.00  0.00     0.179 C 
ATOM     14  C   UNL     1     167.560 142.930 156.035  1.00  0.00     0.202 C 
BRANCH  11  15
ATOM     15  O   UNL     1     169.446 144.408 158.897  1.00  0.00    -0.388 OA
ATOM     16  H   UNL     1     168.929 144.644 159.716  1.00  0.00     0.211 HD
ENDBRANCH  11  15
BRANCH  13  17
ATOM     17  O   UNL     1     166.794 144.710 157.509  1.00  0.00    -0.387 OA
ATOM     18  H   UNL     1     166.000 144.290 157.085  1.00  0.00     0.211 HD
ENDBRANCH  13  17
BRANCH  14  19
ATOM     19  O   UNL     1     166.770 143.444 154.991  1.00  0.00    -0.385 OA
ATOM     20  H   UNL     1     166.429 142.680 154.457  1.00  0.00     0.211 HD
ENDBRANCH  14  19
ENDBRANCH   7   8
ENDBRANCH   1   7
BRANCH   2  21
ATOM     21  O   UNL     1     170.134 140.984 152.619  1.00  0.00    -0.387 OA
ATOM     22  H   UNL     1     169.522 141.391 151.949  1.00  0.00     0.211 HD
ENDBRANCH   2  21
BRANCH   6  23
ATOM     23  O   UNL     1     170.413 145.292 154.611  1.00  0.00    -0.462 OA
BRANCH  23  24
ATOM     24  C   UNL     1     171.207 145.493 155.746  1.00  0.00     0.130 A 
ATOM     25  C   UNL     1     170.862 146.451 156.709  1.00  0.00     0.093 A 
ATOM     26  C   UNL     1     172.402 144.788 155.889  1.00  0.00     0.094 A 
ATOM     27  C   UNL     1     171.750 146.801 157.731  1.00  0.00     0.133 A 
ATOM     28  C   UNL     1     173.322 145.154 156.880  1.00  0.00     0.138 A 
ATOM     29  C   UNL     1     173.043 146.219 157.760  1.00  0.00     0.102 A 
ATOM     30  O   UNL     1     174.551 144.483 156.950  1.00  0.00    -0.484 OA
ATOM     31  C   UNL     1     174.173 146.759 158.566  1.00  0.00     0.174 C 
ATOM     32  C   UNL     1     175.490 144.673 158.010  1.00  0.00     0.211 C 
ATOM     33  O   UNL     1     174.054 147.835 159.212  1.00  0.00    -0.294 OA
ATOM     34  C   UNL     1     175.542 146.148 158.453  1.00  0.00     0.131 C 
BRANCH  27  35
ATOM     35  O   UNL     1     171.310 147.717 158.689  1.00  0.00    -0.507 OA
ATOM     36  H   UNL     1     170.363 148.068 158.740  1.00  0.00     0.293 HD
ENDBRANCH  27  35
BRANCH  32  37
ATOM     37  C   UNL     1     175.227 143.671 159.126  1.00  0.00    -0.007 A 
ATOM     38  C   UNL     1     174.485 142.487 158.940  1.00  0.00     0.011 A 
ATOM     39  C   UNL     1     175.759 143.944 160.399  1.00  0.00     0.011 A 
ATOM     40  C   UNL     1     174.253 141.627 160.015  1.00  0.00     0.046 A 
ATOM     41  C   UNL     1     175.527 143.078 161.470  1.00  0.00     0.046 A 
ATOM     42  C   UNL     1     174.764 141.923 161.283  1.00  0.00     0.115 A 
BRANCH  42  43
ATOM     43  O   UNL     1     174.517 141.079 162.362  1.00  0.00    -0.508 OA
ATOM     44  H   UNL     1     173.783 140.384 162.331  1.00  0.00     0.293 HD
ENDBRANCH  42  43
ENDBRANCH  32  37
ENDBRANCH  23  24
ENDBRANCH   6  23
BRANCH   3  45
ATOM     45  O   UNL     1     172.865 143.148 151.767  1.00  0.00    -0.387 OA
ATOM     46  H   UNL     1     173.403 142.416 152.166  1.00  0.00     0.211 HD
ENDBRANCH   3  45
BRANCH   4  47
ATOM     47  C   UNL     1     171.150 144.803 150.248  1.00  0.00     0.191 C 
BRANCH  47  48
ATOM     48  O   UNL     1     170.675 146.109 150.458  1.00  0.00    -0.394 OA
ATOM     49  H   UNL     1     170.431 146.473 149.569  1.00  0.00     0.210 HD
ENDBRANCH  47  48
ENDBRANCH   4  47
TORSDOF 14
ENDMDL
MODEL 3
REMARK VINA RESULT:    -7.412      2.550      5.255
REMARK INTER + INTRA:         -13.344
REMARK INTER:                 -11.355
REMARK INTRA:                  -1.989
REMARK UNBOUND:                -1.599
REMARK SMILES C[C@H]1O[C@H](O[C@@H]2[C@H](Oc3cc(O)c4c(c3)O[C@H](c3ccc(O)cc3)CC4=O)O[C@@H](CO)[C@@H](O)[C@@H]2O)[C@H](O)[C@@H](O)[C@@H]1O
REMARK SMILES IDX 6 1 34 2 32 3 29 4 28 5 7 6 5 7 4 8 1 9 2 10 40 11 3 12
REMARK SMILES IDX 38 13 36 14 41 15 39 17 37 19 35 21 8 23 9 24 10 25 15 26
REMARK SMILES IDX 11 27 14 28 13 29 16 30 26 31 17 32 27 33 25 34 12 35 18 37
REMARK SMILES IDX 19 38 24 39 20 40 23 41 21 42 22 43 33 45 30 47 31 48
REMARK H PARENT 41 16 39 18 37 20 35 22 12 36 22 44 33 46 31 49
REMARK Flexibility Score: inf
ROOT
ATOM      1  C   UNL     1     171.121 144.291 156.042  1.00  0.00     0.221 C 
ATOM      2  C   UNL     1     169.908 143.905 156.949  1.00  0.00     0.181 C 
ATOM      3  C   UNL     1     168.558 143.843 156.184  1.00  0.00     0.177 C 
ATOM      4  C   UNL     1     168.464 144.992 155.131  1.00  0.00     0.179 C 
ATOM      5  O   UNL     1     169.664 145.288 154.415  1.00  0.00    -0.332 OA
ATOM      6  C   UNL     1     170.671 144.308 154.574  1.00  0.00     0.339 C 
ENDROOT
BRANCH   1   7
ATOM      7  O   UNL     1     171.592 145.582 156.408  1.00  0.00    -0.337 OA
BRANCH   7   8
ATOM      8  C   UNL     1     172.824 145.559 157.110  1.00  0.00     0.282 C 
ATOM      9  C   UNL     1     174.710 144.889 159.312  1.00  0.00     0.041 C 
ATOM     10  C   UNL     1     174.225 143.953 158.183  1.00  0.00     0.150 C 
ATOM     11  C   UNL     1     175.242 143.822 157.012  1.00  0.00     0.174 C 
ATOM     12  O   UNL     1     172.919 144.282 157.728  1.00  0.00    -0.344 OA
ATOM     13  C   UNL     1     174.716 144.524 155.740  1.00  0.00     0.179 C 
ATOM     14  C   UNL     1     174.006 145.840 156.124  1.00  0.00     0.202 C 
BRANCH  11  15
ATOM     15  O   UNL     1     175.461 142.458 156.738  1.00  0.00    -0.388 OA
ATOM     16  H   UNL     1     175.274 141.961 157.582  1.00  0.00     0.211 HD
ENDBRANCH  11  15
BRANCH  13  17
ATOM     17  O   UNL     1     175.758 144.760 154.824  1.00  0.00    -0.387 OA
ATOM     18  H   UNL     1     176.611 144.783 155.332  1.00  0.00     0.211 HD
ENDBRANCH  13  17
BRANCH  14  19
ATOM     19  O   UNL     1     173.589 146.554 154.986  1.00  0.00    -0.385 OA
ATOM     20  H   UNL     1     173.292 147.454 155.278  1.00  0.00     0.211 HD
ENDBRANCH  14  19
ENDBRANCH   7   8
ENDBRANCH   1   7
BRANCH   2  21
ATOM     21  O   UNL     1     169.790 144.813 158.018  1.00  0.00    -0.387 OA
ATOM     22  H   UNL     1     169.067 145.455 157.785  1.00  0.00     0.211 HD
ENDBRANCH   2  21
BRANCH   6  23
ATOM     23  O   UNL     1     171.756 144.592 153.695  1.00  0.00    -0.462 OA
BRANCH  23  24
ATOM     24  C   UNL     1     171.728 144.132 152.374  1.00  0.00     0.130 A 
ATOM     25  C   UNL     1     172.190 142.850 152.045  1.00  0.00     0.093 A 
ATOM     26  C   UNL     1     171.308 144.985 151.352  1.00  0.00     0.094 A 
ATOM     27  C   UNL     1     172.357 142.463 150.711  1.00  0.00     0.133 A 
ATOM     28  C   UNL     1     171.508 144.630 150.012  1.00  0.00     0.138 A 
ATOM     29  C   UNL     1     172.110 143.401 149.677  1.00  0.00     0.102 A 
ATOM     30  O   UNL     1     171.152 145.541 149.007  1.00  0.00    -0.484 OA
ATOM     31  C   UNL     1     172.581 143.226 148.275  1.00  0.00     0.174 C 
ATOM     32  C   UNL     1     171.172 145.220 147.615  1.00  0.00     0.211 C 
ATOM     33  O   UNL     1     173.311 142.250 147.951  1.00  0.00    -0.294 OA
ATOM     34  C   UNL     1     172.374 144.321 147.266  1.00  0.00     0.131 C 
BRANCH  27  35
ATOM     35  O   UNL     1     172.760 141.149 150.462  1.00  0.00    -0.507 OA
ATOM     36  H   UNL     1     172.442 140.603 149.672  1.00  0.00     0.293 HD
ENDBRANCH  27  35
BRANCH  32  37
ATOM     37  C   UNL     1     169.815 144.681 147.183  1.00  0.00    -0.007 A 
ATOM     38  C   UNL     1     169.539 143.305 147.050  1.00  0.00     0.011 A 
ATOM     39  C   UNL     1     168.791 145.606 146.913  1.00  0.00     0.011 A 
ATOM     40  C   UNL     1     168.282 142.879 146.618  1.00  0.00     0.046 A 
ATOM     41  C   UNL     1     167.533 145.174 146.485  1.00  0.00     0.046 A 
ATOM     42  C   UNL     1     167.280 143.810 146.326  1.00  0.00     0.115 A 
BRANCH  42  43
ATOM     43  O   UNL     1     166.031 143.390 145.875  1.00  0.00    -0.508 OA
ATOM     44  H   UNL     1     165.459 143.976 145.282  1.00  0.00     0.293 HD
ENDBRANCH  42  43
ENDBRANCH  32  37
ENDBRANCH  23  24
ENDBRANCH   6  23
BRANCH   3  45
ATOM     45  O   UNL     1     168.411 142.590 155.564  1.00  0.00    -0.387 OA
ATOM     46  H   UNL     1     168.899 142.630 154.701  1.00  0.00     0.211 HD
ENDBRANCH   3  45
BRANCH   4  47
ATOM     47  C   UNL     1     167.329 144.767 154.122  1.00  0.00     0.191 C 
BRANCH  47  48
ATOM     48  O   UNL     1     167.843 144.292 152.903  1.00  0.00    -0.394 OA
ATOM     49  H   UNL     1     167.084 144.250 152.267  1.00  0.00     0.210 HD
ENDBRANCH  47  48
ENDBRANCH   4  47
TORSDOF 14
ENDMDL
MODEL 4
REMARK VINA RESULT:    -7.352      2.517      5.582
REMARK INTER + INTRA:         -13.249
REMARK INTER:                 -11.567
REMARK INTRA:                  -1.681
REMARK UNBOUND:                -1.599
REMARK SMILES C[C@H]1O[C@H](O[C@@H]2[C@H](Oc3cc(O)c4c(c3)O[C@H](c3ccc(O)cc3)CC4=O)O[C@@H](CO)[C@@H](O)[C@@H]2O)[C@H](O)[C@@H](O)[C@@H]1O
REMARK SMILES IDX 6 1 34 2 32 3 29 4 28 5 7 6 5 7 4 8 1 9 2 10 40 11 3 12
REMARK SMILES IDX 38 13 36 14 41 15 39 17 37 19 35 21 8 23 9 24 10 25 15 26
REMARK SMILES IDX 11 27 14 28 13 29 16 30 26 31 17 32 27 33 25 34 12 35 18 37
REMARK SMILES IDX 19 38 24 39 20 40 23 41 21 42 22 43 33 45 30 47 31 48
REMARK H PARENT 41 16 39 18 37 20 35 22 12 36 22 44 33 46 31 49
REMARK Flexibility Score: inf
ROOT
ATOM      1  C   UNL     1     171.134 143.469 156.042  1.00  0.00     0.221 C 
ATOM      2  C   UNL     1     169.988 142.898 156.937  1.00  0.00     0.181 C 
ATOM      3  C   UNL     1     168.584 142.995 156.281  1.00  0.00     0.177 C 
ATOM      4  C   UNL     1     168.426 144.338 155.502  1.00  0.00     0.179 C 
ATOM      5  O   UNL     1     169.573 144.782 154.774  1.00  0.00    -0.332 OA
ATOM      6  C   UNL     1     170.576 143.793 154.648  1.00  0.00     0.339 C 
ENDROOT
BRANCH   1   7
ATOM      7  O   UNL     1     171.649 144.655 156.632  1.00  0.00    -0.337 OA
BRANCH   7   8
ATOM      8  C   UNL     1     173.066 144.690 156.698  1.00  0.00     0.282 C 
ATOM      9  C   UNL     1     175.846 145.023 155.694  1.00  0.00     0.041 C 
ATOM     10  C   UNL     1     174.837 146.142 156.030  1.00  0.00     0.150 C 
ATOM     11  C   UNL     1     175.062 146.774 157.434  1.00  0.00     0.174 C 
ATOM     12  O   UNL     1     173.489 145.735 155.832  1.00  0.00    -0.344 OA
ATOM     13  C   UNL     1     173.927 146.383 158.407  1.00  0.00     0.179 C 
ATOM     14  C   UNL     1     173.526 144.910 158.177  1.00  0.00     0.202 C 
BRANCH  11  15
ATOM     15  O   UNL     1     175.110 148.176 157.310  1.00  0.00    -0.388 OA
ATOM     16  H   UNL     1     174.411 148.544 157.919  1.00  0.00     0.211 HD
ENDBRANCH  11  15
BRANCH  13  17
ATOM     17  O   UNL     1     174.308 146.600 159.744  1.00  0.00    -0.387 OA
ATOM     18  H   UNL     1     174.047 147.527 159.988  1.00  0.00     0.211 HD
ENDBRANCH  13  17
BRANCH  14  19
ATOM     19  O   UNL     1     172.555 144.487 159.104  1.00  0.00    -0.385 OA
ATOM     20  H   UNL     1     172.174 145.293 159.540  1.00  0.00     0.211 HD
ENDBRANCH  14  19
ENDBRANCH   7   8
ENDBRANCH   1   7
BRANCH   2  21
ATOM     21  O   UNL     1     169.962 143.562 158.178  1.00  0.00    -0.387 OA
ATOM     22  H   UNL     1     170.672 143.158 158.746  1.00  0.00     0.211 HD
ENDBRANCH   2  21
BRANCH   6  23
ATOM     23  O   UNL     1     171.596 144.257 153.768  1.00  0.00    -0.462 OA
BRANCH  23  24
ATOM     24  C   UNL     1     171.601 143.857 152.426  1.00  0.00     0.130 A 
ATOM     25  C   UNL     1     172.156 142.630 152.040  1.00  0.00     0.093 A 
ATOM     26  C   UNL     1     171.119 144.723 151.444  1.00  0.00     0.094 A 
ATOM     27  C   UNL     1     172.351 142.318 150.690  1.00  0.00     0.133 A 
ATOM     28  C   UNL     1     171.344 144.447 150.089  1.00  0.00     0.138 A 
ATOM     29  C   UNL     1     172.035 143.283 149.700  1.00  0.00     0.102 A 
ATOM     30  O   UNL     1     170.921 145.374 149.126  1.00  0.00    -0.484 OA
ATOM     31  C   UNL     1     172.516 143.208 148.292  1.00  0.00     0.174 C 
ATOM     32  C   UNL     1     170.964 145.121 147.721  1.00  0.00     0.211 C 
ATOM     33  O   UNL     1     173.317 142.304 147.926  1.00  0.00    -0.294 OA
ATOM     34  C   UNL     1     172.229 144.330 147.334  1.00  0.00     0.131 C 
BRANCH  27  35
ATOM     35  O   UNL     1     172.851 141.051 150.382  1.00  0.00    -0.507 OA
ATOM     36  H   UNL     1     172.478 140.191 150.763  1.00  0.00     0.293 HD
ENDBRANCH  27  35
BRANCH  32  37
ATOM     37  C   UNL     1     169.650 144.504 147.261  1.00  0.00    -0.007 A 
ATOM     38  C   UNL     1     169.460 143.114 147.117  1.00  0.00     0.011 A 
ATOM     39  C   UNL     1     168.577 145.367 146.975  1.00  0.00     0.011 A 
ATOM     40  C   UNL     1     168.239 142.615 146.659  1.00  0.00     0.046 A 
ATOM     41  C   UNL     1     167.356 144.862 146.522  1.00  0.00     0.046 A 
ATOM     42  C   UNL     1     167.188 143.486 146.352  1.00  0.00     0.115 A 
BRANCH  42  43
ATOM     43  O   UNL     1     165.976 142.994 145.875  1.00  0.00    -0.508 OA
ATOM     44  H   UNL     1     165.897 142.589 144.952  1.00  0.00     0.293 HD
ENDBRANCH  42  43
ENDBRANCH  32  37
ENDBRANCH  23  24
ENDBRANCH   6  23
BRANCH   3  45
ATOM     45  O   UNL     1     168.374 141.899 155.425  1.00  0.00    -0.387 OA
ATOM     46  H   UNL     1     168.621 141.081 155.929  1.00  0.00     0.211 HD
ENDBRANCH   3  45
BRANCH   4  47
ATOM     47  C   UNL     1     167.216 144.327 154.557  1.00  0.00     0.191 C 
BRANCH  47  48
ATOM     48  O   UNL     1     167.505 145.041 153.381  1.00  0.00    -0.394 OA
ATOM     49  H   UNL     1     168.351 145.531 153.544  1.00  0.00     0.210 HD
ENDBRANCH  47  48
ENDBRANCH   4  47
TORSDOF 14
ENDMDL
MODEL 5
REMARK VINA RESULT:    -7.026      1.684      2.054
REMARK INTER + INTRA:         -12.733
REMARK INTER:                 -10.784
REMARK INTRA:                  -1.948
REMARK UNBOUND:                -1.599
REMARK SMILES C[C@H]1O[C@H](O[C@@H]2[C@H](Oc3cc(O)c4c(c3)O[C@H](c3ccc(O)cc3)CC4=O)O[C@@H](CO)[C@@H](O)[C@@H]2O)[C@H](O)[C@@H](O)[C@@H]1O
REMARK SMILES IDX 6 1 34 2 32 3 29 4 28 5 7 6 5 7 4 8 1 9 2 10 40 11 3 12
REMARK SMILES IDX 38 13 36 14 41 15 39 17 37 19 35 21 8 23 9 24 10 25 15 26
REMARK SMILES IDX 11 27 14 28 13 29 16 30 26 31 17 32 27 33 25 34 12 35 18 37
REMARK SMILES IDX 19 38 24 39 20 40 23 41 21 42 22 43 33 45 30 47 31 48
REMARK H PARENT 41 16 39 18 37 20 35 22 12 36 22 44 33 46 31 49
REMARK Flexibility Score: inf
ROOT
ATOM      1  C   UNL     1     173.765 145.142 157.927  1.00  0.00     0.221 C 
ATOM      2  C   UNL     1     173.613 145.918 159.276  1.00  0.00     0.181 C 
ATOM      3  C   UNL     1     174.222 147.346 159.240  1.00  0.00     0.177 C 
ATOM      4  C   UNL     1     175.556 147.361 158.430  1.00  0.00     0.179 C 
ATOM      5  O   UNL     1     175.584 146.556 157.250  1.00  0.00    -0.332 OA
ATOM      6  C   UNL     1     174.307 146.095 156.852  1.00  0.00     0.339 C 
ENDROOT
BRANCH   1   7
ATOM      7  O   UNL     1     174.673 144.062 158.104  1.00  0.00    -0.337 OA
BRANCH   7   8
ATOM      8  C   UNL     1     174.037 142.810 158.298  1.00  0.00     0.282 C 
ATOM      9  C   UNL     1     172.017 140.900 159.358  1.00  0.00     0.041 C 
ATOM     10  C   UNL     1     171.830 141.908 158.204  1.00  0.00     0.150 C 
ATOM     11  C   UNL     1     171.980 141.266 156.794  1.00  0.00     0.174 C 
ATOM     12  O   UNL     1     172.640 143.067 158.358  1.00  0.00    -0.344 OA
ATOM     13  C   UNL     1     173.278 141.743 156.104  1.00  0.00     0.179 C 
ATOM     14  C   UNL     1     174.420 141.831 157.140  1.00  0.00     0.202 C 
BRANCH  11  15
ATOM     15  O   UNL     1     170.872 141.621 156.002  1.00  0.00    -0.388 OA
ATOM     16  H   UNL     1     170.185 141.997 156.619  1.00  0.00     0.211 HD
ENDBRANCH  11  15
BRANCH  13  17
ATOM     17  O   UNL     1     173.627 140.893 155.038  1.00  0.00    -0.387 OA
ATOM     18  H   UNL     1     174.613 140.770 155.056  1.00  0.00     0.211 HD
ENDBRANCH  13  17
BRANCH  14  19
ATOM     19  O   UNL     1     175.642 142.176 156.535  1.00  0.00    -0.385 OA
ATOM     20  H   UNL     1     175.856 143.113 156.783  1.00  0.00     0.211 HD
ENDBRANCH  14  19
ENDBRANCH   7   8
ENDBRANCH   1   7
BRANCH   2  21
ATOM     21  O   UNL     1     174.206 145.191 160.325  1.00  0.00    -0.387 OA
ATOM     22  H   UNL     1     174.422 144.286 159.976  1.00  0.00     0.211 HD
ENDBRANCH   2  21
BRANCH   6  23
ATOM     23  O   UNL     1     174.405 145.455 155.583  1.00  0.00    -0.462 OA
BRANCH  23  24
ATOM     24  C   UNL     1     173.248 145.186 154.842  1.00  0.00     0.130 A 
ATOM     25  C   UNL     1     172.027 145.796 155.162  1.00  0.00     0.093 A 
ATOM     26  C   UNL     1     173.285 144.238 153.819  1.00  0.00     0.094 A 
ATOM     27  C   UNL     1     170.833 145.380 154.565  1.00  0.00     0.133 A 
ATOM     28  C   UNL     1     172.095 143.779 153.241  1.00  0.00     0.138 A 
ATOM     29  C   UNL     1     170.850 144.284 153.665  1.00  0.00     0.102 A 
ATOM     30  O   UNL     1     172.155 142.767 152.272  1.00  0.00    -0.484 OA
ATOM     31  C   UNL     1     169.629 143.539 153.249  1.00  0.00     0.174 C 
ATOM     32  C   UNL     1     171.022 142.337 151.515  1.00  0.00     0.211 C 
ATOM     33  O   UNL     1     168.503 143.801 153.756  1.00  0.00    -0.294 OA
ATOM     34  C   UNL     1     169.747 142.319 152.379  1.00  0.00     0.131 C 
BRANCH  27  35
ATOM     35  O   UNL     1     169.667 146.078 154.887  1.00  0.00    -0.507 OA
ATOM     36  H   UNL     1     169.622 146.805 155.588  1.00  0.00     0.293 HD
ENDBRANCH  27  35
BRANCH  32  37
ATOM     37  C   UNL     1     170.919 143.142 150.227  1.00  0.00    -0.007 A 
ATOM     38  C   UNL     1     169.778 143.893 149.877  1.00  0.00     0.011 A 
ATOM     39  C   UNL     1     172.021 143.138 149.353  1.00  0.00     0.011 A 
ATOM     40  C   UNL     1     169.736 144.583 148.664  1.00  0.00     0.046 A 
ATOM     41  C   UNL     1     171.975 143.834 148.143  1.00  0.00     0.046 A 
ATOM     42  C   UNL     1     170.828 144.548 147.790  1.00  0.00     0.115 A 
BRANCH  42  43
ATOM     43  O   UNL     1     170.782 145.219 146.571  1.00  0.00    -0.508 OA
ATOM     44  H   UNL     1     169.976 145.766 146.300  1.00  0.00     0.293 HD
ENDBRANCH  42  43
ENDBRANCH  32  37
ENDBRANCH  23  24
ENDBRANCH   6  23
BRANCH   3  45
ATOM     45  O   UNL     1     173.299 148.251 158.689  1.00  0.00    -0.387 OA
ATOM     46  H   UNL     1     173.594 149.164 158.943  1.00  0.00     0.211 HD
ENDBRANCH   3  45
BRANCH   4  47
ATOM     47  C   UNL     1     176.004 148.785 158.067  1.00  0.00     0.191 C 
BRANCH  47  48
ATOM     48  O   UNL     1     175.732 149.055 156.715  1.00  0.00    -0.394 OA
ATOM     49  H   UNL     1     174.866 148.620 156.504  1.00  0.00     0.210 HD
ENDBRANCH  47  48
ENDBRANCH   4  47
TORSDOF 14
ENDMDL
MODEL 6
REMARK VINA RESULT:    -6.993      2.425      8.058
REMARK INTER + INTRA:         -12.681
REMARK INTER:                 -11.019
REMARK INTRA:                  -1.662
REMARK UNBOUND:                -1.599
REMARK SMILES C[C@H]1O[C@H](O[C@@H]2[C@H](Oc3cc(O)c4c(c3)O[C@H](c3ccc(O)cc3)CC4=O)O[C@@H](CO)[C@@H](O)[C@@H]2O)[C@H](O)[C@@H](O)[C@@H]1O
REMARK SMILES IDX 6 1 34 2 32 3 29 4 28 5 7 6 5 7 4 8 1 9 2 10 40 11 3 12
REMARK SMILES IDX 38 13 36 14 41 15 39 17 37 19 35 21 8 23 9 24 10 25 15 26
REMARK SMILES IDX 11 27 14 28 13 29 16 30 26 31 17 32 27 33 25 34 12 35 18 37
REMARK SMILES IDX 19 38 24 39 20 40 23 41 21 42 22 43 33 45 30 47 31 48
REMARK H PARENT 41 16 39 18 37 20 35 22 12 36 22 44 33 46 31 49
REMARK Flexibility Score: inf
ROOT
ATOM      1  C   UNL     1     171.180 142.517 152.413  1.00  0.00     0.221 C 
ATOM      2  C   UNL     1     171.563 142.869 150.939  1.00  0.00     0.181 C 
ATOM      3  C   UNL     1     172.865 142.175 150.456  1.00  0.00     0.177 C 
ATOM      4  C   UNL     1     173.931 142.139 151.595  1.00  0.00     0.179 C 
ATOM      5  O   UNL     1     173.439 141.870 152.909  1.00  0.00    -0.332 OA
ATOM      6  C   UNL     1     172.104 141.402 152.925  1.00  0.00     0.339 C 
ENDROOT
BRANCH   1   7
ATOM      7  O   UNL     1     171.334 143.671 153.229  1.00  0.00    -0.337 OA
BRANCH   7   8
ATOM      8  C   UNL     1     170.116 144.348 153.493  1.00  0.00     0.282 C 
ATOM      9  C   UNL     1     167.172 144.679 153.777  1.00  0.00     0.041 C 
ATOM     10  C   UNL     1     168.134 143.999 154.776  1.00  0.00     0.150 C 
ATOM     11  C   UNL     1     168.547 144.920 155.960  1.00  0.00     0.174 C 
ATOM     12  O   UNL     1     169.258 143.411 154.133  1.00  0.00    -0.344 OA
ATOM     13  C   UNL     1     170.031 145.335 155.848  1.00  0.00     0.179 C 
ATOM     14  C   UNL     1     170.387 145.613 154.372  1.00  0.00     0.202 C 
BRANCH  11  15
ATOM     15  O   UNL     1     168.341 144.237 157.173  1.00  0.00    -0.388 OA
ATOM     16  H   UNL     1     167.434 143.826 157.123  1.00  0.00     0.211 HD
ENDBRANCH  11  15
BRANCH  13  17
ATOM     17  O   UNL     1     170.307 146.455 156.654  1.00  0.00    -0.387 OA
ATOM     18  H   UNL     1     169.774 146.368 157.488  1.00  0.00     0.211 HD
ENDBRANCH  13  17
BRANCH  14  19
ATOM     19  O   UNL     1     171.708 146.080 154.237  1.00  0.00    -0.385 OA
ATOM     20  H   UNL     1     171.784 146.937 154.732  1.00  0.00     0.211 HD
ENDBRANCH  14  19
ENDBRANCH   7   8
ENDBRANCH   1   7
BRANCH   2  21
ATOM     21  O   UNL     1     171.702 144.262 150.791  1.00  0.00    -0.387 OA
ATOM     22  H   UNL     1     172.675 144.460 150.741  1.00  0.00     0.211 HD
ENDBRANCH   2  21
BRANCH   6  23
ATOM     23  O   UNL     1     171.756 140.996 154.245  1.00  0.00    -0.462 OA
BRANCH  23  24
ATOM     24  C   UNL     1     172.499 141.455 155.339  1.00  0.00     0.130 A 
ATOM     25  C   UNL     1     173.831 141.062 155.523  1.00  0.00     0.093 A 
ATOM     26  C   UNL     1     171.887 142.252 156.307  1.00  0.00     0.094 A 
ATOM     27  C   UNL     1     174.511 141.346 156.713  1.00  0.00     0.133 A 
ATOM     28  C   UNL     1     172.536 142.510 157.521  1.00  0.00     0.138 A 
ATOM     29  C   UNL     1     173.822 141.991 157.771  1.00  0.00     0.102 A 
ATOM     30  O   UNL     1     171.865 143.246 158.509  1.00  0.00    -0.484 OA
ATOM     31  C   UNL     1     174.316 142.028 159.176  1.00  0.00     0.174 C 
ATOM     32  C   UNL     1     172.489 143.692 159.714  1.00  0.00     0.211 C 
ATOM     33  O   UNL     1     175.356 141.400 159.515  1.00  0.00    -0.294 OA
ATOM     34  C   UNL     1     173.470 142.636 160.259  1.00  0.00     0.131 C 
BRANCH  27  35
ATOM     35  O   UNL     1     175.855 140.979 156.797  1.00  0.00    -0.507 OA
ATOM     36  H   UNL     1     176.191 140.190 157.334  1.00  0.00     0.293 HD
ENDBRANCH  27  35
BRANCH  32  37
ATOM     37  C   UNL     1     173.080 145.080 159.513  1.00  0.00    -0.007 A 
ATOM     38  C   UNL     1     174.467 145.336 159.519  1.00  0.00     0.011 A 
ATOM     39  C   UNL     1     172.195 146.153 159.305  1.00  0.00     0.011 A 
ATOM     40  C   UNL     1     174.942 146.639 159.362  1.00  0.00     0.046 A 
ATOM     41  C   UNL     1     172.676 147.455 159.143  1.00  0.00     0.046 A 
ATOM     42  C   UNL     1     174.050 147.702 159.183  1.00  0.00     0.115 A 
BRANCH  42  43
ATOM     43  O   UNL     1     174.519 149.006 159.046  1.00  0.00    -0.508 OA
ATOM     44  H   UNL     1     173.893 149.773 158.841  1.00  0.00     0.293 HD
ENDBRANCH  42  43
ENDBRANCH  32  37
ENDBRANCH  23  24
ENDBRANCH   6  23
BRANCH   3  45
ATOM     45  O   UNL     1     172.580 140.875 150.003  1.00  0.00    -0.387 OA
ATOM     46  H   UNL     1     173.338 140.296 150.278  1.00  0.00     0.211 HD
ENDBRANCH   3  45
BRANCH   4  47
ATOM     47  C   UNL     1     175.080 141.167 151.289  1.00  0.00     0.191 C 
BRANCH  47  48
ATOM     48  O   UNL     1     175.574 141.383 149.991  1.00  0.00    -0.394 OA
ATOM     49  H   UNL     1     175.946 140.519 149.678  1.00  0.00     0.210 HD
ENDBRANCH  47  48
ENDBRANCH   4  47
TORSDOF 14
ENDMDL
MODEL 7
REMARK VINA RESULT:    -6.970      2.740      4.528
REMARK INTER + INTRA:         -12.645
REMARK INTER:                 -11.341
REMARK INTRA:                  -1.303
REMARK UNBOUND:                -1.599
REMARK SMILES C[C@H]1O[C@H](O[C@@H]2[C@H](Oc3cc(O)c4c(c3)O[C@H](c3ccc(O)cc3)CC4=O)O[C@@H](CO)[C@@H](O)[C@@H]2O)[C@H](O)[C@@H](O)[C@@H]1O
REMARK SMILES IDX 6 1 34 2 32 3 29 4 28 5 7 6 5 7 4 8 1 9 2 10 40 11 3 12
REMARK SMILES IDX 38 13 36 14 41 15 39 17 37 19 35 21 8 23 9 24 10 25 15 26
REMARK SMILES IDX 11 27 14 28 13 29 16 30 26 31 17 32 27 33 25 34 12 35 18 37
REMARK SMILES IDX 19 38 24 39 20 40 23 41 21 42 22 43 33 45 30 47 31 48
REMARK H PARENT 41 16 39 18 37 20 35 22 12 36 22 44 33 46 31 49
REMARK Flexibility Score: inf
ROOT
ATOM      1  C   UNL     1     172.076 144.713 155.084  1.00  0.00     0.221 C 
ATOM      2  C   UNL     1     173.072 145.684 155.796  1.00  0.00     0.181 C 
ATOM      3  C   UNL     1     174.551 145.218 155.717  1.00  0.00     0.177 C 
ATOM      4  C   UNL     1     174.656 143.669 155.879  1.00  0.00     0.179 C 
ATOM      5  O   UNL     1     173.643 142.899 155.230  1.00  0.00    -0.332 OA
ATOM      6  C   UNL     1     172.868 143.647 154.312  1.00  0.00     0.339 C 
ENDROOT
BRANCH   1   7
ATOM      7  O   UNL     1     171.255 144.080 156.058  1.00  0.00    -0.337 OA
BRANCH   7   8
ATOM      8  C   UNL     1     169.866 144.252 155.830  1.00  0.00     0.282 C 
ATOM      9  C   UNL     1     167.323 144.253 154.285  1.00  0.00     0.041 C 
ATOM     10  C   UNL     1     168.062 143.026 154.862  1.00  0.00     0.150 C 
ATOM     11  C   UNL     1     167.468 142.526 156.211  1.00  0.00     0.174 C 
ATOM     12  O   UNL     1     169.469 143.223 154.933  1.00  0.00    -0.344 OA
ATOM     13  C   UNL     1     168.433 142.815 157.383  1.00  0.00     0.179 C 
ATOM     14  C   UNL     1     169.093 144.198 157.189  1.00  0.00     0.202 C 
BRANCH  11  15
ATOM     15  O   UNL     1     167.232 141.141 156.129  1.00  0.00    -0.388 OA
ATOM     16  H   UNL     1     166.245 141.019 156.060  1.00  0.00     0.211 HD
ENDBRANCH  11  15
BRANCH  13  17
ATOM     17  O   UNL     1     167.764 142.743 158.620  1.00  0.00    -0.387 OA
ATOM     18  H   UNL     1     167.676 141.784 158.862  1.00  0.00     0.211 HD
ENDBRANCH  13  17
BRANCH  14  19
ATOM     19  O   UNL     1     169.912 144.538 158.281  1.00  0.00    -0.385 OA
ATOM     20  H   UNL     1     169.888 143.787 158.930  1.00  0.00     0.211 HD
ENDBRANCH  14  19
ENDBRANCH   7   8
ENDBRANCH   1   7
BRANCH   2  21
ATOM     21  O   UNL     1     172.713 145.846 157.147  1.00  0.00    -0.387 OA
ATOM     22  H   UNL     1     172.701 146.822 157.337  1.00  0.00     0.211 HD
ENDBRANCH   2  21
BRANCH   6  23
ATOM     23  O   UNL     1     172.007 142.772 153.589  1.00  0.00    -0.462 OA
BRANCH  23  24
ATOM     24  C   UNL     1     172.004 142.789 152.190  1.00  0.00     0.130 A 
ATOM     25  C   UNL     1     172.799 141.899 151.455  1.00  0.00     0.093 A 
ATOM     26  C   UNL     1     171.262 143.756 151.511  1.00  0.00     0.094 A 
ATOM     27  C   UNL     1     172.960 142.046 150.073  1.00  0.00     0.133 A 
ATOM     28  C   UNL     1     171.444 143.945 150.134  1.00  0.00     0.138 A 
ATOM     29  C   UNL     1     172.356 143.147 149.415  1.00  0.00     0.102 A 
ATOM     30  O   UNL     1     170.747 144.978 149.491  1.00  0.00    -0.484 OA
ATOM     31  C   UNL     1     172.735 143.600 148.048  1.00  0.00     0.174 C 
ATOM     32  C   UNL     1     170.742 145.157 148.074  1.00  0.00     0.211 C 
ATOM     33  O   UNL     1     173.693 143.063 147.428  1.00  0.00    -0.294 OA
ATOM     34  C   UNL     1     172.124 144.844 147.467  1.00  0.00     0.131 C 
BRANCH  27  35
ATOM     35  O   UNL     1     173.715 141.083 149.401  1.00  0.00    -0.507 OA
ATOM     36  H   UNL     1     174.726 141.047 149.418  1.00  0.00     0.293 HD
ENDBRANCH  27  35
BRANCH  32  37
ATOM     37  C   UNL     1     169.578 144.398 147.455  1.00  0.00    -0.007 A 
ATOM     38  C   UNL     1     168.446 145.036 146.906  1.00  0.00     0.011 A 
ATOM     39  C   UNL     1     169.644 142.993 147.425  1.00  0.00     0.011 A 
ATOM     40  C   UNL     1     167.397 144.278 146.383  1.00  0.00     0.046 A 
ATOM     41  C   UNL     1     168.592 142.240 146.896  1.00  0.00     0.046 A 
ATOM     42  C   UNL     1     167.462 142.880 146.385  1.00  0.00     0.115 A 
BRANCH  42  43
ATOM     43  O   UNL     1     166.409 142.121 145.882  1.00  0.00    -0.508 OA
ATOM     44  H   UNL     1     165.820 142.464 145.136  1.00  0.00     0.293 HD
ENDBRANCH  42  43
ENDBRANCH  32  37
ENDBRANCH  23  24
ENDBRANCH   6  23
BRANCH   3  45
ATOM     45  O   UNL     1     175.123 145.628 154.499  1.00  0.00    -0.387 OA
ATOM     46  H   UNL     1     174.951 144.909 153.837  1.00  0.00     0.211 HD
ENDBRANCH   3  45
BRANCH   4  47
ATOM     47  C   UNL     1     176.031 143.130 155.459  1.00  0.00     0.191 C 
BRANCH  47  48
ATOM     48  O   UNL     1     176.064 142.896 154.073  1.00  0.00    -0.394 OA
ATOM     49  H   UNL     1     176.968 143.156 153.760  1.00  0.00     0.210 HD
ENDBRANCH  47  48
ENDBRANCH   4  47
TORSDOF 14
ENDMDL
MODEL 8
REMARK VINA RESULT:    -6.623      2.141      3.348
REMARK INTER + INTRA:         -12.094
REMARK INTER:                 -10.028
REMARK INTRA:                  -2.067
REMARK UNBOUND:                -1.599
REMARK SMILES C[C@H]1O[C@H](O[C@@H]2[C@H](Oc3cc(O)c4c(c3)O[C@H](c3ccc(O)cc3)CC4=O)O[C@@H](CO)[C@@H](O)[C@@H]2O)[C@H](O)[C@@H](O)[C@@H]1O
REMARK SMILES IDX 6 1 34 2 32 3 29 4 28 5 7 6 5 7 4 8 1 9 2 10 40 11 3 12
REMARK SMILES IDX 38 13 36 14 41 15 39 17 37 19 35 21 8 23 9 24 10 25 15 26
REMARK SMILES IDX 11 27 14 28 13 29 16 30 26 31 17 32 27 33 25 34 12 35 18 37
REMARK SMILES IDX 19 38 24 39 20 40 23 41 21 42 22 43 33 45 30 47 31 48
REMARK H PARENT 41 16 39 18 37 20 35 22 12 36 22 44 33 46 31 49
REMARK Flexibility Score: inf
ROOT
ATOM      1  C   UNL     1     173.131 144.649 158.043  1.00  0.00     0.221 C 
ATOM      2  C   UNL     1     172.621 144.722 159.519  1.00  0.00     0.181 C 
ATOM      3  C   UNL     1     171.718 145.953 159.800  1.00  0.00     0.177 C 
ATOM      4  C   UNL     1     172.249 147.215 159.051  1.00  0.00     0.179 C 
ATOM      5  O   UNL     1     172.748 146.999 157.730  1.00  0.00    -0.332 OA
ATOM      6  C   UNL     1     172.423 145.725 157.207  1.00  0.00     0.339 C 
ENDROOT
BRANCH   1   7
ATOM      7  O   UNL     1     174.534 144.876 158.016  1.00  0.00    -0.337 OA
BRANCH   7   8
ATOM      8  C   UNL     1     175.290 143.730 157.658  1.00  0.00     0.282 C 
ATOM      9  C   UNL     1     176.124 140.875 157.710  1.00  0.00     0.041 C 
ATOM     10  C   UNL     1     174.884 141.471 157.009  1.00  0.00     0.150 C 
ATOM     11  C   UNL     1     175.089 141.704 155.484  1.00  0.00     0.174 C 
ATOM     12  O   UNL     1     174.390 142.629 157.670  1.00  0.00    -0.344 OA
ATOM     13  C   UNL     1     175.163 143.213 155.160  1.00  0.00     0.179 C 
ATOM     14  C   UNL     1     175.958 143.947 156.261  1.00  0.00     0.202 C 
BRANCH  11  15
ATOM     15  O   UNL     1     174.018 141.125 154.777  1.00  0.00    -0.388 OA
ATOM     16  H   UNL     1     173.257 141.766 154.830  1.00  0.00     0.211 HD
ENDBRANCH  11  15
BRANCH  13  17
ATOM     17  O   UNL     1     175.736 143.431 153.892  1.00  0.00    -0.387 OA
ATOM     18  H   UNL     1     176.719 143.324 153.980  1.00  0.00     0.211 HD
ENDBRANCH  13  17
BRANCH  14  19
ATOM     19  O   UNL     1     176.125 145.310 155.957  1.00  0.00    -0.385 OA
ATOM     20  H   UNL     1     176.478 145.379 155.032  1.00  0.00     0.211 HD
ENDBRANCH  14  19
ENDBRANCH   7   8
ENDBRANCH   1   7
BRANCH   2  21
ATOM     21  O   UNL     1     173.711 144.737 160.410  1.00  0.00    -0.387 OA
ATOM     22  H   UNL     1     173.654 143.913 160.963  1.00  0.00     0.211 HD
ENDBRANCH   2  21
BRANCH   6  23
ATOM     23  O   UNL     1     172.803 145.660 155.836  1.00  0.00    -0.462 OA
BRANCH  23  24
ATOM     24  C   UNL     1     172.012 144.956 154.921  1.00  0.00     0.130 A 
ATOM     25  C   UNL     1     170.693 144.599 155.231  1.00  0.00     0.093 A 
ATOM     26  C   UNL     1     172.564 144.530 153.712  1.00  0.00     0.094 A 
ATOM     27  C   UNL     1     169.970 143.723 154.415  1.00  0.00     0.133 A 
ATOM     28  C   UNL     1     171.872 143.618 152.904  1.00  0.00     0.138 A 
ATOM     29  C   UNL     1     170.603 143.141 153.287  1.00  0.00     0.102 A 
ATOM     30  O   UNL     1     172.484 143.144 151.735  1.00  0.00    -0.484 OA
ATOM     31  C   UNL     1     170.070 141.952 152.564  1.00  0.00     0.174 C 
ATOM     32  C   UNL     1     171.810 142.336 150.769  1.00  0.00     0.211 C 
ATOM     33  O   UNL     1     169.048 141.342 152.982  1.00  0.00    -0.294 OA
ATOM     34  C   UNL     1     170.860 141.330 151.447  1.00  0.00     0.131 C 
BRANCH  27  35
ATOM     35  O   UNL     1     168.641 143.465 154.754  1.00  0.00    -0.507 OA
ATOM     36  H   UNL     1     168.188 142.571 154.617  1.00  0.00     0.293 HD
ENDBRANCH  27  35
BRANCH  32  37
ATOM     37  C   UNL     1     171.166 143.219 149.709  1.00  0.00    -0.007 A 
ATOM     38  C   UNL     1     170.308 142.720 148.707  1.00  0.00     0.011 A 
ATOM     39  C   UNL     1     171.439 144.598 149.741  1.00  0.00     0.011 A 
ATOM     40  C   UNL     1     169.777 143.579 147.744  1.00  0.00     0.046 A 
ATOM     41  C   UNL     1     170.901 145.455 148.777  1.00  0.00     0.046 A 
ATOM     42  C   UNL     1     170.078 144.945 147.770  1.00  0.00     0.115 A 
BRANCH  42  43
ATOM     43  O   UNL     1     169.567 145.803 146.799  1.00  0.00    -0.508 OA
ATOM     44  H   UNL     1     170.062 145.976 145.935  1.00  0.00     0.293 HD
ENDBRANCH  42  43
ENDBRANCH  32  37
ENDBRANCH  23  24
ENDBRANCH   6  23
BRANCH   3  45
ATOM     45  O   UNL     1     170.392 145.676 159.424  1.00  0.00    -0.387 OA
ATOM     46  H   UNL     1     169.800 146.165 160.052  1.00  0.00     0.211 HD
ENDBRANCH   3  45
BRANCH   4  47
ATOM     47  C   UNL     1     171.213 148.348 159.008  1.00  0.00     0.191 C 
BRANCH  47  48
ATOM     48  O   UNL     1     170.500 148.315 157.797  1.00  0.00    -0.394 OA
ATOM     49  H   UNL     1     171.148 148.527 157.077  1.00  0.00     0.210 HD
ENDBRANCH  47  48
ENDBRANCH   4  47
TORSDOF 14
ENDMDL
MODEL 9
REMARK VINA RESULT:    -6.580      2.146      8.227
REMARK INTER + INTRA:         -12.026
REMARK INTER:                 -10.725
REMARK INTRA:                  -1.301
REMARK UNBOUND:                -1.599
REMARK SMILES C[C@H]1O[C@H](O[C@@H]2[C@H](Oc3cc(O)c4c(c3)O[C@H](c3ccc(O)cc3)CC4=O)O[C@@H](CO)[C@@H](O)[C@@H]2O)[C@H](O)[C@@H](O)[C@@H]1O
REMARK SMILES IDX 6 1 34 2 32 3 29 4 28 5 7 6 5 7 4 8 1 9 2 10 40 11 3 12
REMARK SMILES IDX 38 13 36 14 41 15 39 17 37 19 35 21 8 23 9 24 10 25 15 26
REMARK SMILES IDX 11 27 14 28 13 29 16 30 26 31 17 32 27 33 25 34 12 35 18 37
REMARK SMILES IDX 19 38 24 39 20 40 23 41 21 42 22 43 33 45 30 47 31 48
REMARK H PARENT 41 16 39 18 37 20 35 22 12 36 22 44 33 46 31 49
REMARK Flexibility Score: inf
ROOT
ATOM      1  C   UNL     1     169.305 144.541 153.975  1.00  0.00     0.221 C 
ATOM      2  C   UNL     1     167.870 144.920 154.463  1.00  0.00     0.181 C 
ATOM      3  C   UNL     1     167.293 143.932 155.513  1.00  0.00     0.177 C 
ATOM      4  C   UNL     1     167.681 142.461 155.165  1.00  0.00     0.179 C 
ATOM      5  O   UNL     1     169.005 142.261 154.666  1.00  0.00    -0.332 OA
ATOM      6  C   UNL     1     169.845 143.387 154.832  1.00  0.00     0.339 C 
ENDROOT
BRANCH   1   7
ATOM      7  O   UNL     1     169.249 144.134 152.614  1.00  0.00    -0.337 OA
BRANCH   7   8
ATOM      8  C   UNL     1     170.525 143.989 152.010  1.00  0.00     0.282 C 
ATOM      9  C   UNL     1     172.968 142.571 151.077  1.00  0.00     0.041 C 
ATOM     10  C   UNL     1     171.577 142.571 150.406  1.00  0.00     0.150 C 
ATOM     11  C   UNL     1     171.467 143.568 149.216  1.00  0.00     0.174 C 
ATOM     12  O   UNL     1     170.521 142.733 151.345  1.00  0.00    -0.344 OA
ATOM     13  C   UNL     1     170.550 144.759 149.574  1.00  0.00     0.179 C 
ATOM     14  C   UNL     1     170.793 145.185 151.038  1.00  0.00     0.202 C 
BRANCH  11  15
ATOM     15  O   UNL     1     170.945 142.895 148.094  1.00  0.00    -0.388 OA
ATOM     16  H   UNL     1     170.984 143.535 147.330  1.00  0.00     0.211 HD
ENDBRANCH  11  15
BRANCH  13  17
ATOM     17  O   UNL     1     170.753 145.838 148.693  1.00  0.00    -0.387 OA
ATOM     18  H   UNL     1     171.685 146.161 148.817  1.00  0.00     0.211 HD
ENDBRANCH  13  17
BRANCH  14  19
ATOM     19  O   UNL     1     170.041 146.325 151.377  1.00  0.00    -0.385 OA
ATOM     20  H   UNL     1     169.277 146.034 151.939  1.00  0.00     0.211 HD
ENDBRANCH  14  19
ENDBRANCH   7   8
ENDBRANCH   1   7
BRANCH   2  21
ATOM     21  O   UNL     1     166.987 144.994 153.369  1.00  0.00    -0.387 OA
ATOM     22  H   UNL     1     166.234 145.587 153.634  1.00  0.00     0.211 HD
ENDBRANCH   2  21
BRANCH   6  23
ATOM     23  O   UNL     1     171.180 143.044 154.471  1.00  0.00    -0.462 OA
BRANCH  23  24
ATOM     24  C   UNL     1     172.233 143.298 155.357  1.00  0.00     0.130 A 
ATOM     25  C   UNL     1     173.527 142.828 155.096  1.00  0.00     0.093 A 
ATOM     26  C   UNL     1     171.982 143.960 156.560  1.00  0.00     0.094 A 
ATOM     27  C   UNL     1     174.531 142.897 156.067  1.00  0.00     0.133 A 
ATOM     28  C   UNL     1     172.962 144.000 157.560  1.00  0.00     0.138 A 
ATOM     29  C   UNL     1     174.220 143.398 157.356  1.00  0.00     0.102 A 
ATOM     30  O   UNL     1     172.656 144.601 158.789  1.00  0.00    -0.484 OA
ATOM     31  C   UNL     1     175.086 143.197 158.551  1.00  0.00     0.174 C 
ATOM     32  C   UNL     1     173.625 144.830 159.813  1.00  0.00     0.211 C 
ATOM     33  O   UNL     1     176.124 142.483 158.489  1.00  0.00    -0.294 OA
ATOM     34  C   UNL     1     174.628 143.664 159.904  1.00  0.00     0.131 C 
BRANCH  27  35
ATOM     35  O   UNL     1     175.811 142.467 155.711  1.00  0.00    -0.507 OA
ATOM     36  H   UNL     1     175.992 141.743 155.027  1.00  0.00     0.293 HD
ENDBRANCH  27  35
BRANCH  32  37
ATOM     37  C   UNL     1     174.250 146.208 159.643  1.00  0.00    -0.007 A 
ATOM     38  C   UNL     1     175.622 146.462 159.845  1.00  0.00     0.011 A 
ATOM     39  C   UNL     1     173.414 147.271 159.258  1.00  0.00     0.011 A 
ATOM     40  C   UNL     1     176.125 147.757 159.704  1.00  0.00     0.046 A 
ATOM     41  C   UNL     1     173.923 148.564 159.114  1.00  0.00     0.046 A 
ATOM     42  C   UNL     1     175.278 148.812 159.348  1.00  0.00     0.115 A 
BRANCH  42  43
ATOM     43  O   UNL     1     175.772 150.108 159.226  1.00  0.00    -0.508 OA
ATOM     44  H   UNL     1     176.280 150.404 158.404  1.00  0.00     0.293 HD
ENDBRANCH  42  43
ENDBRANCH  32  37
ENDBRANCH  23  24
ENDBRANCH   6  23
BRANCH   3  45
ATOM     45  O   UNL     1     167.750 144.273 156.798  1.00  0.00    -0.387 OA
ATOM     46  H   UNL     1     168.103 145.199 156.749  1.00  0.00     0.211 HD
ENDBRANCH   3  45
BRANCH   4  47
ATOM     47  C   UNL     1     167.446 141.501 156.340  1.00  0.00     0.191 C 
BRANCH  47  48
ATOM     48  O   UNL     1     168.640 141.295 157.052  1.00  0.00    -0.394 OA
ATOM     49  H   UNL     1     168.529 141.736 157.933  1.00  0.00     0.210 HD
ENDBRANCH  47  48
ENDBRANCH   4  47
TORSDOF 14
ENDMDL
