MODEL 1
REMARK VINA RESULT:     2.838      0.000      0.000
REMARK INTER + INTRA:           4.846
REMARK INTER:                   4.414
REMARK INTRA:                   0.432
REMARK UNBOUND:                 0.432
REMARK SMILES C[C@@]12C[C@@]3(O)O[C@@H](O1)[C@]1(COC(=O)c4ccccc4)[C@H]3C[C@@]12O[C@H]1O[C@H](CO)[C@H](O)[C@@H](O)[C@@H]1O
REMARK SMILES IDX 1 1 2 2 3 3 4 4 20 5 21 6 22 7 9 8 7 9 8 10 6 11 23 12 24 13
REMARK SMILES IDX 33 14 25 15 31 16 26 17 29 18 34 19 32 21 27 23 28 24 30 26
REMARK SMILES IDX 5 28 10 30 11 31 12 32 13 33 14 34 15 35 19 36 16 37 18 38
REMARK SMILES IDX 17 39
REMARK H PARENT 34 20 32 22 28 25 30 27 5 29
REMARK Flexibility Score: inf
ROOT
ATOM      1  C   UNL     1      31.564  35.984  28.940  1.00  0.00     0.046 C 
ATOM      2  C   UNL     1      30.942  37.375  29.057  1.00  0.00     0.104 C 
ATOM      3  C   UNL     1      30.977  37.900  30.540  1.00  0.00     0.104 C 
ATOM      4  C   UNL     1      30.236  39.281  30.461  1.00  0.00     0.175 C 
ATOM      5  C   UNL     1      28.877  39.131  29.698  1.00  0.00     0.070 C 
ATOM      6  C   UNL     1      28.396  37.675  29.600  1.00  0.00     0.050 C 
ATOM      7  C   UNL     1      29.473  37.490  28.506  1.00  0.00     0.115 C 
ATOM      8  C   UNL     1      29.445  39.001  28.293  1.00  0.00     0.096 C 
ATOM      9  C   UNL     1      30.882  39.485  28.350  1.00  0.00     0.267 C 
ATOM     10  O   UNL     1      31.681  38.315  28.300  1.00  0.00    -0.342 OA
ATOM     11  O   UNL     1      31.030  40.096  29.622  1.00  0.00    -0.320 OA
ENDROOT
BRANCH   7  12
ATOM     12  O   UNL     1      29.165  36.766  27.324  1.00  0.00    -0.339 OA
BRANCH  12  13
ATOM     13  C   UNL     1      28.102  35.844  27.518  1.00  0.00     0.282 C 
ATOM     14  C   UNL     1      28.100  34.776  26.396  1.00  0.00     0.202 C 
ATOM     15  O   UNL     1      26.851  36.511  27.597  1.00  0.00    -0.341 OA
ATOM     16  C   UNL     1      27.599  35.341  25.047  1.00  0.00     0.179 C 
ATOM     17  C   UNL     1      26.558  37.213  26.401  1.00  0.00     0.178 C 
ATOM     18  C   UNL     1      26.349  36.232  25.227  1.00  0.00     0.177 C 
BRANCH  14  19
ATOM     19  O   UNL     1      27.272  33.705  26.774  1.00  0.00    -0.385 OA
ATOM     20  H   UNL     1      26.706  34.026  27.525  1.00  0.00     0.211 HD
ENDBRANCH  14  19
BRANCH  16  21
ATOM     21  O   UNL     1      28.622  36.012  24.351  1.00  0.00    -0.387 OA
ATOM     22  H   UNL     1      29.226  36.438  25.008  1.00  0.00     0.211 HD
ENDBRANCH  16  21
BRANCH  17  23
ATOM     23  C   UNL     1      25.332  38.112  26.631  1.00  0.00     0.191 C 
BRANCH  23  24
ATOM     24  O   UNL     1      24.504  37.589  27.636  1.00  0.00    -0.394 OA
ATOM     25  H   UNL     1      23.599  37.474  27.242  1.00  0.00     0.210 HD
ENDBRANCH  23  24
ENDBRANCH  17  23
BRANCH  18  26
ATOM     26  O   UNL     1      25.229  35.420  25.478  1.00  0.00    -0.387 OA
ATOM     27  H   UNL     1      24.462  35.828  24.996  1.00  0.00     0.211 HD
ENDBRANCH  18  26
ENDBRANCH  12  13
ENDBRANCH   7  12
BRANCH   4  28
ATOM     28  O   UNL     1      30.077  39.849  31.733  1.00  0.00    -0.365 OA
ATOM     29  H   UNL     1      30.962  39.802  32.180  1.00  0.00     0.214 HD
ENDBRANCH   4  28
BRANCH   8  30
ATOM     30  C   UNL     1      28.563  39.552  27.158  1.00  0.00     0.249 C 
BRANCH  30  31
ATOM     31  O   UNL     1      29.378  39.878  26.038  1.00  0.00    -0.461 OA
BRANCH  31  32
ATOM     32  C   UNL     1      29.344  39.158  24.839  1.00  0.00     0.338 C 
ATOM     33  O   UNL     1      28.349  39.258  24.070  1.00  0.00    -0.246 OA
BRANCH  32  34
ATOM     34  C   UNL     1      30.478  38.280  24.478  1.00  0.00     0.060 A 
ATOM     35  C   UNL     1      31.216  37.610  25.472  1.00  0.00     0.015 A 
ATOM     36  C   UNL     1      30.837  38.105  23.128  1.00  0.00     0.015 A 
ATOM     37  C   UNL     1      32.288  36.783  25.121  1.00  0.00     0.001 A 
ATOM     38  C   UNL     1      31.909  37.276  22.783  1.00  0.00     0.001 A 
ATOM     39  C   UNL     1      32.634  36.616  23.778  1.00  0.00     0.000 A 
ENDBRANCH  32  34
ENDBRANCH  31  32
ENDBRANCH  30  31
ENDBRANCH   8  30
TORSDOF 12
ENDMDL
MODEL 2
REMARK VINA RESULT:     2.843      1.582      5.445
REMARK INTER + INTRA:           4.854
REMARK INTER:                   5.309
REMARK INTRA:                  -0.455
REMARK UNBOUND:                 0.432
REMARK SMILES C[C@@]12C[C@@]3(O)O[C@@H](O1)[C@]1(COC(=O)c4ccccc4)[C@H]3C[C@@]12O[C@H]1O[C@H](CO)[C@H](O)[C@@H](O)[C@@H]1O
REMARK SMILES IDX 1 1 2 2 3 3 4 4 20 5 21 6 22 7 9 8 7 9 8 10 6 11 23 12 24 13
REMARK SMILES IDX 33 14 25 15 31 16 26 17 29 18 34 19 32 21 27 23 28 24 30 26
REMARK SMILES IDX 5 28 10 30 11 31 12 32 13 33 14 34 15 35 19 36 16 37 18 38
REMARK SMILES IDX 17 39
REMARK H PARENT 34 20 32 22 28 25 30 27 5 29
REMARK Flexibility Score: inf
ROOT
ATOM      1  C   UNL     1      31.495  37.214  25.352  1.00  0.00     0.046 C 
ATOM      2  C   UNL     1      30.402  38.172  24.876  1.00  0.00     0.104 C 
ATOM      3  C   UNL     1      30.882  39.031  23.649  1.00  0.00     0.104 C 
ATOM      4  C   UNL     1      29.668  39.985  23.369  1.00  0.00     0.175 C 
ATOM      5  C   UNL     1      29.196  40.675  24.693  1.00  0.00     0.070 C 
ATOM      6  C   UNL     1      30.245  40.614  25.814  1.00  0.00     0.050 C 
ATOM      7  C   UNL     1      29.838  39.132  25.987  1.00  0.00     0.115 C 
ATOM      8  C   UNL     1      28.509  39.471  25.318  1.00  0.00     0.096 C 
ATOM      9  C   UNL     1      28.298  38.457  24.208  1.00  0.00     0.267 C 
ATOM     10  O   UNL     1      29.273  37.450  24.422  1.00  0.00    -0.342 OA
ATOM     11  O   UNL     1      28.593  39.142  23.002  1.00  0.00    -0.320 OA
ENDROOT
BRANCH   7  12
ATOM     12  O   UNL     1      29.671  38.591  27.289  1.00  0.00    -0.339 OA
BRANCH  12  13
ATOM     13  C   UNL     1      29.858  39.566  28.306  1.00  0.00     0.282 C 
ATOM     14  C   UNL     1      31.227  39.367  29.001  1.00  0.00     0.202 C 
ATOM     15  O   UNL     1      28.794  39.539  29.246  1.00  0.00    -0.341 OA
ATOM     16  C   UNL     1      31.241  38.134  29.935  1.00  0.00     0.179 C 
ATOM     17  C   UNL     1      28.710  38.286  29.903  1.00  0.00     0.178 C 
ATOM     18  C   UNL     1      29.954  38.047  30.787  1.00  0.00     0.177 C 
BRANCH  14  19
ATOM     19  O   UNL     1      31.537  40.510  29.758  1.00  0.00    -0.385 OA
ATOM     20  H   UNL     1      32.308  40.951  29.315  1.00  0.00     0.211 HD
ENDBRANCH  14  19
BRANCH  16  21
ATOM     21  O   UNL     1      31.475  36.943  29.221  1.00  0.00    -0.387 OA
ATOM     22  H   UNL     1      30.907  36.941  28.412  1.00  0.00     0.211 HD
ENDBRANCH  16  21
BRANCH  17  23
ATOM     23  C   UNL     1      27.405  38.225  30.712  1.00  0.00     0.191 C 
BRANCH  23  24
ATOM     24  O   UNL     1      26.868  36.928  30.706  1.00  0.00    -0.394 OA
ATOM     25  H   UNL     1      27.581  36.312  31.018  1.00  0.00     0.210 HD
ENDBRANCH  23  24
ENDBRANCH  17  23
BRANCH  18  26
ATOM     26  O   UNL     1      30.005  39.012  31.809  1.00  0.00    -0.387 OA
ATOM     27  H   UNL     1      29.072  39.311  31.971  1.00  0.00     0.211 HD
ENDBRANCH  18  26
ENDBRANCH  12  13
ENDBRANCH   7  12
BRANCH   4  28
ATOM     28  O   UNL     1      29.967  40.910  22.359  1.00  0.00    -0.365 OA
ATOM     29  H   UNL     1      29.279  41.624  22.412  1.00  0.00     0.214 HD
ENDBRANCH   4  28
BRANCH   8  30
ATOM     30  C   UNL     1      27.304  39.780  26.225  1.00  0.00     0.249 C 
BRANCH  30  31
ATOM     31  O   UNL     1      26.343  38.737  26.111  1.00  0.00    -0.461 OA
BRANCH  31  32
ATOM     32  C   UNL     1      26.300  37.646  26.985  1.00  0.00     0.338 C 
ATOM     33  O   UNL     1      25.523  37.664  27.979  1.00  0.00    -0.246 OA
BRANCH  32  34
ATOM     34  C   UNL     1      27.166  36.474  26.738  1.00  0.00     0.060 A 
ATOM     35  C   UNL     1      26.904  35.595  25.670  1.00  0.00     0.015 A 
ATOM     36  C   UNL     1      28.270  36.220  27.575  1.00  0.00     0.015 A 
ATOM     37  C   UNL     1      27.729  34.488  25.446  1.00  0.00     0.001 A 
ATOM     38  C   UNL     1      29.091  35.111  27.345  1.00  0.00     0.001 A 
ATOM     39  C   UNL     1      28.821  34.246  26.282  1.00  0.00     0.000 A 
ENDBRANCH  32  34
ENDBRANCH  31  32
ENDBRANCH  30  31
ENDBRANCH   8  30
TORSDOF 12
ENDMDL
MODEL 3
REMARK VINA RESULT:     3.384      1.919      4.780
REMARK INTER + INTRA:           5.695
REMARK INTER:                   5.132
REMARK INTRA:                   0.563
REMARK UNBOUND:                 0.432
REMARK SMILES C[C@@]12C[C@@]3(O)O[C@@H](O1)[C@]1(COC(=O)c4ccccc4)[C@H]3C[C@@]12O[C@H]1O[C@H](CO)[C@H](O)[C@@H](O)[C@@H]1O
REMARK SMILES IDX 1 1 2 2 3 3 4 4 20 5 21 6 22 7 9 8 7 9 8 10 6 11 23 12 24 13
REMARK SMILES IDX 33 14 25 15 31 16 26 17 29 18 34 19 32 21 27 23 28 24 30 26
REMARK SMILES IDX 5 28 10 30 11 31 12 32 13 33 14 34 15 35 19 36 16 37 18 38
REMARK SMILES IDX 17 39
REMARK H PARENT 34 20 32 22 28 25 30 27 5 29
REMARK Flexibility Score: inf
ROOT
ATOM      1  C   UNL     1      31.535  40.222  27.141  1.00  0.00     0.046 C 
ATOM      2  C   UNL     1      30.799  39.638  25.935  1.00  0.00     0.104 C 
ATOM      3  C   UNL     1      30.762  40.653  24.734  1.00  0.00     0.104 C 
ATOM      4  C   UNL     1      29.911  39.908  23.646  1.00  0.00     0.175 C 
ATOM      5  C   UNL     1      28.584  39.359  24.270  1.00  0.00     0.070 C 
ATOM      6  C   UNL     1      28.226  40.021  25.610  1.00  0.00     0.050 C 
ATOM      7  C   UNL     1      29.335  39.142  26.234  1.00  0.00     0.115 C 
ATOM      8  C   UNL     1      29.186  38.197  25.044  1.00  0.00     0.096 C 
ATOM      9  C   UNL     1      30.577  37.965  24.483  1.00  0.00     0.267 C 
ATOM     10  O   UNL     1      31.472  38.492  25.450  1.00  0.00    -0.342 OA
ATOM     11  O   UNL     1      30.651  38.752  23.305  1.00  0.00    -0.320 OA
ENDROOT
BRANCH   7  12
ATOM     12  O   UNL     1      29.110  38.494  27.477  1.00  0.00    -0.339 OA
BRANCH  12  13
ATOM     13  C   UNL     1      28.116  39.148  28.253  1.00  0.00     0.282 C 
ATOM     14  C   UNL     1      28.245  38.751  29.744  1.00  0.00     0.202 C 
ATOM     15  O   UNL     1      26.814  38.873  27.757  1.00  0.00    -0.341 OA
ATOM     16  C   UNL     1      27.758  37.308  30.014  1.00  0.00     0.179 C 
ATOM     17  C   UNL     1      26.517  37.488  27.811  1.00  0.00     0.178 C 
ATOM     18  C   UNL     1      26.436  37.002  29.275  1.00  0.00     0.177 C 
BRANCH  14  19
ATOM     19  O   UNL     1      27.489  39.637  30.530  1.00  0.00    -0.385 OA
ATOM     20  H   UNL     1      27.581  39.340  31.473  1.00  0.00     0.211 HD
ENDBRANCH  14  19
BRANCH  16  21
ATOM     21  O   UNL     1      28.754  36.358  29.716  1.00  0.00    -0.387 OA
ATOM     22  H   UNL     1      29.638  36.747  29.932  1.00  0.00     0.211 HD
ENDBRANCH  16  21
BRANCH  17  23
ATOM     23  C   UNL     1      25.216  37.220  27.038  1.00  0.00     0.191 C 
BRANCH  23  24
ATOM     24  O   UNL     1      24.602  38.421  26.652  1.00  0.00    -0.394 OA
ATOM     25  H   UNL     1      25.176  38.835  25.954  1.00  0.00     0.210 HD
ENDBRANCH  23  24
ENDBRANCH  17  23
BRANCH  18  26
ATOM     26  O   UNL     1      25.373  37.647  29.933  1.00  0.00    -0.387 OA
ATOM     27  H   UNL     1      24.759  36.936  30.254  1.00  0.00     0.211 HD
ENDBRANCH  18  26
ENDBRANCH  12  13
ENDBRANCH   7  12
BRANCH   4  28
ATOM     28  O   UNL     1      29.682  40.723  22.529  1.00  0.00    -0.365 OA
ATOM     29  H   UNL     1      30.446  40.582  21.911  1.00  0.00     0.214 HD
ENDBRANCH   4  28
BRANCH   8  30
ATOM     30  C   UNL     1      28.283  36.962  25.215  1.00  0.00     0.249 C 
BRANCH  30  31
ATOM     31  O   UNL     1      29.090  35.808  25.424  1.00  0.00    -0.461 OA
BRANCH  31  32
ATOM     32  C   UNL     1      29.180  35.160  26.660  1.00  0.00     0.338 C 
ATOM     33  O   UNL     1      28.208  34.476  27.087  1.00  0.00    -0.246 OA
BRANCH  32  34
ATOM     34  C   UNL     1      30.417  35.277  27.461  1.00  0.00     0.060 A 
ATOM     35  C   UNL     1      31.135  36.487  27.506  1.00  0.00     0.015 A 
ATOM     36  C   UNL     1      30.894  34.173  28.193  1.00  0.00     0.015 A 
ATOM     37  C   UNL     1      32.304  36.588  28.266  1.00  0.00     0.001 A 
ATOM     38  C   UNL     1      32.064  34.280  28.952  1.00  0.00     0.001 A 
ATOM     39  C   UNL     1      32.768  35.487  28.989  1.00  0.00     0.000 A 
ENDBRANCH  32  34
ENDBRANCH  31  32
ENDBRANCH  30  31
ENDBRANCH   8  30
TORSDOF 12
ENDMDL
MODEL 4
REMARK VINA RESULT:     3.440      1.886      4.815
REMARK INTER + INTRA:           5.782
REMARK INTER:                   5.583
REMARK INTRA:                   0.200
REMARK UNBOUND:                 0.432
REMARK SMILES C[C@@]12C[C@@]3(O)O[C@@H](O1)[C@]1(COC(=O)c4ccccc4)[C@H]3C[C@@]12O[C@H]1O[C@H](CO)[C@H](O)[C@@H](O)[C@@H]1O
REMARK SMILES IDX 1 1 2 2 3 3 4 4 20 5 21 6 22 7 9 8 7 9 8 10 6 11 23 12 24 13
REMARK SMILES IDX 33 14 25 15 31 16 26 17 29 18 34 19 32 21 27 23 28 24 30 26
REMARK SMILES IDX 5 28 10 30 11 31 12 32 13 33 14 34 15 35 19 36 16 37 18 38
REMARK SMILES IDX 17 39
REMARK H PARENT 34 20 32 22 28 25 30 27 5 29
REMARK Flexibility Score: inf
ROOT
ATOM      1  C   UNL     1      31.477  36.482  24.332  1.00  0.00     0.046 C 
ATOM      2  C   UNL     1      30.746  35.752  25.459  1.00  0.00     0.104 C 
ATOM      3  C   UNL     1      30.658  34.205  25.184  1.00  0.00     0.104 C 
ATOM      4  C   UNL     1      29.820  33.662  26.394  1.00  0.00     0.175 C 
ATOM      5  C   UNL     1      28.522  34.515  26.590  1.00  0.00     0.070 C 
ATOM      6  C   UNL     1      28.158  35.354  25.355  1.00  0.00     0.050 C 
ATOM      7  C   UNL     1      29.305  36.301  25.775  1.00  0.00     0.115 C 
ATOM      8  C   UNL     1      29.176  35.748  27.192  1.00  0.00     0.096 C 
ATOM      9  C   UNL     1      30.567  35.337  27.639  1.00  0.00     0.267 C 
ATOM     10  O   UNL     1      31.454  35.885  26.678  1.00  0.00    -0.342 OA
ATOM     11  O   UNL     1      30.597  33.922  27.547  1.00  0.00    -0.320 OA
ENDROOT
BRANCH   7  12
ATOM     12  O   UNL     1      29.120  37.708  25.720  1.00  0.00    -0.339 OA
BRANCH  12  13
ATOM     13  C   UNL     1      28.076  38.078  24.830  1.00  0.00     0.282 C 
ATOM     14  C   UNL     1      28.272  39.534  24.341  1.00  0.00     0.202 C 
ATOM     15  O   UNL     1      26.802  37.905  25.434  1.00  0.00    -0.341 OA
ATOM     16  C   UNL     1      27.946  40.573  25.439  1.00  0.00     0.179 C 
ATOM     17  C   UNL     1      26.654  38.718  26.585  1.00  0.00     0.178 C 
ATOM     18  C   UNL     1      26.651  40.214  26.202  1.00  0.00     0.177 C 
BRANCH  14  19
ATOM     19  O   UNL     1      27.441  39.770  23.234  1.00  0.00    -0.385 OA
ATOM     20  H   UNL     1      26.504  39.756  23.565  1.00  0.00     0.211 HD
ENDBRANCH  14  19
BRANCH  16  21
ATOM     21  O   UNL     1      29.032  40.764  26.315  1.00  0.00    -0.387 OA
ATOM     22  H   UNL     1      29.483  39.895  26.455  1.00  0.00     0.211 HD
ENDBRANCH  16  21
BRANCH  17  23
ATOM     23  C   UNL     1      25.376  38.308  27.333  1.00  0.00     0.191 C 
BRANCH  23  24
ATOM     24  O   UNL     1      24.809  37.155  26.768  1.00  0.00    -0.394 OA
ATOM     25  H   UNL     1      24.696  37.328  25.796  1.00  0.00     0.210 HD
ENDBRANCH  23  24
ENDBRANCH  17  23
BRANCH  18  26
ATOM     26  O   UNL     1      25.538  40.495  25.390  1.00  0.00    -0.387 OA
ATOM     27  H   UNL     1      24.735  40.440  25.971  1.00  0.00     0.211 HD
ENDBRANCH  18  26
ENDBRANCH  12  13
ENDBRANCH   7  12
BRANCH   4  28
ATOM     28  O   UNL     1      29.547  32.294  26.253  1.00  0.00    -0.365 OA
ATOM     29  H   UNL     1      28.560  32.202  26.207  1.00  0.00     0.214 HD
ENDBRANCH   4  28
BRANCH   8  30
ATOM     30  C   UNL     1      28.320  36.539  28.198  1.00  0.00     0.249 C 
BRANCH  30  31
ATOM     31  O   UNL     1      29.170  37.221  29.114  1.00  0.00    -0.461 OA
BRANCH  31  32
ATOM     32  C   UNL     1      29.283  38.614  29.151  1.00  0.00     0.338 C 
ATOM     33  O   UNL     1      28.359  39.309  29.657  1.00  0.00    -0.246 OA
BRANCH  32  34
ATOM     34  C   UNL     1      30.488  39.268  28.597  1.00  0.00     0.060 A 
ATOM     35  C   UNL     1      31.255  38.638  27.599  1.00  0.00     0.015 A 
ATOM     36  C   UNL     1      30.884  40.536  29.064  1.00  0.00     0.015 A 
ATOM     37  C   UNL     1      32.394  39.264  27.082  1.00  0.00     0.001 A 
ATOM     38  C   UNL     1      32.024  41.157  28.543  1.00  0.00     0.001 A 
ATOM     39  C   UNL     1      32.778  40.522  27.553  1.00  0.00     0.000 A 
ENDBRANCH  32  34
ENDBRANCH  31  32
ENDBRANCH  30  31
ENDBRANCH   8  30
TORSDOF 12
ENDMDL
MODEL 5
REMARK VINA RESULT:     3.551      1.844      4.274
REMARK INTER + INTRA:           5.956
REMARK INTER:                   5.107
REMARK INTRA:                   0.849
REMARK UNBOUND:                 0.432
REMARK SMILES C[C@@]12C[C@@]3(O)O[C@@H](O1)[C@]1(COC(=O)c4ccccc4)[C@H]3C[C@@]12O[C@H]1O[C@H](CO)[C@H](O)[C@@H](O)[C@@H]1O
REMARK SMILES IDX 1 1 2 2 3 3 4 4 20 5 21 6 22 7 9 8 7 9 8 10 6 11 23 12 24 13
REMARK SMILES IDX 33 14 25 15 31 16 26 17 29 18 34 19 32 21 27 23 28 24 30 26
REMARK SMILES IDX 5 28 10 30 11 31 12 32 13 33 14 34 15 35 19 36 16 37 18 38
REMARK SMILES IDX 17 39
REMARK H PARENT 34 20 32 22 28 25 30 27 5 29
REMARK Flexibility Score: inf
ROOT
ATOM      1  C   UNL     1      31.606  40.663  27.756  1.00  0.00     0.046 C 
ATOM      2  C   UNL     1      30.637  39.836  28.602  1.00  0.00     0.104 C 
ATOM      3  C   UNL     1      30.935  39.991  30.139  1.00  0.00     0.104 C 
ATOM      4  C   UNL     1      29.902  39.022  30.815  1.00  0.00     0.175 C 
ATOM      5  C   UNL     1      29.943  37.614  30.130  1.00  0.00     0.070 C 
ATOM      6  C   UNL     1      31.218  37.379  29.305  1.00  0.00     0.050 C 
ATOM      7  C   UNL     1      30.588  38.305  28.240  1.00  0.00     0.115 C 
ATOM      8  C   UNL     1      29.222  37.990  28.845  1.00  0.00     0.096 C 
ATOM      9  C   UNL     1      28.530  39.317  29.098  1.00  0.00     0.267 C 
ATOM     10  O   UNL     1      29.309  40.289  28.420  1.00  0.00    -0.342 OA
ATOM     11  O   UNL     1      28.625  39.538  30.496  1.00  0.00    -0.320 OA
ENDROOT
BRANCH   7  12
ATOM     12  O   UNL     1      30.667  37.960  26.865  1.00  0.00    -0.339 OA
BRANCH  12  13
ATOM     13  C   UNL     1      31.771  37.109  26.586  1.00  0.00     0.282 C 
ATOM     14  C   UNL     1      32.318  37.381  25.163  1.00  0.00     0.202 C 
ATOM     15  O   UNL     1      31.419  35.743  26.751  1.00  0.00    -0.341 OA
ATOM     16  C   UNL     1      31.387  36.830  24.059  1.00  0.00     0.179 C 
ATOM     17  C   UNL     1      30.383  35.359  25.863  1.00  0.00     0.178 C 
ATOM     18  C   UNL     1      30.870  35.413  24.398  1.00  0.00     0.177 C 
BRANCH  14  19
ATOM     19  O   UNL     1      33.582  36.783  25.028  1.00  0.00    -0.385 OA
ATOM     20  H   UNL     1      33.460  35.808  25.178  1.00  0.00     0.211 HD
ENDBRANCH  14  19
BRANCH  16  21
ATOM     21  O   UNL     1      30.330  37.718  23.778  1.00  0.00    -0.387 OA
ATOM     22  H   UNL     1      30.690  38.490  23.276  1.00  0.00     0.211 HD
ENDBRANCH  16  21
BRANCH  17  23
ATOM     23  C   UNL     1      29.874  33.963  26.253  1.00  0.00     0.191 C 
BRANCH  23  24
ATOM     24  O   UNL     1      29.756  33.136  25.126  1.00  0.00    -0.394 OA
ATOM     25  H   UNL     1      29.854  33.714  24.324  1.00  0.00     0.210 HD
ENDBRANCH  23  24
ENDBRANCH  17  23
BRANCH  18  26
ATOM     26  O   UNL     1      31.904  34.481  24.205  1.00  0.00    -0.387 OA
ATOM     27  H   UNL     1      31.529  33.743  23.656  1.00  0.00     0.211 HD
ENDBRANCH  18  26
ENDBRANCH  12  13
ENDBRANCH   7  12
BRANCH   4  28
ATOM     28  O   UNL     1      30.100  38.951  32.201  1.00  0.00    -0.365 OA
ATOM     29  H   UNL     1      29.379  39.489  32.620  1.00  0.00     0.214 HD
ENDBRANCH   4  28
BRANCH   8  30
ATOM     30  C   UNL     1      28.386  36.875  28.192  1.00  0.00     0.249 C 
BRANCH  30  31
ATOM     31  O   UNL     1      27.002  37.186  28.313  1.00  0.00    -0.461 OA
BRANCH  31  32
ATOM     32  C   UNL     1      26.239  37.671  27.246  1.00  0.00     0.338 C 
ATOM     33  O   UNL     1      25.023  37.347  27.140  1.00  0.00    -0.246 OA
BRANCH  32  34
ATOM     34  C   UNL     1      26.860  38.564  26.245  1.00  0.00     0.060 A 
ATOM     35  C   UNL     1      27.731  38.052  25.264  1.00  0.00     0.015 A 
ATOM     36  C   UNL     1      26.588  39.945  26.261  1.00  0.00     0.015 A 
ATOM     37  C   UNL     1      28.315  38.904  24.322  1.00  0.00     0.001 A 
ATOM     38  C   UNL     1      27.175  40.793  25.316  1.00  0.00     0.001 A 
ATOM     39  C   UNL     1      28.038  40.273  24.347  1.00  0.00     0.000 A 
ENDBRANCH  32  34
ENDBRANCH  31  32
ENDBRANCH  30  31
ENDBRANCH   8  30
TORSDOF 12
ENDMDL
MODEL 6
REMARK VINA RESULT:     3.704      1.601      5.267
REMARK INTER + INTRA:           6.194
REMARK INTER:                   1.700
REMARK INTRA:                   4.494
REMARK UNBOUND:                 0.432
REMARK SMILES C[C@@]12C[C@@]3(O)O[C@@H](O1)[C@]1(COC(=O)c4ccccc4)[C@H]3C[C@@]12O[C@H]1O[C@H](CO)[C@H](O)[C@@H](O)[C@@H]1O
REMARK SMILES IDX 1 1 2 2 3 3 4 4 20 5 21 6 22 7 9 8 7 9 8 10 6 11 23 12 24 13
REMARK SMILES IDX 33 14 25 15 31 16 26 17 29 18 34 19 32 21 27 23 28 24 30 26
REMARK SMILES IDX 5 28 10 30 11 31 12 32 13 33 14 34 15 35 19 36 16 37 18 38
REMARK SMILES IDX 17 39
REMARK H PARENT 34 20 32 22 28 25 30 27 5 29
REMARK Flexibility Score: inf
ROOT
ATOM      1  C   UNL     1      28.153  39.946  25.193  1.00  0.00     0.046 C 
ATOM      2  C   UNL     1      27.460  38.709  25.764  1.00  0.00     0.104 C 
ATOM      3  C   UNL     1      25.896  38.878  25.781  1.00  0.00     0.104 C 
ATOM      4  C   UNL     1      25.389  37.559  26.463  1.00  0.00     0.175 C 
ATOM      5  C   UNL     1      26.178  37.287  27.787  1.00  0.00     0.070 C 
ATOM      6  C   UNL     1      26.910  38.529  28.321  1.00  0.00     0.050 C 
ATOM      7  C   UNL     1      27.947  38.285  27.200  1.00  0.00     0.115 C 
ATOM      8  C   UNL     1      27.485  36.830  27.158  1.00  0.00     0.096 C 
ATOM      9  C   UNL     1      27.185  36.500  25.707  1.00  0.00     0.267 C 
ATOM     10  O   UNL     1      27.715  37.578  24.953  1.00  0.00    -0.342 OA
ATOM     11  O   UNL     1      25.771  36.508  25.597  1.00  0.00    -0.320 OA
ENDROOT
BRANCH   7  12
ATOM     12  O   UNL     1      29.333  38.408  27.478  1.00  0.00    -0.339 OA
BRANCH  12  13
ATOM     13  C   UNL     1      29.618  39.526  28.308  1.00  0.00     0.282 C 
ATOM     14  C   UNL     1      31.063  39.437  28.859  1.00  0.00     0.202 C 
ATOM     15  O   UNL     1      28.671  39.639  29.361  1.00  0.00    -0.341 OA
ATOM     16  C   UNL     1      31.208  38.360  29.959  1.00  0.00     0.179 C 
ATOM     17  C   UNL     1      28.689  38.500  30.203  1.00  0.00     0.178 C 
ATOM     18  C   UNL     1      30.032  38.400  30.960  1.00  0.00     0.177 C 
BRANCH  14  19
ATOM     19  O   UNL     1      31.435  40.682  29.394  1.00  0.00    -0.385 OA
ATOM     20  H   UNL     1      30.999  41.380  28.837  1.00  0.00     0.211 HD
ENDBRANCH  14  19
BRANCH  16  21
ATOM     21  O   UNL     1      31.382  37.075  29.409  1.00  0.00    -0.387 OA
ATOM     22  H   UNL     1      31.941  36.540  30.024  1.00  0.00     0.211 HD
ENDBRANCH  16  21
BRANCH  17  23
ATOM     23  C   UNL     1      27.488  38.559  31.159  1.00  0.00     0.191 C 
BRANCH  23  24
ATOM     24  O   UNL     1      26.787  37.343  31.166  1.00  0.00    -0.394 OA
ATOM     25  H   UNL     1      26.572  37.132  32.112  1.00  0.00     0.210 HD
ENDBRANCH  23  24
ENDBRANCH  17  23
BRANCH  18  26
ATOM     26  O   UNL     1      30.182  39.508  31.812  1.00  0.00    -0.387 OA
ATOM     27  H   UNL     1      31.118  39.494  32.143  1.00  0.00     0.211 HD
ENDBRANCH  18  26
ENDBRANCH  12  13
ENDBRANCH   7  12
BRANCH   4  28
ATOM     28  O   UNL     1      24.001  37.587  26.660  1.00  0.00    -0.365 OA
ATOM     29  H   UNL     1      23.799  36.913  27.361  1.00  0.00     0.214 HD
ENDBRANCH   4  28
BRANCH   8  30
ATOM     30  C   UNL     1      28.292  35.795  27.961  1.00  0.00     0.249 C 
BRANCH  30  31
ATOM     31  O   UNL     1      28.535  34.649  27.152  1.00  0.00    -0.461 OA
BRANCH  31  32
ATOM     32  C   UNL     1      29.729  34.456  26.450  1.00  0.00     0.338 C 
ATOM     33  O   UNL     1      30.009  33.318  25.980  1.00  0.00    -0.246 OA
BRANCH  32  34
ATOM     34  C   UNL     1      30.660  35.589  26.259  1.00  0.00     0.060 A 
ATOM     35  C   UNL     1      31.651  35.876  27.217  1.00  0.00     0.015 A 
ATOM     36  C   UNL     1      30.564  36.400  25.112  1.00  0.00     0.015 A 
ATOM     37  C   UNL     1      32.526  36.950  27.028  1.00  0.00     0.001 A 
ATOM     38  C   UNL     1      31.443  37.473  24.929  1.00  0.00     0.001 A 
ATOM     39  C   UNL     1      32.423  37.747  25.886  1.00  0.00     0.000 A 
ENDBRANCH  32  34
ENDBRANCH  31  32
ENDBRANCH  30  31
ENDBRANCH   8  30
TORSDOF 12
ENDMDL
MODEL 7
REMARK VINA RESULT:     4.097      1.622      4.950
REMARK INTER + INTRA:           6.805
REMARK INTER:                   2.305
REMARK INTRA:                   4.500
REMARK UNBOUND:                 0.432
REMARK SMILES C[C@@]12C[C@@]3(O)O[C@@H](O1)[C@]1(COC(=O)c4ccccc4)[C@H]3C[C@@]12O[C@H]1O[C@H](CO)[C@H](O)[C@@H](O)[C@@H]1O
REMARK SMILES IDX 1 1 2 2 3 3 4 4 20 5 21 6 22 7 9 8 7 9 8 10 6 11 23 12 24 13
REMARK SMILES IDX 33 14 25 15 31 16 26 17 29 18 34 19 32 21 27 23 28 24 30 26
REMARK SMILES IDX 5 28 10 30 11 31 12 32 13 33 14 34 15 35 19 36 16 37 18 38
REMARK SMILES IDX 17 39
REMARK H PARENT 34 20 32 22 28 25 30 27 5 29
REMARK Flexibility Score: inf
ROOT
ATOM      1  C   UNL     1      28.097  35.030  25.952  1.00  0.00     0.046 C 
ATOM      2  C   UNL     1      27.465  36.180  26.738  1.00  0.00     0.104 C 
ATOM      3  C   UNL     1      25.894  36.132  26.669  1.00  0.00     0.104 C 
ATOM      4  C   UNL     1      25.451  37.415  27.456  1.00  0.00     0.175 C 
ATOM      5  C   UNL     1      26.236  38.670  26.946  1.00  0.00     0.070 C 
ATOM      6  C   UNL     1      26.891  38.457  25.573  1.00  0.00     0.050 C 
ATOM      7  C   UNL     1      27.955  37.614  26.315  1.00  0.00     0.115 C 
ATOM      8  C   UNL     1      27.574  38.353  27.596  1.00  0.00     0.096 C 
ATOM      9  C   UNL     1      27.312  37.299  28.656  1.00  0.00     0.267 C 
ATOM     10  O   UNL     1      27.793  36.081  28.111  1.00  0.00    -0.342 OA
ATOM     11  O   UNL     1      25.901  37.226  28.784  1.00  0.00    -0.320 OA
ENDROOT
BRANCH   7  12
ATOM     12  O   UNL     1      29.329  37.762  25.989  1.00  0.00    -0.339 OA
BRANCH  12  13
ATOM     13  C   UNL     1      29.544  37.840  24.587  1.00  0.00     0.282 C 
ATOM     14  C   UNL     1      30.967  38.372  24.287  1.00  0.00     0.202 C 
ATOM     15  O   UNL     1      28.552  38.641  23.960  1.00  0.00    -0.341 OA
ATOM     16  C   UNL     1      31.103  39.886  24.572  1.00  0.00     0.179 C 
ATOM     17  C   UNL     1      28.573  39.972  24.444  1.00  0.00     0.178 C 
ATOM     18  C   UNL     1      29.886  40.680  24.044  1.00  0.00     0.177 C 
BRANCH  14  19
ATOM     19  O   UNL     1      31.278  38.137  22.937  1.00  0.00    -0.385 OA
ATOM     20  H   UNL     1      30.491  38.427  22.403  1.00  0.00     0.211 HD
ENDBRANCH  14  19
BRANCH  16  21
ATOM     21  O   UNL     1      31.340  40.140  25.937  1.00  0.00    -0.387 OA
ATOM     22  H   UNL     1      31.961  40.905  26.014  1.00  0.00     0.211 HD
ENDBRANCH  16  21
BRANCH  17  23
ATOM     23  C   UNL     1      27.333  40.717  23.926  1.00  0.00     0.191 C 
BRANCH  23  24
ATOM     24  O   UNL     1      26.780  41.533  24.927  1.00  0.00    -0.394 OA
ATOM     25  H   UNL     1      27.490  41.693  25.602  1.00  0.00     0.210 HD
ENDBRANCH  23  24
ENDBRANCH  17  23
BRANCH  18  26
ATOM     26  O   UNL     1      29.966  40.781  22.644  1.00  0.00    -0.387 OA
ATOM     27  H   UNL     1      30.765  41.334  22.439  1.00  0.00     0.211 HD
ENDBRANCH  18  26
ENDBRANCH  12  13
ENDBRANCH   7  12
BRANCH   4  28
ATOM     28  O   UNL     1      24.061  37.593  27.403  1.00  0.00    -0.365 OA
ATOM     29  H   UNL     1      23.893  38.342  26.773  1.00  0.00     0.214 HD
ENDBRANCH   4  28
BRANCH   8  30
ATOM     30  C   UNL     1      28.426  39.567  28.008  1.00  0.00     0.249 C 
BRANCH  30  31
ATOM     31  O   UNL     1      28.726  39.488  29.397  1.00  0.00    -0.461 OA
BRANCH  31  32
ATOM     32  C   UNL     1      29.942  38.997  29.883  1.00  0.00     0.338 C 
ATOM     33  O   UNL     1      30.269  39.199  31.086  1.00  0.00    -0.246 OA
BRANCH  32  34
ATOM     34  C   UNL     1      30.841  38.241  28.984  1.00  0.00     0.060 A 
ATOM     35  C   UNL     1      31.716  38.912  28.109  1.00  0.00     0.015 A 
ATOM     36  C   UNL     1      30.830  36.834  28.992  1.00  0.00     0.015 A 
ATOM     37  C   UNL     1      32.561  38.189  27.262  1.00  0.00     0.001 A 
ATOM     38  C   UNL     1      31.678  36.115  28.143  1.00  0.00     0.001 A 
ATOM     39  C   UNL     1      32.543  36.792  27.279  1.00  0.00     0.000 A 
ENDBRANCH  32  34
ENDBRANCH  31  32
ENDBRANCH  30  31
ENDBRANCH   8  30
TORSDOF 12
ENDMDL
MODEL 8
REMARK VINA RESULT:     4.158      1.817      4.665
REMARK INTER + INTRA:           6.899
REMARK INTER:                   5.266
REMARK INTRA:                   1.632
REMARK UNBOUND:                 0.432
REMARK SMILES C[C@@]12C[C@@]3(O)O[C@@H](O1)[C@]1(COC(=O)c4ccccc4)[C@H]3C[C@@]12O[C@H]1O[C@H](CO)[C@H](O)[C@@H](O)[C@@H]1O
REMARK SMILES IDX 1 1 2 2 3 3 4 4 20 5 21 6 22 7 9 8 7 9 8 10 6 11 23 12 24 13
REMARK SMILES IDX 33 14 25 15 31 16 26 17 29 18 34 19 32 21 27 23 28 24 30 26
REMARK SMILES IDX 5 28 10 30 11 31 12 32 13 33 14 34 15 35 19 36 16 37 18 38
REMARK SMILES IDX 17 39
REMARK H PARENT 34 20 32 22 28 25 30 27 5 29
REMARK Flexibility Score: inf
ROOT
ATOM      1  C   UNL     1      30.395  38.408  24.797  1.00  0.00     0.046 C 
ATOM      2  C   UNL     1      30.848  38.887  26.176  1.00  0.00     0.104 C 
ATOM      3  C   UNL     1      32.240  39.618  26.105  1.00  0.00     0.104 C 
ATOM      4  C   UNL     1      32.558  39.954  27.605  1.00  0.00     0.175 C 
ATOM      5  C   UNL     1      32.364  38.687  28.504  1.00  0.00     0.070 C 
ATOM      6  C   UNL     1      32.348  37.375  27.704  1.00  0.00     0.050 C 
ATOM      7  C   UNL     1      30.914  37.763  27.276  1.00  0.00     0.115 C 
ATOM      8  C   UNL     1      30.844  38.666  28.505  1.00  0.00     0.096 C 
ATOM      9  C   UNL     1      30.383  40.031  28.028  1.00  0.00     0.267 C 
ATOM     10  O   UNL     1      29.940  39.841  26.695  1.00  0.00    -0.342 OA
ATOM     11  O   UNL     1      31.543  40.847  28.021  1.00  0.00    -0.320 OA
ENDROOT
BRANCH   7  12
ATOM     12  O   UNL     1      29.888  36.781  27.262  1.00  0.00    -0.339 OA
BRANCH  12  13
ATOM     13  C   UNL     1      29.464  36.464  25.943  1.00  0.00     0.282 C 
ATOM     14  C   UNL     1      27.919  36.395  25.873  1.00  0.00     0.202 C 
ATOM     15  O   UNL     1      30.055  35.253  25.491  1.00  0.00    -0.341 OA
ATOM     16  C   UNL     1      27.354  35.126  26.550  1.00  0.00     0.179 C 
ATOM     17  C   UNL     1      29.683  34.155  26.306  1.00  0.00     0.178 C 
ATOM     18  C   UNL     1      28.171  33.867  26.180  1.00  0.00     0.177 C 
BRANCH  14  19
ATOM     19  O   UNL     1      27.512  36.410  24.528  1.00  0.00    -0.385 OA
ATOM     20  H   UNL     1      26.866  37.157  24.428  1.00  0.00     0.211 HD
ENDBRANCH  14  19
BRANCH  16  21
ATOM     21  O   UNL     1      27.243  35.285  27.945  1.00  0.00    -0.387 OA
ATOM     22  H   UNL     1      26.303  35.497  28.166  1.00  0.00     0.211 HD
ENDBRANCH  16  21
BRANCH  17  23
ATOM     23  C   UNL     1      30.539  32.936  25.932  1.00  0.00     0.191 C 
BRANCH  23  24
ATOM     24  O   UNL     1      29.769  31.762  25.923  1.00  0.00    -0.394 OA
ATOM     25  H   UNL     1      29.707  31.442  26.861  1.00  0.00     0.210 HD
ENDBRANCH  23  24
ENDBRANCH  17  23
BRANCH  18  26
ATOM     26  O   UNL     1      27.867  33.484  24.862  1.00  0.00    -0.387 OA
ATOM     27  H   UNL     1      27.284  32.683  24.920  1.00  0.00     0.211 HD
ENDBRANCH  18  26
ENDBRANCH  12  13
ENDBRANCH   7  12
BRANCH   4  28
ATOM     28  O   UNL     1      33.833  40.521  27.742  1.00  0.00    -0.365 OA
ATOM     29  H   UNL     1      34.379  40.184  26.985  1.00  0.00     0.214 HD
ENDBRANCH   4  28
BRANCH   8  30
ATOM     30  C   UNL     1      30.180  38.103  29.774  1.00  0.00     0.249 C 
BRANCH  30  31
ATOM     31  O   UNL     1      28.906  38.711  29.953  1.00  0.00    -0.461 OA
BRANCH  31  32
ATOM     32  C   UNL     1      27.704  38.039  29.708  1.00  0.00     0.338 C 
ATOM     33  O   UNL     1      27.265  37.203  30.546  1.00  0.00    -0.246 OA
BRANCH  32  34
ATOM     34  C   UNL     1      26.951  38.312  28.465  1.00  0.00     0.060 A 
ATOM     35  C   UNL     1      27.425  39.247  27.526  1.00  0.00     0.015 A 
ATOM     36  C   UNL     1      25.743  37.637  28.205  1.00  0.00     0.015 A 
ATOM     37  C   UNL     1      26.706  39.500  26.354  1.00  0.00     0.001 A 
ATOM     38  C   UNL     1      25.028  37.893  27.031  1.00  0.00     0.001 A 
ATOM     39  C   UNL     1      25.509  38.824  26.106  1.00  0.00     0.000 A 
ENDBRANCH  32  34
ENDBRANCH  31  32
ENDBRANCH  30  31
ENDBRANCH   8  30
TORSDOF 12
ENDMDL
MODEL 9
REMARK VINA RESULT:     4.181      1.846      3.376
REMARK INTER + INTRA:           6.935
REMARK INTER:                   7.105
REMARK INTRA:                  -0.170
REMARK UNBOUND:                 0.432
REMARK SMILES C[C@@]12C[C@@]3(O)O[C@@H](O1)[C@]1(COC(=O)c4ccccc4)[C@H]3C[C@@]12O[C@H]1O[C@H](CO)[C@H](O)[C@@H](O)[C@@H]1O
REMARK SMILES IDX 1 1 2 2 3 3 4 4 20 5 21 6 22 7 9 8 7 9 8 10 6 11 23 12 24 13
REMARK SMILES IDX 33 14 25 15 31 16 26 17 29 18 34 19 32 21 27 23 28 24 30 26
REMARK SMILES IDX 5 28 10 30 11 31 12 32 13 33 14 34 15 35 19 36 16 37 18 38
REMARK SMILES IDX 17 39
REMARK H PARENT 34 20 32 22 28 25 30 27 5 29
REMARK Flexibility Score: inf
ROOT
ATOM      1  C   UNL     1      31.615  39.028  27.042  1.00  0.00     0.046 C 
ATOM      2  C   UNL     1      30.584  39.019  28.171  1.00  0.00     0.104 C 
ATOM      3  C   UNL     1      31.175  39.624  29.498  1.00  0.00     0.104 C 
ATOM      4  C   UNL     1      30.008  39.455  30.533  1.00  0.00     0.175 C 
ATOM      5  C   UNL     1      29.453  37.991  30.499  1.00  0.00     0.070 C 
ATOM      6  C   UNL     1      30.412  36.996  29.828  1.00  0.00     0.050 C 
ATOM      7  C   UNL     1      29.959  37.609  28.483  1.00  0.00     0.115 C 
ATOM      8  C   UNL     1      28.693  38.090  29.186  1.00  0.00     0.096 C 
ATOM      9  C   UNL     1      28.543  39.567  28.872  1.00  0.00     0.267 C 
ATOM     10  O   UNL     1      29.476  39.834  27.837  1.00  0.00    -0.342 OA
ATOM     11  O   UNL     1      28.945  40.252  30.048  1.00  0.00    -0.320 OA
ENDROOT
BRANCH   7  12
ATOM     12  O   UNL     1      29.681  36.763  27.376  1.00  0.00    -0.339 OA
BRANCH  12  13
ATOM     13  C   UNL     1      29.750  35.386  27.721  1.00  0.00     0.282 C 
ATOM     14  C   UNL     1      31.043  34.751  27.154  1.00  0.00     0.202 C 
ATOM     15  O   UNL     1      28.595  34.688  27.276  1.00  0.00    -0.341 OA
ATOM     16  C   UNL     1      30.979  34.547  25.623  1.00  0.00     0.179 C 
ATOM     17  C   UNL     1      28.463  34.742  25.866  1.00  0.00     0.178 C 
ATOM     18  C   UNL     1      29.614  33.975  25.178  1.00  0.00     0.177 C 
BRANCH  14  19
ATOM     19  O   UNL     1      31.258  33.505  27.768  1.00  0.00    -0.385 OA
ATOM     20  H   UNL     1      30.983  32.808  27.115  1.00  0.00     0.211 HD
ENDBRANCH  14  19
BRANCH  16  21
ATOM     21  O   UNL     1      31.302  35.727  24.927  1.00  0.00    -0.387 OA
ATOM     22  H   UNL     1      31.129  35.585  23.964  1.00  0.00     0.211 HD
ENDBRANCH  16  21
BRANCH  17  23
ATOM     23  C   UNL     1      27.083  34.197  25.467  1.00  0.00     0.191 C 
BRANCH  23  24
ATOM     24  O   UNL     1      26.730  34.617  24.175  1.00  0.00    -0.394 OA
ATOM     25  H   UNL     1      25.952  34.069  23.889  1.00  0.00     0.210 HD
ENDBRANCH  23  24
ENDBRANCH  17  23
BRANCH  18  26
ATOM     26  O   UNL     1      29.546  32.612  25.516  1.00  0.00    -0.387 OA
ATOM     27  H   UNL     1      29.744  32.544  26.487  1.00  0.00     0.211 HD
ENDBRANCH  18  26
ENDBRANCH  12  13
ENDBRANCH   7  12
BRANCH   4  28
ATOM     28  O   UNL     1      30.404  39.849  31.818  1.00  0.00    -0.365 OA
ATOM     29  H   UNL     1      30.864  40.723  31.720  1.00  0.00     0.214 HD
ENDBRANCH   4  28
BRANCH   8  30
ATOM     30  C   UNL     1      27.430  37.216  29.072  1.00  0.00     0.249 C 
BRANCH  30  31
ATOM     31  O   UNL     1      26.425  37.925  28.356  1.00  0.00    -0.461 OA
BRANCH  31  32
ATOM     32  C   UNL     1      26.201  37.747  26.987  1.00  0.00     0.338 C 
ATOM     33  O   UNL     1      25.258  37.008  26.591  1.00  0.00    -0.246 OA
BRANCH  32  34
ATOM     34  C   UNL     1      27.073  38.429  26.007  1.00  0.00     0.060 A 
ATOM     35  C   UNL     1      28.090  37.725  25.334  1.00  0.00     0.015 A 
ATOM     36  C   UNL     1      26.897  39.799  25.734  1.00  0.00     0.015 A 
ATOM     37  C   UNL     1      28.911  38.379  24.410  1.00  0.00     0.001 A 
ATOM     38  C   UNL     1      27.720  40.448  24.807  1.00  0.00     0.001 A 
ATOM     39  C   UNL     1      28.726  39.738  24.146  1.00  0.00     0.000 A 
ENDBRANCH  32  34
ENDBRANCH  31  32
ENDBRANCH  30  31
ENDBRANCH   8  30
TORSDOF 12
ENDMDL
