MODEL 1
REMARK VINA RESULT:    -5.044      0.000      0.000
REMARK INTER + INTRA:          -9.517
REMARK INTER:                  -8.878
REMARK INTRA:                  -0.639
REMARK UNBOUND:                -0.639
REMARK SMILES CCCCCCCCCCCCCCC(=O)[O-]
REMARK SMILES IDX 9 1 10 2 11 3 12 4 13 5 14 6 15 7 16 8 17 9 8 10 7 11 6 12
REMARK SMILES IDX 5 13 4 14 3 15 2 16 1 17
REMARK H PARENT
REMARK Flexibility Score: inf
ROOT
ATOM      1  C   UNL     1      95.437 124.129 124.169  1.00  0.00     0.000 C 
ENDROOT
BRANCH   1   2
ATOM      2  C   UNL     1      94.548 123.201 125.020  1.00  0.00     0.000 C 
BRANCH   2   3
ATOM      3  C   UNL     1      93.163 122.895 124.417  1.00  0.00     0.000 C 
BRANCH   3   4
ATOM      4  C   UNL     1      92.948 123.405 122.978  1.00  0.00     0.000 C 
BRANCH   4   5
ATOM      5  C   UNL     1      92.816 122.303 121.912  1.00  0.00     0.006 C 
BRANCH   5   6
ATOM      6  C   UNL     1      92.363 122.843 120.550  1.00  0.00     0.053 C 
BRANCH   6   7
ATOM      7  C   UNL     1      92.944 122.021 119.443  1.00  0.00     0.041 C 
ATOM      8  O   UNL     1      93.947 121.290 119.657  1.00  0.00    -0.550 OA
ATOM      9  O   UNL     1      92.349 122.025 118.188  1.00  0.00    -0.550 OA
ENDBRANCH   6   7
ENDBRANCH   5   6
ENDBRANCH   4   5
ENDBRANCH   3   4
ENDBRANCH   2   3
ENDBRANCH   1   2
BRANCH   1  10
ATOM     10  C   UNL     1      96.778 124.521 124.819  1.00  0.00     0.000 C 
BRANCH  10  11
ATOM     11  C   UNL     1      97.090 123.804 126.148  1.00  0.00    -0.000 C 
BRANCH  11  12
ATOM     12  C   UNL     1      98.470 124.127 126.756  1.00  0.00    -0.000 C 
BRANCH  12  13
ATOM     13  C   UNL     1      99.588 123.128 126.409  1.00  0.00    -0.000 C 
BRANCH  13  14
ATOM     14  C   UNL     1      99.106 121.667 126.413  1.00  0.00    -0.000 C 
BRANCH  14  15
ATOM     15  C   UNL     1     100.226 120.678 126.779  1.00  0.00    -0.000 C 
BRANCH  15  16
ATOM     16  C   UNL     1     101.511 120.914 125.971  1.00  0.00    -0.003 C 
ATOM     17  C   UNL     1     101.938 119.646 125.236  1.00  0.00     0.004 C 
ENDBRANCH  15  16
ENDBRANCH  14  15
ENDBRANCH  13  14
ENDBRANCH  12  13
ENDBRANCH  11  12
ENDBRANCH  10  11
ENDBRANCH   1  10
TORSDOF 13
ENDMDL
MODEL 2
REMARK VINA RESULT:    -4.994      3.206      8.119
REMARK INTER + INTRA:          -9.428
REMARK INTER:                  -8.841
REMARK INTRA:                  -0.587
REMARK UNBOUND:                -0.639
REMARK SMILES CCCCCCCCCCCCCCC(=O)[O-]
REMARK SMILES IDX 9 1 10 2 11 3 12 4 13 5 14 6 15 7 16 8 17 9 8 10 7 11 6 12
REMARK SMILES IDX 5 13 4 14 3 15 2 16 1 17
REMARK H PARENT
REMARK Flexibility Score: inf
ROOT
ATOM      1  C   UNL     1      96.722 124.624 124.901  1.00  0.00     0.000 C 
ENDROOT
BRANCH   1   2
ATOM      2  C   UNL     1      97.164 123.743 126.086  1.00  0.00     0.000 C 
BRANCH   2   3
ATOM      3  C   UNL     1      98.505 124.145 126.730  1.00  0.00     0.000 C 
BRANCH   3   4
ATOM      4  C   UNL     1      99.646 123.121 126.559  1.00  0.00     0.000 C 
BRANCH   4   5
ATOM      5  C   UNL     1      99.193 121.652 126.488  1.00  0.00     0.006 C 
BRANCH   5   6
ATOM      6  C   UNL     1     100.298 120.668 126.894  1.00  0.00     0.053 C 
BRANCH   6   7
ATOM      7  C   UNL     1     100.881 120.010 125.683  1.00  0.00     0.041 C 
ATOM      8  O   UNL     1     102.079 119.623 125.689  1.00  0.00    -0.550 OA
ATOM      9  O   UNL     1     100.088 119.781 124.566  1.00  0.00    -0.550 OA
ENDBRANCH   6   7
ENDBRANCH   5   6
ENDBRANCH   4   5
ENDBRANCH   3   4
ENDBRANCH   2   3
ENDBRANCH   1   2
BRANCH   1  10
ATOM     10  C   UNL     1      95.460 124.135 124.163  1.00  0.00     0.000 C 
BRANCH  10  11
ATOM     11  C   UNL     1      94.566 123.175 124.971  1.00  0.00    -0.000 C 
BRANCH  11  12
ATOM     12  C   UNL     1      93.131 123.006 124.429  1.00  0.00    -0.000 C 
BRANCH  12  13
ATOM     13  C   UNL     1      92.935 123.415 122.958  1.00  0.00    -0.000 C 
BRANCH  13  14
ATOM     14  C   UNL     1      92.467 122.248 122.072  1.00  0.00    -0.000 C 
BRANCH  14  15
ATOM     15  C   UNL     1      93.129 122.259 120.684  1.00  0.00    -0.000 C 
BRANCH  15  16
ATOM     16  C   UNL     1      92.159 122.683 119.569  1.00  0.00    -0.003 C 
ATOM     17  C   UNL     1      92.524 122.020 118.244  1.00  0.00     0.004 C 
ENDBRANCH  15  16
ENDBRANCH  14  15
ENDBRANCH  13  14
ENDBRANCH  12  13
ENDBRANCH  11  12
ENDBRANCH  10  11
ENDBRANCH   1  10
TORSDOF 13
ENDMDL
MODEL 3
REMARK VINA RESULT:    -4.786      3.370      8.452
REMARK INTER + INTRA:          -9.063
REMARK INTER:                  -8.552
REMARK INTRA:                  -0.511
REMARK UNBOUND:                -0.639
REMARK SMILES CCCCCCCCCCCCCCC(=O)[O-]
REMARK SMILES IDX 9 1 10 2 11 3 12 4 13 5 14 6 15 7 16 8 17 9 8 10 7 11 6 12
REMARK SMILES IDX 5 13 4 14 3 15 2 16 1 17
REMARK H PARENT
REMARK Flexibility Score: inf
ROOT
ATOM      1  C   UNL     1      95.340 124.087 124.030  1.00  0.00     0.000 C 
ENDROOT
BRANCH   1   2
ATOM      2  C   UNL     1      96.671 124.446 124.720  1.00  0.00     0.000 C 
BRANCH   2   3
ATOM      3  C   UNL     1      96.974 123.649 126.004  1.00  0.00     0.000 C 
BRANCH   3   4
ATOM      4  C   UNL     1      98.332 123.963 126.663  1.00  0.00     0.000 C 
BRANCH   4   5
ATOM      5  C   UNL     1      99.451 122.950 126.359  1.00  0.00     0.006 C 
BRANCH   5   6
ATOM      6  C   UNL     1      99.081 121.517 126.758  1.00  0.00     0.053 C 
BRANCH   6   7
ATOM      7  C   UNL     1     100.164 120.567 126.355  1.00  0.00     0.041 C 
ATOM      8  O   UNL     1     101.001 120.163 127.206  1.00  0.00    -0.550 OA
ATOM      9  O   UNL     1     100.220 120.089 125.052  1.00  0.00    -0.550 OA
ENDBRANCH   6   7
ENDBRANCH   5   6
ENDBRANCH   4   5
ENDBRANCH   3   4
ENDBRANCH   2   3
ENDBRANCH   1   2
BRANCH   1  10
ATOM     10  C   UNL     1      94.396 123.197 124.862  1.00  0.00     0.000 C 
BRANCH  10  11
ATOM     11  C   UNL     1      93.030 122.909 124.208  1.00  0.00    -0.000 C 
BRANCH  11  12
ATOM     12  C   UNL     1      92.933 123.272 122.712  1.00  0.00    -0.000 C 
BRANCH  12  13
ATOM     13  C   UNL     1      92.471 122.130 121.790  1.00  0.00    -0.000 C 
BRANCH  13  14
ATOM     14  C   UNL     1      93.180 122.142 120.424  1.00  0.00    -0.000 C 
BRANCH  14  15
ATOM     15  C   UNL     1      92.261 122.618 119.287  1.00  0.00    -0.000 C 
BRANCH  15  16
ATOM     16  C   UNL     1      92.419 121.780 118.009  1.00  0.00    -0.003 C 
ATOM     17  C   UNL     1      91.571 122.348 116.873  1.00  0.00     0.004 C 
ENDBRANCH  15  16
ENDBRANCH  14  15
ENDBRANCH  13  14
ENDBRANCH  12  13
ENDBRANCH  11  12
ENDBRANCH  10  11
ENDBRANCH   1  10
TORSDOF 13
ENDMDL
MODEL 4
REMARK VINA RESULT:    -4.766      0.770      1.606
REMARK INTER + INTRA:          -9.028
REMARK INTER:                  -8.478
REMARK INTRA:                  -0.550
REMARK UNBOUND:                -0.639
REMARK SMILES CCCCCCCCCCCCCCC(=O)[O-]
REMARK SMILES IDX 9 1 10 2 11 3 12 4 13 5 14 6 15 7 16 8 17 9 8 10 7 11 6 12
REMARK SMILES IDX 5 13 4 14 3 15 2 16 1 17
REMARK H PARENT
REMARK Flexibility Score: inf
ROOT
ATOM      1  C   UNL     1      94.397 123.333 124.916  1.00  0.00     0.000 C 
ENDROOT
BRANCH   1   2
ATOM      2  C   UNL     1      93.068 123.076 124.179  1.00  0.00     0.000 C 
BRANCH   2   3
ATOM      3  C   UNL     1      93.108 123.327 122.659  1.00  0.00     0.000 C 
BRANCH   3   4
ATOM      4  C   UNL     1      92.608 122.157 121.789  1.00  0.00     0.000 C 
BRANCH   4   5
ATOM      5  C   UNL     1      93.084 122.185 120.326  1.00  0.00     0.006 C 
BRANCH   5   6
ATOM      6  C   UNL     1      92.008 122.691 119.358  1.00  0.00     0.053 C 
BRANCH   6   7
ATOM      7  C   UNL     1      92.221 122.116 117.993  1.00  0.00     0.041 C 
ATOM      8  O   UNL     1      92.909 121.071 117.847  1.00  0.00    -0.550 OA
ATOM      9  O   UNL     1      91.621 122.707 116.889  1.00  0.00    -0.550 OA
ENDBRANCH   6   7
ENDBRANCH   5   6
ENDBRANCH   4   5
ENDBRANCH   3   4
ENDBRANCH   2   3
ENDBRANCH   1   2
BRANCH   1  10
ATOM     10  C   UNL     1      95.489 124.014 124.070  1.00  0.00     0.000 C 
BRANCH  10  11
ATOM     11  C   UNL     1      96.689 124.556 124.872  1.00  0.00    -0.000 C 
BRANCH  11  12
ATOM     12  C   UNL     1      97.135 123.674 126.055  1.00  0.00    -0.000 C 
BRANCH  12  13
ATOM     13  C   UNL     1      98.481 124.064 126.692  1.00  0.00    -0.000 C 
BRANCH  13  14
ATOM     14  C   UNL     1      99.584 123.021 126.442  1.00  0.00    -0.000 C 
BRANCH  14  15
ATOM     15  C   UNL     1      99.076 121.578 126.595  1.00  0.00    -0.000 C 
BRANCH  15  16
ATOM     16  C   UNL     1     100.200 120.589 126.943  1.00  0.00    -0.003 C 
ATOM     17  C   UNL     1     101.340 120.677 125.932  1.00  0.00     0.004 C 
ENDBRANCH  15  16
ENDBRANCH  14  15
ENDBRANCH  13  14
ENDBRANCH  12  13
ENDBRANCH  11  12
ENDBRANCH  10  11
ENDBRANCH   1  10
TORSDOF 13
ENDMDL
MODEL 5
REMARK VINA RESULT:    -4.499     12.380     15.123
REMARK INTER + INTRA:          -8.557
REMARK INTER:                  -7.650
REMARK INTRA:                  -0.907
REMARK UNBOUND:                -0.639
REMARK SMILES CCCCCCCCCCCCCCC(=O)[O-]
REMARK SMILES IDX 9 1 10 2 11 3 12 4 13 5 14 6 15 7 16 8 17 9 8 10 7 11 6 12
REMARK SMILES IDX 5 13 4 14 3 15 2 16 1 17
REMARK H PARENT
REMARK Flexibility Score: inf
ROOT
ATOM      1  C   UNL     1      82.091 125.156 129.179  1.00  0.00     0.000 C 
ENDROOT
BRANCH   1   2
ATOM      2  C   UNL     1      82.947 124.613 128.018  1.00  0.00     0.000 C 
BRANCH   2   3
ATOM      3  C   UNL     1      84.167 123.774 128.446  1.00  0.00     0.000 C 
BRANCH   3   4
ATOM      4  C   UNL     1      85.073 123.301 127.291  1.00  0.00     0.000 C 
BRANCH   4   5
ATOM      5  C   UNL     1      84.550 123.625 125.881  1.00  0.00     0.006 C 
BRANCH   5   6
ATOM      6  C   UNL     1      84.350 122.374 125.017  1.00  0.00     0.053 C 
BRANCH   6   7
ATOM      7  C   UNL     1      82.899 122.183 124.704  1.00  0.00     0.041 C 
ATOM      8  O   UNL     1      82.036 122.282 125.616  1.00  0.00    -0.550 OA
ATOM      9  O   UNL     1      82.496 121.943 123.397  1.00  0.00    -0.550 OA
ENDBRANCH   6   7
ENDBRANCH   5   6
ENDBRANCH   4   5
ENDBRANCH   3   4
ENDBRANCH   2   3
ENDBRANCH   1   2
BRANCH   1  10
ATOM     10  C   UNL     1      82.823 126.123 130.129  1.00  0.00     0.000 C 
BRANCH  10  11
ATOM     11  C   UNL     1      81.972 127.305 130.635  1.00  0.00    -0.000 C 
BRANCH  11  12
ATOM     12  C   UNL     1      82.638 128.690 130.510  1.00  0.00    -0.000 C 
BRANCH  12  13
ATOM     13  C   UNL     1      84.173 128.672 130.396  1.00  0.00    -0.000 C 
BRANCH  13  14
ATOM     14  C   UNL     1      84.868 129.324 131.603  1.00  0.00    -0.000 C 
BRANCH  14  15
ATOM     15  C   UNL     1      83.873 129.985 132.571  1.00  0.00    -0.000 C 
BRANCH  15  16
ATOM     16  C   UNL     1      84.004 131.516 132.602  1.00  0.00    -0.003 C 
ATOM     17  C   UNL     1      82.887 132.178 131.801  1.00  0.00     0.004 C 
ENDBRANCH  15  16
ENDBRANCH  14  15
ENDBRANCH  13  14
ENDBRANCH  12  13
ENDBRANCH  11  12
ENDBRANCH  10  11
ENDBRANCH   1  10
TORSDOF 13
ENDMDL
MODEL 6
REMARK VINA RESULT:    -4.487     13.673     16.333
REMARK INTER + INTRA:          -8.537
REMARK INTER:                  -7.661
REMARK INTRA:                  -0.876
REMARK UNBOUND:                -0.639
REMARK SMILES CCCCCCCCCCCCCCC(=O)[O-]
REMARK SMILES IDX 9 1 10 2 11 3 12 4 13 5 14 6 15 7 16 8 17 9 8 10 7 11 6 12
REMARK SMILES IDX 5 13 4 14 3 15 2 16 1 17
REMARK H PARENT
REMARK Flexibility Score: inf
ROOT
ATOM      1  C   UNL     1      82.746 127.381 130.578  1.00  0.00     0.000 C 
ENDROOT
BRANCH   1   2
ATOM      2  C   UNL     1      83.842 128.308 130.016  1.00  0.00     0.000 C 
BRANCH   2   3
ATOM      3  C   UNL     1      84.726 128.989 131.079  1.00  0.00     0.000 C 
BRANCH   3   4
ATOM      4  C   UNL     1      84.233 128.841 132.533  1.00  0.00     0.000 C 
BRANCH   4   5
ATOM      5  C   UNL     1      83.544 130.088 133.115  1.00  0.00     0.006 C 
BRANCH   5   6
ATOM      6  C   UNL     1      83.944 131.381 132.395  1.00  0.00     0.053 C 
BRANCH   6   7
ATOM      7  C   UNL     1      82.774 131.951 131.656  1.00  0.00     0.041 C 
ATOM      8  O   UNL     1      82.624 133.199 131.575  1.00  0.00    -0.550 OA
ATOM      9  O   UNL     1      81.878 131.105 131.016  1.00  0.00    -0.550 OA
ENDBRANCH   6   7
ENDBRANCH   5   6
ENDBRANCH   4   5
ENDBRANCH   3   4
ENDBRANCH   2   3
ENDBRANCH   1   2
BRANCH   1  10
ATOM     10  C   UNL     1      82.970 125.878 130.320  1.00  0.00     0.000 C 
BRANCH  10  11
ATOM     11  C   UNL     1      83.126 125.490 128.836  1.00  0.00    -0.000 C 
BRANCH  11  12
ATOM     12  C   UNL     1      83.579 124.037 128.585  1.00  0.00    -0.000 C 
BRANCH  12  13
ATOM     13  C   UNL     1      82.620 123.191 127.729  1.00  0.00    -0.000 C 
BRANCH  13  14
ATOM     14  C   UNL     1      82.653 123.576 126.240  1.00  0.00    -0.000 C 
BRANCH  14  15
ATOM     15  C   UNL     1      84.085 123.697 125.694  1.00  0.00    -0.000 C 
BRANCH  15  16
ATOM     16  C   UNL     1      84.528 122.450 124.912  1.00  0.00    -0.003 C 
ATOM     17  C   UNL     1      83.359 121.843 124.141  1.00  0.00     0.004 C 
ENDBRANCH  15  16
ENDBRANCH  14  15
ENDBRANCH  13  14
ENDBRANCH  12  13
ENDBRANCH  11  12
ENDBRANCH  10  11
ENDBRANCH   1  10
TORSDOF 13
ENDMDL
MODEL 7
REMARK VINA RESULT:    -4.395     12.695     14.343
REMARK INTER + INTRA:          -8.374
REMARK INTER:                  -7.751
REMARK INTRA:                  -0.623
REMARK UNBOUND:                -0.639
REMARK SMILES CCCCCCCCCCCCCCC(=O)[O-]
REMARK SMILES IDX 9 1 10 2 11 3 12 4 13 5 14 6 15 7 16 8 17 9 8 10 7 11 6 12
REMARK SMILES IDX 5 13 4 14 3 15 2 16 1 17
REMARK H PARENT
REMARK Flexibility Score: inf
ROOT
ATOM      1  C   UNL     1      84.573 124.702 127.117  1.00  0.00     0.000 C 
ENDROOT
BRANCH   1   2
ATOM      2  C   UNL     1      83.919 124.080 125.868  1.00  0.00     0.000 C 
BRANCH   2   3
ATOM      3  C   UNL     1      83.828 122.541 125.880  1.00  0.00     0.000 C 
BRANCH   3   4
ATOM      4  C   UNL     1      84.216 121.852 124.556  1.00  0.00     0.000 C 
BRANCH   4   5
ATOM      5  C   UNL     1      83.185 120.839 124.025  1.00  0.00     0.006 C 
BRANCH   5   6
ATOM      6  C   UNL     1      82.235 121.444 122.986  1.00  0.00     0.053 C 
BRANCH   6   7
ATOM      7  C   UNL     1      82.406 120.765 121.664  1.00  0.00     0.041 C 
ATOM      8  O   UNL     1      82.523 119.512 121.606  1.00  0.00    -0.550 OA
ATOM      9  O   UNL     1      82.387 121.510 120.492  1.00  0.00    -0.550 OA
ENDBRANCH   6   7
ENDBRANCH   5   6
ENDBRANCH   4   5
ENDBRANCH   3   4
ENDBRANCH   2   3
ENDBRANCH   1   2
BRANCH   1  10
ATOM     10  C   UNL     1      83.998 124.218 128.462  1.00  0.00     0.000 C 
BRANCH  10  11
ATOM     11  C   UNL     1      82.599 124.767 128.805  1.00  0.00    -0.000 C 
BRANCH  11  12
ATOM     12  C   UNL     1      82.421 125.235 130.264  1.00  0.00    -0.000 C 
BRANCH  12  13
ATOM     13  C   UNL     1      82.225 126.750 130.447  1.00  0.00    -0.000 C 
BRANCH  13  14
ATOM     14  C   UNL     1      83.519 127.551 130.220  1.00  0.00    -0.000 C 
BRANCH  14  15
ATOM     15  C   UNL     1      83.271 129.067 130.153  1.00  0.00    -0.000 C 
BRANCH  15  16
ATOM     16  C   UNL     1      83.621 129.783 131.467  1.00  0.00    -0.003 C 
ATOM     17  C   UNL     1      84.904 129.221 132.072  1.00  0.00     0.004 C 
ENDBRANCH  15  16
ENDBRANCH  14  15
ENDBRANCH  13  14
ENDBRANCH  12  13
ENDBRANCH  11  12
ENDBRANCH  10  11
ENDBRANCH   1  10
TORSDOF 13
ENDMDL
MODEL 8
REMARK VINA RESULT:    -4.348     13.388     15.221
REMARK INTER + INTRA:          -8.292
REMARK INTER:                  -6.753
REMARK INTRA:                  -1.539
REMARK UNBOUND:                -0.639
REMARK SMILES CCCCCCCCCCCCCCC(=O)[O-]
REMARK SMILES IDX 9 1 10 2 11 3 12 4 13 5 14 6 15 7 16 8 17 9 8 10 7 11 6 12
REMARK SMILES IDX 5 13 4 14 3 15 2 16 1 17
REMARK H PARENT
REMARK Flexibility Score: inf
ROOT
ATOM      1  C   UNL     1      84.432 124.443 127.972  1.00  0.00     0.000 C 
ENDROOT
BRANCH   1   2
ATOM      2  C   UNL     1      83.012 124.548 128.562  1.00  0.00     0.000 C 
BRANCH   2   3
ATOM      3  C   UNL     1      82.945 125.090 130.003  1.00  0.00     0.000 C 
BRANCH   3   4
ATOM      4  C   UNL     1      82.514 126.565 130.128  1.00  0.00     0.000 C 
BRANCH   4   5
ATOM      5  C   UNL     1      83.420 127.433 131.020  1.00  0.00     0.006 C 
BRANCH   5   6
ATOM      6  C   UNL     1      83.760 128.787 130.386  1.00  0.00     0.053 C 
BRANCH   6   7
ATOM      7  C   UNL     1      84.128 129.780 131.443  1.00  0.00     0.041 C 
ATOM      8  O   UNL     1      85.112 129.565 132.199  1.00  0.00    -0.550 OA
ATOM      9  O   UNL     1      83.415 130.966 131.560  1.00  0.00    -0.550 OA
ENDBRANCH   6   7
ENDBRANCH   5   6
ENDBRANCH   4   5
ENDBRANCH   3   4
ENDBRANCH   2   3
ENDBRANCH   1   2
BRANCH   1  10
ATOM     10  C   UNL     1      84.496 124.415 126.432  1.00  0.00     0.000 C 
BRANCH  10  11
ATOM     11  C   UNL     1      83.171 124.049 125.734  1.00  0.00    -0.000 C 
BRANCH  11  12
ATOM     12  C   UNL     1      83.239 122.812 124.814  1.00  0.00    -0.000 C 
BRANCH  12  13
ATOM     13  C   UNL     1      84.438 121.879 125.058  1.00  0.00    -0.000 C 
BRANCH  13  14
ATOM     14  C   UNL     1      84.081 120.665 125.934  1.00  0.00    -0.000 C 
BRANCH  14  15
ATOM     15  C   UNL     1      84.636 120.787 127.363  1.00  0.00    -0.000 C 
BRANCH  15  16
ATOM     16  C   UNL     1      83.532 120.750 128.432  1.00  0.00    -0.003 C 
ATOM     17  C   UNL     1      82.152 120.912 127.800  1.00  0.00     0.004 C 
ENDBRANCH  15  16
ENDBRANCH  14  15
ENDBRANCH  13  14
ENDBRANCH  12  13
ENDBRANCH  11  12
ENDBRANCH  10  11
ENDBRANCH   1  10
TORSDOF 13
ENDMDL
MODEL 9
REMARK VINA RESULT:    -4.235     12.359     14.388
REMARK INTER + INTRA:          -8.093
REMARK INTER:                  -6.334
REMARK INTRA:                  -1.759
REMARK UNBOUND:                -0.639
REMARK SMILES CCCCCCCCCCCCCCC(=O)[O-]
REMARK SMILES IDX 9 1 10 2 11 3 12 4 13 5 14 6 15 7 16 8 17 9 8 10 7 11 6 12
REMARK SMILES IDX 5 13 4 14 3 15 2 16 1 17
REMARK H PARENT
REMARK Flexibility Score: inf
ROOT
ATOM      1  C   UNL     1      83.867 123.125 129.474  1.00  0.00     0.000 C 
ENDROOT
BRANCH   1   2
ATOM      2  C   UNL     1      82.804 122.050 129.175  1.00  0.00     0.000 C 
BRANCH   2   3
ATOM      3  C   UNL     1      83.324 120.817 128.410  1.00  0.00     0.000 C 
BRANCH   3   4
ATOM      4  C   UNL     1      84.827 120.844 128.068  1.00  0.00     0.000 C 
BRANCH   4   5
ATOM      5  C   UNL     1      85.665 119.738 128.734  1.00  0.00     0.006 C 
BRANCH   5   6
ATOM      6  C   UNL     1      85.572 119.759 130.264  1.00  0.00     0.053 C 
BRANCH   6   7
ATOM      7  C   UNL     1      86.513 120.774 130.831  1.00  0.00     0.041 C 
ATOM      8  O   UNL     1      86.330 121.230 131.990  1.00  0.00    -0.550 OA
ATOM      9  O   UNL     1      87.621 121.180 130.098  1.00  0.00    -0.550 OA
ENDBRANCH   6   7
ENDBRANCH   5   6
ENDBRANCH   4   5
ENDBRANCH   3   4
ENDBRANCH   2   3
ENDBRANCH   1   2
BRANCH   1  10
ATOM     10  C   UNL     1      83.745 124.412 128.635  1.00  0.00     0.000 C 
BRANCH  10  11
ATOM     11  C   UNL     1      84.690 124.487 127.420  1.00  0.00    -0.000 C 
BRANCH  11  12
ATOM     12  C   UNL     1      84.038 124.151 126.063  1.00  0.00    -0.000 C 
BRANCH  12  13
ATOM     13  C   UNL     1      82.513 123.948 126.102  1.00  0.00    -0.000 C 
BRANCH  13  14
ATOM     14  C   UNL     1      82.060 122.681 125.357  1.00  0.00    -0.000 C 
BRANCH  14  15
ATOM     15  C   UNL     1      83.119 122.172 124.364  1.00  0.00    -0.000 C 
BRANCH  15  16
ATOM     16  C   UNL     1      82.691 120.877 123.655  1.00  0.00    -0.003 C 
ATOM     17  C   UNL     1      82.534 121.099 122.153  1.00  0.00     0.004 C 
ENDBRANCH  15  16
ENDBRANCH  14  15
ENDBRANCH  13  14
ENDBRANCH  12  13
ENDBRANCH  11  12
ENDBRANCH  10  11
ENDBRANCH   1  10
TORSDOF 13
ENDMDL
