MODEL 1
REMARK VINA RESULT:    -7.403      0.000      0.000
REMARK INTER + INTRA:          -8.052
REMARK INTER:                  -8.052
REMARK INTRA:                   0.000
REMARK UNBOUND:                 0.000
REMARK SMILES Cc1cc(O)c2c(c1)C(=O)c1cc(O)cc(O)c1C2=O
REMARK SMILES IDX 1 1 2 2 8 3 7 4 6 5 4 6 3 7 19 8 20 9 18 10 11 11 9 12 10 13
REMARK SMILES IDX 12 14 13 15 15 16 16 17 5 18 17 20 14 22
REMARK H PARENT 5 19 17 21 14 23
REMARK Flexibility Score: inf
ROOT
ATOM      1  C   UNL     1     -13.928   3.414  -7.124  1.00  0.00     0.044 C 
ATOM      2  C   UNL     1     -14.468   4.575  -6.341  1.00  0.00    -0.047 A 
ATOM      3  C   UNL     1     -13.917   5.851  -6.504  1.00  0.00     0.016 A 
ATOM      4  C   UNL     1     -14.392   6.941  -5.751  1.00  0.00     0.038 A 
ATOM      5  C   UNL     1     -15.425   6.747  -4.808  1.00  0.00     0.076 A 
ATOM      6  C   UNL     1     -15.963   5.448  -4.633  1.00  0.00     0.127 A 
ATOM      7  C   UNL     1     -15.477   4.377  -5.395  1.00  0.00     0.050 A 
ATOM      8  C   UNL     1     -15.920   7.909  -4.018  1.00  0.00     0.201 C 
ATOM      9  O   UNL     1     -16.849   7.745  -3.180  1.00  0.00    -0.288 OA
ATOM     10  C   UNL     1     -15.330   9.263  -4.210  1.00  0.00     0.076 A 
ATOM     11  C   UNL     1     -14.294   9.438  -5.155  1.00  0.00     0.041 A 
ATOM     12  C   UNL     1     -13.804   8.285  -5.945  1.00  0.00     0.194 C 
ATOM     13  O   UNL     1     -12.880   8.451  -6.788  1.00  0.00    -0.289 OA
ATOM     14  C   UNL     1     -13.729  10.713  -5.345  1.00  0.00     0.059 A 
ATOM     15  C   UNL     1     -14.182  11.809  -4.607  1.00  0.00     0.120 A 
ATOM     16  C   UNL     1     -15.204  11.641  -3.674  1.00  0.00     0.093 A 
ATOM     17  C   UNL     1     -15.781  10.382  -3.467  1.00  0.00     0.131 A 
ENDROOT
BRANCH   6  18
ATOM     18  O   UNL     1     -16.978   5.213  -3.705  1.00  0.00    -0.507 OA
ATOM     19  H   UNL     1     -17.242   5.905  -3.015  1.00  0.00     0.293 HD
ENDBRANCH   6  18
BRANCH  17  20
ATOM     20  O   UNL     1     -16.801  10.250  -2.523  1.00  0.00    -0.507 OA
ATOM     21  H   UNL     1     -17.674   9.786  -2.742  1.00  0.00     0.293 HD
ENDBRANCH  17  20
BRANCH  15  22
ATOM     22  O   UNL     1     -13.624  13.071  -4.794  1.00  0.00    -0.508 OA
ATOM     23  H   UNL     1     -13.731  13.575  -5.667  1.00  0.00     0.293 HD
ENDBRANCH  15  22
TORSDOF 3
ENDMDL
MODEL 2
REMARK VINA RESULT:    -7.315      1.283      5.478
REMARK INTER + INTRA:          -7.956
REMARK INTER:                  -7.956
REMARK INTRA:                   0.000
REMARK UNBOUND:                 0.000
REMARK SMILES Cc1cc(O)c2c(c1)C(=O)c1cc(O)cc(O)c1C2=O
REMARK SMILES IDX 1 1 2 2 8 3 7 4 6 5 4 6 3 7 19 8 20 9 18 10 11 11 9 12 10 13
REMARK SMILES IDX 12 14 13 15 15 16 16 17 5 18 17 20 14 22
REMARK H PARENT 5 19 17 21 14 23
REMARK Flexibility Score: inf
ROOT
ATOM      1  C   UNL     1     -14.372  12.941  -4.248  1.00  0.00     0.044 C 
ATOM      2  C   UNL     1     -14.738  11.486  -4.211  1.00  0.00    -0.047 A 
ATOM      3  C   UNL     1     -14.116  10.581  -5.078  1.00  0.00     0.016 A 
ATOM      4  C   UNL     1     -14.476   9.221  -5.077  1.00  0.00     0.038 A 
ATOM      5  C   UNL     1     -15.485   8.761  -4.202  1.00  0.00     0.076 A 
ATOM      6  C   UNL     1     -16.125   9.687  -3.343  1.00  0.00     0.127 A 
ATOM      7  C   UNL     1     -15.751  11.037  -3.358  1.00  0.00     0.050 A 
ATOM      8  C   UNL     1     -15.856   7.318  -4.210  1.00  0.00     0.201 C 
ATOM      9  O   UNL     1     -16.751   6.899  -3.426  1.00  0.00    -0.288 OA
ATOM     10  C   UNL     1     -15.178   6.366  -5.132  1.00  0.00     0.076 A 
ATOM     11  C   UNL     1     -14.172   6.843  -6.003  1.00  0.00     0.041 A 
ATOM     12  C   UNL     1     -13.799   8.276  -5.994  1.00  0.00     0.194 C 
ATOM     13  O   UNL     1     -12.899   8.695  -6.773  1.00  0.00    -0.289 OA
ATOM     14  C   UNL     1     -13.524   5.953  -6.878  1.00  0.00     0.059 A 
ATOM     15  C   UNL     1     -13.866   4.598  -6.896  1.00  0.00     0.120 A 
ATOM     16  C   UNL     1     -14.857   4.122  -6.040  1.00  0.00     0.093 A 
ATOM     17  C   UNL     1     -15.516   4.990  -5.159  1.00  0.00     0.131 A 
ENDROOT
BRANCH   6  18
ATOM     18  O   UNL     1     -17.135   9.275  -2.471  1.00  0.00    -0.507 OA
ATOM     19  H   UNL     1     -17.813   8.571  -2.735  1.00  0.00     0.293 HD
ENDBRANCH   6  18
BRANCH  17  20
ATOM     20  O   UNL     1     -16.504   4.479  -4.317  1.00  0.00    -0.507 OA
ATOM     21  H   UNL     1     -17.490   4.578  -4.529  1.00  0.00     0.293 HD
ENDBRANCH  17  20
BRANCH  15  22
ATOM     22  O   UNL     1     -13.225   3.715  -7.763  1.00  0.00    -0.508 OA
ATOM     23  H   UNL     1     -12.652   2.954  -7.417  1.00  0.00     0.293 HD
ENDBRANCH  15  22
TORSDOF 3
ENDMDL
MODEL 3
REMARK VINA RESULT:    -6.841      1.403      6.312
REMARK INTER + INTRA:          -7.441
REMARK INTER:                  -7.441
REMARK INTRA:                   0.000
REMARK UNBOUND:                 0.000
REMARK SMILES Cc1cc(O)c2c(c1)C(=O)c1cc(O)cc(O)c1C2=O
REMARK SMILES IDX 1 1 2 2 8 3 7 4 6 5 4 6 3 7 19 8 20 9 18 10 11 11 9 12 10 13
REMARK SMILES IDX 12 14 13 15 15 16 16 17 5 18 17 20 14 22
REMARK H PARENT 5 19 17 21 14 23
REMARK Flexibility Score: inf
ROOT
ATOM      1  C   UNL     1     -17.375  13.125  -3.125  1.00  0.00     0.044 C 
ATOM      2  C   UNL     1     -16.661  12.036  -3.870  1.00  0.00    -0.047 A 
ATOM      3  C   UNL     1     -16.795  10.702  -3.469  1.00  0.00     0.016 A 
ATOM      4  C   UNL     1     -16.102   9.677  -4.139  1.00  0.00     0.038 A 
ATOM      5  C   UNL     1     -15.251   9.994  -5.220  1.00  0.00     0.076 A 
ATOM      6  C   UNL     1     -15.104  11.348  -5.607  1.00  0.00     0.127 A 
ATOM      7  C   UNL     1     -15.804  12.354  -4.928  1.00  0.00     0.050 A 
ATOM      8  C   UNL     1     -14.524   8.898  -5.922  1.00  0.00     0.201 C 
ATOM      9  O   UNL     1     -13.768   9.173  -6.894  1.00  0.00    -0.288 OA
ATOM     10  C   UNL     1     -14.685   7.482  -5.489  1.00  0.00     0.076 A 
ATOM     11  C   UNL     1     -15.539   7.184  -4.403  1.00  0.00     0.041 A 
ATOM     12  C   UNL     1     -16.265   8.271  -3.706  1.00  0.00     0.194 C 
ATOM     13  O   UNL     1     -17.027   7.996  -2.739  1.00  0.00    -0.289 OA
ATOM     14  C   UNL     1     -15.699   5.850  -3.985  1.00  0.00     0.059 A 
ATOM     15  C   UNL     1     -15.020   4.816  -4.633  1.00  0.00     0.120 A 
ATOM     16  C   UNL     1     -14.176   5.104  -5.704  1.00  0.00     0.093 A 
ATOM     17  C   UNL     1     -14.002   6.424  -6.138  1.00  0.00     0.131 A 
ENDROOT
BRANCH   6  18
ATOM     18  O   UNL     1     -14.264  11.703  -6.664  1.00  0.00    -0.507 OA
ATOM     19  H   UNL     1     -13.404  12.217  -6.513  1.00  0.00     0.293 HD
ENDBRANCH   6  18
BRANCH  17  20
ATOM     20  O   UNL     1     -13.149   6.677  -7.213  1.00  0.00    -0.507 OA
ATOM     21  H   UNL     1     -12.956   7.620  -7.532  1.00  0.00     0.293 HD
ENDBRANCH  17  20
BRANCH  15  22
ATOM     22  O   UNL     1     -15.177   3.494  -4.220  1.00  0.00    -0.508 OA
ATOM     23  H   UNL     1     -16.053   3.001  -4.343  1.00  0.00     0.293 HD
ENDBRANCH  15  22
TORSDOF 3
ENDMDL
MODEL 4
REMARK VINA RESULT:    -6.613      1.466      3.407
REMARK INTER + INTRA:          -7.193
REMARK INTER:                  -7.193
REMARK INTRA:                   0.000
REMARK UNBOUND:                 0.000
REMARK SMILES Cc1cc(O)c2c(c1)C(=O)c1cc(O)cc(O)c1C2=O
REMARK SMILES IDX 1 1 2 2 8 3 7 4 6 5 4 6 3 7 19 8 20 9 18 10 11 11 9 12 10 13
REMARK SMILES IDX 12 14 13 15 15 16 16 17 5 18 17 20 14 22
REMARK H PARENT 5 19 17 21 14 23
REMARK Flexibility Score: inf
ROOT
ATOM      1  C   UNL     1     -14.568   3.779  -4.624  1.00  0.00     0.044 C 
ATOM      2  C   UNL     1     -14.495   5.242  -4.954  1.00  0.00    -0.047 A 
ATOM      3  C   UNL     1     -15.257   6.166  -4.231  1.00  0.00     0.016 A 
ATOM      4  C   UNL     1     -15.224   7.534  -4.554  1.00  0.00     0.038 A 
ATOM      5  C   UNL     1     -14.425   7.984  -5.628  1.00  0.00     0.076 A 
ATOM      6  C   UNL     1     -13.672   7.040  -6.369  1.00  0.00     0.127 A 
ATOM      7  C   UNL     1     -13.718   5.682  -6.030  1.00  0.00     0.050 A 
ATOM      8  C   UNL     1     -14.397   9.437  -5.959  1.00  0.00     0.201 C 
ATOM      9  O   UNL     1     -13.679   9.847  -6.911  1.00  0.00    -0.288 OA
ATOM     10  C   UNL     1     -15.207  10.409  -5.173  1.00  0.00     0.076 A 
ATOM     11  C   UNL     1     -16.004   9.941  -4.104  1.00  0.00     0.041 A 
ATOM     12  C   UNL     1     -16.029   8.498  -3.770  1.00  0.00     0.194 C 
ATOM     13  O   UNL     1     -16.742   8.089  -2.813  1.00  0.00    -0.289 OA
ATOM     14  C   UNL     1     -16.773  10.850  -3.355  1.00  0.00     0.059 A 
ATOM     15  C   UNL     1     -16.757  12.214  -3.658  1.00  0.00     0.120 A 
ATOM     16  C   UNL     1     -15.973  12.681  -4.712  1.00  0.00     0.093 A 
ATOM     17  C   UNL     1     -15.199  11.794  -5.471  1.00  0.00     0.131 A 
ENDROOT
BRANCH   6  18
ATOM     18  O   UNL     1     -12.878   7.443  -7.443  1.00  0.00    -0.507 OA
ATOM     19  H   UNL     1     -13.196   7.363  -8.402  1.00  0.00     0.293 HD
ENDBRANCH   6  18
BRANCH  17  20
ATOM     20  O   UNL     1     -14.427  12.296  -6.520  1.00  0.00    -0.507 OA
ATOM     21  H   UNL     1     -14.103  11.704  -7.275  1.00  0.00     0.293 HD
ENDBRANCH  17  20
BRANCH  15  22
ATOM     22  O   UNL     1     -17.518  13.115  -2.917  1.00  0.00    -0.508 OA
ATOM     23  H   UNL     1     -18.096  12.811  -2.142  1.00  0.00     0.293 HD
ENDBRANCH  15  22
TORSDOF 3
ENDMDL
MODEL 5
REMARK VINA RESULT:    -5.421      1.754      5.649
REMARK INTER + INTRA:          -5.896
REMARK INTER:                  -5.896
REMARK INTRA:                   0.000
REMARK UNBOUND:                 0.000
REMARK SMILES Cc1cc(O)c2c(c1)C(=O)c1cc(O)cc(O)c1C2=O
REMARK SMILES IDX 1 1 2 2 8 3 7 4 6 5 4 6 3 7 19 8 20 9 18 10 11 11 9 12 10 13
REMARK SMILES IDX 12 14 13 15 15 16 16 17 5 18 17 20 14 22
REMARK H PARENT 5 19 17 21 14 23
REMARK Flexibility Score: inf
ROOT
ATOM      1  C   UNL     1     -15.636  11.903  -5.194  1.00  0.00     0.044 C 
ATOM      2  C   UNL     1     -15.618  10.419  -4.972  1.00  0.00    -0.047 A 
ATOM      3  C   UNL     1     -14.953   9.580  -5.873  1.00  0.00     0.016 A 
ATOM      4  C   UNL     1     -14.959   8.184  -5.694  1.00  0.00     0.038 A 
ATOM      5  C   UNL     1     -15.654   7.618  -4.603  1.00  0.00     0.076 A 
ATOM      6  C   UNL     1     -16.342   8.472  -3.707  1.00  0.00     0.127 A 
ATOM      7  C   UNL     1     -16.322   9.859  -3.902  1.00  0.00     0.050 A 
ATOM      8  C   UNL     1     -15.651   6.139  -4.423  1.00  0.00     0.201 C 
ATOM      9  O   UNL     1     -16.263   5.627  -3.446  1.00  0.00    -0.288 OA
ATOM     10  C   UNL     1     -14.930   5.260  -5.386  1.00  0.00     0.076 A 
ATOM     11  C   UNL     1     -14.243   5.843  -6.475  1.00  0.00     0.041 A 
ATOM     12  C   UNL     1     -14.241   7.314  -6.652  1.00  0.00     0.194 C 
ATOM     13  O   UNL     1     -13.623   7.827  -7.626  1.00  0.00    -0.289 OA
ATOM     14  C   UNL     1     -13.559   5.023  -7.390  1.00  0.00     0.059 A 
ATOM     15  C   UNL     1     -13.552   3.635  -7.234  1.00  0.00     0.120 A 
ATOM     16  C   UNL     1     -14.229   3.054  -6.163  1.00  0.00     0.093 A 
ATOM     17  C   UNL     1     -14.917   3.851  -5.238  1.00  0.00     0.131 A 
ENDROOT
BRANCH   6  18
ATOM     18  O   UNL     1     -17.049   7.952  -2.622  1.00  0.00    -0.507 OA
ATOM     19  H   UNL     1     -17.277   6.967  -2.556  1.00  0.00     0.293 HD
ENDBRANCH   6  18
BRANCH  17  20
ATOM     20  O   UNL     1     -15.584   3.236  -4.178  1.00  0.00    -0.507 OA
ATOM     21  H   UNL     1     -16.208   3.752  -3.569  1.00  0.00     0.293 HD
ENDBRANCH  17  20
BRANCH  15  22
ATOM     22  O   UNL     1     -12.875   2.821  -8.140  1.00  0.00    -0.508 OA
ATOM     23  H   UNL     1     -11.973   2.416  -7.918  1.00  0.00     0.293 HD
ENDBRANCH  15  22
TORSDOF 3
ENDMDL
MODEL 6
REMARK VINA RESULT:    -5.326      3.919      6.639
REMARK INTER + INTRA:          -5.793
REMARK INTER:                  -5.793
REMARK INTRA:                   0.000
REMARK UNBOUND:                 0.000
REMARK SMILES Cc1cc(O)c2c(c1)C(=O)c1cc(O)cc(O)c1C2=O
REMARK SMILES IDX 1 1 2 2 8 3 7 4 6 5 4 6 3 7 19 8 20 9 18 10 11 11 9 12 10 13
REMARK SMILES IDX 12 14 13 15 15 16 16 17 5 18 17 20 14 22
REMARK H PARENT 5 19 17 21 14 23
REMARK Flexibility Score: inf
ROOT
ATOM      1  C   UNL     1     -12.877  -2.330  -3.955  1.00  0.00     0.044 C 
ATOM      2  C   UNL     1     -13.026  -1.113  -4.819  1.00  0.00    -0.047 A 
ATOM      3  C   UNL     1     -13.349   0.122  -4.247  1.00  0.00     0.016 A 
ATOM      4  C   UNL     1     -13.526   1.263  -5.051  1.00  0.00     0.038 A 
ATOM      5  C   UNL     1     -13.390   1.163  -6.453  1.00  0.00     0.076 A 
ATOM      6  C   UNL     1     -13.084  -0.095  -7.027  1.00  0.00     0.127 A 
ATOM      7  C   UNL     1     -12.910  -1.218  -6.208  1.00  0.00     0.050 A 
ATOM      8  C   UNL     1     -13.579   2.379  -7.293  1.00  0.00     0.201 C 
ATOM      9  O   UNL     1     -13.451   2.299  -8.545  1.00  0.00    -0.288 OA
ATOM     10  C   UNL     1     -13.913   3.689  -6.667  1.00  0.00     0.076 A 
ATOM     11  C   UNL     1     -14.049   3.770  -5.263  1.00  0.00     0.041 A 
ATOM     12  C   UNL     1     -13.857   2.563  -4.425  1.00  0.00     0.194 C 
ATOM     13  O   UNL     1     -13.978   2.645  -3.172  1.00  0.00    -0.289 OA
ATOM     14  C   UNL     1     -14.364   5.002  -4.661  1.00  0.00     0.059 A 
ATOM     15  C   UNL     1     -14.546   6.148  -5.439  1.00  0.00     0.120 A 
ATOM     16  C   UNL     1     -14.414   6.073  -6.824  1.00  0.00     0.093 A 
ATOM     17  C   UNL     1     -14.100   4.858  -7.446  1.00  0.00     0.131 A 
ENDROOT
BRANCH   6  18
ATOM     18  O   UNL     1     -12.952  -0.238  -8.409  1.00  0.00    -0.507 OA
ATOM     19  H   UNL     1     -13.326  -1.040  -8.901  1.00  0.00     0.293 HD
ENDBRANCH   6  18
BRANCH  17  20
ATOM     20  O   UNL     1     -13.977   4.819  -8.835  1.00  0.00    -0.507 OA
ATOM     21  H   UNL     1     -13.724   3.970  -9.326  1.00  0.00     0.293 HD
ENDBRANCH  17  20
BRANCH  15  22
ATOM     22  O   UNL     1     -14.859   7.368  -4.844  1.00  0.00    -0.508 OA
ATOM     23  H   UNL     1     -14.588   8.249  -5.266  1.00  0.00     0.293 HD
ENDBRANCH  15  22
TORSDOF 3
ENDMDL
MODEL 7
REMARK VINA RESULT:    -5.277      4.025      8.412
REMARK INTER + INTRA:          -5.740
REMARK INTER:                  -5.740
REMARK INTRA:                   0.000
REMARK UNBOUND:                 0.000
REMARK SMILES Cc1cc(O)c2c(c1)C(=O)c1cc(O)cc(O)c1C2=O
REMARK SMILES IDX 1 1 2 2 8 3 7 4 6 5 4 6 3 7 19 8 20 9 18 10 11 11 9 12 10 13
REMARK SMILES IDX 12 14 13 15 15 16 16 17 5 18 17 20 14 22
REMARK H PARENT 5 19 17 21 14 23
REMARK Flexibility Score: inf
ROOT
ATOM      1  C   UNL     1     -14.612   7.578  -4.674  1.00  0.00     0.044 C 
ATOM      2  C   UNL     1     -14.387   6.255  -5.346  1.00  0.00    -0.047 A 
ATOM      3  C   UNL     1     -14.192   5.100  -4.581  1.00  0.00     0.016 A 
ATOM      4  C   UNL     1     -13.945   3.861  -5.199  1.00  0.00     0.038 A 
ATOM      5  C   UNL     1     -13.879   3.778  -6.607  1.00  0.00     0.076 A 
ATOM      6  C   UNL     1     -14.056   4.955  -7.375  1.00  0.00     0.127 A 
ATOM      7  C   UNL     1     -14.303   6.179  -6.739  1.00  0.00     0.050 A 
ATOM      8  C   UNL     1     -13.618   2.459  -7.250  1.00  0.00     0.201 C 
ATOM      9  O   UNL     1     -13.566   2.377  -8.507  1.00  0.00    -0.288 OA
ATOM     10  C   UNL     1     -13.422   1.238  -6.421  1.00  0.00     0.076 A 
ATOM     11  C   UNL     1     -13.489   1.339  -5.013  1.00  0.00     0.041 A 
ATOM     12  C   UNL     1     -13.752   2.648  -4.372  1.00  0.00     0.194 C 
ATOM     13  O   UNL     1     -13.812   2.730  -3.114  1.00  0.00    -0.289 OA
ATOM     14  C   UNL     1     -13.306   0.191  -4.219  1.00  0.00     0.059 A 
ATOM     15  C   UNL     1     -13.057  -1.049  -4.811  1.00  0.00     0.120 A 
ATOM     16  C   UNL     1     -12.990  -1.155  -6.199  1.00  0.00     0.093 A 
ATOM     17  C   UNL     1     -13.170  -0.026  -7.009  1.00  0.00     0.131 A 
ENDROOT
BRANCH   6  18
ATOM     18  O   UNL     1     -13.988   4.918  -8.768  1.00  0.00    -0.507 OA
ATOM     19  H   UNL     1     -13.712   4.081  -9.267  1.00  0.00     0.293 HD
ENDBRANCH   6  18
BRANCH  17  20
ATOM     20  O   UNL     1     -13.095  -0.168  -8.395  1.00  0.00    -0.507 OA
ATOM     21  H   UNL     1     -12.444   0.372  -8.953  1.00  0.00     0.293 HD
ENDBRANCH  17  20
BRANCH  15  22
ATOM     22  O   UNL     1     -12.875  -2.187  -4.027  1.00  0.00    -0.508 OA
ATOM     23  H   UNL     1     -12.036  -2.322  -3.475  1.00  0.00     0.293 HD
ENDBRANCH  15  22
TORSDOF 3
ENDMDL
MODEL 8
REMARK VINA RESULT:    -5.173      2.180      3.498
REMARK INTER + INTRA:          -5.626
REMARK INTER:                  -5.626
REMARK INTRA:                   0.000
REMARK UNBOUND:                 0.000
REMARK SMILES Cc1cc(O)c2c(c1)C(=O)c1cc(O)cc(O)c1C2=O
REMARK SMILES IDX 1 1 2 2 8 3 7 4 6 5 4 6 3 7 19 8 20 9 18 10 11 11 9 12 10 13
REMARK SMILES IDX 12 14 13 15 15 16 16 17 5 18 17 20 14 22
REMARK H PARENT 5 19 17 21 14 23
REMARK Flexibility Score: inf
ROOT
ATOM      1  C   UNL     1     -12.875   0.646  -8.294  1.00  0.00     0.044 C 
ATOM      2  C   UNL     1     -13.425   1.669  -7.344  1.00  0.00    -0.047 A 
ATOM      3  C   UNL     1     -13.598   2.994  -7.758  1.00  0.00     0.016 A 
ATOM      4  C   UNL     1     -14.080   3.969  -6.866  1.00  0.00     0.038 A 
ATOM      5  C   UNL     1     -14.381   3.615  -5.532  1.00  0.00     0.076 A 
ATOM      6  C   UNL     1     -14.183   2.276  -5.114  1.00  0.00     0.127 A 
ATOM      7  C   UNL     1     -13.704   1.320  -6.019  1.00  0.00     0.050 A 
ATOM      8  C   UNL     1     -14.892   4.657  -4.597  1.00  0.00     0.201 C 
ATOM      9  O   UNL     1     -15.170   4.345  -3.407  1.00  0.00    -0.288 OA
ATOM     10  C   UNL     1     -15.080   6.061  -5.056  1.00  0.00     0.076 A 
ATOM     11  C   UNL     1     -14.770   6.399  -6.393  1.00  0.00     0.041 A 
ATOM     12  C   UNL     1     -14.266   5.364  -7.325  1.00  0.00     0.194 C 
ATOM     13  O   UNL     1     -13.994   5.674  -8.518  1.00  0.00    -0.289 OA
ATOM     14  C   UNL     1     -14.944   7.722  -6.838  1.00  0.00     0.059 A 
ATOM     15  C   UNL     1     -15.419   8.708  -5.970  1.00  0.00     0.120 A 
ATOM     16  C   UNL     1     -15.725   8.380  -4.650  1.00  0.00     0.093 A 
ATOM     17  C   UNL     1     -15.561   7.069  -4.185  1.00  0.00     0.131 A 
ENDROOT
BRANCH   6  18
ATOM     18  O   UNL     1     -14.459   1.888  -3.802  1.00  0.00    -0.507 OA
ATOM     19  H   UNL     1     -13.721   1.669  -3.144  1.00  0.00     0.293 HD
ENDBRANCH   6  18
BRANCH  17  20
ATOM     20  O   UNL     1     -15.876   6.777  -2.857  1.00  0.00    -0.507 OA
ATOM     21  H   UNL     1     -16.715   7.134  -2.416  1.00  0.00     0.293 HD
ENDBRANCH  17  20
BRANCH  15  22
ATOM     22  O   UNL     1     -15.591  10.019  -6.409  1.00  0.00    -0.508 OA
ATOM     23  H   UNL     1     -15.941  10.226  -7.337  1.00  0.00     0.293 HD
ENDBRANCH  15  22
TORSDOF 3
ENDMDL
MODEL 9
REMARK VINA RESULT:    -4.821      5.505      8.454
REMARK INTER + INTRA:          -5.243
REMARK INTER:                  -5.243
REMARK INTRA:                   0.000
REMARK UNBOUND:                 0.000
REMARK SMILES Cc1cc(O)c2c(c1)C(=O)c1cc(O)cc(O)c1C2=O
REMARK SMILES IDX 1 1 2 2 8 3 7 4 6 5 4 6 3 7 19 8 20 9 18 10 11 11 9 12 10 13
REMARK SMILES IDX 12 14 13 15 15 16 16 17 5 18 17 20 14 22
REMARK H PARENT 5 19 17 21 14 23
REMARK Flexibility Score: inf
ROOT
ATOM      1  C   UNL     1     -13.196  -5.013  -8.001  1.00  0.00     0.044 C 
ATOM      2  C   UNL     1     -13.456  -3.789  -7.174  1.00  0.00    -0.047 A 
ATOM      3  C   UNL     1     -13.259  -2.515  -7.718  1.00  0.00     0.016 A 
ATOM      4  C   UNL     1     -13.465  -1.361  -6.941  1.00  0.00     0.038 A 
ATOM      5  C   UNL     1     -13.863  -1.484  -5.591  1.00  0.00     0.076 A 
ATOM      6  C   UNL     1     -14.039  -2.777  -5.041  1.00  0.00     0.127 A 
ATOM      7  C   UNL     1     -13.830  -3.913  -5.832  1.00  0.00     0.050 A 
ATOM      8  C   UNL     1     -14.080  -0.254  -4.779  1.00  0.00     0.201 C 
ATOM      9  O   UNL     1     -14.442  -0.356  -3.576  1.00  0.00    -0.288 OA
ATOM     10  C   UNL     1     -13.875   1.095  -5.377  1.00  0.00     0.076 A 
ATOM     11  C   UNL     1     -13.474   1.200  -6.728  1.00  0.00     0.041 A 
ATOM     12  C   UNL     1     -13.262  -0.022  -7.538  1.00  0.00     0.194 C 
ATOM     13  O   UNL     1     -12.906   0.080  -8.745  1.00  0.00    -0.289 OA
ATOM     14  C   UNL     1     -13.278   2.468  -7.303  1.00  0.00     0.059 A 
ATOM     15  C   UNL     1     -13.475   3.629  -6.551  1.00  0.00     0.120 A 
ATOM     16  C   UNL     1     -13.870   3.531  -5.218  1.00  0.00     0.093 A 
ATOM     17  C   UNL     1     -14.072   2.279  -4.624  1.00  0.00     0.131 A 
ENDROOT
BRANCH   6  18
ATOM     18  O   UNL     1     -14.421  -2.941  -3.708  1.00  0.00    -0.507 OA
ATOM     19  H   UNL     1     -14.243  -2.230  -3.010  1.00  0.00     0.293 HD
ENDBRANCH   6  18
BRANCH  17  20
ATOM     20  O   UNL     1     -14.466   2.219  -3.286  1.00  0.00    -0.507 OA
ATOM     21  H   UNL     1     -13.869   1.820  -2.571  1.00  0.00     0.293 HD
ENDBRANCH  17  20
BRANCH  15  22
ATOM     22  O   UNL     1     -13.281   4.886  -7.119  1.00  0.00    -0.508 OA
ATOM     23  H   UNL     1     -13.621   5.729  -6.671  1.00  0.00     0.293 HD
ENDBRANCH  15  22
TORSDOF 3
ENDMDL
