MODEL 1
REMARK VINA RESULT:    -5.362      0.000      0.000
REMARK INTER + INTRA:         -10.264
REMARK INTER:                  -9.436
REMARK INTRA:                  -0.828
REMARK UNBOUND:                -0.828
REMARK SMILES CCCCCCCCCCCCCCC(=O)[O-]
REMARK SMILES IDX 9 1 10 2 11 3 12 4 13 5 14 6 15 7 16 8 17 9 8 10 7 11 6 12
REMARK SMILES IDX 5 13 4 14 3 15 2 16 1 17
REMARK H PARENT
REMARK Flexibility Score: inf
ROOT
ATOM      1  C   UNL     1       6.285  -0.149  36.100  1.00  0.00     0.000 C 
ENDROOT
BRANCH   1   2
ATOM      2  C   UNL     1       7.281   0.987  36.391  1.00  0.00     0.000 C 
BRANCH   2   3
ATOM      3  C   UNL     1       8.733   0.617  36.037  1.00  0.00     0.000 C 
BRANCH   3   4
ATOM      4  C   UNL     1       9.814   1.394  36.810  1.00  0.00     0.000 C 
BRANCH   4   5
ATOM      5  C   UNL     1      10.891   1.997  35.896  1.00  0.00     0.006 C 
BRANCH   5   6
ATOM      6  C   UNL     1      12.233   1.283  36.084  1.00  0.00     0.053 C 
BRANCH   6   7
ATOM      7  C   UNL     1      12.836   0.943  34.757  1.00  0.00     0.041 C 
ATOM      8  O   UNL     1      13.077   1.851  33.920  1.00  0.00    -0.550 OA
ATOM      9  O   UNL     1      13.177  -0.372  34.465  1.00  0.00    -0.550 OA
ENDBRANCH   6   7
ENDBRANCH   5   6
ENDBRANCH   4   5
ENDBRANCH   3   4
ENDBRANCH   2   3
ENDBRANCH   1   2
BRANCH   1  10
ATOM     10  C   UNL     1       6.976  -1.452  35.659  1.00  0.00     0.000 C 
BRANCH  10  11
ATOM     11  C   UNL     1       6.380  -2.748  36.246  1.00  0.00    -0.000 C 
BRANCH  11  12
ATOM     12  C   UNL     1       4.948  -2.619  36.792  1.00  0.00    -0.000 C 
BRANCH  12  13
ATOM     13  C   UNL     1       4.553  -3.782  37.714  1.00  0.00    -0.000 C 
BRANCH  13  14
ATOM     14  C   UNL     1       3.458  -3.352  38.701  1.00  0.00    -0.000 C 
BRANCH  14  15
ATOM     15  C   UNL     1       2.523  -2.272  38.126  1.00  0.00    -0.000 C 
BRANCH  15  16
ATOM     16  C   UNL     1       2.478  -0.961  38.932  1.00  0.00    -0.003 C 
ATOM     17  C   UNL     1       3.259   0.174  38.271  1.00  0.00     0.004 C 
ENDBRANCH  15  16
ENDBRANCH  14  15
ENDBRANCH  13  14
ENDBRANCH  12  13
ENDBRANCH  11  12
ENDBRANCH  10  11
ENDBRANCH   1  10
TORSDOF 13
ENDMDL
MODEL 2
REMARK VINA RESULT:    -5.315      4.502      8.811
REMARK INTER + INTRA:         -10.182
REMARK INTER:                  -9.389
REMARK INTRA:                  -0.793
REMARK UNBOUND:                -0.828
REMARK SMILES CCCCCCCCCCCCCCC(=O)[O-]
REMARK SMILES IDX 9 1 10 2 11 3 12 4 13 5 14 6 15 7 16 8 17 9 8 10 7 11 6 12
REMARK SMILES IDX 5 13 4 14 3 15 2 16 1 17
REMARK H PARENT
REMARK Flexibility Score: inf
ROOT
ATOM      1  C   UNL     1       5.390   0.320  36.420  1.00  0.00     0.000 C 
ENDROOT
BRANCH   1   2
ATOM      2  C   UNL     1       4.458  -0.832  36.835  1.00  0.00     0.000 C 
BRANCH   2   3
ATOM      3  C   UNL     1       5.105  -2.218  36.665  1.00  0.00     0.000 C 
BRANCH   3   4
ATOM      4  C   UNL     1       4.542  -3.320  37.582  1.00  0.00     0.000 C 
BRANCH   4   5
ATOM      5  C   UNL     1       3.194  -2.946  38.213  1.00  0.00     0.006 C 
BRANCH   5   6
ATOM      6  C   UNL     1       3.224  -3.148  39.731  1.00  0.00     0.053 C 
BRANCH   6   7
ATOM      7  C   UNL     1       2.629  -1.965  40.429  1.00  0.00     0.041 C 
ATOM      8  O   UNL     1       2.713  -0.819  39.915  1.00  0.00    -0.550 OA
ATOM      9  O   UNL     1       1.940  -2.136  41.623  1.00  0.00    -0.550 OA
ENDBRANCH   6   7
ENDBRANCH   5   6
ENDBRANCH   4   5
ENDBRANCH   3   4
ENDBRANCH   2   3
ENDBRANCH   1   2
BRANCH   1  10
ATOM     10  C   UNL     1       6.777  -0.168  35.966  1.00  0.00     0.000 C 
BRANCH  10  11
ATOM     11  C   UNL     1       7.899   0.889  36.018  1.00  0.00    -0.000 C 
BRANCH  11  12
ATOM     12  C   UNL     1       9.120   0.591  35.131  1.00  0.00    -0.000 C 
BRANCH  12  13
ATOM     13  C   UNL     1       9.466   1.748  34.183  1.00  0.00    -0.000 C 
BRANCH  13  14
ATOM     14  C   UNL     1      10.933   1.671  33.735  1.00  0.00    -0.000 C 
BRANCH  14  15
ATOM     15  C   UNL     1      11.600   0.331  34.097  1.00  0.00    -0.000 C 
BRANCH  15  16
ATOM     16  C   UNL     1      12.954   0.457  34.819  1.00  0.00    -0.003 C 
ATOM     17  C   UNL     1      12.940   1.498  35.939  1.00  0.00     0.004 C 
ENDBRANCH  15  16
ENDBRANCH  14  15
ENDBRANCH  13  14
ENDBRANCH  12  13
ENDBRANCH  11  12
ENDBRANCH  10  11
ENDBRANCH   1  10
TORSDOF 13
ENDMDL
MODEL 3
REMARK VINA RESULT:    -5.308      1.867      2.730
REMARK INTER + INTRA:         -10.170
REMARK INTER:                  -9.495
REMARK INTRA:                  -0.675
REMARK UNBOUND:                -0.828
REMARK SMILES CCCCCCCCCCCCCCC(=O)[O-]
REMARK SMILES IDX 9 1 10 2 11 3 12 4 13 5 14 6 15 7 16 8 17 9 8 10 7 11 6 12
REMARK SMILES IDX 5 13 4 14 3 15 2 16 1 17
REMARK H PARENT
REMARK Flexibility Score: inf
ROOT
ATOM      1  C   UNL     1       5.844   0.358  36.374  1.00  0.00     0.000 C 
ENDROOT
BRANCH   1   2
ATOM      2  C   UNL     1       6.981  -0.469  35.751  1.00  0.00     0.000 C 
BRANCH   2   3
ATOM      3  C   UNL     1       8.147   0.400  35.246  1.00  0.00     0.000 C 
BRANCH   3   4
ATOM      4  C   UNL     1       8.582   0.133  33.793  1.00  0.00     0.000 C 
BRANCH   4   5
ATOM      5  C   UNL     1      10.067  -0.235  33.667  1.00  0.00     0.006 C 
BRANCH   5   6
ATOM      6  C   UNL     1      10.955   1.000  33.844  1.00  0.00     0.053 C 
BRANCH   6   7
ATOM      7  C   UNL     1      12.020   0.738  34.862  1.00  0.00     0.041 C 
ATOM      8  O   UNL     1      11.891   1.170  36.038  1.00  0.00    -0.550 OA
ATOM      9  O   UNL     1      13.131  -0.024  34.526  1.00  0.00    -0.550 OA
ENDBRANCH   6   7
ENDBRANCH   5   6
ENDBRANCH   4   5
ENDBRANCH   3   4
ENDBRANCH   2   3
ENDBRANCH   1   2
BRANCH   1  10
ATOM     10  C   UNL     1       4.637  -0.504  36.791  1.00  0.00     0.000 C 
BRANCH  10  11
ATOM     11  C   UNL     1       3.536   0.237  37.576  1.00  0.00    -0.000 C 
BRANCH  11  12
ATOM     12  C   UNL     1       2.737  -0.634  38.561  1.00  0.00    -0.000 C 
BRANCH  12  13
ATOM     13  C   UNL     1       3.031  -2.133  38.406  1.00  0.00    -0.000 C 
BRANCH  13  14
ATOM     14  C   UNL     1       3.040  -2.834  39.773  1.00  0.00    -0.000 C 
BRANCH  14  15
ATOM     15  C   UNL     1       2.526  -1.935  40.912  1.00  0.00    -0.000 C 
BRANCH  15  16
ATOM     16  C   UNL     1       1.194  -2.384  41.539  1.00  0.00    -0.003 C 
ATOM     17  C   UNL     1       0.016  -2.294  40.570  1.00  0.00     0.004 C 
ENDBRANCH  15  16
ENDBRANCH  14  15
ENDBRANCH  13  14
ENDBRANCH  12  13
ENDBRANCH  11  12
ENDBRANCH  10  11
ENDBRANCH   1  10
TORSDOF 13
ENDMDL
MODEL 4
REMARK VINA RESULT:    -5.252      2.222      3.817
REMARK INTER + INTRA:         -10.071
REMARK INTER:                  -9.153
REMARK INTRA:                  -0.918
REMARK UNBOUND:                -0.828
REMARK SMILES CCCCCCCCCCCCCCC(=O)[O-]
REMARK SMILES IDX 9 1 10 2 11 3 12 4 13 5 14 6 15 7 16 8 17 9 8 10 7 11 6 12
REMARK SMILES IDX 5 13 4 14 3 15 2 16 1 17
REMARK H PARENT
REMARK Flexibility Score: inf
ROOT
ATOM      1  C   UNL     1       9.472   1.797  35.050  1.00  0.00     0.000 C 
ENDROOT
BRANCH   1   2
ATOM      2  C   UNL     1      10.154   1.303  33.763  1.00  0.00     0.000 C 
BRANCH   2   3
ATOM      3  C   UNL     1      11.060   0.080  33.996  1.00  0.00     0.000 C 
BRANCH   3   4
ATOM      4  C   UNL     1      12.448   0.395  34.585  1.00  0.00     0.000 C 
BRANCH   4   5
ATOM      5  C   UNL     1      12.950   1.800  34.221  1.00  0.00     0.006 C 
BRANCH   5   6
ATOM      6  C   UNL     1      13.170   2.646  35.479  1.00  0.00     0.053 C 
BRANCH   6   7
ATOM      7  C   UNL     1      12.529   3.990  35.325  1.00  0.00     0.041 C 
ATOM      8  O   UNL     1      12.074   4.350  34.208  1.00  0.00    -0.550 OA
ATOM      9  O   UNL     1      12.392   4.825  36.426  1.00  0.00    -0.550 OA
ENDBRANCH   6   7
ENDBRANCH   5   6
ENDBRANCH   4   5
ENDBRANCH   3   4
ENDBRANCH   2   3
ENDBRANCH   1   2
BRANCH   1  10
ATOM     10  C   UNL     1       9.059   0.648  35.987  1.00  0.00     0.000 C 
BRANCH  10  11
ATOM     11  C   UNL     1       7.746  -0.070  35.613  1.00  0.00    -0.000 C 
BRANCH  11  12
ATOM     12  C   UNL     1       6.472   0.534  36.230  1.00  0.00    -0.000 C 
BRANCH  12  13
ATOM     13  C   UNL     1       5.346  -0.496  36.401  1.00  0.00    -0.000 C 
BRANCH  13  14
ATOM     14  C   UNL     1       5.877  -1.926  36.219  1.00  0.00    -0.000 C 
BRANCH  14  15
ATOM     15  C   UNL     1       4.813  -3.001  36.506  1.00  0.00    -0.000 C 
BRANCH  15  16
ATOM     16  C   UNL     1       4.731  -4.125  35.458  1.00  0.00    -0.003 C 
ATOM     17  C   UNL     1       5.886  -5.121  35.557  1.00  0.00     0.004 C 
ENDBRANCH  15  16
ENDBRANCH  14  15
ENDBRANCH  13  14
ENDBRANCH  12  13
ENDBRANCH  11  12
ENDBRANCH  10  11
ENDBRANCH   1  10
TORSDOF 13
ENDMDL
MODEL 5
REMARK VINA RESULT:    -5.209      1.417      2.417
REMARK INTER + INTRA:          -9.996
REMARK INTER:                  -8.942
REMARK INTRA:                  -1.054
REMARK UNBOUND:                -0.828
REMARK SMILES CCCCCCCCCCCCCCC(=O)[O-]
REMARK SMILES IDX 9 1 10 2 11 3 12 4 13 5 14 6 15 7 16 8 17 9 8 10 7 11 6 12
REMARK SMILES IDX 5 13 4 14 3 15 2 16 1 17
REMARK H PARENT
REMARK Flexibility Score: inf
ROOT
ATOM      1  C   UNL     1       6.353  -2.896  36.217  1.00  0.00     0.000 C 
ENDROOT
BRANCH   1   2
ATOM      2  C   UNL     1       6.174  -1.383  36.009  1.00  0.00     0.000 C 
BRANCH   2   3
ATOM      3  C   UNL     1       7.467  -0.683  35.549  1.00  0.00     0.000 C 
BRANCH   3   4
ATOM      4  C   UNL     1       7.637   0.767  36.039  1.00  0.00     0.000 C 
BRANCH   4   5
ATOM      5  C   UNL     1       9.071   1.291  35.879  1.00  0.00     0.006 C 
BRANCH   5   6
ATOM      6  C   UNL     1       9.387   1.585  34.410  1.00  0.00     0.053 C 
BRANCH   6   7
ATOM      7  C   UNL     1      10.583   0.803  33.964  1.00  0.00     0.041 C 
ATOM      8  O   UNL     1      10.446  -0.370  33.529  1.00  0.00    -0.550 OA
ATOM      9  O   UNL     1      11.843   1.388  33.984  1.00  0.00    -0.550 OA
ENDBRANCH   6   7
ENDBRANCH   5   6
ENDBRANCH   4   5
ENDBRANCH   3   4
ENDBRANCH   2   3
ENDBRANCH   1   2
BRANCH   1  10
ATOM     10  C   UNL     1       5.018  -3.630  36.443  1.00  0.00     0.000 C 
BRANCH  10  11
ATOM     11  C   UNL     1       4.532  -3.681  37.906  1.00  0.00    -0.000 C 
BRANCH  11  12
ATOM     12  C   UNL     1       3.235  -4.477  38.135  1.00  0.00    -0.000 C 
BRANCH  12  13
ATOM     13  C   UNL     1       2.407  -3.942  39.313  1.00  0.00    -0.000 C 
BRANCH  13  14
ATOM     14  C   UNL     1       3.068  -2.700  39.930  1.00  0.00    -0.000 C 
BRANCH  14  15
ATOM     15  C   UNL     1       2.207  -1.432  39.793  1.00  0.00    -0.000 C 
BRANCH  15  16
ATOM     16  C   UNL     1       2.137  -0.847  38.371  1.00  0.00    -0.003 C 
ATOM     17  C   UNL     1       3.369  -0.020  38.003  1.00  0.00     0.004 C 
ENDBRANCH  15  16
ENDBRANCH  14  15
ENDBRANCH  13  14
ENDBRANCH  12  13
ENDBRANCH  11  12
ENDBRANCH  10  11
ENDBRANCH   1  10
TORSDOF 13
ENDMDL
MODEL 6
REMARK VINA RESULT:    -5.207      2.376      4.238
REMARK INTER + INTRA:          -9.991
REMARK INTER:                  -8.512
REMARK INTRA:                  -1.479
REMARK UNBOUND:                -0.828
REMARK SMILES CCCCCCCCCCCCCCC(=O)[O-]
REMARK SMILES IDX 9 1 10 2 11 3 12 4 13 5 14 6 15 7 16 8 17 9 8 10 7 11 6 12
REMARK SMILES IDX 5 13 4 14 3 15 2 16 1 17
REMARK H PARENT
REMARK Flexibility Score: inf
ROOT
ATOM      1  C   UNL     1       3.746  -3.883  37.209  1.00  0.00     0.000 C 
ENDROOT
BRANCH   1   2
ATOM      2  C   UNL     1       5.075  -3.115  37.308  1.00  0.00     0.000 C 
BRANCH   2   3
ATOM      3  C   UNL     1       5.774  -2.945  35.946  1.00  0.00     0.000 C 
BRANCH   3   4
ATOM      4  C   UNL     1       7.115  -2.190  35.987  1.00  0.00     0.000 C 
BRANCH   4   5
ATOM      5  C   UNL     1       6.979  -0.703  35.627  1.00  0.00     0.006 C 
BRANCH   5   6
ATOM      6  C   UNL     1       8.213  -0.208  34.867  1.00  0.00     0.053 C 
BRANCH   6   7
ATOM      7  C   UNL     1       8.590   1.168  35.320  1.00  0.00     0.041 C 
ATOM      8  O   UNL     1       8.578   1.457  36.545  1.00  0.00    -0.550 OA
ATOM      9  O   UNL     1       9.000   2.117  34.392  1.00  0.00    -0.550 OA
ENDBRANCH   6   7
ENDBRANCH   5   6
ENDBRANCH   4   5
ENDBRANCH   3   4
ENDBRANCH   2   3
ENDBRANCH   1   2
BRANCH   1  10
ATOM     10  C   UNL     1       3.414  -4.669  38.490  1.00  0.00     0.000 C 
BRANCH  10  11
ATOM     11  C   UNL     1       2.408  -3.988  39.441  1.00  0.00    -0.000 C 
BRANCH  11  12
ATOM     12  C   UNL     1       3.027  -3.004  40.449  1.00  0.00    -0.000 C 
BRANCH  12  13
ATOM     13  C   UNL     1       2.499  -1.571  40.287  1.00  0.00    -0.000 C 
BRANCH  13  14
ATOM     14  C   UNL     1       1.479  -1.489  39.141  1.00  0.00    -0.000 C 
BRANCH  14  15
ATOM     15  C   UNL     1       1.959  -0.608  37.973  1.00  0.00    -0.000 C 
BRANCH  15  16
ATOM     16  C   UNL     1       3.329   0.060  38.188  1.00  0.00    -0.003 C 
ATOM     17  C   UNL     1       4.024   0.436  36.880  1.00  0.00     0.004 C 
ENDBRANCH  15  16
ENDBRANCH  14  15
ENDBRANCH  13  14
ENDBRANCH  12  13
ENDBRANCH  11  12
ENDBRANCH  10  11
ENDBRANCH   1  10
TORSDOF 13
ENDMDL
MODEL 7
REMARK VINA RESULT:    -5.206      1.514      2.398
REMARK INTER + INTRA:          -9.989
REMARK INTER:                  -9.263
REMARK INTRA:                  -0.727
REMARK UNBOUND:                -0.828
REMARK SMILES CCCCCCCCCCCCCCC(=O)[O-]
REMARK SMILES IDX 9 1 10 2 11 3 12 4 13 5 14 6 15 7 16 8 17 9 8 10 7 11 6 12
REMARK SMILES IDX 5 13 4 14 3 15 2 16 1 17
REMARK H PARENT
REMARK Flexibility Score: inf
ROOT
ATOM      1  C   UNL     1       6.001   0.369  36.355  1.00  0.00     0.000 C 
ENDROOT
BRANCH   1   2
ATOM      2  C   UNL     1       7.082  -0.398  35.575  1.00  0.00     0.000 C 
BRANCH   2   3
ATOM      3  C   UNL     1       8.358   0.431  35.344  1.00  0.00     0.000 C 
BRANCH   3   4
ATOM      4  C   UNL     1       8.746   1.372  36.499  1.00  0.00     0.000 C 
BRANCH   4   5
ATOM      5  C   UNL     1      10.223   1.793  36.461  1.00  0.00     0.006 C 
BRANCH   5   6
ATOM      6  C   UNL     1      10.787   1.688  35.041  1.00  0.00     0.053 C 
BRANCH   6   7
ATOM      7  C   UNL     1      12.108   0.986  35.052  1.00  0.00     0.041 C 
ATOM      8  O   UNL     1      12.299  -0.016  34.316  1.00  0.00    -0.550 OA
ATOM      9  O   UNL     1      13.145   1.469  35.840  1.00  0.00    -0.550 OA
ENDBRANCH   6   7
ENDBRANCH   5   6
ENDBRANCH   4   5
ENDBRANCH   3   4
ENDBRANCH   2   3
ENDBRANCH   1   2
BRANCH   1  10
ATOM     10  C   UNL     1       4.804  -0.517  36.748  1.00  0.00     0.000 C 
BRANCH  10  11
ATOM     11  C   UNL     1       3.705   0.185  37.571  1.00  0.00    -0.000 C 
BRANCH  11  12
ATOM     12  C   UNL     1       2.636  -0.750  38.164  1.00  0.00    -0.000 C 
BRANCH  12  13
ATOM     13  C   UNL     1       3.030  -2.232  38.086  1.00  0.00    -0.000 C 
BRANCH  13  14
ATOM     14  C   UNL     1       2.403  -3.028  39.240  1.00  0.00    -0.000 C 
BRANCH  14  15
ATOM     15  C   UNL     1       2.952  -2.618  40.619  1.00  0.00    -0.000 C 
BRANCH  15  16
ATOM     16  C   UNL     1       1.913  -1.995  41.568  1.00  0.00    -0.003 C 
ATOM     17  C   UNL     1       0.471  -2.301  41.162  1.00  0.00     0.004 C 
ENDBRANCH  15  16
ENDBRANCH  14  15
ENDBRANCH  13  14
ENDBRANCH  12  13
ENDBRANCH  11  12
ENDBRANCH  10  11
ENDBRANCH   1  10
TORSDOF 13
ENDMDL
MODEL 8
REMARK VINA RESULT:    -5.189      3.510      8.157
REMARK INTER + INTRA:          -9.959
REMARK INTER:                  -8.849
REMARK INTRA:                  -1.110
REMARK UNBOUND:                -0.828
REMARK SMILES CCCCCCCCCCCCCCC(=O)[O-]
REMARK SMILES IDX 9 1 10 2 11 3 12 4 13 5 14 6 15 7 16 8 17 9 8 10 7 11 6 12
REMARK SMILES IDX 5 13 4 14 3 15 2 16 1 17
REMARK H PARENT
REMARK Flexibility Score: inf
ROOT
ATOM      1  C   UNL     1       8.573   0.623  34.256  1.00  0.00     0.000 C 
ENDROOT
BRANCH   1   2
ATOM      2  C   UNL     1       8.471   0.546  35.789  1.00  0.00     0.000 C 
BRANCH   2   3
ATOM      3  C   UNL     1       7.035   0.755  36.306  1.00  0.00     0.000 C 
BRANCH   3   4
ATOM      4  C   UNL     1       6.055  -0.392  36.000  1.00  0.00     0.000 C 
BRANCH   4   5
ATOM      5  C   UNL     1       6.731  -1.771  35.977  1.00  0.00     0.006 C 
BRANCH   5   6
ATOM      6  C   UNL     1       5.718  -2.883  36.262  1.00  0.00     0.053 C 
BRANCH   6   7
ATOM      7  C   UNL     1       5.953  -4.051  35.356  1.00  0.00     0.041 C 
ATOM      8  O   UNL     1       6.364  -3.867  34.180  1.00  0.00    -0.550 OA
ATOM      9  O   UNL     1       5.765  -5.344  35.825  1.00  0.00    -0.550 OA
ENDBRANCH   6   7
ENDBRANCH   5   6
ENDBRANCH   4   5
ENDBRANCH   3   4
ENDBRANCH   2   3
ENDBRANCH   1   2
BRANCH   1  10
ATOM     10  C   UNL     1       9.984   1.002  33.769  1.00  0.00     0.000 C 
BRANCH  10  11
ATOM     11  C   UNL     1      11.055  -0.096  33.927  1.00  0.00    -0.000 C 
BRANCH  11  12
ATOM     12  C   UNL     1      12.391   0.376  34.527  1.00  0.00    -0.000 C 
BRANCH  12  13
ATOM     13  C   UNL     1      12.210   1.222  35.796  1.00  0.00    -0.000 C 
BRANCH  13  14
ATOM     14  C   UNL     1      13.140   2.444  35.778  1.00  0.00    -0.000 C 
BRANCH  14  15
ATOM     15  C   UNL     1      12.398   3.759  35.477  1.00  0.00    -0.000 C 
BRANCH  15  16
ATOM     16  C   UNL     1      12.278   4.106  33.982  1.00  0.00    -0.003 C 
ATOM     17  C   UNL     1      13.491   3.662  33.166  1.00  0.00     0.004 C 
ENDBRANCH  15  16
ENDBRANCH  14  15
ENDBRANCH  13  14
ENDBRANCH  12  13
ENDBRANCH  11  12
ENDBRANCH  10  11
ENDBRANCH   1  10
TORSDOF 13
ENDMDL
MODEL 9
REMARK VINA RESULT:    -5.187      1.367      2.779
REMARK INTER + INTRA:          -9.957
REMARK INTER:                  -8.722
REMARK INTRA:                  -1.235
REMARK UNBOUND:                -0.828
REMARK SMILES CCCCCCCCCCCCCCC(=O)[O-]
REMARK SMILES IDX 9 1 10 2 11 3 12 4 13 5 14 6 15 7 16 8 17 9 8 10 7 11 6 12
REMARK SMILES IDX 5 13 4 14 3 15 2 16 1 17
REMARK H PARENT
REMARK Flexibility Score: inf
ROOT
ATOM      1  C   UNL     1       5.894   0.414  36.395  1.00  0.00     0.000 C 
ENDROOT
BRANCH   1   2
ATOM      2  C   UNL     1       6.748  -0.779  35.934  1.00  0.00     0.000 C 
BRANCH   2   3
ATOM      3  C   UNL     1       8.071  -0.352  35.273  1.00  0.00     0.000 C 
BRANCH   3   4
ATOM      4  C   UNL     1       8.499   1.103  35.543  1.00  0.00     0.000 C 
BRANCH   4   5
ATOM      5  C   UNL     1       9.049   1.809  34.295  1.00  0.00     0.006 C 
BRANCH   5   6
ATOM      6  C   UNL     1      10.479   2.305  34.531  1.00  0.00     0.053 C 
BRANCH   6   7
ATOM      7  C   UNL     1      11.373   1.167  34.912  1.00  0.00     0.041 C 
ATOM      8  O   UNL     1      11.573   0.223  34.104  1.00  0.00    -0.550 OA
ATOM      9  O   UNL     1      12.022   1.174  36.139  1.00  0.00    -0.550 OA
ENDBRANCH   6   7
ENDBRANCH   5   6
ENDBRANCH   4   5
ENDBRANCH   3   4
ENDBRANCH   2   3
ENDBRANCH   1   2
BRANCH   1  10
ATOM     10  C   UNL     1       4.390   0.089  36.446  1.00  0.00     0.000 C 
BRANCH  10  11
ATOM     11  C   UNL     1       3.758   0.105  37.853  1.00  0.00    -0.000 C 
BRANCH  11  12
ATOM     12  C   UNL     1       2.228  -0.049  37.883  1.00  0.00    -0.000 C 
BRANCH  12  13
ATOM     13  C   UNL     1       1.774  -1.378  38.504  1.00  0.00    -0.000 C 
BRANCH  13  14
ATOM     14  C   UNL     1       2.980  -2.211  38.962  1.00  0.00    -0.000 C 
BRANCH  14  15
ATOM     15  C   UNL     1       3.220  -3.453  38.084  1.00  0.00    -0.000 C 
BRANCH  15  16
ATOM     16  C   UNL     1       4.593  -3.500  37.391  1.00  0.00    -0.003 C 
ATOM     17  C   UNL     1       4.494  -3.683  35.877  1.00  0.00     0.004 C 
ENDBRANCH  15  16
ENDBRANCH  14  15
ENDBRANCH  13  14
ENDBRANCH  12  13
ENDBRANCH  11  12
ENDBRANCH  10  11
ENDBRANCH   1  10
TORSDOF 13
ENDMDL
