MODEL 1
REMARK VINA RESULT:    -4.115      0.000      0.000
REMARK INTER + INTRA:          -5.965
REMARK INTER:                  -5.558
REMARK INTRA:                  -0.407
REMARK UNBOUND:                -0.407
REMARK SMILES CCCCCCCC(=O)[O-]
REMARK SMILES IDX 5 1 6 2 7 3 8 4 9 5 10 6 4 7 3 8 2 9 1 10
REMARK H PARENT
REMARK Flexibility Score: inf
ROOT
ATOM      1  C   UNL     1     117.951 165.618 121.038  1.00  0.00     0.000 C 
ENDROOT
BRANCH   1   2
ATOM      2  C   UNL     1     117.401 165.593 122.469  1.00  0.00     0.006 C 
BRANCH   2   3
ATOM      3  C   UNL     1     115.899 165.296 122.476  1.00  0.00     0.053 C 
BRANCH   3   4
ATOM      4  C   UNL     1     115.126 166.513 122.872  1.00  0.00     0.041 C 
ATOM      5  O   UNL     1     114.934 166.774 124.089  1.00  0.00    -0.550 OA
ATOM      6  O   UNL     1     114.658 167.388 121.899  1.00  0.00    -0.550 OA
ENDBRANCH   3   4
ENDBRANCH   2   3
ENDBRANCH   1   2
BRANCH   1   7
ATOM      7  C   UNL     1     117.692 164.285 120.325  1.00  0.00     0.000 C 
BRANCH   7   8
ATOM      8  C   UNL     1     116.972 164.507 118.987  1.00  0.00    -0.000 C 
BRANCH   8   9
ATOM      9  C   UNL     1     116.310 165.891 118.895  1.00  0.00    -0.003 C 
ATOM     10  C   UNL     1     116.510 166.552 117.531  1.00  0.00     0.004 C 
ENDBRANCH   8   9
ENDBRANCH   7   8
ENDBRANCH   1   7
TORSDOF 6
ENDMDL
MODEL 2
REMARK VINA RESULT:    -3.980      1.876      2.361
REMARK INTER + INTRA:          -5.783
REMARK INTER:                  -5.520
REMARK INTRA:                  -0.262
REMARK UNBOUND:                -0.407
REMARK SMILES CCCCCCCC(=O)[O-]
REMARK SMILES IDX 5 1 6 2 7 3 8 4 9 5 10 6 4 7 3 8 2 9 1 10
REMARK H PARENT
REMARK Flexibility Score: inf
ROOT
ATOM      1  C   UNL     1     116.204 165.500 121.734  1.00  0.00     0.000 C 
ENDROOT
BRANCH   1   2
ATOM      2  C   UNL     1     116.075 165.457 123.261  1.00  0.00     0.006 C 
BRANCH   2   3
ATOM      3  C   UNL     1     115.095 166.523 123.760  1.00  0.00     0.053 C 
BRANCH   3   4
ATOM      4  C   UNL     1     114.413 166.063 125.010  1.00  0.00     0.041 C 
ATOM      5  O   UNL     1     114.619 164.903 125.455  1.00  0.00    -0.550 OA
ATOM      6  O   UNL     1     113.588 166.933 125.712  1.00  0.00    -0.550 OA
ENDBRANCH   3   4
ENDBRANCH   2   3
ENDBRANCH   1   2
BRANCH   1   7
ATOM      7  C   UNL     1     115.381 166.651 121.143  1.00  0.00     0.000 C 
BRANCH   7   8
ATOM      8  C   UNL     1     115.279 166.527 119.617  1.00  0.00    -0.000 C 
BRANCH   8   9
ATOM      9  C   UNL     1     116.487 165.805 119.000  1.00  0.00    -0.003 C 
ATOM     10  C   UNL     1     116.554 165.956 117.480  1.00  0.00     0.004 C 
ENDBRANCH   8   9
ENDBRANCH   7   8
ENDBRANCH   1   7
TORSDOF 6
ENDMDL
MODEL 3
REMARK VINA RESULT:    -3.904     13.299     14.419
REMARK INTER + INTRA:          -5.681
REMARK INTER:                  -5.322
REMARK INTRA:                  -0.359
REMARK UNBOUND:                -0.407
REMARK SMILES CCCCCCCC(=O)[O-]
REMARK SMILES IDX 5 1 6 2 7 3 8 4 9 5 10 6 4 7 3 8 2 9 1 10
REMARK H PARENT
REMARK Flexibility Score: inf
ROOT
ATOM      1  C   UNL     1     120.389 179.244 124.464  1.00  0.00     0.000 C 
ENDROOT
BRANCH   1   2
ATOM      2  C   UNL     1     119.371 178.124 124.219  1.00  0.00     0.006 C 
BRANCH   2   3
ATOM      3  C   UNL     1     117.949 178.596 124.533  1.00  0.00     0.053 C 
BRANCH   3   4
ATOM      4  C   UNL     1     117.324 177.720 125.573  1.00  0.00     0.041 C 
ATOM      5  O   UNL     1     116.118 177.884 125.898  1.00  0.00    -0.550 OA
ATOM      6  O   UNL     1     118.058 176.691 126.148  1.00  0.00    -0.550 OA
ENDBRANCH   3   4
ENDBRANCH   2   3
ENDBRANCH   1   2
BRANCH   1   7
ATOM      7  C   UNL     1     120.152 179.918 125.821  1.00  0.00     0.000 C 
BRANCH   7   8
ATOM      8  C   UNL     1     120.874 179.162 126.944  1.00  0.00    -0.000 C 
BRANCH   8   9
ATOM      9  C   UNL     1     122.311 178.770 126.565  1.00  0.00    -0.003 C 
ATOM     10  C   UNL     1     123.349 179.295 127.557  1.00  0.00     0.004 C 
ENDBRANCH   8   9
ENDBRANCH   7   8
ENDBRANCH   1   7
TORSDOF 6
ENDMDL
MODEL 4
REMARK VINA RESULT:    -3.842     13.201     14.737
REMARK INTER + INTRA:          -5.597
REMARK INTER:                  -5.356
REMARK INTRA:                  -0.241
REMARK UNBOUND:                -0.407
REMARK SMILES CCCCCCCC(=O)[O-]
REMARK SMILES IDX 5 1 6 2 7 3 8 4 9 5 10 6 4 7 3 8 2 9 1 10
REMARK H PARENT
REMARK Flexibility Score: inf
ROOT
ATOM      1  C   UNL     1     116.201 178.142 126.360  1.00  0.00     0.000 C 
ENDROOT
BRANCH   1   2
ATOM      2  C   UNL     1     117.434 177.487 125.726  1.00  0.00     0.006 C 
BRANCH   2   3
ATOM      3  C   UNL     1     117.961 178.326 124.558  1.00  0.00     0.053 C 
BRANCH   3   4
ATOM      4  C   UNL     1     119.325 178.857 124.868  1.00  0.00     0.041 C 
ATOM      5  O   UNL     1     120.350 178.229 124.491  1.00  0.00    -0.550 OA
ATOM      6  O   UNL     1     119.465 180.070 125.530  1.00  0.00    -0.550 OA
ENDBRANCH   3   4
ENDBRANCH   2   3
ENDBRANCH   1   2
BRANCH   1   7
ATOM      7  C   UNL     1     115.449 179.007 125.340  1.00  0.00     0.000 C 
BRANCH   7   8
ATOM      8  C   UNL     1     114.042 179.355 125.845  1.00  0.00    -0.000 C 
BRANCH   8   9
ATOM      9  C   UNL     1     114.053 180.459 126.914  1.00  0.00    -0.003 C 
ATOM     10  C   UNL     1     112.647 180.892 127.331  1.00  0.00     0.004 C 
ENDBRANCH   8   9
ENDBRANCH   7   8
ENDBRANCH   1   7
TORSDOF 6
ENDMDL
MODEL 5
REMARK VINA RESULT:    -3.832     14.591     15.581
REMARK INTER + INTRA:          -5.584
REMARK INTER:                  -5.114
REMARK INTRA:                  -0.470
REMARK UNBOUND:                -0.407
REMARK SMILES CCCCCCCC(=O)[O-]
REMARK SMILES IDX 5 1 6 2 7 3 8 4 9 5 10 6 4 7 3 8 2 9 1 10
REMARK H PARENT
REMARK Flexibility Score: inf
ROOT
ATOM      1  C   UNL     1     123.819 177.461 121.948  1.00  0.00     0.000 C 
ENDROOT
BRANCH   1   2
ATOM      2  C   UNL     1     123.709 177.592 120.425  1.00  0.00     0.006 C 
BRANCH   2   3
ATOM      3  C   UNL     1     124.835 178.467 119.867  1.00  0.00     0.053 C 
BRANCH   3   4
ATOM      4  C   UNL     1     125.490 177.798 118.700  1.00  0.00     0.041 C 
ATOM      5  O   UNL     1     125.060 177.995 117.532  1.00  0.00    -0.550 OA
ATOM      6  O   UNL     1     126.607 176.995 118.896  1.00  0.00    -0.550 OA
ENDBRANCH   3   4
ENDBRANCH   2   3
ENDBRANCH   1   2
BRANCH   1   7
ATOM      7  C   UNL     1     125.137 176.789 122.351  1.00  0.00     0.000 C 
BRANCH   7   8
ATOM      8  C   UNL     1     125.573 177.230 123.755  1.00  0.00    -0.000 C 
BRANCH   8   9
ATOM      9  C   UNL     1     126.836 178.105 123.734  1.00  0.00    -0.003 C 
ATOM     10  C   UNL     1     127.513 178.133 122.363  1.00  0.00     0.004 C 
ENDBRANCH   8   9
ENDBRANCH   7   8
ENDBRANCH   1   7
TORSDOF 6
ENDMDL
MODEL 6
REMARK VINA RESULT:    -3.825     13.132     14.155
REMARK INTER + INTRA:          -5.574
REMARK INTER:                  -4.934
REMARK INTRA:                  -0.640
REMARK UNBOUND:                -0.407
REMARK SMILES CCCCCCCC(=O)[O-]
REMARK SMILES IDX 5 1 6 2 7 3 8 4 9 5 10 6 4 7 3 8 2 9 1 10
REMARK H PARENT
REMARK Flexibility Score: inf
ROOT
ATOM      1  C   UNL     1     120.220 179.846 125.756  1.00  0.00     0.000 C 
ENDROOT
BRANCH   1   2
ATOM      2  C   UNL     1     121.340 179.329 126.667  1.00  0.00     0.006 C 
BRANCH   2   3
ATOM      3  C   UNL     1     120.769 178.756 127.967  1.00  0.00     0.053 C 
BRANCH   3   4
ATOM      4  C   UNL     1     120.221 177.383 127.738  1.00  0.00     0.041 C 
ATOM      5  O   UNL     1     119.155 177.023 128.305  1.00  0.00    -0.550 OA
ATOM      6  O   UNL     1     120.860 176.516 126.860  1.00  0.00    -0.550 OA
ENDBRANCH   3   4
ENDBRANCH   2   3
ENDBRANCH   1   2
BRANCH   1   7
ATOM      7  C   UNL     1     120.225 179.116 124.407  1.00  0.00     0.000 C 
BRANCH   7   8
ATOM      8  C   UNL     1     118.952 178.274 124.233  1.00  0.00    -0.000 C 
BRANCH   8   9
ATOM      9  C   UNL     1     117.771 178.812 125.056  1.00  0.00    -0.003 C 
ATOM     10  C   UNL     1     116.940 177.698 125.695  1.00  0.00     0.004 C 
ENDBRANCH   8   9
ENDBRANCH   7   8
ENDBRANCH   1   7
TORSDOF 6
ENDMDL
MODEL 7
REMARK VINA RESULT:    -3.818     13.373     14.540
REMARK INTER + INTRA:          -5.564
REMARK INTER:                  -5.338
REMARK INTRA:                  -0.226
REMARK UNBOUND:                -0.407
REMARK SMILES CCCCCCCC(=O)[O-]
REMARK SMILES IDX 5 1 6 2 7 3 8 4 9 5 10 6 4 7 3 8 2 9 1 10
REMARK H PARENT
REMARK Flexibility Score: inf
ROOT
ATOM      1  C   UNL     1     118.854 179.491 125.431  1.00  0.00     0.000 C 
ENDROOT
BRANCH   1   2
ATOM      2  C   UNL     1     118.497 178.058 125.018  1.00  0.00     0.006 C 
BRANCH   2   3
ATOM      3  C   UNL     1     117.234 177.578 125.739  1.00  0.00     0.053 C 
BRANCH   3   4
ATOM      4  C   UNL     1     116.051 178.392 125.321  1.00  0.00     0.041 C 
ATOM      5  O   UNL     1     115.771 178.523 124.099  1.00  0.00    -0.550 OA
ATOM      6  O   UNL     1     115.226 178.965 126.281  1.00  0.00    -0.550 OA
ENDBRANCH   3   4
ENDBRANCH   2   3
ENDBRANCH   1   2
BRANCH   1   7
ATOM      7  C   UNL     1     120.372 179.709 125.408  1.00  0.00     0.000 C 
BRANCH   7   8
ATOM      8  C   UNL     1     121.014 179.244 126.722  1.00  0.00    -0.000 C 
BRANCH   8   9
ATOM      9  C   UNL     1     122.441 178.707 126.526  1.00  0.00    -0.003 C 
ATOM     10  C   UNL     1     123.442 179.314 127.510  1.00  0.00     0.004 C 
ENDBRANCH   8   9
ENDBRANCH   7   8
ENDBRANCH   1   7
TORSDOF 6
ENDMDL
MODEL 8
REMARK VINA RESULT:    -3.810     12.911     14.030
REMARK INTER + INTRA:          -5.553
REMARK INTER:                  -5.179
REMARK INTRA:                  -0.374
REMARK UNBOUND:                -0.407
REMARK SMILES CCCCCCCC(=O)[O-]
REMARK SMILES IDX 5 1 6 2 7 3 8 4 9 5 10 6 4 7 3 8 2 9 1 10
REMARK H PARENT
REMARK Flexibility Score: inf
ROOT
ATOM      1  C   UNL     1     118.128 176.989 126.113  1.00  0.00     0.000 C 
ENDROOT
BRANCH   1   2
ATOM      2  C   UNL     1     116.912 177.624 125.427  1.00  0.00     0.006 C 
BRANCH   2   3
ATOM      3  C   UNL     1     115.979 178.272 126.454  1.00  0.00     0.053 C 
BRANCH   3   4
ATOM      4  C   UNL     1     115.204 179.388 125.827  1.00  0.00     0.041 C 
ATOM      5  O   UNL     1     113.954 179.301 125.704  1.00  0.00    -0.550 OA
ATOM      6  O   UNL     1     115.857 180.546 125.422  1.00  0.00    -0.550 OA
ENDBRANCH   3   4
ENDBRANCH   2   3
ENDBRANCH   1   2
BRANCH   1   7
ATOM      7  C   UNL     1     119.427 177.362 125.389  1.00  0.00     0.000 C 
BRANCH   7   8
ATOM      8  C   UNL     1     119.282 178.700 124.652  1.00  0.00    -0.000 C 
BRANCH   8   9
ATOM      9  C   UNL     1     119.981 179.857 125.383  1.00  0.00    -0.003 C 
ATOM     10  C   UNL     1     120.906 179.376 126.501  1.00  0.00     0.004 C 
ENDBRANCH   8   9
ENDBRANCH   7   8
ENDBRANCH   1   7
TORSDOF 6
ENDMDL
MODEL 9
REMARK VINA RESULT:    -3.712     13.383     14.337
REMARK INTER + INTRA:          -5.422
REMARK INTER:                  -5.045
REMARK INTRA:                  -0.377
REMARK UNBOUND:                -0.407
REMARK SMILES CCCCCCCC(=O)[O-]
REMARK SMILES IDX 5 1 6 2 7 3 8 4 9 5 10 6 4 7 3 8 2 9 1 10
REMARK H PARENT
REMARK Flexibility Score: inf
ROOT
ATOM      1  C   UNL     1     118.124 177.886 125.523  1.00  0.00     0.000 C 
ENDROOT
BRANCH   1   2
ATOM      2  C   UNL     1     118.514 179.337 125.219  1.00  0.00     0.006 C 
BRANCH   2   3
ATOM      3  C   UNL     1     119.978 179.600 125.583  1.00  0.00     0.053 C 
BRANCH   3   4
ATOM      4  C   UNL     1     120.889 178.845 124.668  1.00  0.00     0.041 C 
ATOM      5  O   UNL     1     121.736 178.040 125.138  1.00  0.00    -0.550 OA
ATOM      6  O   UNL     1     120.770 178.992 123.291  1.00  0.00    -0.550 OA
ENDBRANCH   3   4
ENDBRANCH   2   3
ENDBRANCH   1   2
BRANCH   1   7
ATOM      7  C   UNL     1     116.607 177.748 125.702  1.00  0.00     0.000 C 
BRANCH   7   8
ATOM      8  C   UNL     1     115.852 178.505 124.601  1.00  0.00    -0.000 C 
BRANCH   8   9
ATOM      9  C   UNL     1     114.594 179.214 125.127  1.00  0.00    -0.003 C 
ATOM     10  C   UNL     1     114.801 179.840 126.507  1.00  0.00     0.004 C 
ENDBRANCH   8   9
ENDBRANCH   7   8
ENDBRANCH   1   7
TORSDOF 6
ENDMDL
