MODEL 1
REMARK VINA RESULT:    -4.112      0.000      0.000
REMARK INTER + INTRA:          -4.112
REMARK INTER:                  -4.112
REMARK INTRA:                   0.000
REMARK UNBOUND:                 0.000
REMARK SMILES CC1=CC[C@@H]2[C@H](C1)C2(C)C
REMARK SMILES IDX 1 1 2 2 3 3 4 4 5 5 6 6 7 7 8 8 9 9 10 10
REMARK H PARENT
REMARK Flexibility Score: inf
ROOT
ATOM      1  C   UNL     1      30.543  12.185  30.337  1.00  0.00     0.039 C 
ATOM      2  C   UNL     1      30.987  11.275  31.450  1.00  0.00    -0.077 C 
ATOM      3  C   UNL     1      32.004  11.650  32.244  1.00  0.00    -0.028 C 
ATOM      4  C   UNL     1      32.483  10.781  33.372  1.00  0.00     0.031 C 
ATOM      5  C   UNL     1      32.451   9.285  33.000  1.00  0.00     0.003 C 
ATOM      6  C   UNL     1      31.280   8.842  32.091  1.00  0.00     0.003 C 
ATOM      7  C   UNL     1      30.291   9.953  31.673  1.00  0.00     0.034 C 
ATOM      8  C   UNL     1      31.348   8.367  33.552  1.00  0.00    -0.029 C 
ATOM      9  C   UNL     1      30.340   8.899  34.590  1.00  0.00     0.012 C 
ATOM     10  C   UNL     1      31.764   6.902  33.728  1.00  0.00     0.012 C 
ENDROOT
TORSDOF 0
ENDMDL
MODEL 2
REMARK VINA RESULT:    -4.082      1.725      3.295
REMARK INTER + INTRA:          -4.082
REMARK INTER:                  -4.082
REMARK INTRA:                   0.000
REMARK UNBOUND:                 0.000
REMARK SMILES CC1=CC[C@@H]2[C@H](C1)C2(C)C
REMARK SMILES IDX 1 1 2 2 3 3 4 4 5 5 6 6 7 7 8 8 9 9 10 10
REMARK H PARENT
REMARK Flexibility Score: inf
ROOT
ATOM      1  C   UNL     1      31.439   6.026  29.938  1.00  0.00     0.039 C 
ATOM      2  C   UNL     1      31.164   7.193  30.848  1.00  0.00    -0.077 C 
ATOM      3  C   UNL     1      30.753   8.358  30.321  1.00  0.00    -0.028 C 
ATOM      4  C   UNL     1      30.458   9.552  31.185  1.00  0.00     0.031 C 
ATOM      5  C   UNL     1      31.449   9.669  32.361  1.00  0.00     0.003 C 
ATOM      6  C   UNL     1      31.923   8.332  32.978  1.00  0.00     0.003 C 
ATOM      7  C   UNL     1      31.344   7.050  32.341  1.00  0.00     0.034 C 
ATOM      8  C   UNL     1      31.020   9.280  33.786  1.00  0.00    -0.029 C 
ATOM      9  C   UNL     1      29.556   8.895  34.079  1.00  0.00     0.012 C 
ATOM     10  C   UNL     1      31.736  10.048  34.901  1.00  0.00     0.012 C 
ENDROOT
TORSDOF 0
ENDMDL
MODEL 3
REMARK VINA RESULT:    -4.078      1.415      4.364
REMARK INTER + INTRA:          -4.078
REMARK INTER:                  -4.078
REMARK INTRA:                   0.000
REMARK UNBOUND:                 0.000
REMARK SMILES CC1=CC[C@@H]2[C@H](C1)C2(C)C
REMARK SMILES IDX 1 1 2 2 3 3 4 4 5 5 6 6 7 7 8 8 9 9 10 10
REMARK H PARENT
REMARK Flexibility Score: inf
ROOT
ATOM      1  C   UNL     1      31.203   6.770  36.634  1.00  0.00     0.039 C 
ATOM      2  C   UNL     1      31.245   7.556  35.351  1.00  0.00    -0.077 C 
ATOM      3  C   UNL     1      31.425   6.911  34.187  1.00  0.00    -0.028 C 
ATOM      4  C   UNL     1      31.469   7.647  32.878  1.00  0.00     0.031 C 
ATOM      5  C   UNL     1      32.197   9.001  33.004  1.00  0.00     0.003 C 
ATOM      6  C   UNL     1      31.991   9.755  34.339  1.00  0.00     0.003 C 
ATOM      7  C   UNL     1      31.082   9.058  35.375  1.00  0.00     0.034 C 
ATOM      8  C   UNL     1      31.400  10.316  33.034  1.00  0.00    -0.029 C 
ATOM      9  C   UNL     1      29.875  10.307  32.805  1.00  0.00     0.012 C 
ATOM     10  C   UNL     1      32.145  11.528  32.466  1.00  0.00     0.012 C 
ENDROOT
TORSDOF 0
ENDMDL
MODEL 4
REMARK VINA RESULT:    -4.072      1.600      3.111
REMARK INTER + INTRA:          -4.072
REMARK INTER:                  -4.072
REMARK INTRA:                   0.000
REMARK UNBOUND:                 0.000
REMARK SMILES CC1=CC[C@@H]2[C@H](C1)C2(C)C
REMARK SMILES IDX 1 1 2 2 3 3 4 4 5 5 6 6 7 7 8 8 9 9 10 10
REMARK H PARENT
REMARK Flexibility Score: inf
ROOT
ATOM      1  C   UNL     1      30.055   7.961  29.179  1.00  0.00     0.039 C 
ATOM      2  C   UNL     1      30.630   8.166  30.554  1.00  0.00    -0.077 C 
ATOM      3  C   UNL     1      31.153   7.119  31.214  1.00  0.00    -0.028 C 
ATOM      4  C   UNL     1      31.745   7.270  32.586  1.00  0.00     0.031 C 
ATOM      5  C   UNL     1      30.945   8.266  33.452  1.00  0.00     0.003 C 
ATOM      6  C   UNL     1      30.344   9.478  32.702  1.00  0.00     0.003 C 
ATOM      7  C   UNL     1      30.622   9.539  31.184  1.00  0.00     0.034 C 
ATOM      8  C   UNL     1      31.485   9.682  33.713  1.00  0.00    -0.029 C 
ATOM      9  C   UNL     1      32.892  10.080  33.227  1.00  0.00     0.012 C 
ATOM     10  C   UNL     1      31.051  10.294  35.049  1.00  0.00     0.012 C 
ENDROOT
TORSDOF 0
ENDMDL
MODEL 5
REMARK VINA RESULT:    -4.021      4.538      5.827
REMARK INTER + INTRA:          -4.021
REMARK INTER:                  -4.021
REMARK INTRA:                   0.000
REMARK UNBOUND:                 0.000
REMARK SMILES CC1=CC[C@@H]2[C@H](C1)C2(C)C
REMARK SMILES IDX 1 1 2 2 3 3 4 4 5 5 6 6 7 7 8 8 9 9 10 10
REMARK H PARENT
REMARK Flexibility Score: inf
ROOT
ATOM      1  C   UNL     1      30.619   9.347  31.105  1.00  0.00     0.039 C 
ATOM      2  C   UNL     1      30.558   8.282  30.045  1.00  0.00    -0.077 C 
ATOM      3  C   UNL     1      31.225   7.130  30.227  1.00  0.00    -0.028 C 
ATOM      4  C   UNL     1      31.192   6.031  29.203  1.00  0.00     0.031 C 
ATOM      5  C   UNL     1      31.208   6.586  27.764  1.00  0.00     0.003 C 
ATOM      6  C   UNL     1      30.437   7.908  27.543  1.00  0.00     0.003 C 
ATOM      7  C   UNL     1      29.748   8.505  28.790  1.00  0.00     0.034 C 
ATOM      8  C   UNL     1      29.924   6.600  26.918  1.00  0.00    -0.029 C 
ATOM      9  C   UNL     1      28.636   5.939  27.448  1.00  0.00     0.012 C 
ATOM     10  C   UNL     1      30.152   6.482  25.407  1.00  0.00     0.012 C 
ENDROOT
TORSDOF 0
ENDMDL
MODEL 6
REMARK VINA RESULT:    -3.839      1.803      3.391
REMARK INTER + INTRA:          -3.839
REMARK INTER:                  -3.839
REMARK INTRA:                   0.000
REMARK UNBOUND:                 0.000
REMARK SMILES CC1=CC[C@@H]2[C@H](C1)C2(C)C
REMARK SMILES IDX 1 1 2 2 3 3 4 4 5 5 6 6 7 7 8 8 9 9 10 10
REMARK H PARENT
REMARK Flexibility Score: inf
ROOT
ATOM      1  C   UNL     1      32.554  10.939  33.301  1.00  0.00     0.039 C 
ATOM      2  C   UNL     1      32.002   9.622  33.777  1.00  0.00    -0.077 C 
ATOM      3  C   UNL     1      31.997   8.568  32.944  1.00  0.00    -0.028 C 
ATOM      4  C   UNL     1      31.463   7.230  33.371  1.00  0.00     0.031 C 
ATOM      5  C   UNL     1      30.218   7.369  34.272  1.00  0.00     0.003 C 
ATOM      6  C   UNL     1      30.218   8.576  35.239  1.00  0.00     0.003 C 
ATOM      7  C   UNL     1      31.463   9.488  35.181  1.00  0.00     0.034 C 
ATOM      8  C   UNL     1      30.325   7.143  35.789  1.00  0.00    -0.029 C 
ATOM      9  C   UNL     1      31.644   6.647  36.411  1.00  0.00     0.012 C 
ATOM     10  C   UNL     1      29.045   6.616  36.448  1.00  0.00     0.012 C 
ENDROOT
TORSDOF 0
ENDMDL
MODEL 7
REMARK VINA RESULT:    -3.767      1.799      2.710
REMARK INTER + INTRA:          -3.767
REMARK INTER:                  -3.767
REMARK INTRA:                   0.000
REMARK UNBOUND:                 0.000
REMARK SMILES CC1=CC[C@@H]2[C@H](C1)C2(C)C
REMARK SMILES IDX 1 1 2 2 3 3 4 4 5 5 6 6 7 7 8 8 9 9 10 10
REMARK H PARENT
REMARK Flexibility Score: inf
ROOT
ATOM      1  C   UNL     1      30.862   7.602  29.578  1.00  0.00     0.039 C 
ATOM      2  C   UNL     1      30.817   7.891  31.054  1.00  0.00    -0.077 C 
ATOM      3  C   UNL     1      30.902   9.162  31.482  1.00  0.00    -0.028 C 
ATOM      4  C   UNL     1      30.856   9.505  32.943  1.00  0.00     0.031 C 
ATOM      5  C   UNL     1      31.605   8.465  33.802  1.00  0.00     0.003 C 
ATOM      6  C   UNL     1      31.507   6.998  33.322  1.00  0.00     0.003 C 
ATOM      7  C   UNL     1      30.671   6.760  32.045  1.00  0.00     0.034 C 
ATOM      8  C   UNL     1      30.826   7.431  34.631  1.00  0.00    -0.029 C 
ATOM      9  C   UNL     1      29.288   7.503  34.720  1.00  0.00     0.012 C 
ATOM     10  C   UNL     1      31.539   6.965  35.905  1.00  0.00     0.012 C 
ENDROOT
TORSDOF 0
ENDMDL
MODEL 8
REMARK VINA RESULT:    -3.731      1.236      2.327
REMARK INTER + INTRA:          -3.731
REMARK INTER:                  -3.731
REMARK INTRA:                   0.000
REMARK UNBOUND:                 0.000
REMARK SMILES CC1=CC[C@@H]2[C@H](C1)C2(C)C
REMARK SMILES IDX 1 1 2 2 3 3 4 4 5 5 6 6 7 7 8 8 9 9 10 10
REMARK H PARENT
REMARK Flexibility Score: inf
ROOT
ATOM      1  C   UNL     1      32.251  12.250  31.474  1.00  0.00     0.039 C 
ATOM      2  C   UNL     1      31.646  11.167  32.327  1.00  0.00    -0.077 C 
ATOM      3  C   UNL     1      30.321  10.950  32.278  1.00  0.00    -0.028 C 
ATOM      4  C   UNL     1      29.669   9.879  33.104  1.00  0.00     0.031 C 
ATOM      5  C   UNL     1      30.308   9.761  34.503  1.00  0.00     0.003 C 
ATOM      6  C   UNL     1      31.834  10.004  34.569  1.00  0.00     0.003 C 
ATOM      7  C   UNL     1      32.525  10.330  33.226  1.00  0.00     0.034 C 
ATOM      8  C   UNL     1      31.261   8.600  34.831  1.00  0.00    -0.029 C 
ATOM      9  C   UNL     1      31.486   7.466  33.811  1.00  0.00     0.012 C 
ATOM     10  C   UNL     1      31.266   8.174  36.303  1.00  0.00     0.012 C 
ENDROOT
TORSDOF 0
ENDMDL
MODEL 9
REMARK VINA RESULT:    -3.722      5.304      7.011
REMARK INTER + INTRA:          -3.722
REMARK INTER:                  -3.722
REMARK INTRA:                   0.000
REMARK UNBOUND:                 0.000
REMARK SMILES CC1=CC[C@@H]2[C@H](C1)C2(C)C
REMARK SMILES IDX 1 1 2 2 3 3 4 4 5 5 6 6 7 7 8 8 9 9 10 10
REMARK H PARENT
REMARK Flexibility Score: inf
ROOT
ATOM      1  C   UNL     1      31.622   6.308  30.268  1.00  0.00     0.039 C 
ATOM      2  C   UNL     1      31.039   6.949  29.037  1.00  0.00    -0.077 C 
ATOM      3  C   UNL     1      30.014   7.809  29.162  1.00  0.00    -0.028 C 
ATOM      4  C   UNL     1      29.400   8.480  27.967  1.00  0.00     0.031 C 
ATOM      5  C   UNL     1      29.325   7.534  26.751  1.00  0.00     0.003 C 
ATOM      6  C   UNL     1      30.503   6.544  26.595  1.00  0.00     0.003 C 
ATOM      7  C   UNL     1      31.605   6.629  27.674  1.00  0.00     0.034 C 
ATOM      8  C   UNL     1      30.313   7.686  25.582  1.00  0.00    -0.029 C 
ATOM      9  C   UNL     1      31.302   8.867  25.548  1.00  0.00     0.012 C 
ATOM     10  C   UNL     1      29.763   7.246  24.221  1.00  0.00     0.012 C 
ENDROOT
TORSDOF 0
ENDMDL
