MODEL 1
REMARK VINA RESULT:    -3.277      0.000      0.000
REMARK INTER + INTRA:          -3.487
REMARK INTER:                  -3.468
REMARK INTRA:                  -0.019
REMARK UNBOUND:                -0.019
REMARK SMILES O=C([O-])c1cccnc1
REMARK SMILES IDX 4 1 5 2 9 3 6 4 8 5 7 6 2 7 1 8 3 9
REMARK H PARENT
REMARK Flexibility Score: inf
ROOT
ATOM      1  C   UNL     1      63.036  34.954  61.164  1.00  0.00     0.016 A 
ATOM      2  C   UNL     1      63.810  35.346  62.269  1.00  0.00     0.013 A 
ATOM      3  C   UNL     1      61.870  35.682  60.874  1.00  0.00     0.120 A 
ATOM      4  C   UNL     1      63.417  36.433  63.051  1.00  0.00     0.021 A 
ATOM      5  N   UNL     1      61.508  36.738  61.652  1.00  0.00    -0.264 NA
ATOM      6  C   UNL     1      62.250  37.125  62.723  1.00  0.00     0.111 A 
ENDROOT
BRANCH   1   7
ATOM      7  C   UNL     1      63.435  33.805  60.323  1.00  0.00     0.073 C 
ATOM      8  O   UNL     1      63.737  32.700  60.850  1.00  0.00    -0.545 OA
ATOM      9  O   UNL     1      63.481  33.927  58.940  1.00  0.00    -0.545 OA
ENDBRANCH   1   7
TORSDOF 1
ENDMDL
MODEL 2
REMARK VINA RESULT:    -3.216     14.669     15.297
REMARK INTER + INTRA:          -3.423
REMARK INTER:                  -3.406
REMARK INTRA:                  -0.017
REMARK UNBOUND:                -0.019
REMARK SMILES O=C([O-])c1cccnc1
REMARK SMILES IDX 4 1 5 2 9 3 6 4 8 5 7 6 2 7 1 8 3 9
REMARK H PARENT
REMARK Flexibility Score: inf
ROOT
ATOM      1  C   UNL     1      56.008  27.120  50.641  1.00  0.00     0.016 A 
ATOM      2  C   UNL     1      55.954  28.509  50.845  1.00  0.00     0.013 A 
ATOM      3  C   UNL     1      54.829  26.454  50.269  1.00  0.00     0.120 A 
ATOM      4  C   UNL     1      54.750  29.195  50.680  1.00  0.00     0.021 A 
ATOM      5  N   UNL     1      53.668  27.146  50.115  1.00  0.00    -0.264 NA
ATOM      6  C   UNL     1      53.604  28.489  50.310  1.00  0.00     0.111 A 
ENDROOT
BRANCH   1   7
ATOM      7  C   UNL     1      57.274  26.374  50.811  1.00  0.00     0.073 C 
ATOM      8  O   UNL     1      58.219  26.524  49.990  1.00  0.00    -0.545 OA
ATOM      9  O   UNL     1      57.438  25.499  51.877  1.00  0.00    -0.545 OA
ENDBRANCH   1   7
TORSDOF 1
ENDMDL
MODEL 3
REMARK VINA RESULT:    -3.178     13.828     15.063
REMARK INTER + INTRA:          -3.383
REMARK INTER:                  -3.366
REMARK INTRA:                  -0.016
REMARK UNBOUND:                -0.019
REMARK SMILES O=C([O-])c1cccnc1
REMARK SMILES IDX 4 1 5 2 9 3 6 4 8 5 7 6 2 7 1 8 3 9
REMARK H PARENT
REMARK Flexibility Score: inf
ROOT
ATOM      1  C   UNL     1      55.933  28.301  50.680  1.00  0.00     0.016 A 
ATOM      2  C   UNL     1      54.696  28.963  50.614  1.00  0.00     0.013 A 
ATOM      3  C   UNL     1      55.959  26.912  50.468  1.00  0.00     0.120 A 
ATOM      4  C   UNL     1      53.530  28.244  50.345  1.00  0.00     0.021 A 
ATOM      5  N   UNL     1      54.808  26.235  50.208  1.00  0.00    -0.264 NA
ATOM      6  C   UNL     1      53.606  26.866  50.143  1.00  0.00     0.111 A 
ENDROOT
BRANCH   1   7
ATOM      7  C   UNL     1      57.181  29.043  50.963  1.00  0.00     0.073 C 
ATOM      8  O   UNL     1      57.466  29.388  52.142  1.00  0.00    -0.545 OA
ATOM      9  O   UNL     1      58.055  29.369  49.934  1.00  0.00    -0.545 OA
ENDBRANCH   1   7
TORSDOF 1
ENDMDL
MODEL 4
REMARK VINA RESULT:    -3.154     13.277     14.489
REMARK INTER + INTRA:          -3.358
REMARK INTER:                  -3.341
REMARK INTRA:                  -0.017
REMARK UNBOUND:                -0.019
REMARK SMILES O=C([O-])c1cccnc1
REMARK SMILES IDX 4 1 5 2 9 3 6 4 8 5 7 6 2 7 1 8 3 9
REMARK H PARENT
REMARK Flexibility Score: inf
ROOT
ATOM      1  C   UNL     1      56.933  28.578  50.642  1.00  0.00     0.016 A 
ATOM      2  C   UNL     1      55.595  29.008  50.658  1.00  0.00     0.013 A 
ATOM      3  C   UNL     1      57.189  27.196  50.617  1.00  0.00     0.120 A 
ATOM      4  C   UNL     1      54.558  28.075  50.652  1.00  0.00     0.021 A 
ATOM      5  N   UNL     1      56.160  26.307  50.612  1.00  0.00    -0.264 NA
ATOM      6  C   UNL     1      54.863  26.713  50.628  1.00  0.00     0.111 A 
ENDROOT
BRANCH   1   7
ATOM      7  C   UNL     1      58.047  29.550  50.648  1.00  0.00     0.073 C 
ATOM      8  O   UNL     1      58.339  30.182  51.698  1.00  0.00    -0.545 OA
ATOM      9  O   UNL     1      58.787  29.780  49.495  1.00  0.00    -0.545 OA
ENDBRANCH   1   7
TORSDOF 1
ENDMDL
MODEL 5
REMARK VINA RESULT:    -3.148     13.832     14.403
REMARK INTER + INTRA:          -3.351
REMARK INTER:                  -3.334
REMARK INTRA:                  -0.017
REMARK UNBOUND:                -0.019
REMARK SMILES O=C([O-])c1cccnc1
REMARK SMILES IDX 4 1 5 2 9 3 6 4 8 5 7 6 2 7 1 8 3 9
REMARK H PARENT
REMARK Flexibility Score: inf
ROOT
ATOM      1  C   UNL     1      57.042  28.526  50.619  1.00  0.00     0.016 A 
ATOM      2  C   UNL     1      58.096  29.282  50.079  1.00  0.00     0.013 A 
ATOM      3  C   UNL     1      57.204  27.134  50.720  1.00  0.00     0.120 A 
ATOM      4  C   UNL     1      59.267  28.652  49.656  1.00  0.00     0.021 A 
ATOM      5  N   UNL     1      58.356  26.544  50.300  1.00  0.00    -0.264 NA
ATOM      6  C   UNL     1      59.380  27.267  49.776  1.00  0.00     0.111 A 
ENDROOT
BRANCH   1   7
ATOM      7  C   UNL     1      55.793  29.174  51.073  1.00  0.00     0.073 C 
ATOM      8  O   UNL     1      55.791  29.917  52.091  1.00  0.00    -0.545 OA
ATOM      9  O   UNL     1      54.604  28.973  50.382  1.00  0.00    -0.545 OA
ENDBRANCH   1   7
TORSDOF 1
ENDMDL
MODEL 6
REMARK VINA RESULT:    -3.107     14.298     15.249
REMARK INTER + INTRA:          -3.308
REMARK INTER:                  -3.284
REMARK INTRA:                  -0.024
REMARK UNBOUND:                -0.019
REMARK SMILES O=C([O-])c1cccnc1
REMARK SMILES IDX 4 1 5 2 9 3 6 4 8 5 7 6 2 7 1 8 3 9
REMARK H PARENT
REMARK Flexibility Score: inf
ROOT
ATOM      1  C   UNL     1      55.230  28.137  50.530  1.00  0.00     0.016 A 
ATOM      2  C   UNL     1      56.284  29.037  50.763  1.00  0.00     0.013 A 
ATOM      3  C   UNL     1      55.527  26.765  50.466  1.00  0.00     0.120 A 
ATOM      4  C   UNL     1      57.587  28.564  50.923  1.00  0.00     0.021 A 
ATOM      5  N   UNL     1      56.806  26.330  50.625  1.00  0.00    -0.264 NA
ATOM      6  C   UNL     1      57.832  27.192  50.850  1.00  0.00     0.111 A 
ENDROOT
BRANCH   1   7
ATOM      7  C   UNL     1      53.842  28.617  50.357  1.00  0.00     0.073 C 
ATOM      8  O   UNL     1      52.918  27.811  50.064  1.00  0.00    -0.545 OA
ATOM      9  O   UNL     1      53.538  29.963  50.518  1.00  0.00    -0.545 OA
ENDBRANCH   1   7
TORSDOF 1
ENDMDL
MODEL 7
REMARK VINA RESULT:    -3.061     14.302     15.349
REMARK INTER + INTRA:          -3.259
REMARK INTER:                  -3.235
REMARK INTRA:                  -0.024
REMARK UNBOUND:                -0.019
REMARK SMILES O=C([O-])c1cccnc1
REMARK SMILES IDX 4 1 5 2 9 3 6 4 8 5 7 6 2 7 1 8 3 9
REMARK H PARENT
REMARK Flexibility Score: inf
ROOT
ATOM      1  C   UNL     1      54.570  28.018  50.608  1.00  0.00     0.016 A 
ATOM      2  C   UNL     1      53.311  28.495  50.203  1.00  0.00     0.013 A 
ATOM      3  C   UNL     1      55.374  28.850  51.405  1.00  0.00     0.120 A 
ATOM      4  C   UNL     1      52.886  29.767  50.590  1.00  0.00     0.021 A 
ATOM      5  N   UNL     1      54.936  30.086  51.768  1.00  0.00    -0.264 NA
ATOM      6  C   UNL     1      53.721  30.557  51.381  1.00  0.00     0.111 A 
ENDROOT
BRANCH   1   7
ATOM      7  C   UNL     1      55.039  26.673  50.210  1.00  0.00     0.073 C 
ATOM      8  O   UNL     1      54.282  25.895  49.570  1.00  0.00    -0.545 OA
ATOM      9  O   UNL     1      56.322  26.250  50.535  1.00  0.00    -0.545 OA
ENDBRANCH   1   7
TORSDOF 1
ENDMDL
MODEL 8
REMARK VINA RESULT:    -3.043     13.998     14.712
REMARK INTER + INTRA:          -3.240
REMARK INTER:                  -3.224
REMARK INTRA:                  -0.016
REMARK UNBOUND:                -0.019
REMARK SMILES O=C([O-])c1cccnc1
REMARK SMILES IDX 4 1 5 2 9 3 6 4 8 5 7 6 2 7 1 8 3 9
REMARK H PARENT
REMARK Flexibility Score: inf
ROOT
ATOM      1  C   UNL     1      57.304  27.256  50.548  1.00  0.00     0.016 A 
ATOM      2  C   UNL     1      57.328  28.659  50.468  1.00  0.00     0.013 A 
ATOM      3  C   UNL     1      58.467  26.548  50.202  1.00  0.00     0.120 A 
ATOM      4  C   UNL     1      58.485  29.317  50.052  1.00  0.00     0.021 A 
ATOM      5  N   UNL     1      59.582  27.214  49.798  1.00  0.00    -0.264 NA
ATOM      6  C   UNL     1      59.615  28.570  49.718  1.00  0.00     0.111 A 
ENDROOT
BRANCH   1   7
ATOM      7  C   UNL     1      56.087  26.538  50.987  1.00  0.00     0.073 C 
ATOM      8  O   UNL     1      55.942  26.204  52.194  1.00  0.00    -0.545 OA
ATOM      9  O   UNL     1      55.087  26.224  50.075  1.00  0.00    -0.545 OA
ENDBRANCH   1   7
TORSDOF 1
ENDMDL
MODEL 9
REMARK VINA RESULT:    -2.974     19.484     20.662
REMARK INTER + INTRA:          -3.167
REMARK INTER:                  -3.148
REMARK INTRA:                  -0.019
REMARK UNBOUND:                -0.019
REMARK SMILES O=C([O-])c1cccnc1
REMARK SMILES IDX 4 1 5 2 9 3 6 4 8 5 7 6 2 7 1 8 3 9
REMARK H PARENT
REMARK Flexibility Score: inf
ROOT
ATOM      1  C   UNL     1      57.059  18.831  50.925  1.00  0.00     0.016 A 
ATOM      2  C   UNL     1      57.011  17.639  50.183  1.00  0.00     0.013 A 
ATOM      3  C   UNL     1      58.306  19.452  51.109  1.00  0.00     0.120 A 
ATOM      4  C   UNL     1      58.181  17.097  49.650  1.00  0.00     0.021 A 
ATOM      5  N   UNL     1      59.432  18.903  50.579  1.00  0.00    -0.264 NA
ATOM      6  C   UNL     1      59.396  17.750  49.860  1.00  0.00     0.111 A 
ENDROOT
BRANCH   1   7
ATOM      7  C   UNL     1      55.830  19.422  51.498  1.00  0.00     0.073 C 
ATOM      8  O   UNL     1      55.811  19.825  52.692  1.00  0.00    -0.545 OA
ATOM      9  O   UNL     1      54.681  19.541  50.727  1.00  0.00    -0.545 OA
ENDBRANCH   1   7
TORSDOF 1
ENDMDL
