MODEL 1
REMARK VINA RESULT:    24.961      0.000      0.000
REMARK INTER + INTRA:          41.167
REMARK INTER:                  38.823
REMARK INTRA:                   2.343
REMARK UNBOUND:                 2.343
REMARK SMILES C[C@@]12C[C@@]3(O)O[C@@H](O1)[C@]1(COC(=O)c4ccccc4)[C@H]3C[C@@]12O[C@@H]1O[C@@H](CO)[C@H](O)[C@H](O)[C@@H]1O
REMARK SMILES IDX 1 1 2 2 3 3 4 4 20 5 21 6 22 7 9 8 7 9 8 10 6 11 23 12 24 13
REMARK SMILES IDX 33 14 25 15 31 16 26 17 29 18 34 19 32 21 27 23 28 24 30 26
REMARK SMILES IDX 5 28 10 30 11 31 12 32 13 33 14 34 15 35 19 36 16 37 18 38
REMARK SMILES IDX 17 39
REMARK H PARENT 34 20 32 22 28 25 30 27 5 29
REMARK Flexibility Score: inf
ROOT
ATOM      1  C   UNL     1      -3.133 -11.701 -15.925  1.00  0.00     0.046 C 
ATOM      2  C   UNL     1      -2.078 -12.476 -15.141  1.00  0.00     0.104 C 
ATOM      3  C   UNL     1      -0.694 -12.471 -15.890  1.00  0.00     0.104 C 
ATOM      4  C   UNL     1       0.217 -13.373 -14.979  1.00  0.00     0.175 C 
ATOM      5  C   UNL     1      -0.510 -14.712 -14.642  1.00  0.00     0.070 C 
ATOM      6  C   UNL     1      -1.680 -15.015 -15.593  1.00  0.00     0.050 C 
ATOM      7  C   UNL     1      -2.488 -13.959 -14.782  1.00  0.00     0.115 C 
ATOM      8  C   UNL     1      -1.507 -14.167 -13.621  1.00  0.00     0.096 C 
ATOM      9  C   UNL     1      -1.003 -12.791 -13.220  1.00  0.00     0.267 C 
ATOM     10  O   UNL     1      -1.835 -11.860 -13.893  1.00  0.00    -0.342 OA
ATOM     11  O   UNL     1       0.317 -12.701 -13.738  1.00  0.00    -0.320 OA
ENDROOT
BRANCH   7  12
ATOM     12  O   UNL     1      -3.864 -14.129 -14.408  1.00  0.00    -0.339 OA
BRANCH  12  13
ATOM     13  C   UNL     1      -4.615 -14.990 -15.257  1.00  0.00     0.282 C 
ATOM     14  C   UNL     1      -6.122 -15.013 -14.866  1.00  0.00     0.202 C 
ATOM     15  O   UNL     1      -4.411 -14.697 -16.633  1.00  0.00    -0.341 OA
ATOM     16  C   UNL     1      -6.911 -13.798 -15.383  1.00  0.00     0.179 C 
ATOM     17  C   UNL     1      -4.982 -13.450 -16.994  1.00  0.00     0.178 C 
ATOM     18  C   UNL     1      -6.524 -13.473 -16.835  1.00  0.00     0.177 C 
BRANCH  14  19
ATOM     19  O   UNL     1      -6.288 -15.119 -13.476  1.00  0.00    -0.385 OA
ATOM     20  H   UNL     1      -5.419 -15.402 -13.090  1.00  0.00     0.211 HD
ENDBRANCH  14  19
BRANCH  16  21
ATOM     21  O   UNL     1      -6.782 -12.676 -14.539  1.00  0.00    -0.387 OA
ATOM     22  H   UNL     1      -5.819 -12.464 -14.449  1.00  0.00     0.211 HD
ENDBRANCH  16  21
BRANCH  17  23
ATOM     23  C   UNL     1      -4.554 -13.081 -18.439  1.00  0.00     0.191 C 
BRANCH  23  24
ATOM     24  O   UNL     1      -5.168 -11.928 -18.965  1.00  0.00    -0.394 OA
ATOM     25  H   UNL     1      -5.212 -11.986 -19.954  1.00  0.00     0.210 HD
ENDBRANCH  23  24
ENDBRANCH  17  23
BRANCH  18  26
ATOM     26  O   UNL     1      -7.119 -12.262 -17.237  1.00  0.00    -0.387 OA
ATOM     27  H   UNL     1      -6.401 -11.585 -17.325  1.00  0.00     0.211 HD
ENDBRANCH  18  26
ENDBRANCH  12  13
ENDBRANCH   7  12
BRANCH   4  28
ATOM     28  O   UNL     1       1.483 -13.600 -15.544  1.00  0.00    -0.365 OA
ATOM     29  H   UNL     1       1.429 -13.312 -16.493  1.00  0.00     0.214 HD
ENDBRANCH   4  28
BRANCH   8  30
ATOM     30  C   UNL     1      -1.936 -15.117 -12.475  1.00  0.00     0.249 C 
BRANCH  30  31
ATOM     31  O   UNL     1      -3.291 -14.913 -12.075  1.00  0.00    -0.461 OA
BRANCH  31  32
ATOM     32  C   UNL     1      -3.737 -14.837 -10.751  1.00  0.00     0.338 C 
ATOM     33  O   UNL     1      -4.970 -14.811 -10.496  1.00  0.00    -0.246 OA
BRANCH  32  34
ATOM     34  C   UNL     1      -2.748 -14.822  -9.652  1.00  0.00     0.060 A 
ATOM     35  C   UNL     1      -1.387 -15.057  -9.929  1.00  0.00     0.015 A 
ATOM     36  C   UNL     1      -3.148 -14.592  -8.322  1.00  0.00     0.015 A 
ATOM     37  C   UNL     1      -0.448 -15.068  -8.893  1.00  0.00     0.001 A 
ATOM     38  C   UNL     1      -2.203 -14.597  -7.291  1.00  0.00     0.001 A 
ATOM     39  C   UNL     1      -0.854 -14.838  -7.576  1.00  0.00     0.000 A 
ENDBRANCH  32  34
ENDBRANCH  31  32
ENDBRANCH  30  31
ENDBRANCH   8  30
TORSDOF 12
ENDMDL
MODEL 2
REMARK VINA RESULT:    27.292      1.300      2.031
REMARK INTER + INTRA:          44.792
REMARK INTER:                  38.827
REMARK INTRA:                   5.965
REMARK UNBOUND:                 2.343
REMARK SMILES C[C@@]12C[C@@]3(O)O[C@@H](O1)[C@]1(COC(=O)c4ccccc4)[C@H]3C[C@@]12O[C@@H]1O[C@@H](CO)[C@H](O)[C@H](O)[C@@H]1O
REMARK SMILES IDX 1 1 2 2 3 3 4 4 20 5 21 6 22 7 9 8 7 9 8 10 6 11 23 12 24 13
REMARK SMILES IDX 33 14 25 15 31 16 26 17 29 18 34 19 32 21 27 23 28 24 30 26
REMARK SMILES IDX 5 28 10 30 11 31 12 32 13 33 14 34 15 35 19 36 16 37 18 38
REMARK SMILES IDX 17 39
REMARK H PARENT 34 20 32 22 28 25 30 27 5 29
REMARK Flexibility Score: inf
ROOT
ATOM      1  C   UNL     1      -1.251 -10.001 -16.421  1.00  0.00     0.046 C 
ATOM      2  C   UNL     1      -0.682 -11.052 -15.471  1.00  0.00     0.104 C 
ATOM      3  C   UNL     1       0.879 -11.172 -15.624  1.00  0.00     0.104 C 
ATOM      4  C   UNL     1       1.254 -12.340 -14.640  1.00  0.00     0.175 C 
ATOM      5  C   UNL     1       0.325 -13.570 -14.880  1.00  0.00     0.070 C 
ATOM      6  C   UNL     1      -0.387 -13.527 -16.242  1.00  0.00     0.050 C 
ATOM      7  C   UNL     1      -1.345 -12.480 -15.601  1.00  0.00     0.115 C 
ATOM      8  C   UNL     1      -0.940 -13.020 -14.224  1.00  0.00     0.096 C 
ATOM      9  C   UNL     1      -0.506 -11.823 -13.393  1.00  0.00     0.267 C 
ATOM     10  O   UNL     1      -0.902 -10.676 -14.127  1.00  0.00    -0.342 OA
ATOM     11  O   UNL     1       0.912 -11.884 -13.345  1.00  0.00    -0.320 OA
ENDROOT
BRANCH   7  12
ATOM     12  O   UNL     1      -2.765 -12.465 -15.817  1.00  0.00    -0.339 OA
BRANCH  12  13
ATOM     13  C   UNL     1      -3.269 -13.566 -16.565  1.00  0.00     0.282 C 
ATOM     14  C   UNL     1      -3.517 -14.811 -15.664  1.00  0.00     0.202 C 
ATOM     15  O   UNL     1      -4.413 -13.211 -17.334  1.00  0.00    -0.341 OA
ATOM     16  C   UNL     1      -4.828 -14.740 -14.861  1.00  0.00     0.179 C 
ATOM     17  C   UNL     1      -5.537 -12.946 -16.511  1.00  0.00     0.178 C 
ATOM     18  C   UNL     1      -5.977 -14.217 -15.739  1.00  0.00     0.177 C 
BRANCH  14  19
ATOM     19  O   UNL     1      -2.444 -15.026 -14.784  1.00  0.00    -0.385 OA
ATOM     20  H   UNL     1      -1.987 -15.861 -15.066  1.00  0.00     0.211 HD
ENDBRANCH  14  19
BRANCH  16  21
ATOM     21  O   UNL     1      -4.690 -13.995 -13.673  1.00  0.00    -0.387 OA
ATOM     22  H   UNL     1      -5.455 -13.368 -13.608  1.00  0.00     0.211 HD
ENDBRANCH  16  21
BRANCH  17  23
ATOM     23  C   UNL     1      -6.687 -12.364 -17.374  1.00  0.00     0.191 C 
BRANCH  23  24
ATOM     24  O   UNL     1      -6.339 -12.070 -18.707  1.00  0.00    -0.394 OA
ATOM     25  H   UNL     1      -6.531 -12.851 -19.289  1.00  0.00     0.210 HD
ENDBRANCH  23  24
ENDBRANCH  17  23
BRANCH  18  26
ATOM     26  O   UNL     1      -7.124 -13.993 -14.954  1.00  0.00    -0.387 OA
ATOM     27  H   UNL     1      -6.844 -13.983 -14.003  1.00  0.00     0.211 HD
ENDBRANCH  18  26
ENDBRANCH  12  13
ENDBRANCH   7  12
BRANCH   4  28
ATOM     28  O   UNL     1       2.611 -12.694 -14.718  1.00  0.00    -0.365 OA
ATOM     29  H   UNL     1       2.687 -13.617 -14.359  1.00  0.00     0.214 HD
ENDBRANCH   4  28
BRANCH   8  30
ATOM     30  C   UNL     1      -1.885 -14.040 -13.542  1.00  0.00     0.249 C 
BRANCH  30  31
ATOM     31  O   UNL     1      -1.736 -14.058 -12.122  1.00  0.00    -0.461 OA
BRANCH  31  32
ATOM     32  C   UNL     1      -2.619 -14.674 -11.228  1.00  0.00     0.338 C 
ATOM     33  O   UNL     1      -3.722 -15.125 -11.633  1.00  0.00    -0.246 OA
BRANCH  32  34
ATOM     34  C   UNL     1      -2.228 -14.822  -9.809  1.00  0.00     0.060 A 
ATOM     35  C   UNL     1      -3.210 -14.766  -8.802  1.00  0.00     0.015 A 
ATOM     36  C   UNL     1      -0.880 -15.002  -9.446  1.00  0.00     0.015 A 
ATOM     37  C   UNL     1      -2.848 -14.882  -7.456  1.00  0.00     0.001 A 
ATOM     38  C   UNL     1      -0.524 -15.125  -8.099  1.00  0.00     0.001 A 
ATOM     39  C   UNL     1      -1.506 -15.061  -7.104  1.00  0.00     0.000 A 
ENDBRANCH  32  34
ENDBRANCH  31  32
ENDBRANCH  30  31
ENDBRANCH   8  30
TORSDOF 12
ENDMDL
