MODEL 1
REMARK VINA RESULT:    -6.424      0.000      0.000
REMARK INTER + INTRA:          -6.424
REMARK INTER:                  -6.424
REMARK INTRA:                   0.000
REMARK UNBOUND:                 0.000
REMARK SMILES Cc1cc2cc3c(C)cc(=O)oc3c(C)c2o1
REMARK SMILES IDX 8 1 7 2 9 3 10 4 11 5 12 6 13 7 6 8 5 9 4 10 3 11 2 12 17 13
REMARK SMILES IDX 16 14 14 15 15 16 1 17
REMARK H PARENT
REMARK Flexibility Score: inf
ROOT
ATOM      1  C   UNL     1       0.773  -8.798   5.067  1.00  0.00     0.045 C 
ATOM      2  C   UNL     1       0.990  -8.438   6.513  1.00  0.00    -0.033 A 
ATOM      3  C   UNL     1      -0.111  -8.086   7.305  1.00  0.00     0.098 A 
ATOM      4  C   UNL     1       0.082  -7.753   8.647  1.00  0.00     0.336 A 
ATOM      5  O   UNL     1      -0.905  -7.437   9.363  1.00  0.00    -0.246 OA
ATOM      6  O   UNL     1       1.298  -7.767   9.178  1.00  0.00    -0.422 OA
ATOM      7  C   UNL     1       2.386  -8.089   8.484  1.00  0.00     0.145 A 
ATOM      8  C   UNL     1       2.275  -8.446   7.102  1.00  0.00     0.022 A 
ATOM      9  C   UNL     1       3.438  -8.798   6.375  1.00  0.00     0.024 A 
ATOM     10  C   UNL     1       4.656  -8.786   7.044  1.00  0.00     0.022 A 
ATOM     11  C   UNL     1       5.923  -9.090   6.598  1.00  0.00     0.054 A 
ATOM     12  C   UNL     1       6.730  -8.903   7.714  1.00  0.00     0.102 A 
ATOM     13  O   UNL     1       6.013  -8.521   8.755  1.00  0.00    -0.461 OA
ATOM     14  C   UNL     1       4.763  -8.444   8.364  1.00  0.00     0.140 A 
ATOM     15  C   UNL     1       3.650  -8.077   9.124  1.00  0.00     0.036 A 
ATOM     16  C   UNL     1       3.782  -7.733  10.580  1.00  0.00     0.052 C 
ATOM     17  C   UNL     1       8.205  -9.122   7.756  1.00  0.00     0.087 C 
ENDROOT
TORSDOF 0
ENDMDL
MODEL 2
REMARK VINA RESULT:    -6.368      1.846      3.404
REMARK INTER + INTRA:          -6.368
REMARK INTER:                  -6.368
REMARK INTRA:                   0.000
REMARK UNBOUND:                 0.000
REMARK SMILES Cc1cc2cc3c(C)cc(=O)oc3c(C)c2o1
REMARK SMILES IDX 8 1 7 2 9 3 10 4 11 5 12 6 13 7 6 8 5 9 4 10 3 11 2 12 17 13
REMARK SMILES IDX 16 14 14 15 15 16 1 17
REMARK H PARENT
REMARK Flexibility Score: inf
ROOT
ATOM      1  C   UNL     1       2.741  -8.862  11.127  1.00  0.00     0.045 C 
ATOM      2  C   UNL     1       1.780  -8.804   9.969  1.00  0.00    -0.033 A 
ATOM      3  C   UNL     1       0.407  -8.692  10.222  1.00  0.00     0.098 A 
ATOM      4  C   UNL     1      -0.489  -8.635   9.153  1.00  0.00     0.336 A 
ATOM      5  O   UNL     1      -1.725  -8.533   9.376  1.00  0.00    -0.246 OA
ATOM      6  O   UNL     1      -0.053  -8.688   7.902  1.00  0.00    -0.422 OA
ATOM      7  C   UNL     1       1.236  -8.796   7.590  1.00  0.00     0.145 A 
ATOM      8  C   UNL     1       2.221  -8.857   8.627  1.00  0.00     0.022 A 
ATOM      9  C   UNL     1       3.592  -8.962   8.284  1.00  0.00     0.024 A 
ATOM     10  C   UNL     1       3.928  -8.997   6.937  1.00  0.00     0.022 A 
ATOM     11  C   UNL     1       5.159  -9.081   6.326  1.00  0.00     0.054 A 
ATOM     12  C   UNL     1       4.866  -9.070   4.967  1.00  0.00     0.102 A 
ATOM     13  O   UNL     1       3.563  -8.981   4.767  1.00  0.00    -0.461 OA
ATOM     14  C   UNL     1       2.987  -8.940   5.945  1.00  0.00     0.140 A 
ATOM     15  C   UNL     1       1.622  -8.848   6.228  1.00  0.00     0.036 A 
ATOM     16  C   UNL     1       0.604  -8.757   5.127  1.00  0.00     0.052 C 
ATOM     17  C   UNL     1       5.873  -9.125   3.868  1.00  0.00     0.087 C 
ENDROOT
TORSDOF 0
ENDMDL
MODEL 3
REMARK VINA RESULT:    -6.243      2.089      4.132
REMARK INTER + INTRA:          -6.243
REMARK INTER:                  -6.243
REMARK INTRA:                   0.000
REMARK UNBOUND:                 0.000
REMARK SMILES Cc1cc2cc3c(C)cc(=O)oc3c(C)c2o1
REMARK SMILES IDX 8 1 7 2 9 3 10 4 11 5 12 6 13 7 6 8 5 9 4 10 3 11 2 12 17 13
REMARK SMILES IDX 16 14 14 15 15 16 1 17
REMARK H PARENT
REMARK Flexibility Score: inf
ROOT
ATOM      1  C   UNL     1      -1.169  -8.672   9.390  1.00  0.00     0.045 C 
ATOM      2  C   UNL     1       0.334  -8.767   9.395  1.00  0.00    -0.033 A 
ATOM      3  C   UNL     1       1.016  -8.787  10.619  1.00  0.00     0.098 A 
ATOM      4  C   UNL     1       2.409  -8.876  10.631  1.00  0.00     0.336 A 
ATOM      5  O   UNL     1       3.026  -8.895  11.729  1.00  0.00    -0.246 OA
ATOM      6  O   UNL     1       3.091  -8.942   9.496  1.00  0.00    -0.422 OA
ATOM      7  C   UNL     1       2.508  -8.925   8.300  1.00  0.00     0.145 A 
ATOM      8  C   UNL     1       1.083  -8.839   8.199  1.00  0.00     0.022 A 
ATOM      9  C   UNL     1       0.471  -8.833   6.921  1.00  0.00     0.024 A 
ATOM     10  C   UNL     1       1.292  -8.917   5.803  1.00  0.00     0.022 A 
ATOM     11  C   UNL     1       0.975  -8.945   4.464  1.00  0.00     0.054 A 
ATOM     12  C   UNL     1       2.207  -9.044   3.825  1.00  0.00     0.102 A 
ATOM     13  O   UNL     1       3.191  -9.078   4.704  1.00  0.00    -0.461 OA
ATOM     14  C   UNL     1       2.654  -8.999   5.899  1.00  0.00     0.140 A 
ATOM     15  C   UNL     1       3.308  -8.997   7.133  1.00  0.00     0.036 A 
ATOM     16  C   UNL     1       4.803  -9.117   7.221  1.00  0.00     0.052 C 
ATOM     17  C   UNL     1       2.407  -9.125   2.349  1.00  0.00     0.087 C 
ENDROOT
TORSDOF 0
ENDMDL
MODEL 4
REMARK VINA RESULT:    -6.030     16.297     19.029
REMARK INTER + INTRA:          -6.030
REMARK INTER:                  -6.030
REMARK INTRA:                   0.000
REMARK UNBOUND:                 0.000
REMARK SMILES Cc1cc2cc3c(C)cc(=O)oc3c(C)c2o1
REMARK SMILES IDX 8 1 7 2 9 3 10 4 11 5 12 6 13 7 6 8 5 9 4 10 3 11 2 12 17 13
REMARK SMILES IDX 16 14 14 15 15 16 1 17
REMARK H PARENT
REMARK Flexibility Score: inf
ROOT
ATOM      1  C   UNL     1      -2.823   1.729  -7.125  1.00  0.00     0.045 C 
ATOM      2  C   UNL     1      -3.522   0.746  -6.223  1.00  0.00    -0.033 A 
ATOM      3  C   UNL     1      -2.895  -0.469  -5.915  1.00  0.00     0.098 A 
ATOM      4  C   UNL     1      -3.537  -1.383  -5.078  1.00  0.00     0.336 A 
ATOM      5  O   UNL     1      -2.976  -2.476  -4.798  1.00  0.00    -0.246 OA
ATOM      6  O   UNL     1      -4.733  -1.113  -4.573  1.00  0.00    -0.422 OA
ATOM      7  C   UNL     1      -5.386   0.019  -4.826  1.00  0.00     0.145 A 
ATOM      8  C   UNL     1      -4.796   1.012  -5.672  1.00  0.00     0.022 A 
ATOM      9  C   UNL     1      -5.494   2.218  -5.926  1.00  0.00     0.024 A 
ATOM     10  C   UNL     1      -6.738   2.391  -5.331  1.00  0.00     0.022 A 
ATOM     11  C   UNL     1      -7.616   3.449  -5.391  1.00  0.00     0.054 A 
ATOM     12  C   UNL     1      -8.682   3.053  -4.592  1.00  0.00     0.102 A 
ATOM     13  O   UNL     1      -8.468   1.853  -4.083  1.00  0.00    -0.461 OA
ATOM     14  C   UNL     1      -7.302   1.442  -4.523  1.00  0.00     0.140 A 
ATOM     15  C   UNL     1      -6.662   0.231  -4.250  1.00  0.00     0.036 A 
ATOM     16  C   UNL     1      -7.283  -0.787  -3.336  1.00  0.00     0.052 C 
ATOM     17  C   UNL     1      -9.901   3.868  -4.315  1.00  0.00     0.087 C 
ENDROOT
TORSDOF 0
ENDMDL
MODEL 5
REMARK VINA RESULT:    -6.028     16.469     17.878
REMARK INTER + INTRA:          -6.028
REMARK INTER:                  -6.028
REMARK INTRA:                   0.000
REMARK UNBOUND:                 0.000
REMARK SMILES Cc1cc2cc3c(C)cc(=O)oc3c(C)c2o1
REMARK SMILES IDX 8 1 7 2 9 3 10 4 11 5 12 6 13 7 6 8 5 9 4 10 3 11 2 12 17 13
REMARK SMILES IDX 16 14 14 15 15 16 1 17
REMARK H PARENT
REMARK Flexibility Score: inf
ROOT
ATOM      1  C   UNL     1      -8.122  -0.547  -3.679  1.00  0.00     0.045 C 
ATOM      2  C   UNL     1      -7.137   0.394  -4.321  1.00  0.00    -0.033 A 
ATOM      3  C   UNL     1      -7.402   1.770  -4.320  1.00  0.00     0.098 A 
ATOM      4  C   UNL     1      -6.492   2.648  -4.912  1.00  0.00     0.336 A 
ATOM      5  O   UNL     1      -6.726   3.886  -4.912  1.00  0.00    -0.246 OA
ATOM      6  O   UNL     1      -5.382   2.192  -5.474  1.00  0.00    -0.422 OA
ATOM      7  C   UNL     1      -5.068   0.899  -5.513  1.00  0.00     0.145 A 
ATOM      8  C   UNL     1      -5.946  -0.068  -4.926  1.00  0.00     0.022 A 
ATOM      9  C   UNL     1      -5.599  -1.440  -4.962  1.00  0.00     0.024 A 
ATOM     10  C   UNL     1      -4.401  -1.796  -5.571  1.00  0.00     0.022 A 
ATOM     11  C   UNL     1      -3.817  -3.031  -5.737  1.00  0.00     0.054 A 
ATOM     12  C   UNL     1      -2.630  -2.759  -6.409  1.00  0.00     0.102 A 
ATOM     13  O   UNL     1      -2.502  -1.463  -6.630  1.00  0.00    -0.461 OA
ATOM     14  C   UNL     1      -3.563  -0.872  -6.133  1.00  0.00     0.140 A 
ATOM     15  C   UNL     1      -3.863   0.492  -6.135  1.00  0.00     0.036 A 
ATOM     16  C   UNL     1      -2.917   1.495  -6.730  1.00  0.00     0.052 C 
ATOM     17  C   UNL     1      -1.617  -3.776  -6.813  1.00  0.00     0.087 C 
ENDROOT
TORSDOF 0
ENDMDL
MODEL 6
REMARK VINA RESULT:    -6.014     20.530     21.072
REMARK INTER + INTRA:          -6.014
REMARK INTER:                  -6.014
REMARK INTRA:                   0.000
REMARK UNBOUND:                 0.000
REMARK SMILES Cc1cc2cc3c(C)cc(=O)oc3c(C)c2o1
REMARK SMILES IDX 8 1 7 2 9 3 10 4 11 5 12 6 13 7 6 8 5 9 4 10 3 11 2 12 17 13
REMARK SMILES IDX 16 14 14 15 15 16 1 17
REMARK H PARENT
REMARK Flexibility Score: inf
ROOT
ATOM      1  C   UNL     1       4.611  10.833  -0.960  1.00  0.00     0.045 C 
ATOM      2  C   UNL     1       3.926   9.943  -1.963  1.00  0.00    -0.033 A 
ATOM      3  C   UNL     1       2.548   9.715  -1.850  1.00  0.00     0.098 A 
ATOM      4  C   UNL     1       1.906   8.893  -2.777  1.00  0.00     0.336 A 
ATOM      5  O   UNL     1       0.667   8.687  -2.680  1.00  0.00    -0.246 OA
ATOM      6  O   UNL     1       2.589   8.325  -3.762  1.00  0.00    -0.422 OA
ATOM      7  C   UNL     1       3.898   8.496  -3.928  1.00  0.00     0.145 A 
ATOM      8  C   UNL     1       4.631   9.327  -3.022  1.00  0.00     0.022 A 
ATOM      9  C   UNL     1       6.023   9.512  -3.212  1.00  0.00     0.024 A 
ATOM     10  C   UNL     1       6.626   8.872  -4.289  1.00  0.00     0.022 A 
ATOM     11  C   UNL     1       7.935   8.883  -4.714  1.00  0.00     0.054 A 
ATOM     12  C   UNL     1       7.934   8.068  -5.840  1.00  0.00     0.102 A 
ATOM     13  O   UNL     1       6.722   7.603  -6.083  1.00  0.00    -0.461 OA
ATOM     14  C   UNL     1       5.925   8.077  -5.154  1.00  0.00     0.140 A 
ATOM     15  C   UNL     1       4.555   7.852  -5.005  1.00  0.00     0.036 A 
ATOM     16  C   UNL     1       3.796   7.000  -5.981  1.00  0.00     0.052 C 
ATOM     17  C   UNL     1       9.125   7.766  -6.686  1.00  0.00     0.087 C 
ENDROOT
TORSDOF 0
ENDMDL
MODEL 7
REMARK VINA RESULT:    -5.741     15.809     16.605
REMARK INTER + INTRA:          -5.741
REMARK INTER:                  -5.741
REMARK INTRA:                   0.000
REMARK UNBOUND:                 0.000
REMARK SMILES Cc1cc2cc3c(C)cc(=O)oc3c(C)c2o1
REMARK SMILES IDX 8 1 7 2 9 3 10 4 11 5 12 6 13 7 6 8 5 9 4 10 3 11 2 12 17 13
REMARK SMILES IDX 16 14 14 15 15 16 1 17
REMARK H PARENT
REMARK Flexibility Score: inf
ROOT
ATOM      1  C   UNL     1       4.983   1.587  -6.412  1.00  0.00     0.045 C 
ATOM      2  C   UNL     1       5.785   2.658  -5.720  1.00  0.00    -0.033 A 
ATOM      3  C   UNL     1       5.798   3.955  -6.249  1.00  0.00     0.098 A 
ATOM      4  C   UNL     1       6.537   4.953  -5.612  1.00  0.00     0.336 A 
ATOM      5  O   UNL     1       6.551   6.121  -6.083  1.00  0.00    -0.246 OA
ATOM      6  O   UNL     1       7.227   4.683  -4.511  1.00  0.00    -0.422 OA
ATOM      7  C   UNL     1       7.260   3.474  -3.957  1.00  0.00     0.145 A 
ATOM      8  C   UNL     1       6.527   2.396  -4.546  1.00  0.00     0.022 A 
ATOM      9  C   UNL     1       6.560   1.115  -3.942  1.00  0.00     0.024 A 
ATOM     10  C   UNL     1       7.311   0.958  -2.783  1.00  0.00     0.022 A 
ATOM     11  C   UNL     1       7.509  -0.151  -1.992  1.00  0.00     0.054 A 
ATOM     12  C   UNL     1       8.344   0.301  -0.976  1.00  0.00     0.102 A 
ATOM     13  O   UNL     1       8.626   1.582  -1.134  1.00  0.00    -0.461 OA
ATOM     14  C   UNL     1       8.013   1.988  -2.220  1.00  0.00     0.140 A 
ATOM     15  C   UNL     1       8.024   3.267  -2.782  1.00  0.00     0.036 A 
ATOM     16  C   UNL     1       8.776   4.394  -2.134  1.00  0.00     0.052 C 
ATOM     17  C   UNL     1       8.843  -0.526   0.160  1.00  0.00     0.087 C 
ENDROOT
TORSDOF 0
ENDMDL
MODEL 8
REMARK VINA RESULT:    -5.724     20.742     21.391
REMARK INTER + INTRA:          -5.724
REMARK INTER:                  -5.724
REMARK INTRA:                   0.000
REMARK UNBOUND:                 0.000
REMARK SMILES Cc1cc2cc3c(C)cc(=O)oc3c(C)c2o1
REMARK SMILES IDX 8 1 7 2 9 3 10 4 11 5 12 6 13 7 6 8 5 9 4 10 3 11 2 12 17 13
REMARK SMILES IDX 16 14 14 15 15 16 1 17
REMARK H PARENT
REMARK Flexibility Score: inf
ROOT
ATOM      1  C   UNL     1       4.909   6.741  -6.985  1.00  0.00     0.045 C 
ATOM      2  C   UNL     1       5.189   7.489  -5.708  1.00  0.00    -0.033 A 
ATOM      3  C   UNL     1       6.515   7.656  -5.288  1.00  0.00     0.098 A 
ATOM      4  C   UNL     1       6.782   8.350  -4.106  1.00  0.00     0.336 A 
ATOM      5  O   UNL     1       7.973   8.504  -3.725  1.00  0.00    -0.246 OA
ATOM      6  O   UNL     1       5.792   8.852  -3.379  1.00  0.00    -0.422 OA
ATOM      7  C   UNL     1       4.511   8.729  -3.718  1.00  0.00     0.145 A 
ATOM      8  C   UNL     1       4.152   8.034  -4.917  1.00  0.00     0.022 A 
ATOM      9  C   UNL     1       2.786   7.917  -5.274  1.00  0.00     0.024 A 
ATOM     10  C   UNL     1       1.839   8.494  -4.437  1.00  0.00     0.022 A 
ATOM     11  C   UNL     1       0.468   8.545  -4.542  1.00  0.00     0.054 A 
ATOM     12  C   UNL     1       0.067   9.257  -3.417  1.00  0.00     0.102 A 
ATOM     13  O   UNL     1       1.109   9.613  -2.689  1.00  0.00    -0.461 OA
ATOM     14  C   UNL     1       2.183   9.158  -3.291  1.00  0.00     0.140 A 
ATOM     15  C   UNL     1       3.513   9.291  -2.886  1.00  0.00     0.036 A 
ATOM     16  C   UNL     1       3.874  10.048  -1.639  1.00  0.00     0.052 C 
ATOM     17  C   UNL     1      -1.344   9.602  -3.074  1.00  0.00     0.087 C 
ENDROOT
TORSDOF 0
ENDMDL
MODEL 9
REMARK VINA RESULT:    -5.671     15.158     17.673
REMARK INTER + INTRA:          -5.671
REMARK INTER:                  -5.671
REMARK INTRA:                   0.000
REMARK UNBOUND:                 0.000
REMARK SMILES Cc1cc2cc3c(C)cc(=O)oc3c(C)c2o1
REMARK SMILES IDX 8 1 7 2 9 3 10 4 11 5 12 6 13 7 6 8 5 9 4 10 3 11 2 12 17 13
REMARK SMILES IDX 16 14 14 15 15 16 1 17
REMARK H PARENT
REMARK Flexibility Score: inf
ROOT
ATOM      1  C   UNL     1      -2.653   2.102  -7.125  1.00  0.00     0.045 C 
ATOM      2  C   UNL     1      -3.976   1.502  -6.730  1.00  0.00    -0.033 A 
ATOM      3  C   UNL     1      -5.146   2.257  -6.887  1.00  0.00     0.098 A 
ATOM      4  C   UNL     1      -6.376   1.706  -6.525  1.00  0.00     0.336 A 
ATOM      5  O   UNL     1      -7.431   2.382  -6.665  1.00  0.00    -0.246 OA
ATOM      6  O   UNL     1      -6.447   0.476  -6.034  1.00  0.00    -0.422 OA
ATOM      7  C   UNL     1      -5.378  -0.295  -5.858  1.00  0.00     0.145 A 
ATOM      8  C   UNL     1      -4.078   0.193  -6.207  1.00  0.00     0.022 A 
ATOM      9  C   UNL     1      -2.947  -0.640  -6.025  1.00  0.00     0.024 A 
ATOM     10  C   UNL     1      -3.149  -1.915  -5.513  1.00  0.00     0.022 A 
ATOM     11  C   UNL     1      -2.250  -2.924  -5.248  1.00  0.00     0.054 A 
ATOM     12  C   UNL     1      -3.036  -3.960  -4.757  1.00  0.00     0.102 A 
ATOM     13  O   UNL     1      -4.310  -3.612  -4.729  1.00  0.00    -0.461 OA
ATOM     14  C   UNL     1      -4.391  -2.382  -5.178  1.00  0.00     0.140 A 
ATOM     15  C   UNL     1      -5.538  -1.598  -5.326  1.00  0.00     0.036 A 
ATOM     16  C   UNL     1      -6.897  -2.137  -4.981  1.00  0.00     0.052 C 
ATOM     17  C   UNL     1      -2.531  -5.299  -4.336  1.00  0.00     0.087 C 
ENDROOT
TORSDOF 0
ENDMDL
