MODEL 1
REMARK VINA RESULT:    -4.185      0.000      0.000
REMARK INTER + INTRA:          -4.850
REMARK INTER:                  -4.796
REMARK INTRA:                  -0.054
REMARK UNBOUND:                -0.054
REMARK SMILES CC(C)[C@@H]([NH3+])C(=O)[O-]
REMARK SMILES IDX 4 1 5 2 6 6 7 7 8 8 2 9 1 10 3 11
REMARK H PARENT 5 3 5 4 5 5
REMARK Flexibility Score: inf
ROOT
ATOM      1  C   UNL     1      11.119  37.826  64.857  1.00  0.00     0.230 C 
ENDROOT
BRANCH   1   2
ATOM      2  N   UNL     1      10.524  39.013  64.225  1.00  0.00    -0.350 N 
ATOM      3  H   UNL     1       9.543  38.830  63.914  1.00  0.00     0.345 HD
ATOM      4  H   UNL     1      10.514  39.805  64.909  1.00  0.00     0.345 HD
ATOM      5  H   UNL     1      11.097  39.305  63.400  1.00  0.00     0.345 HD
ENDBRANCH   1   2
BRANCH   1   6
ATOM      6  C   UNL     1      12.611  37.995  65.022  1.00  0.00     0.099 C 
ATOM      7  O   UNL     1      13.100  38.351  66.128  1.00  0.00    -0.544 OA
ATOM      8  O   UNL     1      13.459  37.727  63.955  1.00  0.00    -0.544 OA
ENDBRANCH   1   6
BRANCH   1   9
ATOM      9  C   UNL     1      10.402  37.461  66.191  1.00  0.00     0.047 C 
ATOM     10  C   UNL     1       9.729  36.079  66.174  1.00  0.00     0.014 C 
ATOM     11  C   UNL     1       9.381  38.539  66.591  1.00  0.00     0.014 C 
ENDBRANCH   1   9
TORSDOF 3
ENDMDL
MODEL 2
REMARK VINA RESULT:    -4.109     11.891     12.506
REMARK INTER + INTRA:          -4.764
REMARK INTER:                  -4.724
REMARK INTRA:                  -0.040
REMARK UNBOUND:                -0.054
REMARK SMILES CC(C)[C@@H]([NH3+])C(=O)[O-]
REMARK SMILES IDX 4 1 5 2 6 6 7 7 8 8 2 9 1 10 3 11
REMARK H PARENT 5 3 5 4 5 5
REMARK Flexibility Score: inf
ROOT
ATOM      1  C   UNL     1       3.393  29.364  70.167  1.00  0.00     0.230 C 
ENDROOT
BRANCH   1   2
ATOM      2  N   UNL     1       3.007  28.079  70.769  1.00  0.00    -0.350 N 
ATOM      3  H   UNL     1       3.655  27.312  70.481  1.00  0.00     0.345 HD
ATOM      4  H   UNL     1       3.031  28.161  71.812  1.00  0.00     0.345 HD
ATOM      5  H   UNL     1       2.032  27.830  70.485  1.00  0.00     0.345 HD
ENDBRANCH   1   2
BRANCH   1   6
ATOM      6  C   UNL     1       4.500  29.174  69.156  1.00  0.00     0.099 C 
ATOM      7  O   UNL     1       4.249  29.158  67.921  1.00  0.00    -0.544 OA
ATOM      8  O   UNL     1       5.814  29.044  69.587  1.00  0.00    -0.544 OA
ENDBRANCH   1   6
BRANCH   1   9
ATOM      9  C   UNL     1       2.164  30.121  69.579  1.00  0.00     0.047 C 
ATOM     10  C   UNL     1       2.368  31.641  69.471  1.00  0.00     0.014 C 
ATOM     11  C   UNL     1       0.887  29.816  70.378  1.00  0.00     0.014 C 
ENDBRANCH   1   9
TORSDOF 3
ENDMDL
MODEL 3
REMARK VINA RESULT:    -4.039      5.928      6.915
REMARK INTER + INTRA:          -4.683
REMARK INTER:                  -4.639
REMARK INTRA:                  -0.045
REMARK UNBOUND:                -0.054
REMARK SMILES CC(C)[C@@H]([NH3+])C(=O)[O-]
REMARK SMILES IDX 4 1 5 2 6 6 7 7 8 8 2 9 1 10 3 11
REMARK H PARENT 5 3 5 4 5 5
REMARK Flexibility Score: inf
ROOT
ATOM      1  C   UNL     1      10.406  39.561  71.305  1.00  0.00     0.230 C 
ENDROOT
BRANCH   1   2
ATOM      2  N   UNL     1       9.747  40.635  70.547  1.00  0.00    -0.350 N 
ATOM      3  H   UNL     1      10.384  41.451  70.406  1.00  0.00     0.345 HD
ATOM      4  H   UNL     1       9.458  40.273  69.609  1.00  0.00     0.345 HD
ATOM      5  H   UNL     1       8.887  40.953  71.051  1.00  0.00     0.345 HD
ENDBRANCH   1   2
BRANCH   1   6
ATOM      6  C   UNL     1       9.653  39.262  72.580  1.00  0.00     0.099 C 
ATOM      7  O   UNL     1       9.290  38.086  72.853  1.00  0.00    -0.544 OA
ATOM      8  O   UNL     1       9.381  40.286  73.478  1.00  0.00    -0.544 OA
ENDBRANCH   1   6
BRANCH   1   9
ATOM      9  C   UNL     1      10.637  38.293  70.429  1.00  0.00     0.047 C 
ATOM     10  C   UNL     1      11.993  37.611  70.675  1.00  0.00     0.014 C 
ATOM     11  C   UNL     1      10.469  38.608  68.934  1.00  0.00     0.014 C 
ENDBRANCH   1   9
TORSDOF 3
ENDMDL
MODEL 4
REMARK VINA RESULT:    -4.035      6.412      7.223
REMARK INTER + INTRA:          -4.679
REMARK INTER:                  -4.621
REMARK INTRA:                  -0.057
REMARK UNBOUND:                -0.054
REMARK SMILES CC(C)[C@@H]([NH3+])C(=O)[O-]
REMARK SMILES IDX 4 1 5 2 6 6 7 7 8 8 2 9 1 10 3 11
REMARK H PARENT 5 3 5 4 5 5
REMARK Flexibility Score: inf
ROOT
ATOM      1  C   UNL     1      11.513  38.454  72.336  1.00  0.00     0.230 C 
ENDROOT
BRANCH   1   2
ATOM      2  N   UNL     1      12.772  39.028  72.833  1.00  0.00    -0.350 N 
ATOM      3  H   UNL     1      12.823  38.992  73.876  1.00  0.00     0.345 HD
ATOM      4  H   UNL     1      13.579  38.490  72.441  1.00  0.00     0.345 HD
ATOM      5  H   UNL     1      12.861  40.022  72.519  1.00  0.00     0.345 HD
ENDBRANCH   1   2
BRANCH   1   6
ATOM      6  C   UNL     1      10.476  39.532  72.125  1.00  0.00     0.099 C 
ATOM      7  O   UNL     1      10.171  39.915  70.963  1.00  0.00    -0.544 OA
ATOM      8  O   UNL     1       9.827  40.090  73.219  1.00  0.00    -0.544 OA
ENDBRANCH   1   6
BRANCH   1   9
ATOM      9  C   UNL     1      11.738  37.578  71.066  1.00  0.00     0.047 C 
ATOM     10  C   UNL     1      11.169  36.155  71.188  1.00  0.00     0.014 C 
ATOM     11  C   UNL     1      13.226  37.519  70.685  1.00  0.00     0.014 C 
ENDBRANCH   1   9
TORSDOF 3
ENDMDL
MODEL 5
REMARK VINA RESULT:    -4.007      4.742      5.448
REMARK INTER + INTRA:          -4.647
REMARK INTER:                  -4.597
REMARK INTRA:                  -0.050
REMARK UNBOUND:                -0.054
REMARK SMILES CC(C)[C@@H]([NH3+])C(=O)[O-]
REMARK SMILES IDX 4 1 5 2 6 6 7 7 8 8 2 9 1 10 3 11
REMARK H PARENT 5 3 5 4 5 5
REMARK Flexibility Score: inf
ROOT
ATOM      1  C   UNL     1       9.909  39.513  70.196  1.00  0.00     0.230 C 
ENDROOT
BRANCH   1   2
ATOM      2  N   UNL     1       9.823  40.980  70.146  1.00  0.00    -0.350 N 
ATOM      3  H   UNL     1       9.092  41.343  70.798  1.00  0.00     0.345 HD
ATOM      4  H   UNL     1      10.746  41.392  70.417  1.00  0.00     0.345 HD
ATOM      5  H   UNL     1       9.602  41.292  69.173  1.00  0.00     0.345 HD
ENDBRANCH   1   2
BRANCH   1   6
ATOM      6  C   UNL     1      10.589  38.971  68.961  1.00  0.00     0.099 C 
ATOM      7  O   UNL     1      11.821  38.703  68.968  1.00  0.00    -0.544 OA
ATOM      8  O   UNL     1       9.847  38.736  67.811  1.00  0.00    -0.544 OA
ENDBRANCH   1   6
BRANCH   1   9
ATOM      9  C   UNL     1      10.573  39.017  71.516  1.00  0.00     0.047 C 
ATOM     10  C   UNL     1      10.200  37.573  71.891  1.00  0.00     0.014 C 
ATOM     11  C   UNL     1      10.262  39.962  72.687  1.00  0.00     0.014 C 
ENDBRANCH   1   9
TORSDOF 3
ENDMDL
MODEL 6
REMARK VINA RESULT:    -3.979     11.950     12.883
REMARK INTER + INTRA:          -4.615
REMARK INTER:                  -4.561
REMARK INTRA:                  -0.054
REMARK UNBOUND:                -0.054
REMARK SMILES CC(C)[C@@H]([NH3+])C(=O)[O-]
REMARK SMILES IDX 4 1 5 2 6 6 7 7 8 8 2 9 1 10 3 11
REMARK H PARENT 5 3 5 4 5 5
REMARK Flexibility Score: inf
ROOT
ATOM      1  C   UNL     1       3.012  29.039  69.636  1.00  0.00     0.230 C 
ENDROOT
BRANCH   1   2
ATOM      2  N   UNL     1       3.000  28.112  70.778  1.00  0.00    -0.350 N 
ATOM      3  H   UNL     1       2.545  27.205  70.530  1.00  0.00     0.345 HD
ATOM      4  H   UNL     1       3.983  27.919  71.080  1.00  0.00     0.345 HD
ATOM      5  H   UNL     1       2.492  28.543  71.584  1.00  0.00     0.345 HD
ENDBRANCH   1   2
BRANCH   1   6
ATOM      6  C   UNL     1       1.940  30.092  69.787  1.00  0.00     0.099 C 
ATOM      7  O   UNL     1       2.060  31.218  69.232  1.00  0.00    -0.544 OA
ATOM      8  O   UNL     1       0.794  29.812  70.520  1.00  0.00    -0.544 OA
ENDBRANCH   1   6
BRANCH   1   9
ATOM      9  C   UNL     1       4.427  29.648  69.400  1.00  0.00     0.047 C 
ATOM     10  C   UNL     1       5.052  29.256  68.051  1.00  0.00     0.014 C 
ATOM     11  C   UNL     1       5.387  29.294  70.548  1.00  0.00     0.014 C 
ENDBRANCH   1   9
TORSDOF 3
ENDMDL
MODEL 7
REMARK VINA RESULT:    -3.937      6.840      7.453
REMARK INTER + INTRA:          -4.566
REMARK INTER:                  -4.499
REMARK INTRA:                  -0.067
REMARK UNBOUND:                -0.054
REMARK SMILES CC(C)[C@@H]([NH3+])C(=O)[O-]
REMARK SMILES IDX 4 1 5 2 6 6 7 7 8 8 2 9 1 10 3 11
REMARK H PARENT 5 3 5 4 5 5
REMARK Flexibility Score: inf
ROOT
ATOM      1  C   UNL     1       9.363  38.493  72.299  1.00  0.00     0.230 C 
ENDROOT
BRANCH   1   2
ATOM      2  N   UNL     1       8.354  38.824  73.316  1.00  0.00    -0.350 N 
ATOM      3  H   UNL     1       7.982  37.965  73.780  1.00  0.00     0.345 HD
ATOM      4  H   UNL     1       8.784  39.437  74.047  1.00  0.00     0.345 HD
ATOM      5  H   UNL     1       7.562  39.349  72.878  1.00  0.00     0.345 HD
ENDBRANCH   1   2
BRANCH   1   6
ATOM      6  C   UNL     1      10.170  39.713  71.924  1.00  0.00     0.099 C 
ATOM      7  O   UNL     1      11.080  40.142  72.684  1.00  0.00    -0.544 OA
ATOM      8  O   UNL     1       9.932  40.356  70.716  1.00  0.00    -0.544 OA
ENDBRANCH   1   6
BRANCH   1   9
ATOM      9  C   UNL     1      10.254  37.292  72.737  1.00  0.00     0.047 C 
ATOM     10  C   UNL     1      11.134  36.731  71.608  1.00  0.00     0.014 C 
ATOM     11  C   UNL     1       9.410  36.166  73.355  1.00  0.00     0.014 C 
ENDBRANCH   1   9
TORSDOF 3
ENDMDL
MODEL 8
REMARK VINA RESULT:    -3.885      5.780      6.454
REMARK INTER + INTRA:          -4.507
REMARK INTER:                  -4.454
REMARK INTRA:                  -0.052
REMARK UNBOUND:                -0.054
REMARK SMILES CC(C)[C@@H]([NH3+])C(=O)[O-]
REMARK SMILES IDX 4 1 5 2 6 6 7 7 8 8 2 9 1 10 3 11
REMARK H PARENT 5 3 5 4 5 5
REMARK Flexibility Score: inf
ROOT
ATOM      1  C   UNL     1      10.319  39.017  71.583  1.00  0.00     0.230 C 
ENDROOT
BRANCH   1   2
ATOM      2  N   UNL     1      10.794  40.071  72.492  1.00  0.00    -0.350 N 
ATOM      3  H   UNL     1      11.586  40.609  72.073  1.00  0.00     0.345 HD
ATOM      4  H   UNL     1      10.011  40.734  72.695  1.00  0.00     0.345 HD
ATOM      5  H   UNL     1      11.106  39.649  73.397  1.00  0.00     0.345 HD
ENDBRANCH   1   2
BRANCH   1   6
ATOM      6  C   UNL     1      10.228  39.530  70.165  1.00  0.00     0.099 C 
ATOM      7  O   UNL     1       9.939  40.735  69.934  1.00  0.00    -0.544 OA
ATOM      8  O   UNL     1      10.496  38.677  69.103  1.00  0.00    -0.544 OA
ENDBRANCH   1   6
BRANCH   1   9
ATOM      9  C   UNL     1      11.177  37.721  71.701  1.00  0.00     0.047 C 
ATOM     10  C   UNL     1      10.746  36.796  72.850  1.00  0.00     0.014 C 
ATOM     11  C   UNL     1      12.674  38.051  71.824  1.00  0.00     0.014 C 
ENDBRANCH   1   9
TORSDOF 3
ENDMDL
MODEL 9
REMARK VINA RESULT:    -3.880      6.347      7.106
REMARK INTER + INTRA:          -4.501
REMARK INTER:                  -4.455
REMARK INTRA:                  -0.046
REMARK UNBOUND:                -0.054
REMARK SMILES CC(C)[C@@H]([NH3+])C(=O)[O-]
REMARK SMILES IDX 4 1 5 2 6 6 7 7 8 8 2 9 1 10 3 11
REMARK H PARENT 5 3 5 4 5 5
REMARK Flexibility Score: inf
ROOT
ATOM      1  C   UNL     1      11.415  38.206  71.758  1.00  0.00     0.230 C 
ENDROOT
BRANCH   1   2
ATOM      2  N   UNL     1      12.374  38.762  72.724  1.00  0.00    -0.350 N 
ATOM      3  H   UNL     1      11.923  38.944  73.649  1.00  0.00     0.345 HD
ATOM      4  H   UNL     1      13.160  38.085  72.864  1.00  0.00     0.345 HD
ATOM      5  H   UNL     1      12.776  39.655  72.356  1.00  0.00     0.345 HD
ENDBRANCH   1   2
BRANCH   1   6
ATOM      6  C   UNL     1      11.132  36.752  72.057  1.00  0.00     0.099 C 
ATOM      7  O   UNL     1      10.920  36.366  73.238  1.00  0.00    -0.544 OA
ATOM      8  O   UNL     1      11.075  35.832  71.018  1.00  0.00    -0.544 OA
ENDBRANCH   1   6
BRANCH   1   9
ATOM      9  C   UNL     1      10.118  39.066  71.669  1.00  0.00     0.047 C 
ATOM     10  C   UNL     1      10.070  39.988  70.440  1.00  0.00     0.014 C 
ATOM     11  C   UNL     1       9.903  39.887  72.951  1.00  0.00     0.014 C 
ENDBRANCH   1   9
TORSDOF 3
ENDMDL
