MODEL 1
REMARK VINA RESULT:    -5.068      0.000      0.000
REMARK INTER + INTRA:          -7.461
REMARK INTER:                  -6.846
REMARK INTRA:                  -0.615
REMARK UNBOUND:                -0.615
REMARK SMILES CC(=O)CCC=C(C)CCC=C(C)C
REMARK SMILES IDX 7 1 6 2 8 3 9 4 10 5 11 6 13 7 12 8 14 9 5 10 4 11 2 12 3 13
REMARK SMILES IDX 1 14
REMARK H PARENT
REMARK Flexibility Score: inf
ROOT
ATOM      1  C   UNL     1       1.782   4.599  62.939  1.00  0.00    -0.077 C 
ATOM      2  C   UNL     1       2.861   3.803  63.117  1.00  0.00    -0.028 C 
ATOM      3  C   UNL     1       1.586   5.414  61.682  1.00  0.00     0.039 C 
ENDROOT
BRANCH   1   4
ATOM      4  C   UNL     1       0.760   4.720  64.050  1.00  0.00     0.034 C 
BRANCH   4   5
ATOM      5  C   UNL     1      -0.472   5.518  63.606  1.00  0.00     0.032 C 
BRANCH   5   6
ATOM      6  C   UNL     1      -1.637   4.607  63.298  1.00  0.00    -0.028 C 
ATOM      7  C   UNL     1      -3.310   6.038  64.496  1.00  0.00     0.039 C 
ATOM      8  C   UNL     1      -2.909   4.812  63.711  1.00  0.00    -0.080 C 
ATOM      9  C   UNL     1      -3.947   3.773  63.376  1.00  0.00     0.039 C 
ENDBRANCH   5   6
ENDBRANCH   4   5
ENDBRANCH   1   4
BRANCH   2  10
ATOM     10  C   UNL     1       3.951   3.600  62.095  1.00  0.00     0.035 C 
BRANCH  10  11
ATOM     11  C   UNL     1       5.336   3.757  62.740  1.00  0.00     0.079 C 
BRANCH  11  12
ATOM     12  C   UNL     1       5.787   5.191  62.907  1.00  0.00     0.130 C 
ATOM     13  O   UNL     1       6.455   5.477  63.890  1.00  0.00    -0.300 OA
ATOM     14  C   UNL     1       5.458   6.275  61.918  1.00  0.00     0.087 C 
ENDBRANCH  11  12
ENDBRANCH  10  11
ENDBRANCH   2  10
TORSDOF 6
ENDMDL
MODEL 2
REMARK VINA RESULT:    -5.030      0.601      1.116
REMARK INTER + INTRA:          -7.410
REMARK INTER:                  -6.835
REMARK INTRA:                  -0.575
REMARK UNBOUND:                -0.615
REMARK SMILES CC(=O)CCC=C(C)CCC=C(C)C
REMARK SMILES IDX 7 1 6 2 8 3 9 4 10 5 11 6 13 7 12 8 14 9 5 10 4 11 2 12 3 13
REMARK SMILES IDX 1 14
REMARK H PARENT
REMARK Flexibility Score: inf
ROOT
ATOM      1  C   UNL     1       1.723   4.874  62.651  1.00  0.00    -0.077 C 
ATOM      2  C   UNL     1       2.681   3.995  63.025  1.00  0.00    -0.028 C 
ATOM      3  C   UNL     1       1.662   5.444  61.252  1.00  0.00     0.039 C 
ENDROOT
BRANCH   1   4
ATOM      4  C   UNL     1       0.708   5.343  63.672  1.00  0.00     0.034 C 
BRANCH   4   5
ATOM      5  C   UNL     1      -0.679   4.742  63.413  1.00  0.00     0.032 C 
BRANCH   5   6
ATOM      6  C   UNL     1      -1.765   5.559  64.073  1.00  0.00    -0.028 C 
ATOM      7  C   UNL     1      -3.611   4.022  63.357  1.00  0.00     0.039 C 
ATOM      8  C   UNL     1      -3.085   5.264  64.036  1.00  0.00    -0.080 C 
ATOM      9  C   UNL     1      -4.050   6.218  64.691  1.00  0.00     0.039 C 
ENDBRANCH   5   6
ENDBRANCH   4   5
ENDBRANCH   1   4
BRANCH   2  10
ATOM     10  C   UNL     1       3.750   3.455  62.110  1.00  0.00     0.035 C 
BRANCH  10  11
ATOM     11  C   UNL     1       5.141   3.626  62.739  1.00  0.00     0.079 C 
BRANCH  11  12
ATOM     12  C   UNL     1       5.675   5.040  62.697  1.00  0.00     0.130 C 
ATOM     13  O   UNL     1       6.131   5.518  63.726  1.00  0.00    -0.300 OA
ATOM     14  C   UNL     1       5.676   5.880  61.449  1.00  0.00     0.087 C 
ENDBRANCH  11  12
ENDBRANCH  10  11
ENDBRANCH   2  10
TORSDOF 6
ENDMDL
MODEL 3
REMARK VINA RESULT:    -4.985      2.930      7.025
REMARK INTER + INTRA:          -7.349
REMARK INTER:                  -6.627
REMARK INTRA:                  -0.722
REMARK UNBOUND:                -0.615
REMARK SMILES CC(=O)CCC=C(C)CCC=C(C)C
REMARK SMILES IDX 7 1 6 2 8 3 9 4 10 5 11 6 13 7 12 8 14 9 5 10 4 11 2 12 3 13
REMARK SMILES IDX 1 14
REMARK H PARENT
REMARK Flexibility Score: inf
ROOT
ATOM      1  C   UNL     1      -0.411   4.729  63.994  1.00  0.00    -0.077 C 
ATOM      2  C   UNL     1      -1.581   4.741  63.314  1.00  0.00    -0.028 C 
ATOM      3  C   UNL     1      -0.274   4.055  65.339  1.00  0.00     0.039 C 
ENDROOT
BRANCH   1   4
ATOM      4  C   UNL     1       0.786   5.456  63.419  1.00  0.00     0.034 C 
BRANCH   4   5
ATOM      5  C   UNL     1       1.083   5.014  61.981  1.00  0.00     0.032 C 
BRANCH   5   6
ATOM      6  C   UNL     1       2.488   5.388  61.568  1.00  0.00    -0.028 C 
ATOM      7  C   UNL     1       3.502   3.259  62.415  1.00  0.00     0.039 C 
ATOM      8  C   UNL     1       3.585   4.626  61.778  1.00  0.00    -0.080 C 
ATOM      9  C   UNL     1       4.927   5.172  61.364  1.00  0.00     0.039 C 
ENDBRANCH   5   6
ENDBRANCH   4   5
ENDBRANCH   1   4
BRANCH   2  10
ATOM     10  C   UNL     1      -2.846   4.063  63.777  1.00  0.00     0.035 C 
BRANCH  10  11
ATOM     11  C   UNL     1      -3.956   5.096  64.024  1.00  0.00     0.079 C 
BRANCH  11  12
ATOM     12  C   UNL     1      -3.650   6.089  65.123  1.00  0.00     0.130 C 
ATOM     13  O   UNL     1      -3.443   5.660  66.249  1.00  0.00    -0.300 OA
ATOM     14  C   UNL     1      -3.584   7.573  64.893  1.00  0.00     0.087 C 
ENDBRANCH  11  12
ENDBRANCH  10  11
ENDBRANCH   2  10
TORSDOF 6
ENDMDL
MODEL 4
REMARK VINA RESULT:    -4.921      3.037      6.943
REMARK INTER + INTRA:          -7.262
REMARK INTER:                  -6.669
REMARK INTRA:                  -0.593
REMARK UNBOUND:                -0.615
REMARK SMILES CC(=O)CCC=C(C)CCC=C(C)C
REMARK SMILES IDX 7 1 6 2 8 3 9 4 10 5 11 6 13 7 12 8 14 9 5 10 4 11 2 12 3 13
REMARK SMILES IDX 1 14
REMARK H PARENT
REMARK Flexibility Score: inf
ROOT
ATOM      1  C   UNL     1      -0.538   5.351  63.613  1.00  0.00    -0.077 C 
ATOM      2  C   UNL     1      -1.500   4.463  63.276  1.00  0.00    -0.028 C 
ATOM      3  C   UNL     1      -0.866   6.690  64.232  1.00  0.00     0.039 C 
ENDROOT
BRANCH   1   4
ATOM      4  C   UNL     1       0.910   5.022  63.318  1.00  0.00     0.034 C 
BRANCH   4   5
ATOM      5  C   UNL     1       1.203   5.043  61.813  1.00  0.00     0.032 C 
BRANCH   5   6
ATOM      6  C   UNL     1       2.606   5.530  61.531  1.00  0.00    -0.028 C 
ATOM      7  C   UNL     1       3.683   3.351  62.144  1.00  0.00     0.039 C 
ATOM      8  C   UNL     1       3.728   4.794  61.699  1.00  0.00    -0.080 C 
ATOM      9  C   UNL     1       5.059   5.448  61.435  1.00  0.00     0.039 C 
ENDBRANCH   5   6
ENDBRANCH   4   5
ENDBRANCH   1   4
BRANCH   2  10
ATOM     10  C   UNL     1      -2.976   4.670  63.508  1.00  0.00     0.035 C 
BRANCH  10  11
ATOM     11  C   UNL     1      -3.507   3.675  64.551  1.00  0.00     0.079 C 
BRANCH  11  12
ATOM     12  C   UNL     1      -2.911   3.840  65.931  1.00  0.00     0.130 C 
ATOM     13  O   UNL     1      -3.260   4.802  66.600  1.00  0.00    -0.300 OA
ATOM     14  C   UNL     1      -1.918   2.875  66.517  1.00  0.00     0.087 C 
ENDBRANCH  11  12
ENDBRANCH  10  11
ENDBRANCH   2  10
TORSDOF 6
ENDMDL
MODEL 5
REMARK VINA RESULT:    -4.894      1.307      1.919
REMARK INTER + INTRA:          -7.226
REMARK INTER:                  -6.715
REMARK INTRA:                  -0.511
REMARK UNBOUND:                -0.615
REMARK SMILES CC(=O)CCC=C(C)CCC=C(C)C
REMARK SMILES IDX 7 1 6 2 8 3 9 4 10 5 11 6 13 7 12 8 14 9 5 10 4 11 2 12 3 13
REMARK SMILES IDX 1 14
REMARK H PARENT
REMARK Flexibility Score: inf
ROOT
ATOM      1  C   UNL     1       0.458   6.178  63.029  1.00  0.00    -0.077 C 
ATOM      2  C   UNL     1       1.033   5.035  62.591  1.00  0.00    -0.028 C 
ATOM      3  C   UNL     1       1.028   7.538  62.698  1.00  0.00     0.039 C 
ENDROOT
BRANCH   1   4
ATOM      4  C   UNL     1      -0.765   6.099  63.918  1.00  0.00     0.034 C 
BRANCH   4   5
ATOM      5  C   UNL     1      -1.272   4.659  64.061  1.00  0.00     0.032 C 
BRANCH   5   6
ATOM      6  C   UNL     1      -2.626   4.484  63.413  1.00  0.00    -0.028 C 
ATOM      7  C   UNL     1      -3.597   3.232  65.354  1.00  0.00     0.039 C 
ATOM      8  C   UNL     1      -3.668   3.826  63.968  1.00  0.00    -0.080 C 
ATOM      9  C   UNL     1      -4.935   3.683  63.163  1.00  0.00     0.039 C 
ENDBRANCH   5   6
ENDBRANCH   4   5
ENDBRANCH   1   4
BRANCH   2  10
ATOM     10  C   UNL     1       2.254   4.975  61.708  1.00  0.00     0.035 C 
BRANCH  10  11
ATOM     11  C   UNL     1       3.222   3.884  62.192  1.00  0.00     0.079 C 
BRANCH  11  12
ATOM     12  C   UNL     1       4.670   4.316  62.245  1.00  0.00     0.130 C 
ATOM     13  O   UNL     1       5.428   3.708  62.986  1.00  0.00    -0.300 OA
ATOM     14  C   UNL     1       5.219   5.451  61.425  1.00  0.00     0.087 C 
ENDBRANCH  11  12
ENDBRANCH  10  11
ENDBRANCH   2  10
TORSDOF 6
ENDMDL
MODEL 6
REMARK VINA RESULT:    -4.865      1.385      2.246
REMARK INTER + INTRA:          -7.186
REMARK INTER:                  -6.835
REMARK INTRA:                  -0.351
REMARK UNBOUND:                -0.615
REMARK SMILES CC(=O)CCC=C(C)CCC=C(C)C
REMARK SMILES IDX 7 1 6 2 8 3 9 4 10 5 11 6 13 7 12 8 14 9 5 10 4 11 2 12 3 13
REMARK SMILES IDX 1 14
REMARK H PARENT
REMARK Flexibility Score: inf
ROOT
ATOM      1  C   UNL     1       3.064   4.899  61.882  1.00  0.00    -0.077 C 
ATOM      2  C   UNL     1       4.003   5.753  61.415  1.00  0.00    -0.028 C 
ATOM      3  C   UNL     1       3.415   3.514  62.371  1.00  0.00     0.039 C 
ENDROOT
BRANCH   1   4
ATOM      4  C   UNL     1       1.609   5.320  61.871  1.00  0.00     0.034 C 
BRANCH   4   5
ATOM      5  C   UNL     1       0.879   4.876  63.143  1.00  0.00     0.032 C 
BRANCH   5   6
ATOM      6  C   UNL     1      -0.618   4.845  62.938  1.00  0.00    -0.028 C 
ATOM      7  C   UNL     1      -1.112   4.149  65.295  1.00  0.00     0.039 C 
ATOM      8  C   UNL     1      -1.521   4.497  63.883  1.00  0.00    -0.080 C 
ATOM      9  C   UNL     1      -2.978   4.453  63.500  1.00  0.00     0.039 C 
ENDBRANCH   5   6
ENDBRANCH   4   5
ENDBRANCH   1   4
BRANCH   2  10
ATOM     10  C   UNL     1       5.480   5.457  61.366  1.00  0.00     0.035 C 
BRANCH  10  11
ATOM     11  C   UNL     1       6.267   6.475  62.205  1.00  0.00     0.079 C 
BRANCH  11  12
ATOM     12  C   UNL     1       7.424   5.883  62.980  1.00  0.00     0.130 C 
ATOM     13  O   UNL     1       7.349   5.855  64.200  1.00  0.00    -0.300 OA
ATOM     14  C   UNL     1       8.653   5.324  62.319  1.00  0.00     0.087 C 
ENDBRANCH  11  12
ENDBRANCH  10  11
ENDBRANCH   2  10
TORSDOF 6
ENDMDL
MODEL 7
REMARK VINA RESULT:    -4.799      3.144      6.469
REMARK INTER + INTRA:          -7.097
REMARK INTER:                  -6.133
REMARK INTRA:                  -0.964
REMARK UNBOUND:                -0.615
REMARK SMILES CC(=O)CCC=C(C)CCC=C(C)C
REMARK SMILES IDX 7 1 6 2 8 3 9 4 10 5 11 6 13 7 12 8 14 9 5 10 4 11 2 12 3 13
REMARK SMILES IDX 1 14
REMARK H PARENT
REMARK Flexibility Score: inf
ROOT
ATOM      1  C   UNL     1      -0.085   4.932  63.680  1.00  0.00    -0.077 C 
ATOM      2  C   UNL     1       0.581   4.458  64.758  1.00  0.00    -0.028 C 
ATOM      3  C   UNL     1      -1.529   4.578  63.412  1.00  0.00     0.039 C 
ENDROOT
BRANCH   1   4
ATOM      4  C   UNL     1       0.647   5.805  62.682  1.00  0.00     0.034 C 
BRANCH   4   5
ATOM      5  C   UNL     1       1.357   4.969  61.610  1.00  0.00     0.032 C 
BRANCH   5   6
ATOM      6  C   UNL     1       2.828   5.306  61.533  1.00  0.00    -0.028 C 
ATOM      7  C   UNL     1       3.559   3.199  62.676  1.00  0.00     0.039 C 
ATOM      8  C   UNL     1       3.824   4.537  62.028  1.00  0.00    -0.080 C 
ATOM      9  C   UNL     1       5.239   5.047  61.929  1.00  0.00     0.039 C 
ENDBRANCH   5   6
ENDBRANCH   4   5
ENDBRANCH   1   4
BRANCH   2  10
ATOM     10  C   UNL     1      -0.027   3.578  65.820  1.00  0.00     0.035 C 
BRANCH  10  11
ATOM     11  C   UNL     1      -0.289   4.378  67.105  1.00  0.00     0.079 C 
BRANCH  11  12
ATOM     12  C   UNL     1      -1.677   4.973  67.197  1.00  0.00     0.130 C 
ATOM     13  O   UNL     1      -2.561   4.303  67.711  1.00  0.00    -0.300 OA
ATOM     14  C   UNL     1      -2.015   6.348  66.691  1.00  0.00     0.087 C 
ENDBRANCH  11  12
ENDBRANCH  10  11
ENDBRANCH   2  10
TORSDOF 6
ENDMDL
MODEL 8
REMARK VINA RESULT:    -4.692      1.592      2.723
REMARK INTER + INTRA:          -6.953
REMARK INTER:                  -5.906
REMARK INTRA:                  -1.046
REMARK UNBOUND:                -0.615
REMARK SMILES CC(=O)CCC=C(C)CCC=C(C)C
REMARK SMILES IDX 7 1 6 2 8 3 9 4 10 5 11 6 13 7 12 8 14 9 5 10 4 11 2 12 3 13
REMARK SMILES IDX 1 14
REMARK H PARENT
REMARK Flexibility Score: inf
ROOT
ATOM      1  C   UNL     1       0.497   4.762  64.892  1.00  0.00    -0.077 C 
ATOM      2  C   UNL     1       0.357   4.702  63.548  1.00  0.00    -0.028 C 
ATOM      3  C   UNL     1       1.297   5.852  65.566  1.00  0.00     0.039 C 
ENDROOT
BRANCH   1   4
ATOM      4  C   UNL     1      -0.122   3.678  65.750  1.00  0.00     0.034 C 
BRANCH   4   5
ATOM      5  C   UNL     1      -1.551   4.037  66.175  1.00  0.00     0.032 C 
BRANCH   5   6
ATOM      6  C   UNL     1      -2.560   3.612  65.134  1.00  0.00    -0.028 C 
ATOM      7  C   UNL     1      -3.036   5.952  64.373  1.00  0.00     0.039 C 
ATOM      8  C   UNL     1      -3.252   4.458  64.337  1.00  0.00    -0.080 C 
ATOM      9  C   UNL     1      -4.272   3.877  63.392  1.00  0.00     0.039 C 
ENDBRANCH   5   6
ENDBRANCH   4   5
ENDBRANCH   1   4
BRANCH   2  10
ATOM     10  C   UNL     1       0.928   5.710  62.583  1.00  0.00     0.035 C 
BRANCH  10  11
ATOM     11  C   UNL     1       1.975   5.056  61.670  1.00  0.00     0.079 C 
BRANCH  11  12
ATOM     12  C   UNL     1       3.238   4.621  62.380  1.00  0.00     0.130 C 
ATOM     13  O   UNL     1       3.842   5.449  63.046  1.00  0.00    -0.300 OA
ATOM     14  C   UNL     1       3.777   3.219  62.310  1.00  0.00     0.087 C 
ENDBRANCH  11  12
ENDBRANCH  10  11
ENDBRANCH   2  10
TORSDOF 6
ENDMDL
MODEL 9
REMARK VINA RESULT:    -4.617      2.363      3.985
REMARK INTER + INTRA:          -6.852
REMARK INTER:                  -5.965
REMARK INTRA:                  -0.887
REMARK UNBOUND:                -0.615
REMARK SMILES CC(=O)CCC=C(C)CCC=C(C)C
REMARK SMILES IDX 7 1 6 2 8 3 9 4 10 5 11 6 13 7 12 8 14 9 5 10 4 11 2 12 3 13
REMARK SMILES IDX 1 14
REMARK H PARENT
REMARK Flexibility Score: inf
ROOT
ATOM      1  C   UNL     1      -1.851   5.335  63.782  1.00  0.00    -0.077 C 
ATOM      2  C   UNL     1      -0.792   4.727  63.201  1.00  0.00    -0.028 C 
ATOM      3  C   UNL     1      -1.723   6.668  64.482  1.00  0.00     0.039 C 
ENDROOT
BRANCH   1   4
ATOM      4  C   UNL     1      -3.197   4.642  63.779  1.00  0.00     0.034 C 
BRANCH   4   5
ATOM      5  C   UNL     1      -3.223   3.445  64.738  1.00  0.00     0.032 C 
BRANCH   5   6
ATOM      6  C   UNL     1      -3.133   3.891  66.178  1.00  0.00    -0.028 C 
ATOM      7  C   UNL     1      -0.838   2.945  66.521  1.00  0.00     0.039 C 
ATOM      8  C   UNL     1      -2.083   3.653  66.997  1.00  0.00    -0.080 C 
ATOM      9  C   UNL     1      -2.176   4.108  68.431  1.00  0.00     0.039 C 
ENDBRANCH   5   6
ENDBRANCH   4   5
ENDBRANCH   1   4
BRANCH   2  10
ATOM     10  C   UNL     1       0.600   5.304  63.140  1.00  0.00     0.035 C 
BRANCH  10  11
ATOM     11  C   UNL     1       1.235   5.047  61.766  1.00  0.00     0.079 C 
BRANCH  11  12
ATOM     12  C   UNL     1       2.740   4.896  61.793  1.00  0.00     0.130 C 
ATOM     13  O   UNL     1       3.422   5.822  61.381  1.00  0.00    -0.300 OA
ATOM     14  C   UNL     1       3.431   3.664  62.308  1.00  0.00     0.087 C 
ENDBRANCH  11  12
ENDBRANCH  10  11
ENDBRANCH   2  10
TORSDOF 6
ENDMDL
