MODEL 1
REMARK VINA RESULT:    -3.647      0.000      0.000
REMARK INTER + INTRA:          -5.062
REMARK INTER:                  -4.713
REMARK INTRA:                  -0.349
REMARK UNBOUND:                -0.349
REMARK SMILES CCCCCCC(=O)[O-]
REMARK SMILES IDX 5 1 6 2 7 3 8 4 9 5 4 6 3 7 2 8 1 9
REMARK H PARENT
REMARK Flexibility Score: inf
ROOT
ATOM      1  C   UNL     1     -14.237   2.871  12.684  1.00  0.00     0.006 C 
ENDROOT
BRANCH   1   2
ATOM      2  C   UNL     1     -14.219   4.286  13.278  1.00  0.00     0.053 C 
BRANCH   2   3
ATOM      3  C   UNL     1     -12.821   4.780  13.490  1.00  0.00     0.041 C 
ATOM      4  O   UNL     1     -12.008   4.812  12.530  1.00  0.00    -0.550 OA
ATOM      5  O   UNL     1     -12.426   5.239  14.741  1.00  0.00    -0.550 OA
ENDBRANCH   2   3
ENDBRANCH   1   2
BRANCH   1   6
ATOM      6  C   UNL     1     -13.589   1.838  13.623  1.00  0.00     0.000 C 
BRANCH   6   7
ATOM      7  C   UNL     1     -12.517   0.992  12.920  1.00  0.00    -0.000 C 
BRANCH   7   8
ATOM      8  C   UNL     1     -12.259   1.446  11.476  1.00  0.00    -0.003 C 
ATOM      9  C   UNL     1     -10.855   1.060  11.021  1.00  0.00     0.004 C 
ENDBRANCH   7   8
ENDBRANCH   6   7
ENDBRANCH   1   6
TORSDOF 5
ENDMDL
MODEL 2
REMARK VINA RESULT:    -3.622      1.392      1.759
REMARK INTER + INTRA:          -5.029
REMARK INTER:                  -4.917
REMARK INTRA:                  -0.112
REMARK UNBOUND:                -0.349
REMARK SMILES CCCCCCC(=O)[O-]
REMARK SMILES IDX 5 1 6 2 7 3 8 4 9 5 4 6 3 7 2 8 1 9
REMARK H PARENT
REMARK Flexibility Score: inf
ROOT
ATOM      1  C   UNL     1     -13.244   4.519  12.451  1.00  0.00     0.006 C 
ENDROOT
BRANCH   1   2
ATOM      2  C   UNL     1     -14.145   4.380  13.685  1.00  0.00     0.053 C 
BRANCH   2   3
ATOM      3  C   UNL     1     -13.548   5.048  14.886  1.00  0.00     0.041 C 
ATOM      4  O   UNL     1     -12.309   5.264  14.940  1.00  0.00    -0.550 OA
ATOM      5  O   UNL     1     -14.365   5.462  15.930  1.00  0.00    -0.550 OA
ENDBRANCH   2   3
ENDBRANCH   1   2
BRANCH   1   6
ATOM      6  C   UNL     1     -13.391   3.328  11.487  1.00  0.00     0.000 C 
BRANCH   6   7
ATOM      7  C   UNL     1     -12.520   2.129  11.891  1.00  0.00    -0.000 C 
BRANCH   7   8
ATOM      8  C   UNL     1     -11.972   1.361  10.679  1.00  0.00    -0.003 C 
ATOM      9  C   UNL     1     -10.544   0.888  10.928  1.00  0.00     0.004 C 
ENDBRANCH   7   8
ENDBRANCH   6   7
ENDBRANCH   1   6
TORSDOF 5
ENDMDL
MODEL 3
REMARK VINA RESULT:    -3.576      0.265      1.112
REMARK INTER + INTRA:          -4.971
REMARK INTER:                  -4.635
REMARK INTRA:                  -0.336
REMARK UNBOUND:                -0.349
REMARK SMILES CCCCCCC(=O)[O-]
REMARK SMILES IDX 5 1 6 2 7 3 8 4 9 5 4 6 3 7 2 8 1 9
REMARK H PARENT
REMARK Flexibility Score: inf
ROOT
ATOM      1  C   UNL     1     -14.425   3.011  12.730  1.00  0.00     0.006 C 
ENDROOT
BRANCH   1   2
ATOM      2  C   UNL     1     -14.320   4.319  13.525  1.00  0.00     0.053 C 
BRANCH   2   3
ATOM      3  C   UNL     1     -12.904   4.800  13.620  1.00  0.00     0.041 C 
ATOM      4  O   UNL     1     -12.447   5.208  14.720  1.00  0.00    -0.550 OA
ATOM      5  O   UNL     1     -12.079   4.764  12.503  1.00  0.00    -0.550 OA
ENDBRANCH   2   3
ENDBRANCH   1   2
BRANCH   1   6
ATOM      6  C   UNL     1     -13.998   1.789  13.563  1.00  0.00     0.000 C 
BRANCH   6   7
ATOM      7  C   UNL     1     -12.690   1.160  13.061  1.00  0.00    -0.000 C 
BRANCH   7   8
ATOM      8  C   UNL     1     -12.556   1.216  11.532  1.00  0.00    -0.003 C 
ATOM      9  C   UNL     1     -11.093   1.148  11.105  1.00  0.00     0.004 C 
ENDBRANCH   7   8
ENDBRANCH   6   7
ENDBRANCH   1   6
TORSDOF 5
ENDMDL
MODEL 4
REMARK VINA RESULT:    -3.547      9.159     11.354
REMARK INTER + INTRA:          -4.933
REMARK INTER:                  -4.833
REMARK INTRA:                  -0.100
REMARK UNBOUND:                -0.349
REMARK SMILES CCCCCCC(=O)[O-]
REMARK SMILES IDX 5 1 6 2 7 3 8 4 9 5 4 6 3 7 2 8 1 9
REMARK H PARENT
REMARK Flexibility Score: inf
ROOT
ATOM      1  C   UNL     1     -19.105   9.228  17.795  1.00  0.00     0.006 C 
ENDROOT
BRANCH   1   2
ATOM      2  C   UNL     1     -19.268   7.827  18.399  1.00  0.00     0.053 C 
BRANCH   2   3
ATOM      3  C   UNL     1     -17.984   7.318  18.979  1.00  0.00     0.041 C 
ATOM      4  O   UNL     1     -17.992   6.652  20.048  1.00  0.00    -0.550 OA
ATOM      5  O   UNL     1     -16.782   7.549  18.321  1.00  0.00    -0.550 OA
ENDBRANCH   2   3
ENDBRANCH   1   2
BRANCH   1   6
ATOM      6  C   UNL     1     -20.118  10.231  18.373  1.00  0.00     0.000 C 
BRANCH   6   7
ATOM      7  C   UNL     1     -19.528  11.641  18.531  1.00  0.00    -0.000 C 
BRANCH   7   8
ATOM      8  C   UNL     1     -19.390  12.378  17.191  1.00  0.00    -0.003 C 
ATOM      9  C   UNL     1     -19.323  13.888  17.398  1.00  0.00     0.004 C 
ENDBRANCH   7   8
ENDBRANCH   6   7
ENDBRANCH   1   6
TORSDOF 5
ENDMDL
MODEL 5
REMARK VINA RESULT:    -3.480      2.159      2.714
REMARK INTER + INTRA:          -4.846
REMARK INTER:                  -4.496
REMARK INTRA:                  -0.350
REMARK UNBOUND:                -0.349
REMARK SMILES CCCCCCC(=O)[O-]
REMARK SMILES IDX 5 1 6 2 7 3 8 4 9 5 4 6 3 7 2 8 1 9
REMARK H PARENT
REMARK Flexibility Score: inf
ROOT
ATOM      1  C   UNL     1     -15.001   3.239  14.377  1.00  0.00     0.006 C 
ENDROOT
BRANCH   1   2
ATOM      2  C   UNL     1     -13.492   3.125  14.633  1.00  0.00     0.053 C 
BRANCH   2   3
ATOM      3  C   UNL     1     -12.956   4.332  15.339  1.00  0.00     0.041 C 
ATOM      4  O   UNL     1     -12.406   5.256  14.684  1.00  0.00    -0.550 OA
ATOM      5  O   UNL     1     -13.095   4.454  16.716  1.00  0.00    -0.550 OA
ENDBRANCH   2   3
ENDBRANCH   1   2
BRANCH   1   6
ATOM      6  C   UNL     1     -15.329   3.351  12.878  1.00  0.00     0.000 C 
BRANCH   6   7
ATOM      7  C   UNL     1     -14.262   2.694  11.989  1.00  0.00    -0.000 C 
BRANCH   7   8
ATOM      8  C   UNL     1     -13.818   3.600  10.831  1.00  0.00    -0.003 C 
ATOM      9  C   UNL     1     -13.869   5.071  11.234  1.00  0.00     0.004 C 
ENDBRANCH   7   8
ENDBRANCH   6   7
ENDBRANCH   1   6
TORSDOF 5
ENDMDL
MODEL 6
REMARK VINA RESULT:    -3.471      3.354      5.075
REMARK INTER + INTRA:          -4.834
REMARK INTER:                  -4.664
REMARK INTRA:                  -0.170
REMARK UNBOUND:                -0.349
REMARK SMILES CCCCCCC(=O)[O-]
REMARK SMILES IDX 5 1 6 2 7 3 8 4 9 5 4 6 3 7 2 8 1 9
REMARK H PARENT
REMARK Flexibility Score: inf
ROOT
ATOM      1  C   UNL     1     -14.351   3.169  15.004  1.00  0.00     0.006 C 
ENDROOT
BRANCH   1   2
ATOM      2  C   UNL     1     -14.224   4.098  13.790  1.00  0.00     0.053 C 
BRANCH   2   3
ATOM      3  C   UNL     1     -12.872   4.740  13.721  1.00  0.00     0.041 C 
ATOM      4  O   UNL     1     -12.368   5.266  14.747  1.00  0.00    -0.550 OA
ATOM      5  O   UNL     1     -12.154   4.726  12.532  1.00  0.00    -0.550 OA
ENDBRANCH   2   3
ENDBRANCH   1   2
BRANCH   1   6
ATOM      6  C   UNL     1     -15.448   3.633  15.979  1.00  0.00     0.000 C 
BRANCH   6   7
ATOM      7  C   UNL     1     -14.874   4.310  17.234  1.00  0.00    -0.000 C 
BRANCH   7   8
ATOM      8  C   UNL     1     -15.796   4.169  18.455  1.00  0.00    -0.003 C 
ATOM      9  C   UNL     1     -15.013   3.723  19.685  1.00  0.00     0.004 C 
ENDBRANCH   7   8
ENDBRANCH   6   7
ENDBRANCH   1   6
TORSDOF 5
ENDMDL
MODEL 7
REMARK VINA RESULT:    -3.427      9.912     11.677
REMARK INTER + INTRA:          -4.777
REMARK INTER:                  -4.410
REMARK INTRA:                  -0.367
REMARK UNBOUND:                -0.349
REMARK SMILES CCCCCCC(=O)[O-]
REMARK SMILES IDX 5 1 6 2 7 3 8 4 9 5 4 6 3 7 2 8 1 9
REMARK H PARENT
REMARK Flexibility Score: inf
ROOT
ATOM      1  C   UNL     1     -20.492  11.119  17.838  1.00  0.00     0.006 C 
ENDROOT
BRANCH   1   2
ATOM      2  C   UNL     1     -20.318   9.598  17.928  1.00  0.00     0.053 C 
BRANCH   2   3
ATOM      3  C   UNL     1     -19.073   9.139  17.231  1.00  0.00     0.041 C 
ATOM      4  O   UNL     1     -18.863   9.463  16.033  1.00  0.00    -0.550 OA
ATOM      5  O   UNL     1     -18.130   8.382  17.915  1.00  0.00    -0.550 OA
ENDBRANCH   2   3
ENDBRANCH   1   2
BRANCH   1   6
ATOM      6  C   UNL     1     -19.443  11.875  18.673  1.00  0.00     0.000 C 
BRANCH   6   7
ATOM      7  C   UNL     1     -18.831  13.064  17.918  1.00  0.00    -0.000 C 
BRANCH   7   8
ATOM      8  C   UNL     1     -19.249  13.104  16.440  1.00  0.00    -0.003 C 
ATOM      9  C   UNL     1     -18.035  13.248  15.529  1.00  0.00     0.004 C 
ENDBRANCH   7   8
ENDBRANCH   6   7
ENDBRANCH   1   6
TORSDOF 5
ENDMDL
MODEL 8
REMARK VINA RESULT:    -3.416      2.107      3.307
REMARK INTER + INTRA:          -4.763
REMARK INTER:                  -4.452
REMARK INTRA:                  -0.311
REMARK UNBOUND:                -0.349
REMARK SMILES CCCCCCC(=O)[O-]
REMARK SMILES IDX 5 1 6 2 7 3 8 4 9 5 4 6 3 7 2 8 1 9
REMARK H PARENT
REMARK Flexibility Score: inf
ROOT
ATOM      1  C   UNL     1     -13.118   4.095  12.640  1.00  0.00     0.006 C 
ENDROOT
BRANCH   1   2
ATOM      2  C   UNL     1     -13.845   5.167  13.463  1.00  0.00     0.053 C 
BRANCH   2   3
ATOM      3  C   UNL     1     -13.420   5.148  14.899  1.00  0.00     0.041 C 
ATOM      4  O   UNL     1     -12.218   4.926  15.200  1.00  0.00    -0.550 OA
ATOM      5  O   UNL     1     -14.343   5.411  15.903  1.00  0.00    -0.550 OA
ENDBRANCH   2   3
ENDBRANCH   1   2
BRANCH   1   6
ATOM      6  C   UNL     1     -14.019   2.884  12.338  1.00  0.00     0.000 C 
BRANCH   6   7
ATOM      7  C   UNL     1     -15.377   3.292  11.747  1.00  0.00    -0.000 C 
BRANCH   7   8
ATOM      8  C   UNL     1     -16.554   2.565  12.415  1.00  0.00    -0.003 C 
ATOM      9  C   UNL     1     -16.412   2.571  13.934  1.00  0.00     0.004 C 
ENDBRANCH   7   8
ENDBRANCH   6   7
ENDBRANCH   1   6
TORSDOF 5
ENDMDL
MODEL 9
REMARK VINA RESULT:    -3.339      9.557     11.623
REMARK INTER + INTRA:          -4.664
REMARK INTER:                  -4.441
REMARK INTRA:                  -0.223
REMARK UNBOUND:                -0.349
REMARK SMILES CCCCCCC(=O)[O-]
REMARK SMILES IDX 5 1 6 2 7 3 8 4 9 5 4 6 3 7 2 8 1 9
REMARK H PARENT
REMARK Flexibility Score: inf
ROOT
ATOM      1  C   UNL     1     -18.796  12.402  15.212  1.00  0.00     0.006 C 
ENDROOT
BRANCH   1   2
ATOM      2  C   UNL     1     -18.912  10.985  14.636  1.00  0.00     0.053 C 
BRANCH   2   3
ATOM      3  C   UNL     1     -18.120  10.831  13.375  1.00  0.00     0.041 C 
ATOM      4  O   UNL     1     -16.867  10.718  13.424  1.00  0.00    -0.550 OA
ATOM      5  O   UNL     1     -18.767  10.776  12.147  1.00  0.00    -0.550 OA
ENDBRANCH   2   3
ENDBRANCH   1   2
BRANCH   1   6
ATOM      6  C   UNL     1     -19.764  12.634  16.386  1.00  0.00     0.000 C 
BRANCH   6   7
ATOM      7  C   UNL     1     -19.052  13.156  17.644  1.00  0.00    -0.000 C 
BRANCH   7   8
ATOM      8  C   UNL     1     -19.129  12.168  18.818  1.00  0.00    -0.003 C 
ATOM      9  C   UNL     1     -19.972  10.950  18.457  1.00  0.00     0.004 C 
ENDBRANCH   7   8
ENDBRANCH   6   7
ENDBRANCH   1   6
TORSDOF 5
ENDMDL
