MODEL 1
REMARK VINA RESULT:    -3.760      0.000      0.000
REMARK INTER + INTRA:          -4.103
REMARK INTER:                  -4.090
REMARK INTRA:                  -0.013
REMARK UNBOUND:                -0.013
REMARK SMILES OCc1ccco1
REMARK SMILES IDX 2 1 3 2 5 3 6 4 4 5 7 6 1 7
REMARK H PARENT 1 8
REMARK Flexibility Score: inf
ROOT
ATOM      1  C   UNL     1       4.719   2.771  17.671  1.00  0.00     0.231 C 
ENDROOT
BRANCH   1   2
ATOM      2  C   UNL     1       5.073   1.322  17.563  1.00  0.00     0.129 A 
ATOM      3  C   UNL     1       5.056  -0.864  17.767  1.00  0.00     0.042 A 
ATOM      4  C   UNL     1       6.180  -0.436  17.089  1.00  0.00     0.195 A 
ATOM      5  C   UNL     1       4.341   0.272  18.077  1.00  0.00     0.048 A 
ATOM      6  O   UNL     1       6.163   0.873  16.986  1.00  0.00    -0.467 OA
ENDBRANCH   1   2
BRANCH   1   7
ATOM      7  O   UNL     1       3.594   3.050  16.884  1.00  0.00    -0.388 OA
ATOM      8  H   UNL     1       3.169   2.178  16.677  1.00  0.00     0.211 HD
ENDBRANCH   1   7
TORSDOF 2
ENDMDL
MODEL 2
REMARK VINA RESULT:    -3.680      2.221      3.062
REMARK INTER + INTRA:          -4.015
REMARK INTER:                  -3.997
REMARK INTRA:                  -0.018
REMARK UNBOUND:                -0.013
REMARK SMILES OCc1ccco1
REMARK SMILES IDX 2 1 3 2 5 3 6 4 4 5 7 6 1 7
REMARK H PARENT 1 8
REMARK Flexibility Score: inf
ROOT
ATOM      1  C   UNL     1       4.561   3.238  14.778  1.00  0.00     0.231 C 
ENDROOT
BRANCH   1   2
ATOM      2  C   UNL     1       4.658   3.037  16.257  1.00  0.00     0.129 A 
ATOM      3  C   UNL     1       4.925   2.132  18.239  1.00  0.00     0.042 A 
ATOM      4  C   UNL     1       4.554   3.458  18.343  1.00  0.00     0.195 A 
ATOM      5  C   UNL     1       4.989   1.857  16.890  1.00  0.00     0.048 A 
ATOM      6  O   UNL     1       4.400   3.969  17.143  1.00  0.00    -0.467 OA
ENDBRANCH   1   2
BRANCH   1   7
ATOM      7  O   UNL     1       3.315   3.789  14.449  1.00  0.00    -0.388 OA
ATOM      8  H   UNL     1       2.850   3.973  15.307  1.00  0.00     0.211 HD
ENDBRANCH   1   7
TORSDOF 2
ENDMDL
MODEL 3
REMARK VINA RESULT:    -3.654      1.749      3.229
REMARK INTER + INTRA:          -3.987
REMARK INTER:                  -3.974
REMARK INTRA:                  -0.013
REMARK UNBOUND:                -0.013
REMARK SMILES OCc1ccco1
REMARK SMILES IDX 2 1 3 2 5 3 6 4 4 5 7 6 1 7
REMARK H PARENT 1 8
REMARK Flexibility Score: inf
ROOT
ATOM      1  C   UNL     1       4.520   0.190  17.895  1.00  0.00     0.231 C 
ENDROOT
BRANCH   1   2
ATOM      2  C   UNL     1       4.729   1.661  17.723  1.00  0.00     0.129 A 
ATOM      3  C   UNL     1       4.988   3.655  16.842  1.00  0.00     0.042 A 
ATOM      4  C   UNL     1       5.137   3.695  18.214  1.00  0.00     0.195 A 
ATOM      5  C   UNL     1       4.729   2.341  16.522  1.00  0.00     0.048 A 
ATOM      6  O   UNL     1       4.979   2.488  18.710  1.00  0.00    -0.467 OA
ENDBRANCH   1   2
BRANCH   1   7
ATOM      7  O   UNL     1       3.160  -0.081  18.096  1.00  0.00    -0.388 OA
ATOM      8  H   UNL     1       3.033  -1.048  17.912  1.00  0.00     0.211 HD
ENDBRANCH   1   7
TORSDOF 2
ENDMDL
MODEL 4
REMARK VINA RESULT:    -3.506      3.794      4.728
REMARK INTER + INTRA:          -3.826
REMARK INTER:                  -3.813
REMARK INTRA:                  -0.013
REMARK UNBOUND:                -0.013
REMARK SMILES OCc1ccco1
REMARK SMILES IDX 2 1 3 2 5 3 6 4 4 5 7 6 1 7
REMARK H PARENT 1 8
REMARK Flexibility Score: inf
ROOT
ATOM      1  C   UNL     1       4.460   3.344  14.950  1.00  0.00     0.231 C 
ENDROOT
BRANCH   1   2
ATOM      2  C   UNL     1       5.312   4.286  15.740  1.00  0.00     0.129 A 
ATOM      3  C   UNL     1       6.623   5.949  16.317  1.00  0.00     0.042 A 
ATOM      4  C   UNL     1       6.393   5.105  17.384  1.00  0.00     0.195 A 
ATOM      5  C   UNL     1       5.928   5.419  15.252  1.00  0.00     0.048 A 
ATOM      6  O   UNL     1       5.610   4.120  17.007  1.00  0.00    -0.467 OA
ENDBRANCH   1   2
BRANCH   1   7
ATOM      7  O   UNL     1       3.333   4.016  14.457  1.00  0.00    -0.388 OA
ATOM      8  H   UNL     1       2.760   4.224  15.241  1.00  0.00     0.211 HD
ENDBRANCH   1   7
TORSDOF 2
ENDMDL
MODEL 5
REMARK VINA RESULT:    -3.263      1.996      3.267
REMARK INTER + INTRA:          -3.562
REMARK INTER:                  -3.548
REMARK INTRA:                  -0.014
REMARK UNBOUND:                -0.013
REMARK SMILES OCc1ccco1
REMARK SMILES IDX 2 1 3 2 5 3 6 4 4 5 7 6 1 7
REMARK H PARENT 1 8
REMARK Flexibility Score: inf
ROOT
ATOM      1  C   UNL     1       7.479  -0.549  16.517  1.00  0.00     0.231 C 
ENDROOT
BRANCH   1   2
ATOM      2  C   UNL     1       6.167  -0.088  17.069  1.00  0.00     0.129 A 
ATOM      3  C   UNL     1       4.454   1.158  17.645  1.00  0.00     0.042 A 
ATOM      4  C   UNL     1       4.308  -0.134  18.110  1.00  0.00     0.195 A 
ATOM      5  C   UNL     1       5.657   1.190  16.975  1.00  0.00     0.048 A 
ATOM      6  O   UNL     1       5.349  -0.852  17.752  1.00  0.00    -0.467 OA
ENDBRANCH   1   2
BRANCH   1   7
ATOM      7  O   UNL     1       8.529  -0.062  17.306  1.00  0.00    -0.388 OA
ATOM      8  H   UNL     1       8.641   0.897  17.070  1.00  0.00     0.211 HD
ENDBRANCH   1   7
TORSDOF 2
ENDMDL
MODEL 6
REMARK VINA RESULT:    -3.203      2.588      3.524
REMARK INTER + INTRA:          -3.496
REMARK INTER:                  -3.481
REMARK INTRA:                  -0.015
REMARK UNBOUND:                -0.013
REMARK SMILES OCc1ccco1
REMARK SMILES IDX 2 1 3 2 5 3 6 4 4 5 7 6 1 7
REMARK H PARENT 1 8
REMARK Flexibility Score: inf
ROOT
ATOM      1  C   UNL     1       5.149   2.769  18.543  1.00  0.00     0.231 C 
ENDROOT
BRANCH   1   2
ATOM      2  C   UNL     1       5.047   3.217  17.121  1.00  0.00     0.129 A 
ATOM      3  C   UNL     1       4.829   3.235  14.936  1.00  0.00     0.042 A 
ATOM      4  C   UNL     1       5.082   4.503  15.421  1.00  0.00     0.195 A 
ATOM      5  C   UNL     1       4.810   2.402  16.033  1.00  0.00     0.048 A 
ATOM      6  O   UNL     1       5.210   4.458  16.728  1.00  0.00    -0.467 OA
ENDBRANCH   1   2
BRANCH   1   7
ATOM      7  O   UNL     1       4.397   1.602  18.735  1.00  0.00    -0.388 OA
ATOM      8  H   UNL     1       5.021   0.839  18.614  1.00  0.00     0.211 HD
ENDBRANCH   1   7
TORSDOF 2
ENDMDL
MODEL 7
REMARK VINA RESULT:    -3.164      9.497      9.958
REMARK INTER + INTRA:          -3.454
REMARK INTER:                  -3.435
REMARK INTRA:                  -0.019
REMARK UNBOUND:                -0.013
REMARK SMILES OCc1ccco1
REMARK SMILES IDX 2 1 3 2 5 3 6 4 4 5 7 6 1 7
REMARK H PARENT 1 8
REMARK Flexibility Score: inf
ROOT
ATOM      1  C   UNL     1      -2.927   0.061  13.131  1.00  0.00     0.231 C 
ENDROOT
BRANCH   1   2
ATOM      2  C   UNL     1      -2.611   0.390  11.707  1.00  0.00     0.129 A 
ATOM      3  C   UNL     1      -2.406   1.444   9.792  1.00  0.00     0.042 A 
ATOM      4  C   UNL     1      -1.999   0.129   9.682  1.00  0.00     0.195 A 
ATOM      5  C   UNL     1      -2.805   1.613  11.099  1.00  0.00     0.048 A 
ATOM      6  O   UNL     1      -2.137  -0.474  10.841  1.00  0.00    -0.467 OA
ENDBRANCH   1   2
BRANCH   1   7
ATOM      7  O   UNL     1      -1.981  -0.840  13.636  1.00  0.00    -0.388 OA
ATOM      8  H   UNL     1      -2.066  -0.816  14.625  1.00  0.00     0.211 HD
ENDBRANCH   1   7
TORSDOF 2
ENDMDL
MODEL 8
REMARK VINA RESULT:    -3.103      5.822      6.730
REMARK INTER + INTRA:          -3.388
REMARK INTER:                  -3.369
REMARK INTRA:                  -0.019
REMARK UNBOUND:                -0.013
REMARK SMILES OCc1ccco1
REMARK SMILES IDX 2 1 3 2 5 3 6 4 4 5 7 6 1 7
REMARK H PARENT 1 8
REMARK Flexibility Score: inf
ROOT
ATOM      1  C   UNL     1       6.046   7.704  21.994  1.00  0.00     0.231 C 
ENDROOT
BRANCH   1   2
ATOM      2  C   UNL     1       6.442   6.387  21.406  1.00  0.00     0.129 A 
ATOM      3  C   UNL     1       6.833   4.245  21.129  1.00  0.00     0.042 A 
ATOM      4  C   UNL     1       7.244   4.971  20.030  1.00  0.00     0.195 A 
ATOM      5  C   UNL     1       6.317   5.159  22.022  1.00  0.00     0.048 A 
ATOM      6  O   UNL     1       7.000   6.247  20.227  1.00  0.00    -0.467 OA
ENDBRANCH   1   2
BRANCH   1   7
ATOM      7  O   UNL     1       7.038   8.661  21.741  1.00  0.00    -0.388 OA
ATOM      8  H   UNL     1       7.807   8.435  22.328  1.00  0.00     0.211 HD
ENDBRANCH   1   7
TORSDOF 2
ENDMDL
MODEL 9
REMARK VINA RESULT:    -3.036      3.062      4.294
REMARK INTER + INTRA:          -3.315
REMARK INTER:                  -3.293
REMARK INTRA:                  -0.021
REMARK UNBOUND:                -0.013
REMARK SMILES OCc1ccco1
REMARK SMILES IDX 2 1 3 2 5 3 6 4 4 5 7 6 1 7
REMARK H PARENT 1 8
REMARK Flexibility Score: inf
ROOT
ATOM      1  C   UNL     1       5.340   3.233  17.565  1.00  0.00     0.231 C 
ENDROOT
BRANCH   1   2
ATOM      2  C   UNL     1       6.262   3.733  18.631  1.00  0.00     0.129 A 
ATOM      3  C   UNL     1       8.049   4.403  19.716  1.00  0.00     0.042 A 
ATOM      4  C   UNL     1       6.951   4.351  20.551  1.00  0.00     0.195 A 
ATOM      5  C   UNL     1       7.606   3.999  18.475  1.00  0.00     0.048 A 
ATOM      6  O   UNL     1       5.901   3.945  19.875  1.00  0.00    -0.467 OA
ENDBRANCH   1   2
BRANCH   1   7
ATOM      7  O   UNL     1       4.017   3.246  18.029  1.00  0.00    -0.388 OA
ATOM      8  H   UNL     1       3.688   2.312  17.974  1.00  0.00     0.211 HD
ENDBRANCH   1   7
TORSDOF 2
ENDMDL
