MODEL 1
REMARK VINA RESULT:    -6.130      0.000      0.000
REMARK INTER + INTRA:          -6.898
REMARK INTER:                  -6.668
REMARK INTRA:                  -0.230
REMARK UNBOUND:                -0.230
REMARK SMILES CC(C)c1cc2c(cc1O)[C@]1(C)CCCC(C)(C)[C@@H]1CC2=O
REMARK SMILES IDX 4 1 9 2 8 3 7 4 6 5 5 6 21 7 22 8 20 9 19 10 11 11 13 12
REMARK SMILES IDX 14 13 15 14 16 15 17 16 18 17 12 18 2 19 1 20 3 21 10 22
REMARK H PARENT 10 23
REMARK Flexibility Score: inf
ROOT
ATOM      1  C   UNL     1      -3.018  -1.506  24.869  1.00  0.00    -0.003 A 
ATOM      2  C   UNL     1      -2.875  -2.082  23.592  1.00  0.00     0.119 A 
ATOM      3  C   UNL     1      -1.673  -2.707  23.234  1.00  0.00     0.051 A 
ATOM      4  C   UNL     1      -0.569  -2.761  24.118  1.00  0.00    -0.027 A 
ATOM      5  C   UNL     1      -0.753  -2.254  25.421  1.00  0.00     0.022 A 
ATOM      6  C   UNL     1      -1.953  -1.614  25.775  1.00  0.00     0.020 A 
ATOM      7  C   UNL     1       0.286  -2.456  26.434  1.00  0.00     0.163 C 
ATOM      8  O   UNL     1       0.230  -1.861  27.546  1.00  0.00    -0.294 OA
ATOM      9  C   UNL     1       1.376  -3.432  26.174  1.00  0.00     0.086 C 
ATOM     10  C   UNL     1       1.937  -3.264  24.738  1.00  0.00     0.013 C 
ATOM     11  C   UNL     1       0.770  -3.402  23.656  1.00  0.00    -0.003 C 
ATOM     12  C   UNL     1       0.481  -4.903  23.371  1.00  0.00     0.012 C 
ATOM     13  C   UNL     1       1.724  -5.724  23.034  1.00  0.00     0.001 C 
ATOM     14  C   UNL     1       2.766  -5.647  24.151  1.00  0.00     0.007 C 
ATOM     15  C   UNL     1       3.210  -4.200  24.484  1.00  0.00    -0.031 C 
ATOM     16  C   UNL     1       4.124  -3.639  23.347  1.00  0.00     0.011 C 
ATOM     17  C   UNL     1       4.125  -4.283  25.741  1.00  0.00     0.011 C 
ATOM     18  C   UNL     1       1.186  -2.661  22.351  1.00  0.00     0.017 C 
ENDROOT
BRANCH   1  19
ATOM     19  C   UNL     1      -4.296  -0.803  25.310  1.00  0.00     0.017 C 
ATOM     20  C   UNL     1      -4.341   0.651  24.825  1.00  0.00     0.012 C 
ATOM     21  C   UNL     1      -4.506  -0.898  26.826  1.00  0.00     0.012 C 
ENDBRANCH   1  19
BRANCH   2  22
ATOM     22  O   UNL     1      -3.923  -2.041  22.672  1.00  0.00    -0.508 OA
ATOM     23  H   UNL     1      -4.076  -1.240  22.072  1.00  0.00     0.293 HD
ENDBRANCH   2  22
TORSDOF 2
ENDMDL
MODEL 2
REMARK VINA RESULT:    -5.754      1.629      6.229
REMARK INTER + INTRA:          -6.489
REMARK INTER:                  -6.264
REMARK INTRA:                  -0.224
REMARK UNBOUND:                -0.230
REMARK SMILES CC(C)c1cc2c(cc1O)[C@]1(C)CCCC(C)(C)[C@@H]1CC2=O
REMARK SMILES IDX 4 1 9 2 8 3 7 4 6 5 5 6 21 7 22 8 20 9 19 10 11 11 13 12
REMARK SMILES IDX 14 13 15 14 16 15 17 16 18 17 12 18 2 19 1 20 3 21 10 22
REMARK H PARENT 10 23
REMARK Flexibility Score: inf
ROOT
ATOM      1  C   UNL     1       1.681  -4.263  24.497  1.00  0.00    -0.003 A 
ATOM      2  C   UNL     1       0.593  -4.556  23.651  1.00  0.00     0.119 A 
ATOM      3  C   UNL     1      -0.643  -3.931  23.857  1.00  0.00     0.051 A 
ATOM      4  C   UNL     1      -0.850  -3.017  24.917  1.00  0.00    -0.027 A 
ATOM      5  C   UNL     1       0.267  -2.671  25.705  1.00  0.00     0.022 A 
ATOM      6  C   UNL     1       1.504  -3.309  25.509  1.00  0.00     0.020 A 
ATOM      7  C   UNL     1       0.158  -1.592  26.689  1.00  0.00     0.163 C 
ATOM      8  O   UNL     1       1.078  -1.384  27.528  1.00  0.00    -0.294 OA
ATOM      9  C   UNL     1      -1.019  -0.684  26.647  1.00  0.00     0.086 C 
ATOM     10  C   UNL     1      -2.331  -1.490  26.464  1.00  0.00     0.013 C 
ATOM     11  C   UNL     1      -2.257  -2.400  25.153  1.00  0.00    -0.003 C 
ATOM     12  C   UNL     1      -2.599  -1.553  23.895  1.00  0.00     0.012 C 
ATOM     13  C   UNL     1      -3.898  -0.757  24.012  1.00  0.00     0.001 C 
ATOM     14  C   UNL     1      -3.875   0.179  25.221  1.00  0.00     0.007 C 
ATOM     15  C   UNL     1      -3.624  -0.552  26.565  1.00  0.00    -0.031 C 
ATOM     16  C   UNL     1      -4.893  -1.358  26.987  1.00  0.00     0.011 C 
ATOM     17  C   UNL     1      -3.455   0.547  27.655  1.00  0.00     0.011 C 
ATOM     18  C   UNL     1      -3.244  -3.596  25.299  1.00  0.00     0.017 C 
ENDROOT
BRANCH   1  19
ATOM     19  C   UNL     1       3.046  -4.919  24.330  1.00  0.00     0.017 C 
ATOM     20  C   UNL     1       3.798  -5.013  25.663  1.00  0.00     0.012 C 
ATOM     21  C   UNL     1       3.888  -4.220  23.256  1.00  0.00     0.012 C 
ENDBRANCH   1  19
BRANCH   2  22
ATOM     22  O   UNL     1       0.733  -5.464  22.601  1.00  0.00    -0.508 OA
ATOM     23  H   UNL     1       1.070  -6.407  22.752  1.00  0.00     0.293 HD
ENDBRANCH   2  22
TORSDOF 2
ENDMDL
MODEL 3
REMARK VINA RESULT:    -5.534      1.498      3.536
REMARK INTER + INTRA:          -6.249
REMARK INTER:                  -6.169
REMARK INTRA:                  -0.080
REMARK UNBOUND:                -0.230
REMARK SMILES CC(C)c1cc2c(cc1O)[C@]1(C)CCCC(C)(C)[C@@H]1CC2=O
REMARK SMILES IDX 4 1 9 2 8 3 7 4 6 5 5 6 21 7 22 8 20 9 19 10 11 11 13 12
REMARK SMILES IDX 14 13 15 14 16 15 17 16 18 17 12 18 2 19 1 20 3 21 10 22
REMARK H PARENT 10 23
REMARK Flexibility Score: inf
ROOT
ATOM      1  C   UNL     1      -1.490  -1.535  27.101  1.00  0.00    -0.003 A 
ATOM      2  C   UNL     1      -0.198  -1.508  27.661  1.00  0.00     0.119 A 
ATOM      3  C   UNL     1       0.863  -2.146  27.006  1.00  0.00     0.051 A 
ATOM      4  C   UNL     1       0.677  -2.848  25.792  1.00  0.00    -0.027 A 
ATOM      5  C   UNL     1      -0.603  -2.797  25.201  1.00  0.00     0.022 A 
ATOM      6  C   UNL     1      -1.671  -2.171  25.864  1.00  0.00     0.020 A 
ATOM      7  C   UNL     1      -0.805  -3.340  23.855  1.00  0.00     0.163 C 
ATOM      8  O   UNL     1      -1.967  -3.472  23.378  1.00  0.00    -0.294 OA
ATOM      9  C   UNL     1       0.378  -3.667  23.016  1.00  0.00     0.086 C 
ATOM     10  C   UNL     1       1.443  -4.436  23.840  1.00  0.00     0.013 C 
ATOM     11  C   UNL     1       1.867  -3.602  25.135  1.00  0.00    -0.003 C 
ATOM     12  C   UNL     1       2.929  -2.531  24.755  1.00  0.00     0.012 C 
ATOM     13  C   UNL     1       4.117  -3.082  23.969  1.00  0.00     0.001 C 
ATOM     14  C   UNL     1       3.666  -3.776  22.683  1.00  0.00     0.007 C 
ATOM     15  C   UNL     1       2.659  -4.931  22.925  1.00  0.00    -0.031 C 
ATOM     16  C   UNL     1       3.389  -6.163  23.547  1.00  0.00     0.011 C 
ATOM     17  C   UNL     1       2.171  -5.407  21.525  1.00  0.00     0.011 C 
ATOM     18  C   UNL     1       2.424  -4.574  26.215  1.00  0.00     0.017 C 
ENDROOT
BRANCH   1  19
ATOM     19  C   UNL     1      -2.686  -0.869  27.772  1.00  0.00     0.017 C 
ATOM     20  C   UNL     1      -4.010  -1.303  27.131  1.00  0.00     0.012 C 
ATOM     21  C   UNL     1      -2.548   0.658  27.803  1.00  0.00     0.012 C 
ENDBRANCH   1  19
BRANCH   2  22
ATOM     22  O   UNL     1       0.041  -0.848  28.866  1.00  0.00    -0.508 OA
ATOM     23  H   UNL     1       0.408  -1.332  29.677  1.00  0.00     0.293 HD
ENDBRANCH   2  22
TORSDOF 2
ENDMDL
MODEL 4
REMARK VINA RESULT:    -5.469      1.750      6.090
REMARK INTER + INTRA:          -6.178
REMARK INTER:                  -5.937
REMARK INTRA:                  -0.242
REMARK UNBOUND:                -0.230
REMARK SMILES CC(C)c1cc2c(cc1O)[C@]1(C)CCCC(C)(C)[C@@H]1CC2=O
REMARK SMILES IDX 4 1 9 2 8 3 7 4 6 5 5 6 21 7 22 8 20 9 19 10 11 11 13 12
REMARK SMILES IDX 14 13 15 14 16 15 17 16 18 17 12 18 2 19 1 20 3 21 10 22
REMARK H PARENT 10 23
REMARK Flexibility Score: inf
ROOT
ATOM      1  C   UNL     1       1.605  -3.805  23.267  1.00  0.00    -0.003 A 
ATOM      2  C   UNL     1       0.700  -3.081  22.468  1.00  0.00     0.119 A 
ATOM      3  C   UNL     1      -0.339  -2.357  23.065  1.00  0.00     0.051 A 
ATOM      4  C   UNL     1      -0.530  -2.344  24.467  1.00  0.00    -0.027 A 
ATOM      5  C   UNL     1       0.431  -3.005  25.261  1.00  0.00     0.022 A 
ATOM      6  C   UNL     1       1.465  -3.744  24.661  1.00  0.00     0.020 A 
ATOM      7  C   UNL     1       0.393  -2.864  26.718  1.00  0.00     0.163 C 
ATOM      8  O   UNL     1       1.122  -3.583  27.457  1.00  0.00    -0.294 OA
ATOM      9  C   UNL     1      -0.458  -1.808  27.326  1.00  0.00     0.086 C 
ATOM     10  C   UNL     1      -1.861  -1.783  26.666  1.00  0.00     0.013 C 
ATOM     11  C   UNL     1      -1.738  -1.585  25.085  1.00  0.00    -0.003 C 
ATOM     12  C   UNL     1      -1.548  -0.079  24.749  1.00  0.00     0.012 C 
ATOM     13  C   UNL     1      -2.581   0.840  25.399  1.00  0.00     0.001 C 
ATOM     14  C   UNL     1      -2.583   0.693  26.921  1.00  0.00     0.007 C 
ATOM     15  C   UNL     1      -2.846  -0.758  27.401  1.00  0.00    -0.031 C 
ATOM     16  C   UNL     1      -4.345  -1.136  27.183  1.00  0.00     0.011 C 
ATOM     17  C   UNL     1      -2.642  -0.769  28.945  1.00  0.00     0.011 C 
ATOM     18  C   UNL     1      -3.013  -2.150  24.394  1.00  0.00     0.017 C 
ENDROOT
BRANCH   1  19
ATOM     19  C   UNL     1       2.748  -4.620  22.674  1.00  0.00     0.017 C 
ATOM     20  C   UNL     1       2.646  -6.102  23.056  1.00  0.00     0.012 C 
ATOM     21  C   UNL     1       4.118  -4.037  23.042  1.00  0.00     0.012 C 
ENDBRANCH   1  19
BRANCH   2  22
ATOM     22  O   UNL     1       0.827  -3.073  21.079  1.00  0.00    -0.508 OA
ATOM     23  H   UNL     1       1.663  -3.409  20.616  1.00  0.00     0.293 HD
ENDBRANCH   2  22
TORSDOF 2
ENDMDL
MODEL 5
REMARK VINA RESULT:    -5.336      1.753      6.592
REMARK INTER + INTRA:          -6.034
REMARK INTER:                  -6.203
REMARK INTRA:                   0.169
REMARK UNBOUND:                -0.230
REMARK SMILES CC(C)c1cc2c(cc1O)[C@]1(C)CCCC(C)(C)[C@@H]1CC2=O
REMARK SMILES IDX 4 1 9 2 8 3 7 4 6 5 5 6 21 7 22 8 20 9 19 10 11 11 13 12
REMARK SMILES IDX 14 13 15 14 16 15 17 16 18 17 12 18 2 19 1 20 3 21 10 22
REMARK H PARENT 10 23
REMARK Flexibility Score: inf
ROOT
ATOM      1  C   UNL     1       0.679  -4.155  23.738  1.00  0.00    -0.003 A 
ATOM      2  C   UNL     1       1.381  -3.290  24.599  1.00  0.00     0.119 A 
ATOM      3  C   UNL     1       0.683  -2.363  25.384  1.00  0.00     0.051 A 
ATOM      4  C   UNL     1      -0.726  -2.246  25.325  1.00  0.00    -0.027 A 
ATOM      5  C   UNL     1      -1.422  -3.173  24.521  1.00  0.00     0.022 A 
ATOM      6  C   UNL     1      -0.722  -4.093  23.723  1.00  0.00     0.020 A 
ATOM      7  C   UNL     1      -2.885  -3.224  24.570  1.00  0.00     0.163 C 
ATOM      8  O   UNL     1      -3.538  -3.911  23.736  1.00  0.00    -0.294 OA
ATOM      9  C   UNL     1      -3.602  -2.518  25.665  1.00  0.00     0.086 C 
ATOM     10  C   UNL     1      -3.026  -1.094  25.873  1.00  0.00     0.013 C 
ATOM     11  C   UNL     1      -1.456  -1.156  26.159  1.00  0.00    -0.003 C 
ATOM     12  C   UNL     1      -1.198  -1.483  27.657  1.00  0.00     0.012 C 
ATOM     13  C   UNL     1      -1.960  -0.586  28.631  1.00  0.00     0.001 C 
ATOM     14  C   UNL     1      -3.468  -0.646  28.386  1.00  0.00     0.007 C 
ATOM     15  C   UNL     1      -3.876  -0.259  26.942  1.00  0.00    -0.031 C 
ATOM     16  C   UNL     1      -3.722   1.281  26.730  1.00  0.00     0.011 C 
ATOM     17  C   UNL     1      -5.402  -0.539  26.810  1.00  0.00     0.011 C 
ATOM     18  C   UNL     1      -0.806   0.204  25.770  1.00  0.00     0.017 C 
ENDROOT
BRANCH   1  19
ATOM     19  C   UNL     1       1.383  -5.176  22.853  1.00  0.00     0.017 C 
ATOM     20  C   UNL     1       2.212  -6.167  23.679  1.00  0.00     0.012 C 
ATOM     21  C   UNL     1       2.229  -4.503  21.765  1.00  0.00     0.012 C 
ENDBRANCH   1  19
BRANCH   2  22
ATOM     22  O   UNL     1       2.772  -3.346  24.684  1.00  0.00    -0.508 OA
ATOM     23  H   UNL     1       3.290  -4.180  24.433  1.00  0.00     0.293 HD
ENDBRANCH   2  22
TORSDOF 2
ENDMDL
MODEL 6
REMARK VINA RESULT:    -5.128      1.981      6.388
REMARK INTER + INTRA:          -5.808
REMARK INTER:                  -5.622
REMARK INTRA:                  -0.186
REMARK UNBOUND:                -0.230
REMARK SMILES CC(C)c1cc2c(cc1O)[C@]1(C)CCCC(C)(C)[C@@H]1CC2=O
REMARK SMILES IDX 4 1 9 2 8 3 7 4 6 5 5 6 21 7 22 8 20 9 19 10 11 11 13 12
REMARK SMILES IDX 14 13 15 14 16 15 17 16 18 17 12 18 2 19 1 20 3 21 10 22
REMARK H PARENT 10 23
REMARK Flexibility Score: inf
ROOT
ATOM      1  C   UNL     1       1.828  -3.876  26.969  1.00  0.00    -0.003 A 
ATOM      2  C   UNL     1       0.925  -3.295  27.881  1.00  0.00     0.119 A 
ATOM      3  C   UNL     1      -0.159  -2.543  27.412  1.00  0.00     0.051 A 
ATOM      4  C   UNL     1      -0.373  -2.323  26.030  1.00  0.00    -0.027 A 
ATOM      5  C   UNL     1       0.489  -2.978  25.126  1.00  0.00     0.022 A 
ATOM      6  C   UNL     1       1.586  -3.720  25.596  1.00  0.00     0.020 A 
ATOM      7  C   UNL     1       0.201  -2.944  23.691  1.00  0.00     0.163 C 
ATOM      8  O   UNL     1       1.045  -3.362  22.850  1.00  0.00    -0.294 OA
ATOM      9  C   UNL     1      -1.134  -2.480  23.227  1.00  0.00     0.086 C 
ATOM     10  C   UNL     1      -1.560  -1.191  23.974  1.00  0.00     0.013 C 
ATOM     11  C   UNL     1      -1.549  -1.424  25.555  1.00  0.00    -0.003 C 
ATOM     12  C   UNL     1      -2.864  -2.122  26.001  1.00  0.00     0.012 C 
ATOM     13  C   UNL     1      -4.135  -1.441  25.495  1.00  0.00     0.001 C 
ATOM     14  C   UNL     1      -4.147  -1.341  23.969  1.00  0.00     0.007 C 
ATOM     15  C   UNL     1      -2.922  -0.587  23.389  1.00  0.00    -0.031 C 
ATOM     16  C   UNL     1      -3.046   0.944  23.671  1.00  0.00     0.011 C 
ATOM     17  C   UNL     1      -2.996  -0.726  21.840  1.00  0.00     0.011 C 
ATOM     18  C   UNL     1      -1.376  -0.055  26.277  1.00  0.00     0.017 C 
ENDROOT
BRANCH   1  19
ATOM     19  C   UNL     1       3.032  -4.694  27.419  1.00  0.00     0.017 C 
ATOM     20  C   UNL     1       4.123  -4.738  26.342  1.00  0.00     0.012 C 
ATOM     21  C   UNL     1       2.629  -6.103  27.872  1.00  0.00     0.012 C 
ENDBRANCH   1  19
BRANCH   2  22
ATOM     22  O   UNL     1       1.097  -3.461  29.255  1.00  0.00    -0.508 OA
ATOM     23  H   UNL     1       2.013  -3.429  29.687  1.00  0.00     0.293 HD
ENDBRANCH   2  22
TORSDOF 2
ENDMDL
MODEL 7
REMARK VINA RESULT:    -5.012      1.524      6.632
REMARK INTER + INTRA:          -5.681
REMARK INTER:                  -5.559
REMARK INTRA:                  -0.122
REMARK UNBOUND:                -0.230
REMARK SMILES CC(C)c1cc2c(cc1O)[C@]1(C)CCCC(C)(C)[C@@H]1CC2=O
REMARK SMILES IDX 4 1 9 2 8 3 7 4 6 5 5 6 21 7 22 8 20 9 19 10 11 11 13 12
REMARK SMILES IDX 14 13 15 14 16 15 17 16 18 17 12 18 2 19 1 20 3 21 10 22
REMARK H PARENT 10 23
REMARK Flexibility Score: inf
ROOT
ATOM      1  C   UNL     1       1.650  -3.889  25.793  1.00  0.00    -0.003 A 
ATOM      2  C   UNL     1       1.097  -3.365  26.977  1.00  0.00     0.119 A 
ATOM      3  C   UNL     1       0.022  -2.469  26.914  1.00  0.00     0.051 A 
ATOM      4  C   UNL     1      -0.524  -2.046  25.679  1.00  0.00    -0.027 A 
ATOM      5  C   UNL     1      -0.016  -2.640  24.505  1.00  0.00     0.022 A 
ATOM      6  C   UNL     1       1.072  -3.527  24.567  1.00  0.00     0.020 A 
ATOM      7  C   UNL     1      -0.670  -2.386  23.219  1.00  0.00     0.163 C 
ATOM      8  O   UNL     1      -0.134  -2.754  22.136  1.00  0.00    -0.294 OA
ATOM      9  C   UNL     1      -2.015  -1.754  23.198  1.00  0.00     0.086 C 
ATOM     10  C   UNL     1      -2.074  -0.548  24.171  1.00  0.00     0.013 C 
ATOM     11  C   UNL     1      -1.670  -0.996  25.651  1.00  0.00    -0.003 C 
ATOM     12  C   UNL     1      -2.892  -1.637  26.367  1.00  0.00     0.012 C 
ATOM     13  C   UNL     1      -4.162  -0.790  26.312  1.00  0.00     0.001 C 
ATOM     14  C   UNL     1      -4.568  -0.481  24.870  1.00  0.00     0.007 C 
ATOM     15  C   UNL     1      -3.462   0.240  24.058  1.00  0.00    -0.031 C 
ATOM     16  C   UNL     1      -3.326   1.723  24.528  1.00  0.00     0.011 C 
ATOM     17  C   UNL     1      -3.960   0.321  22.585  1.00  0.00     0.011 C 
ATOM     18  C   UNL     1      -1.153   0.242  26.440  1.00  0.00     0.017 C 
ENDROOT
BRANCH   1  19
ATOM     19  C   UNL     1       2.826  -4.858  25.798  1.00  0.00     0.017 C 
ATOM     20  C   UNL     1       4.125  -4.172  26.238  1.00  0.00     0.012 C 
ATOM     21  C   UNL     1       2.991  -5.565  24.447  1.00  0.00     0.012 C 
ENDBRANCH   1  19
BRANCH   2  22
ATOM     22  O   UNL     1       1.607  -3.732  28.223  1.00  0.00    -0.508 OA
ATOM     23  H   UNL     1       1.492  -4.668  28.593  1.00  0.00     0.293 HD
ENDBRANCH   2  22
TORSDOF 2
ENDMDL
MODEL 8
REMARK VINA RESULT:    -4.496      3.834      6.209
REMARK INTER + INTRA:          -5.120
REMARK INTER:                  -4.898
REMARK INTRA:                  -0.222
REMARK UNBOUND:                -0.230
REMARK SMILES CC(C)c1cc2c(cc1O)[C@]1(C)CCCC(C)(C)[C@@H]1CC2=O
REMARK SMILES IDX 4 1 9 2 8 3 7 4 6 5 5 6 21 7 22 8 20 9 19 10 11 11 13 12
REMARK SMILES IDX 14 13 15 14 16 15 17 16 18 17 12 18 2 19 1 20 3 21 10 22
REMARK H PARENT 10 23
REMARK Flexibility Score: inf
ROOT
ATOM      1  C   UNL     1      -5.603   0.535  19.824  1.00  0.00    -0.003 A 
ATOM      2  C   UNL     1      -4.932  -0.680  19.580  1.00  0.00     0.119 A 
ATOM      3  C   UNL     1      -4.235  -1.316  20.615  1.00  0.00     0.051 A 
ATOM      4  C   UNL     1      -4.159  -0.762  21.915  1.00  0.00    -0.027 A 
ATOM      5  C   UNL     1      -4.902   0.410  22.167  1.00  0.00     0.022 A 
ATOM      6  C   UNL     1      -5.590   1.057  21.126  1.00  0.00     0.020 A 
ATOM      7  C   UNL     1      -5.017   0.919  23.535  1.00  0.00     0.163 C 
ATOM      8  O   UNL     1      -5.518   2.055  23.764  1.00  0.00    -0.294 OA
ATOM      9  C   UNL     1      -4.605   0.053  24.672  1.00  0.00     0.086 C 
ATOM     10  C   UNL     1      -3.246  -0.634  24.379  1.00  0.00     0.013 C 
ATOM     11  C   UNL     1      -3.315  -1.464  23.015  1.00  0.00    -0.003 C 
ATOM     12  C   UNL     1      -3.965  -2.853  23.269  1.00  0.00     0.012 C 
ATOM     13  C   UNL     1      -3.342  -3.632  24.426  1.00  0.00     0.001 C 
ATOM     14  C   UNL     1      -3.400  -2.838  25.732  1.00  0.00     0.007 C 
ATOM     15  C   UNL     1      -2.709  -1.453  25.644  1.00  0.00    -0.031 C 
ATOM     16  C   UNL     1      -1.157  -1.624  25.607  1.00  0.00     0.011 C 
ATOM     17  C   UNL     1      -3.007  -0.710  26.980  1.00  0.00     0.011 C 
ATOM     18  C   UNL     1      -1.879  -1.623  22.436  1.00  0.00     0.017 C 
ENDROOT
BRANCH   1  19
ATOM     19  C   UNL     1      -6.369   1.278  18.737  1.00  0.00     0.017 C 
ATOM     20  C   UNL     1      -5.434   2.118  17.858  1.00  0.00     0.012 C 
ATOM     21  C   UNL     1      -7.508   2.125  19.317  1.00  0.00     0.012 C 
ENDBRANCH   1  19
BRANCH   2  22
ATOM     22  O   UNL     1      -4.956  -1.262  18.313  1.00  0.00    -0.508 OA
ATOM     23  H   UNL     1      -5.630  -1.977  18.066  1.00  0.00     0.293 HD
ENDBRANCH   2  22
TORSDOF 2
ENDMDL
