MODEL 1
REMARK VINA RESULT:    -3.445      0.000      0.000
REMARK INTER + INTRA:          -6.967
REMARK INTER:                  -5.559
REMARK INTRA:                  -1.408
REMARK UNBOUND:                -1.408
REMARK SMILES CCCCCCCCCCCCO
REMARK SMILES IDX 7 1 6 2 5 3 4 4 3 5 2 6 1 7 8 8 9 9 10 10 11 11 12 12 13 13
REMARK H PARENT 13 14
REMARK Flexibility Score: inf
ROOT
ATOM      1  C   UNL     1     144.821 127.080 115.580  1.00  0.00     0.000 C 
ENDROOT
BRANCH   1   2
ATOM      2  C   UNL     1     145.534 127.650 114.344  1.00  0.00    -0.000 C 
BRANCH   2   3
ATOM      3  C   UNL     1     145.563 129.187 114.333  1.00  0.00    -0.000 C 
BRANCH   3   4
ATOM      4  C   UNL     1     145.949 129.781 115.696  1.00  0.00    -0.000 C 
BRANCH   4   5
ATOM      5  C   UNL     1     145.407 131.211 115.842  1.00  0.00    -0.000 C 
BRANCH   5   6
ATOM      6  C   UNL     1     144.088 131.265 116.631  1.00  0.00    -0.003 C 
ATOM      7  C   UNL     1     142.856 131.237 115.727  1.00  0.00     0.004 C 
ENDBRANCH   5   6
ENDBRANCH   4   5
ENDBRANCH   3   4
ENDBRANCH   2   3
ENDBRANCH   1   2
BRANCH   1   8
ATOM      8  C   UNL     1     143.328 127.429 115.562  1.00  0.00     0.000 C 
BRANCH   8   9
ATOM      9  C   UNL     1     142.813 127.716 116.981  1.00  0.00     0.000 C 
BRANCH   9  10
ATOM     10  C   UNL     1     143.788 127.244 118.071  1.00  0.00     0.002 C 
BRANCH  10  11
ATOM     11  C   UNL     1     144.001 128.297 119.170  1.00  0.00     0.028 C 
BRANCH  11  12
ATOM     12  C   UNL     1     145.477 128.409 119.568  1.00  0.00     0.156 C 
BRANCH  12  13
ATOM     13  O   UNL     1     146.006 129.650 119.184  1.00  0.00    -0.396 OA
ATOM     14  H   UNL     1     146.155 130.165 120.019  1.00  0.00     0.210 HD
ENDBRANCH  12  13
ENDBRANCH  11  12
ENDBRANCH  10  11
ENDBRANCH   9  10
ENDBRANCH   8   9
ENDBRANCH   1   8
TORSDOF 11
ENDMDL
MODEL 2
REMARK VINA RESULT:    -3.432      2.709      4.769
REMARK INTER + INTRA:          -6.947
REMARK INTER:                  -6.430
REMARK INTRA:                  -0.517
REMARK UNBOUND:                -1.408
REMARK SMILES CCCCCCCCCCCCO
REMARK SMILES IDX 7 1 6 2 5 3 4 4 3 5 2 6 1 7 8 8 9 9 10 10 11 11 12 12 13 13
REMARK H PARENT 13 14
REMARK Flexibility Score: inf
ROOT
ATOM      1  C   UNL     1     144.365 127.834 116.379  1.00  0.00     0.000 C 
ENDROOT
BRANCH   1   2
ATOM      2  C   UNL     1     142.902 127.374 116.468  1.00  0.00    -0.000 C 
BRANCH   2   3
ATOM      3  C   UNL     1     142.248 127.206 115.087  1.00  0.00    -0.000 C 
BRANCH   3   4
ATOM      4  C   UNL     1     140.723 127.044 115.171  1.00  0.00    -0.000 C 
BRANCH   4   5
ATOM      5  C   UNL     1     140.017 128.396 114.984  1.00  0.00    -0.000 C 
BRANCH   5   6
ATOM      6  C   UNL     1     139.135 128.433 113.726  1.00  0.00    -0.003 C 
ATOM      7  C   UNL     1     138.666 127.045 113.291  1.00  0.00     0.004 C 
ENDBRANCH   5   6
ENDBRANCH   4   5
ENDBRANCH   3   4
ENDBRANCH   2   3
ENDBRANCH   1   2
BRANCH   1   8
ATOM      8  C   UNL     1     144.835 127.890 114.920  1.00  0.00     0.000 C 
BRANCH   8   9
ATOM      9  C   UNL     1     145.615 129.185 114.643  1.00  0.00     0.000 C 
BRANCH   9  10
ATOM     10  C   UNL     1     145.851 130.017 115.914  1.00  0.00     0.002 C 
BRANCH  10  11
ATOM     11  C   UNL     1     146.861 131.155 115.696  1.00  0.00     0.028 C 
BRANCH  11  12
ATOM     12  C   UNL     1     146.221 132.529 115.923  1.00  0.00     0.156 C 
BRANCH  12  13
ATOM     13  O   UNL     1     146.850 133.206 116.978  1.00  0.00    -0.396 OA
ATOM     14  H   UNL     1     147.698 133.572 116.614  1.00  0.00     0.210 HD
ENDBRANCH  12  13
ENDBRANCH  11  12
ENDBRANCH  10  11
ENDBRANCH   9  10
ENDBRANCH   8   9
ENDBRANCH   1   8
TORSDOF 11
ENDMDL
MODEL 3
REMARK VINA RESULT:    -3.432      1.696      3.657
REMARK INTER + INTRA:          -6.946
REMARK INTER:                  -5.726
REMARK INTRA:                  -1.220
REMARK UNBOUND:                -1.408
REMARK SMILES CCCCCCCCCCCCO
REMARK SMILES IDX 7 1 6 2 5 3 4 4 3 5 2 6 1 7 8 8 9 9 10 10 11 11 12 12 13 13
REMARK H PARENT 13 14
REMARK Flexibility Score: inf
ROOT
ATOM      1  C   UNL     1     145.094 127.646 114.644  1.00  0.00     0.000 C 
ENDROOT
BRANCH   1   2
ATOM      2  C   UNL     1     144.785 127.314 116.111  1.00  0.00    -0.000 C 
BRANCH   2   3
ATOM      3  C   UNL     1     143.278 127.330 116.418  1.00  0.00    -0.000 C 
BRANCH   3   4
ATOM      4  C   UNL     1     142.415 127.250 115.151  1.00  0.00    -0.000 C 
BRANCH   4   5
ATOM      5  C   UNL     1     141.309 128.316 115.173  1.00  0.00    -0.000 C 
BRANCH   5   6
ATOM      6  C   UNL     1     141.769 129.630 115.825  1.00  0.00    -0.003 C 
ATOM      7  C   UNL     1     142.322 130.631 114.812  1.00  0.00     0.004 C 
ENDBRANCH   5   6
ENDBRANCH   4   5
ENDBRANCH   3   4
ENDBRANCH   2   3
ENDBRANCH   1   2
BRANCH   1   8
ATOM      8  C   UNL     1     145.561 129.100 114.497  1.00  0.00     0.000 C 
BRANCH   8   9
ATOM      9  C   UNL     1     146.024 129.668 115.847  1.00  0.00     0.000 C 
BRANCH   9  10
ATOM     10  C   UNL     1     146.723 131.030 115.708  1.00  0.00     0.002 C 
BRANCH  10  11
ATOM     11  C   UNL     1     145.910 132.178 116.326  1.00  0.00     0.028 C 
BRANCH  11  12
ATOM     12  C   UNL     1     144.907 131.666 117.365  1.00  0.00     0.156 C 
BRANCH  12  13
ATOM     13  O   UNL     1     145.408 131.822 118.665  1.00  0.00    -0.396 OA
ATOM     14  H   UNL     1     145.035 131.078 119.205  1.00  0.00     0.210 HD
ENDBRANCH  12  13
ENDBRANCH  11  12
ENDBRANCH  10  11
ENDBRANCH   9  10
ENDBRANCH   8   9
ENDBRANCH   1   8
TORSDOF 11
ENDMDL
MODEL 4
REMARK VINA RESULT:    -3.428      1.149      2.293
REMARK INTER + INTRA:          -6.940
REMARK INTER:                  -5.563
REMARK INTRA:                  -1.377
REMARK UNBOUND:                -1.408
REMARK SMILES CCCCCCCCCCCCO
REMARK SMILES IDX 7 1 6 2 5 3 4 4 3 5 2 6 1 7 8 8 9 9 10 10 11 11 12 12 13 13
REMARK H PARENT 13 14
REMARK Flexibility Score: inf
ROOT
ATOM      1  C   UNL     1     144.287 127.799 114.606  1.00  0.00     0.000 C 
ENDROOT
BRANCH   1   2
ATOM      2  C   UNL     1     142.884 127.589 115.195  1.00  0.00    -0.000 C 
BRANCH   2   3
ATOM      3  C   UNL     1     141.988 128.830 115.050  1.00  0.00    -0.000 C 
BRANCH   3   4
ATOM      4  C   UNL     1     142.756 130.058 114.539  1.00  0.00    -0.000 C 
BRANCH   4   5
ATOM      5  C   UNL     1     142.836 131.144 115.622  1.00  0.00    -0.000 C 
BRANCH   5   6
ATOM      6  C   UNL     1     144.076 130.995 116.518  1.00  0.00    -0.003 C 
ATOM      7  C   UNL     1     145.386 131.103 115.739  1.00  0.00     0.004 C 
ENDBRANCH   5   6
ENDBRANCH   4   5
ENDBRANCH   3   4
ENDBRANCH   2   3
ENDBRANCH   1   2
BRANCH   1   8
ATOM      8  C   UNL     1     145.309 126.876 115.281  1.00  0.00     0.000 C 
BRANCH   8   9
ATOM      9  C   UNL     1     146.083 127.622 116.379  1.00  0.00     0.000 C 
BRANCH   9  10
ATOM     10  C   UNL     1     145.769 127.092 117.788  1.00  0.00     0.002 C 
BRANCH  10  11
ATOM     11  C   UNL     1     144.649 127.884 118.482  1.00  0.00     0.028 C 
BRANCH  11  12
ATOM     12  C   UNL     1     145.187 128.719 119.650  1.00  0.00     0.156 C 
BRANCH  12  13
ATOM     13  O   UNL     1     146.094 129.687 119.197  1.00  0.00    -0.396 OA
ATOM     14  H   UNL     1     146.406 130.181 120.000  1.00  0.00     0.210 HD
ENDBRANCH  12  13
ENDBRANCH  11  12
ENDBRANCH  10  11
ENDBRANCH   9  10
ENDBRANCH   8   9
ENDBRANCH   1   8
TORSDOF 11
ENDMDL
MODEL 5
REMARK VINA RESULT:    -3.426      1.205      3.323
REMARK INTER + INTRA:          -6.937
REMARK INTER:                  -5.399
REMARK INTRA:                  -1.538
REMARK UNBOUND:                -1.408
REMARK SMILES CCCCCCCCCCCCO
REMARK SMILES IDX 7 1 6 2 5 3 4 4 3 5 2 6 1 7 8 8 9 9 10 10 11 11 12 12 13 13
REMARK H PARENT 13 14
REMARK Flexibility Score: inf
ROOT
ATOM      1  C   UNL     1     145.619 127.649 114.255  1.00  0.00     0.000 C 
ENDROOT
BRANCH   1   2
ATOM      2  C   UNL     1     145.115 126.875 115.482  1.00  0.00    -0.000 C 
BRANCH   2   3
ATOM      3  C   UNL     1     146.085 126.952 116.672  1.00  0.00    -0.000 C 
BRANCH   3   4
ATOM      4  C   UNL     1     145.360 127.067 118.021  1.00  0.00    -0.000 C 
BRANCH   4   5
ATOM      5  C   UNL     1     143.837 126.994 117.831  1.00  0.00    -0.000 C 
BRANCH   5   6
ATOM      6  C   UNL     1     143.080 127.970 118.747  1.00  0.00    -0.003 C 
ATOM      7  C   UNL     1     141.672 128.283 118.242  1.00  0.00     0.004 C 
ENDBRANCH   5   6
ENDBRANCH   4   5
ENDBRANCH   3   4
ENDBRANCH   2   3
ENDBRANCH   1   2
BRANCH   1   8
ATOM      8  C   UNL     1     145.249 129.135 114.353  1.00  0.00     0.000 C 
BRANCH   8   9
ATOM      9  C   UNL     1     143.849 129.314 114.958  1.00  0.00     0.000 C 
BRANCH   9  10
ATOM     10  C   UNL     1     143.803 130.419 116.026  1.00  0.00     0.002 C 
BRANCH  10  11
ATOM     11  C   UNL     1     145.203 130.862 116.479  1.00  0.00     0.028 C 
BRANCH  11  12
ATOM     12  C   UNL     1     145.190 131.397 117.915  1.00  0.00     0.156 C 
BRANCH  12  13
ATOM     13  O   UNL     1     145.640 130.422 118.817  1.00  0.00    -0.396 OA
ATOM     14  H   UNL     1     145.642 129.560 118.325  1.00  0.00     0.210 HD
ENDBRANCH  12  13
ENDBRANCH  11  12
ENDBRANCH  10  11
ENDBRANCH   9  10
ENDBRANCH   8   9
ENDBRANCH   1   8
TORSDOF 11
ENDMDL
MODEL 6
REMARK VINA RESULT:    -3.415      1.651      4.058
REMARK INTER + INTRA:          -6.919
REMARK INTER:                  -5.525
REMARK INTRA:                  -1.394
REMARK UNBOUND:                -1.408
REMARK SMILES CCCCCCCCCCCCO
REMARK SMILES IDX 7 1 6 2 5 3 4 4 3 5 2 6 1 7 8 8 9 9 10 10 11 11 12 12 13 13
REMARK H PARENT 13 14
REMARK Flexibility Score: inf
ROOT
ATOM      1  C   UNL     1     145.614 129.526 114.944  1.00  0.00     0.000 C 
ENDROOT
BRANCH   1   2
ATOM      2  C   UNL     1     145.487 128.164 114.247  1.00  0.00    -0.000 C 
BRANCH   2   3
ATOM      3  C   UNL     1     144.576 127.189 115.011  1.00  0.00    -0.000 C 
BRANCH   3   4
ATOM      4  C   UNL     1     143.111 127.649 115.044  1.00  0.00    -0.000 C 
BRANCH   4   5
ATOM      5  C   UNL     1     142.548 127.582 116.471  1.00  0.00    -0.000 C 
BRANCH   5   6
ATOM      6  C   UNL     1     143.575 127.056 117.488  1.00  0.00    -0.003 C 
ATOM      7  C   UNL     1     143.373 127.637 118.887  1.00  0.00     0.004 C 
ENDBRANCH   5   6
ENDBRANCH   4   5
ENDBRANCH   3   4
ENDBRANCH   2   3
ENDBRANCH   1   2
BRANCH   1   8
ATOM      8  C   UNL     1     146.104 129.360 116.388  1.00  0.00     0.000 C 
BRANCH   8   9
ATOM      9  C   UNL     1     145.406 130.359 117.324  1.00  0.00     0.000 C 
BRANCH   9  10
ATOM     10  C   UNL     1     144.361 131.220 116.598  1.00  0.00     0.002 C 
BRANCH  10  11
ATOM     11  C   UNL     1     144.673 132.723 116.676  1.00  0.00     0.028 C 
BRANCH  11  12
ATOM     12  C   UNL     1     146.109 133.026 116.233  1.00  0.00     0.156 C 
BRANCH  12  13
ATOM     13  O   UNL     1     146.796 133.748 117.219  1.00  0.00    -0.396 OA
ATOM     14  H   UNL     1     147.359 133.094 117.709  1.00  0.00     0.210 HD
ENDBRANCH  12  13
ENDBRANCH  11  12
ENDBRANCH  10  11
ENDBRANCH   9  10
ENDBRANCH   8   9
ENDBRANCH   1   8
TORSDOF 11
ENDMDL
MODEL 7
REMARK VINA RESULT:    -3.329      1.310      2.705
REMARK INTER + INTRA:          -6.780
REMARK INTER:                  -5.439
REMARK INTRA:                  -1.340
REMARK UNBOUND:                -1.408
REMARK SMILES CCCCCCCCCCCCO
REMARK SMILES IDX 7 1 6 2 5 3 4 4 3 5 2 6 1 7 8 8 9 9 10 10 11 11 12 12 13 13
REMARK H PARENT 13 14
REMARK Flexibility Score: inf
ROOT
ATOM      1  C   UNL     1     145.386 128.862 114.302  1.00  0.00     0.000 C 
ENDROOT
BRANCH   1   2
ATOM      2  C   UNL     1     145.275 130.041 115.281  1.00  0.00    -0.000 C 
BRANCH   2   3
ATOM      3  C   UNL     1     143.819 130.471 115.527  1.00  0.00    -0.000 C 
BRANCH   3   4
ATOM      4  C   UNL     1     142.867 130.002 114.417  1.00  0.00    -0.000 C 
BRANCH   4   5
ATOM      5  C   UNL     1     141.766 129.095 114.987  1.00  0.00    -0.000 C 
BRANCH   5   6
ATOM      6  C   UNL     1     141.899 128.887 116.505  1.00  0.00    -0.003 C 
ATOM      7  C   UNL     1     141.393 127.519 116.961  1.00  0.00     0.004 C 
ENDBRANCH   5   6
ENDBRANCH   4   5
ENDBRANCH   3   4
ENDBRANCH   2   3
ENDBRANCH   1   2
BRANCH   1   8
ATOM      8  C   UNL     1     146.014 127.640 114.984  1.00  0.00     0.000 C 
BRANCH   8   9
ATOM      9  C   UNL     1     145.113 127.115 116.112  1.00  0.00     0.000 C 
BRANCH   9  10
ATOM     10  C   UNL     1     145.768 127.236 117.497  1.00  0.00     0.002 C 
BRANCH  10  11
ATOM     11  C   UNL     1     144.773 127.668 118.586  1.00  0.00     0.028 C 
BRANCH  11  12
ATOM     12  C   UNL     1     145.437 128.567 119.635  1.00  0.00     0.156 C 
BRANCH  12  13
ATOM     13  O   UNL     1     146.054 129.671 119.029  1.00  0.00    -0.396 OA
ATOM     14  H   UNL     1     146.345 129.374 118.128  1.00  0.00     0.210 HD
ENDBRANCH  12  13
ENDBRANCH  11  12
ENDBRANCH  10  11
ENDBRANCH   9  10
ENDBRANCH   8   9
ENDBRANCH   1   8
TORSDOF 11
ENDMDL
MODEL 8
REMARK VINA RESULT:    -3.322      2.663      4.483
REMARK INTER + INTRA:          -6.769
REMARK INTER:                  -6.139
REMARK INTRA:                  -0.630
REMARK UNBOUND:                -1.408
REMARK SMILES CCCCCCCCCCCCO
REMARK SMILES IDX 7 1 6 2 5 3 4 4 3 5 2 6 1 7 8 8 9 9 10 10 11 11 12 12 13 13
REMARK H PARENT 13 14
REMARK Flexibility Score: inf
ROOT
ATOM      1  C   UNL     1     143.302 127.431 114.856  1.00  0.00     0.000 C 
ENDROOT
BRANCH   1   2
ATOM      2  C   UNL     1     142.531 127.556 116.178  1.00  0.00    -0.000 C 
BRANCH   2   3
ATOM      3  C   UNL     1     141.023 127.770 115.967  1.00  0.00    -0.000 C 
BRANCH   3   4
ATOM      4  C   UNL     1     140.482 127.007 114.748  1.00  0.00    -0.000 C 
BRANCH   4   5
ATOM      5  C   UNL     1     138.972 127.237 114.584  1.00  0.00    -0.000 C 
BRANCH   5   6
ATOM      6  C   UNL     1     138.612 128.726 114.452  1.00  0.00    -0.003 C 
ATOM      7  C   UNL     1     138.918 129.288 113.064  1.00  0.00     0.004 C 
ENDBRANCH   5   6
ENDBRANCH   4   5
ENDBRANCH   3   4
ENDBRANCH   2   3
ENDBRANCH   1   2
BRANCH   1   8
ATOM      8  C   UNL     1     144.806 127.635 115.077  1.00  0.00     0.000 C 
BRANCH   8   9
ATOM      9  C   UNL     1     145.296 128.917 114.385  1.00  0.00     0.000 C 
BRANCH   9  10
ATOM     10  C   UNL     1     145.187 130.155 115.289  1.00  0.00     0.002 C 
BRANCH  10  11
ATOM     11  C   UNL     1     146.070 130.051 116.543  1.00  0.00     0.028 C 
BRANCH  11  12
ATOM     12  C   UNL     1     145.250 130.224 117.827  1.00  0.00     0.156 C 
BRANCH  12  13
ATOM     13  O   UNL     1     145.997 129.845 118.952  1.00  0.00    -0.396 OA
ATOM     14  H   UNL     1     145.378 129.351 119.550  1.00  0.00     0.210 HD
ENDBRANCH  12  13
ENDBRANCH  11  12
ENDBRANCH  10  11
ENDBRANCH   9  10
ENDBRANCH   8   9
ENDBRANCH   1   8
TORSDOF 11
ENDMDL
MODEL 9
REMARK VINA RESULT:    -3.289      1.218      2.866
REMARK INTER + INTRA:          -6.716
REMARK INTER:                  -5.113
REMARK INTRA:                  -1.603
REMARK UNBOUND:                -1.408
REMARK SMILES CCCCCCCCCCCCO
REMARK SMILES IDX 7 1 6 2 5 3 4 4 3 5 2 6 1 7 8 8 9 9 10 10 11 11 12 12 13 13
REMARK H PARENT 13 14
REMARK Flexibility Score: inf
ROOT
ATOM      1  C   UNL     1     146.060 129.897 115.591  1.00  0.00     0.000 C 
ENDROOT
BRANCH   1   2
ATOM      2  C   UNL     1     145.577 129.128 114.352  1.00  0.00    -0.000 C 
BRANCH   2   3
ATOM      3  C   UNL     1     145.410 127.623 114.617  1.00  0.00    -0.000 C 
BRANCH   3   4
ATOM      4  C   UNL     1     144.321 127.323 115.658  1.00  0.00    -0.000 C 
BRANCH   4   5
ATOM      5  C   UNL     1     142.920 127.513 115.056  1.00  0.00    -0.000 C 
BRANCH   5   6
ATOM      6  C   UNL     1     142.176 128.715 115.659  1.00  0.00    -0.003 C 
ATOM      7  C   UNL     1     141.908 129.818 114.636  1.00  0.00     0.004 C 
ENDBRANCH   5   6
ENDBRANCH   4   5
ENDBRANCH   3   4
ENDBRANCH   2   3
ENDBRANCH   1   2
BRANCH   1   8
ATOM      8  C   UNL     1     145.157 131.105 115.874  1.00  0.00     0.000 C 
BRANCH   8   9
ATOM      9  C   UNL     1     144.710 131.124 117.343  1.00  0.00     0.000 C 
BRANCH   9  10
ATOM     10  C   UNL     1     145.349 129.999 118.172  1.00  0.00     0.002 C 
BRANCH  10  11
ATOM     11  C   UNL     1     144.310 129.162 118.934  1.00  0.00     0.028 C 
BRANCH  11  12
ATOM     12  C   UNL     1     144.871 127.793 119.336  1.00  0.00     0.156 C 
BRANCH  12  13
ATOM     13  O   UNL     1     146.193 127.644 118.892  1.00  0.00    -0.396 OA
ATOM     14  H   UNL     1     146.243 126.762 118.440  1.00  0.00     0.210 HD
ENDBRANCH  12  13
ENDBRANCH  11  12
ENDBRANCH  10  11
ENDBRANCH   9  10
ENDBRANCH   8   9
ENDBRANCH   1   8
TORSDOF 11
ENDMDL
