MODEL 1
REMARK VINA RESULT:    -5.450      0.000      0.000
REMARK INTER + INTRA:          -6.624
REMARK INTER:                  -6.405
REMARK INTRA:                  -0.219
REMARK UNBOUND:                -0.219
REMARK SMILES O=C([O-])C=Cc1ccc(O)c(O)c1
REMARK SMILES IDX 6 1 13 2 7 3 11 4 8 5 9 6 5 7 4 8 2 9 1 10 3 11 12 12 10 14
REMARK H PARENT 12 13 10 15
REMARK Flexibility Score: inf
ROOT
ATOM      1  C   UNL     1     -26.381  15.756  54.698  1.00  0.00    -0.022 A 
ATOM      2  C   UNL     1     -27.022  16.918  54.244  1.00  0.00     0.058 A 
ATOM      3  C   UNL     1     -26.383  14.609  53.885  1.00  0.00     0.012 A 
ATOM      4  C   UNL     1     -27.613  16.954  52.973  1.00  0.00     0.157 A 
ATOM      5  C   UNL     1     -26.970  14.643  52.618  1.00  0.00     0.051 A 
ATOM      6  C   UNL     1     -27.583  15.816  52.156  1.00  0.00     0.157 A 
ENDROOT
BRANCH   1   7
ATOM      7  C   UNL     1     -25.813  15.727  56.061  1.00  0.00     0.010 C 
ATOM      8  C   UNL     1     -26.524  15.675  57.200  1.00  0.00     0.025 C 
BRANCH   8   9
ATOM      9  C   UNL     1     -27.979  15.458  57.298  1.00  0.00     0.064 C 
ATOM     10  O   UNL     1     -28.766  16.391  57.605  1.00  0.00    -0.545 OA
ATOM     11  O   UNL     1     -28.500  14.211  56.976  1.00  0.00    -0.545 OA
ENDBRANCH   8   9
ENDBRANCH   1   7
BRANCH   4  12
ATOM     12  O   UNL     1     -28.233  18.115  52.515  1.00  0.00    -0.504 OA
ATOM     13  H   UNL     1     -27.708  18.852  52.059  1.00  0.00     0.293 HD
ENDBRANCH   4  12
BRANCH   6  14
ATOM     14  O   UNL     1     -28.168  15.855  50.893  1.00  0.00    -0.504 OA
ATOM     15  H   UNL     1     -27.969  16.601  50.238  1.00  0.00     0.293 HD
ENDBRANCH   6  14
TORSDOF 4
ENDMDL
MODEL 2
REMARK VINA RESULT:    -5.383      4.612      7.046
REMARK INTER + INTRA:          -6.546
REMARK INTER:                  -6.285
REMARK INTRA:                  -0.261
REMARK UNBOUND:                -0.219
REMARK SMILES O=C([O-])C=Cc1ccc(O)c(O)c1
REMARK SMILES IDX 6 1 13 2 7 3 11 4 8 5 9 6 5 7 4 8 2 9 1 10 3 11 12 12 10 14
REMARK H PARENT 12 13 10 15
REMARK Flexibility Score: inf
ROOT
ATOM      1  C   UNL     1     -25.012  12.249  55.665  1.00  0.00    -0.022 A 
ATOM      2  C   UNL     1     -24.251  11.139  56.057  1.00  0.00     0.058 A 
ATOM      3  C   UNL     1     -26.069  12.682  56.485  1.00  0.00     0.012 A 
ATOM      4  C   UNL     1     -24.505  10.498  57.279  1.00  0.00     0.157 A 
ATOM      5  C   UNL     1     -26.323  12.046  57.702  1.00  0.00     0.051 A 
ATOM      6  C   UNL     1     -25.540  10.955  58.105  1.00  0.00     0.157 A 
ENDROOT
BRANCH   1   7
ATOM      7  C   UNL     1     -24.759  12.873  54.350  1.00  0.00     0.010 C 
ATOM      8  C   UNL     1     -25.151  12.378  53.165  1.00  0.00     0.025 C 
BRANCH   8   9
ATOM      9  C   UNL     1     -26.051  11.227  52.968  1.00  0.00     0.064 C 
ATOM     10  O   UNL     1     -25.604  10.069  52.757  1.00  0.00    -0.545 OA
ATOM     11  O   UNL     1     -27.422  11.412  53.086  1.00  0.00    -0.545 OA
ENDBRANCH   8   9
ENDBRANCH   1   7
BRANCH   4  12
ATOM     12  O   UNL     1     -23.735   9.407  57.676  1.00  0.00    -0.504 OA
ATOM     13  H   UNL     1     -22.734   9.381  57.526  1.00  0.00     0.293 HD
ENDBRANCH   4  12
BRANCH   6  14
ATOM     14  O   UNL     1     -25.789  10.319  59.319  1.00  0.00    -0.504 OA
ATOM     15  H   UNL     1     -25.310   9.465  59.579  1.00  0.00     0.293 HD
ENDBRANCH   6  14
TORSDOF 4
ENDMDL
MODEL 3
REMARK VINA RESULT:    -5.248      1.622      2.797
REMARK INTER + INTRA:          -6.387
REMARK INTER:                  -6.103
REMARK INTRA:                  -0.284
REMARK UNBOUND:                -0.219
REMARK SMILES O=C([O-])C=Cc1ccc(O)c(O)c1
REMARK SMILES IDX 6 1 13 2 7 3 11 4 8 5 9 6 5 7 4 8 2 9 1 10 3 11 12 12 10 14
REMARK H PARENT 12 13 10 15
REMARK Flexibility Score: inf
ROOT
ATOM      1  C   UNL     1     -26.464  15.199  54.992  1.00  0.00    -0.022 A 
ATOM      2  C   UNL     1     -27.170  15.881  53.991  1.00  0.00     0.058 A 
ATOM      3  C   UNL     1     -25.605  15.920  55.840  1.00  0.00     0.012 A 
ATOM      4  C   UNL     1     -27.062  17.274  53.868  1.00  0.00     0.157 A 
ATOM      5  C   UNL     1     -25.497  17.308  55.719  1.00  0.00     0.051 A 
ATOM      6  C   UNL     1     -26.228  17.989  54.737  1.00  0.00     0.157 A 
ENDROOT
BRANCH   1   7
ATOM      7  C   UNL     1     -26.553  13.726  55.067  1.00  0.00     0.010 C 
ATOM      8  C   UNL     1     -27.338  13.035  55.909  1.00  0.00     0.025 C 
BRANCH   8   9
ATOM      9  C   UNL     1     -28.378  13.609  56.784  1.00  0.00     0.064 C 
ATOM     10  O   UNL     1     -29.596  13.581  56.466  1.00  0.00    -0.545 OA
ATOM     11  O   UNL     1     -28.012  14.131  58.018  1.00  0.00    -0.545 OA
ENDBRANCH   8   9
ENDBRANCH   1   7
BRANCH   4  12
ATOM     12  O   UNL     1     -27.780  17.953  52.885  1.00  0.00    -0.504 OA
ATOM     13  H   UNL     1     -28.455  18.670  53.121  1.00  0.00     0.293 HD
ENDBRANCH   4  12
BRANCH   6  14
ATOM     14  O   UNL     1     -26.125  19.373  54.614  1.00  0.00    -0.504 OA
ATOM     15  H   UNL     1     -25.719  19.805  53.793  1.00  0.00     0.293 HD
ENDBRANCH   6  14
TORSDOF 4
ENDMDL
MODEL 4
REMARK VINA RESULT:    -5.236      1.674      2.178
REMARK INTER + INTRA:          -6.373
REMARK INTER:                  -6.099
REMARK INTRA:                  -0.273
REMARK UNBOUND:                -0.219
REMARK SMILES O=C([O-])C=Cc1ccc(O)c(O)c1
REMARK SMILES IDX 6 1 13 2 7 3 11 4 8 5 9 6 5 7 4 8 2 9 1 10 3 11 12 12 10 14
REMARK H PARENT 12 13 10 15
REMARK Flexibility Score: inf
ROOT
ATOM      1  C   UNL     1     -26.036  14.852  54.586  1.00  0.00    -0.022 A 
ATOM      2  C   UNL     1     -26.140  16.105  55.207  1.00  0.00     0.058 A 
ATOM      3  C   UNL     1     -26.649  14.651  53.337  1.00  0.00     0.012 A 
ATOM      4  C   UNL     1     -26.804  17.162  54.568  1.00  0.00     0.157 A 
ATOM      5  C   UNL     1     -27.310  15.703  52.699  1.00  0.00     0.051 A 
ATOM      6  C   UNL     1     -27.386  16.962  53.309  1.00  0.00     0.157 A 
ENDROOT
BRANCH   1   7
ATOM      7  C   UNL     1     -25.378  13.740  55.303  1.00  0.00     0.010 C 
ATOM      8  C   UNL     1     -25.957  12.962  56.232  1.00  0.00     0.025 C 
BRANCH   8   9
ATOM      9  C   UNL     1     -27.391  12.953  56.576  1.00  0.00     0.064 C 
ATOM     10  O   UNL     1     -27.875  13.765  57.408  1.00  0.00    -0.545 OA
ATOM     11  O   UNL     1     -28.240  12.075  55.915  1.00  0.00    -0.545 OA
ENDBRANCH   8   9
ENDBRANCH   1   7
BRANCH   4  12
ATOM     12  O   UNL     1     -26.890  18.412  55.178  1.00  0.00    -0.504 OA
ATOM     13  H   UNL     1     -27.775  18.788  55.496  1.00  0.00     0.293 HD
ENDBRANCH   4  12
BRANCH   6  14
ATOM     14  O   UNL     1     -28.042  18.015  52.675  1.00  0.00    -0.504 OA
ATOM     15  H   UNL     1     -28.746  17.851  51.966  1.00  0.00     0.293 HD
ENDBRANCH   6  14
TORSDOF 4
ENDMDL
MODEL 5
REMARK VINA RESULT:    -5.234      4.181      5.907
REMARK INTER + INTRA:          -6.370
REMARK INTER:                  -6.212
REMARK INTRA:                  -0.158
REMARK UNBOUND:                -0.219
REMARK SMILES O=C([O-])C=Cc1ccc(O)c(O)c1
REMARK SMILES IDX 6 1 13 2 7 3 11 4 8 5 9 6 5 7 4 8 2 9 1 10 3 11 12 12 10 14
REMARK H PARENT 12 13 10 15
REMARK Flexibility Score: inf
ROOT
ATOM      1  C   UNL     1     -25.311  12.740  55.133  1.00  0.00    -0.022 A 
ATOM      2  C   UNL     1     -24.088  12.126  54.824  1.00  0.00     0.058 A 
ATOM      3  C   UNL     1     -26.057  12.272  56.229  1.00  0.00     0.012 A 
ATOM      4  C   UNL     1     -23.589  11.092  55.629  1.00  0.00     0.157 A 
ATOM      5  C   UNL     1     -25.560  11.242  57.032  1.00  0.00     0.051 A 
ATOM      6  C   UNL     1     -24.324  10.652  56.738  1.00  0.00     0.157 A 
ENDROOT
BRANCH   1   7
ATOM      7  C   UNL     1     -25.840  13.790  54.240  1.00  0.00     0.010 C 
ATOM      8  C   UNL     1     -26.045  15.073  54.582  1.00  0.00     0.025 C 
BRANCH   8   9
ATOM      9  C   UNL     1     -25.618  15.707  55.843  1.00  0.00     0.064 C 
ATOM     10  O   UNL     1     -24.570  16.402  55.910  1.00  0.00    -0.545 OA
ATOM     11  O   UNL     1     -26.427  15.591  56.966  1.00  0.00    -0.545 OA
ENDBRANCH   8   9
ENDBRANCH   1   7
BRANCH   4  12
ATOM     12  O   UNL     1     -22.364  10.496  55.332  1.00  0.00    -0.504 OA
ATOM     13  H   UNL     1     -22.189   9.518  55.529  1.00  0.00     0.293 HD
ENDBRANCH   4  12
BRANCH   6  14
ATOM     14  O   UNL     1     -23.824   9.626  57.537  1.00  0.00    -0.504 OA
ATOM     15  H   UNL     1     -24.328   9.294  58.351  1.00  0.00     0.293 HD
ENDBRANCH   6  14
TORSDOF 4
ENDMDL
MODEL 6
REMARK VINA RESULT:    -5.144      2.758      3.455
REMARK INTER + INTRA:          -6.265
REMARK INTER:                  -6.104
REMARK INTRA:                  -0.161
REMARK UNBOUND:                -0.219
REMARK SMILES O=C([O-])C=Cc1ccc(O)c(O)c1
REMARK SMILES IDX 6 1 13 2 7 3 11 4 8 5 9 6 5 7 4 8 2 9 1 10 3 11 12 12 10 14
REMARK H PARENT 12 13 10 15
REMARK Flexibility Score: inf
ROOT
ATOM      1  C   UNL     1     -26.498  14.870  55.155  1.00  0.00    -0.022 A 
ATOM      2  C   UNL     1     -26.256  16.209  55.493  1.00  0.00     0.058 A 
ATOM      3  C   UNL     1     -27.260  14.577  54.011  1.00  0.00     0.012 A 
ATOM      4  C   UNL     1     -26.725  17.246  54.672  1.00  0.00     0.157 A 
ATOM      5  C   UNL     1     -27.727  15.609  53.192  1.00  0.00     0.051 A 
ATOM      6  C   UNL     1     -27.457  16.945  53.517  1.00  0.00     0.157 A 
ENDROOT
BRANCH   1   7
ATOM      7  C   UNL     1     -26.040  13.799  56.063  1.00  0.00     0.010 C 
ATOM      8  C   UNL     1     -25.192  12.811  55.737  1.00  0.00     0.025 C 
BRANCH   8   9
ATOM      9  C   UNL     1     -24.428  12.711  54.479  1.00  0.00     0.064 C 
ATOM     10  O   UNL     1     -23.310  13.273  54.339  1.00  0.00    -0.545 OA
ATOM     11  O   UNL     1     -24.922  11.922  53.448  1.00  0.00    -0.545 OA
ENDBRANCH   8   9
ENDBRANCH   1   7
BRANCH   4  12
ATOM     12  O   UNL     1     -26.467  18.576  55.000  1.00  0.00    -0.504 OA
ATOM     13  H   UNL     1     -26.669  18.944  55.922  1.00  0.00     0.293 HD
ENDBRANCH   4  12
BRANCH   6  14
ATOM     14  O   UNL     1     -27.919  17.976  52.702  1.00  0.00    -0.504 OA
ATOM     15  H   UNL     1     -28.418  17.789  51.841  1.00  0.00     0.293 HD
ENDBRANCH   6  14
TORSDOF 4
ENDMDL
MODEL 7
REMARK VINA RESULT:    -5.137      2.462      3.899
REMARK INTER + INTRA:          -6.257
REMARK INTER:                  -5.995
REMARK INTRA:                  -0.262
REMARK UNBOUND:                -0.219
REMARK SMILES O=C([O-])C=Cc1ccc(O)c(O)c1
REMARK SMILES IDX 6 1 13 2 7 3 11 4 8 5 9 6 5 7 4 8 2 9 1 10 3 11 12 12 10 14
REMARK H PARENT 12 13 10 15
REMARK Flexibility Score: inf
ROOT
ATOM      1  C   UNL     1     -27.023  15.070  54.992  1.00  0.00    -0.022 A 
ATOM      2  C   UNL     1     -27.586  15.829  53.956  1.00  0.00     0.058 A 
ATOM      3  C   UNL     1     -26.104  15.675  55.866  1.00  0.00     0.012 A 
ATOM      4  C   UNL     1     -27.275  17.191  53.823  1.00  0.00     0.157 A 
ATOM      5  C   UNL     1     -25.794  17.031  55.735  1.00  0.00     0.051 A 
ATOM      6  C   UNL     1     -26.381  17.794  54.717  1.00  0.00     0.157 A 
ENDROOT
BRANCH   1   7
ATOM      7  C   UNL     1     -27.326  13.627  55.078  1.00  0.00     0.010 C 
ATOM      8  C   UNL     1     -26.773  12.669  54.317  1.00  0.00     0.025 C 
BRANCH   8   9
ATOM      9  C   UNL     1     -25.643  12.853  53.386  1.00  0.00     0.064 C 
ATOM     10  O   UNL     1     -25.816  12.900  52.140  1.00  0.00    -0.545 OA
ATOM     11  O   UNL     1     -24.368  13.047  53.901  1.00  0.00    -0.545 OA
ENDBRANCH   8   9
ENDBRANCH   1   7
BRANCH   4  12
ATOM     12  O   UNL     1     -27.849  17.949  52.804  1.00  0.00    -0.504 OA
ATOM     13  H   UNL     1     -28.129  17.531  51.925  1.00  0.00     0.293 HD
ENDBRANCH   4  12
BRANCH   6  14
ATOM     14  O   UNL     1     -26.076  19.147  54.584  1.00  0.00    -0.504 OA
ATOM     15  H   UNL     1     -26.151  19.787  55.365  1.00  0.00     0.293 HD
ENDBRANCH   6  14
TORSDOF 4
ENDMDL
MODEL 8
REMARK VINA RESULT:    -5.131      7.707      9.248
REMARK INTER + INTRA:          -6.249
REMARK INTER:                  -6.015
REMARK INTRA:                  -0.235
REMARK UNBOUND:                -0.219
REMARK SMILES O=C([O-])C=Cc1ccc(O)c(O)c1
REMARK SMILES IDX 6 1 13 2 7 3 11 4 8 5 9 6 5 7 4 8 2 9 1 10 3 11 12 12 10 14
REMARK H PARENT 12 13 10 15
REMARK Flexibility Score: inf
ROOT
ATOM      1  C   UNL     1     -32.208   9.594  54.822  1.00  0.00    -0.022 A 
ATOM      2  C   UNL     1     -33.045   8.520  55.153  1.00  0.00     0.058 A 
ATOM      3  C   UNL     1     -32.587  10.899  55.184  1.00  0.00     0.012 A 
ATOM      4  C   UNL     1     -34.224   8.736  55.882  1.00  0.00     0.157 A 
ATOM      5  C   UNL     1     -33.760  11.115  55.912  1.00  0.00     0.051 A 
ATOM      6  C   UNL     1     -34.579  10.035  56.266  1.00  0.00     0.157 A 
ENDROOT
BRANCH   1   7
ATOM      7  C   UNL     1     -31.000   9.347  54.008  1.00  0.00     0.010 C 
ATOM      8  C   UNL     1     -29.818   8.917  54.478  1.00  0.00     0.025 C 
BRANCH   8   9
ATOM      9  C   UNL     1     -29.558   8.445  55.851  1.00  0.00     0.064 C 
ATOM     10  O   UNL     1     -29.279   9.245  56.783  1.00  0.00    -0.545 OA
ATOM     11  O   UNL     1     -29.692   7.092  56.138  1.00  0.00    -0.545 OA
ENDBRANCH   8   9
ENDBRANCH   1   7
BRANCH   4  12
ATOM     12  O   UNL     1     -35.046   7.664  56.227  1.00  0.00    -0.504 OA
ATOM     13  H   UNL     1     -35.055   7.283  57.165  1.00  0.00     0.293 HD
ENDBRANCH   4  12
BRANCH   6  14
ATOM     14  O   UNL     1     -35.749  10.246  56.993  1.00  0.00    -0.504 OA
ATOM     15  H   UNL     1     -36.102   9.555  57.643  1.00  0.00     0.293 HD
ENDBRANCH   6  14
TORSDOF 4
ENDMDL
MODEL 9
REMARK VINA RESULT:    -5.130      5.593      6.327
REMARK INTER + INTRA:          -6.249
REMARK INTER:                  -5.976
REMARK INTRA:                  -0.272
REMARK UNBOUND:                -0.219
REMARK SMILES O=C([O-])C=Cc1ccc(O)c(O)c1
REMARK SMILES IDX 6 1 13 2 7 3 11 4 8 5 9 6 5 7 4 8 2 9 1 10 3 11 12 12 10 14
REMARK H PARENT 12 13 10 15
REMARK Flexibility Score: inf
ROOT
ATOM      1  C   UNL     1     -32.387  13.561  54.598  1.00  0.00    -0.022 A 
ATOM      2  C   UNL     1     -31.191  13.686  53.877  1.00  0.00     0.058 A 
ATOM      3  C   UNL     1     -33.509  14.310  54.203  1.00  0.00     0.012 A 
ATOM      4  C   UNL     1     -31.127  14.510  52.743  1.00  0.00     0.157 A 
ATOM      5  C   UNL     1     -33.447  15.130  53.073  1.00  0.00     0.051 A 
ATOM      6  C   UNL     1     -32.258  15.229  52.338  1.00  0.00     0.157 A 
ENDROOT
BRANCH   1   7
ATOM      7  C   UNL     1     -32.413  12.729  55.818  1.00  0.00     0.010 C 
ATOM      8  C   UNL     1     -32.738  11.427  55.866  1.00  0.00     0.025 C 
BRANCH   8   9
ATOM      9  C   UNL     1     -32.953  10.549  54.700  1.00  0.00     0.064 C 
ATOM     10  O   UNL     1     -31.988  10.045  54.068  1.00  0.00    -0.545 OA
ATOM     11  O   UNL     1     -34.250  10.215  54.335  1.00  0.00    -0.545 OA
ENDBRANCH   8   9
ENDBRANCH   1   7
BRANCH   4  12
ATOM     12  O   UNL     1     -29.942  14.619  52.017  1.00  0.00    -0.504 OA
ATOM     13  H   UNL     1     -29.061  14.281  52.385  1.00  0.00     0.293 HD
ENDBRANCH   4  12
BRANCH   6  14
ATOM     14  O   UNL     1     -32.192  16.045  51.210  1.00  0.00    -0.504 OA
ATOM     15  H   UNL     1     -31.327  16.486  50.924  1.00  0.00     0.293 HD
ENDBRANCH   6  14
TORSDOF 4
ENDMDL
