MODEL 1
REMARK VINA RESULT:    -3.770      0.000      0.000
REMARK INTER + INTRA:          -8.821
REMARK INTER:                  -6.856
REMARK INTRA:                  -1.965
REMARK UNBOUND:                -1.965
REMARK SMILES CCCCCCCCCCCCCCCC(=O)[O-]
REMARK SMILES IDX 9 1 10 2 11 3 12 4 13 5 14 6 15 7 16 8 17 9 18 10 8 11 7 12
REMARK SMILES IDX 6 13 5 14 4 15 3 16 2 17 1 18
REMARK H PARENT
REMARK Flexibility Score: inf
ROOT
ATOM      1  C   UNL     1      31.928   9.639  45.189  1.00  0.00     0.000 C 
ENDROOT
BRANCH   1   2
ATOM      2  C   UNL     1      32.803   9.152  46.356  1.00  0.00     0.000 C 
BRANCH   2   3
ATOM      3  C   UNL     1      33.764   8.006  45.975  1.00  0.00     0.000 C 
BRANCH   3   4
ATOM      4  C   UNL     1      33.585   7.563  44.512  1.00  0.00     0.000 C 
BRANCH   4   5
ATOM      5  C   UNL     1      33.110   6.108  44.385  1.00  0.00     0.000 C 
BRANCH   5   6
ATOM      6  C   UNL     1      31.841   5.972  43.525  1.00  0.00     0.006 C 
BRANCH   6   7
ATOM      7  C   UNL     1      32.091   5.158  42.248  1.00  0.00     0.053 C 
BRANCH   7   8
ATOM      8  C   UNL     1      33.294   5.648  41.502  1.00  0.00     0.041 C 
ATOM      9  O   UNL     1      33.265   6.760  40.913  1.00  0.00    -0.550 OA
ATOM     10  O   UNL     1      34.439   4.862  41.432  1.00  0.00    -0.550 OA
ENDBRANCH   7   8
ENDBRANCH   6   7
ENDBRANCH   5   6
ENDBRANCH   4   5
ENDBRANCH   3   4
ENDBRANCH   2   3
ENDBRANCH   1   2
BRANCH   1  11
ATOM     11  C   UNL     1      30.427   9.402  45.430  1.00  0.00     0.000 C 
BRANCH  11  12
ATOM     12  C   UNL     1      30.149   8.490  46.639  1.00  0.00    -0.000 C 
BRANCH  12  13
ATOM     13  C   UNL     1      29.763   7.041  46.289  1.00  0.00    -0.000 C 
BRANCH  13  14
ATOM     14  C   UNL     1      29.907   6.079  47.481  1.00  0.00    -0.000 C 
BRANCH  14  15
ATOM     15  C   UNL     1      31.344   5.557  47.657  1.00  0.00    -0.000 C 
BRANCH  15  16
ATOM     16  C   UNL     1      31.900   5.661  49.089  1.00  0.00    -0.000 C 
BRANCH  16  17
ATOM     17  C   UNL     1      31.733   4.364  49.894  1.00  0.00    -0.003 C 
ATOM     18  C   UNL     1      32.239   3.159  49.105  1.00  0.00     0.004 C 
ENDBRANCH  16  17
ENDBRANCH  15  16
ENDBRANCH  14  15
ENDBRANCH  13  14
ENDBRANCH  12  13
ENDBRANCH  11  12
ENDBRANCH   1  11
TORSDOF 14
ENDMDL
MODEL 2
REMARK VINA RESULT:    -3.704     15.745     17.819
REMARK INTER + INTRA:          -8.701
REMARK INTER:                  -6.258
REMARK INTRA:                  -2.443
REMARK UNBOUND:                -1.965
REMARK SMILES CCCCCCCCCCCCCCCC(=O)[O-]
REMARK SMILES IDX 9 1 10 2 11 3 12 4 13 5 14 6 15 7 16 8 17 9 18 10 8 11 7 12
REMARK SMILES IDX 6 13 5 14 4 15 3 16 2 17 1 18
REMARK H PARENT
REMARK Flexibility Score: inf
ROOT
ATOM      1  C   UNL     1      20.622  -3.389  57.893  1.00  0.00     0.000 C 
ENDROOT
BRANCH   1   2
ATOM      2  C   UNL     1      20.171  -4.583  57.035  1.00  0.00     0.000 C 
BRANCH   2   3
ATOM      3  C   UNL     1      21.131  -5.790  57.100  1.00  0.00     0.000 C 
BRANCH   3   4
ATOM      4  C   UNL     1      21.255  -6.504  55.741  1.00  0.00     0.000 C 
BRANCH   4   5
ATOM      5  C   UNL     1      20.591  -5.723  54.597  1.00  0.00     0.000 C 
BRANCH   5   6
ATOM      6  C   UNL     1      21.614  -5.016  53.692  1.00  0.00     0.006 C 
BRANCH   6   7
ATOM      7  C   UNL     1      22.655  -5.989  53.124  1.00  0.00     0.053 C 
BRANCH   7   8
ATOM      8  C   UNL     1      24.008  -5.355  53.012  1.00  0.00     0.041 C 
ATOM      9  O   UNL     1      24.989  -5.844  53.630  1.00  0.00    -0.550 OA
ATOM     10  O   UNL     1      24.178  -4.207  52.248  1.00  0.00    -0.550 OA
ENDBRANCH   7   8
ENDBRANCH   6   7
ENDBRANCH   5   6
ENDBRANCH   4   5
ENDBRANCH   3   4
ENDBRANCH   2   3
ENDBRANCH   1   2
BRANCH   1  11
ATOM     11  C   UNL     1      20.185  -2.035  57.308  1.00  0.00     0.000 C 
BRANCH  11  12
ATOM     12  C   UNL     1      21.102  -0.872  57.729  1.00  0.00    -0.000 C 
BRANCH  12  13
ATOM     13  C   UNL     1      22.042  -0.349  56.627  1.00  0.00    -0.000 C 
BRANCH  13  14
ATOM     14  C   UNL     1      21.643  -0.832  55.222  1.00  0.00    -0.000 C 
BRANCH  14  15
ATOM     15  C   UNL     1      22.673  -1.797  54.607  1.00  0.00    -0.000 C 
BRANCH  15  16
ATOM     16  C   UNL     1      23.914  -2.061  55.479  1.00  0.00    -0.000 C 
BRANCH  16  17
ATOM     17  C   UNL     1      23.874  -3.425  56.184  1.00  0.00    -0.003 C 
ATOM     18  C   UNL     1      24.190  -3.285  57.671  1.00  0.00     0.004 C 
ENDBRANCH  16  17
ENDBRANCH  15  16
ENDBRANCH  14  15
ENDBRANCH  13  14
ENDBRANCH  12  13
ENDBRANCH  11  12
ENDBRANCH   1  11
TORSDOF 14
ENDMDL
MODEL 3
REMARK VINA RESULT:    -3.644      6.009      7.103
REMARK INTER + INTRA:          -8.592
REMARK INTER:                  -7.908
REMARK INTRA:                  -0.684
REMARK UNBOUND:                -1.965
REMARK SMILES CCCCCCCCCCCCCCCC(=O)[O-]
REMARK SMILES IDX 9 1 10 2 11 3 12 4 13 5 14 6 15 7 16 8 17 9 18 10 8 11 7 12
REMARK SMILES IDX 6 13 5 14 4 15 3 16 2 17 1 18
REMARK H PARENT
REMARK Flexibility Score: inf
ROOT
ATOM      1  C   UNL     1      28.887   3.886  43.564  1.00  0.00     0.000 C 
ENDROOT
BRANCH   1   2
ATOM      2  C   UNL     1      28.167   4.320  42.276  1.00  0.00     0.000 C 
BRANCH   2   3
ATOM      3  C   UNL     1      26.765   4.918  42.520  1.00  0.00     0.000 C 
BRANCH   3   4
ATOM      4  C   UNL     1      25.799   4.619  41.359  1.00  0.00     0.000 C 
BRANCH   4   5
ATOM      5  C   UNL     1      26.497   3.959  40.160  1.00  0.00     0.000 C 
BRANCH   5   6
ATOM      6  C   UNL     1      25.603   2.927  39.451  1.00  0.00     0.006 C 
BRANCH   6   7
ATOM      7  C   UNL     1      24.255   2.744  40.159  1.00  0.00     0.053 C 
BRANCH   7   8
ATOM      8  C   UNL     1      23.388   1.742  39.459  1.00  0.00     0.041 C 
ATOM      9  O   UNL     1      22.342   2.114  38.866  1.00  0.00    -0.550 OA
ATOM     10  O   UNL     1      23.722   0.393  39.485  1.00  0.00    -0.550 OA
ENDBRANCH   7   8
ENDBRANCH   6   7
ENDBRANCH   5   6
ENDBRANCH   4   5
ENDBRANCH   3   4
ENDBRANCH   2   3
ENDBRANCH   1   2
BRANCH   1  11
ATOM     11  C   UNL     1      30.208   4.641  43.793  1.00  0.00     0.000 C 
BRANCH  11  12
ATOM     12  C   UNL     1      30.281   5.322  45.172  1.00  0.00    -0.000 C 
BRANCH  12  13
ATOM     13  C   UNL     1      31.703   5.636  45.671  1.00  0.00    -0.000 C 
BRANCH  13  14
ATOM     14  C   UNL     1      31.713   6.446  46.979  1.00  0.00    -0.000 C 
BRANCH  14  15
ATOM     15  C   UNL     1      30.971   5.737  48.126  1.00  0.00    -0.000 C 
BRANCH  15  16
ATOM     16  C   UNL     1      31.825   5.460  49.377  1.00  0.00    -0.000 C 
BRANCH  16  17
ATOM     17  C   UNL     1      31.652   4.033  49.918  1.00  0.00    -0.003 C 
ATOM     18  C   UNL     1      32.314   3.012  48.997  1.00  0.00     0.004 C 
ENDBRANCH  16  17
ENDBRANCH  15  16
ENDBRANCH  14  15
ENDBRANCH  13  14
ENDBRANCH  12  13
ENDBRANCH  11  12
ENDBRANCH   1  11
TORSDOF 14
ENDMDL
MODEL 4
REMARK VINA RESULT:    -3.597      3.246      5.712
REMARK INTER + INTRA:          -8.507
REMARK INTER:                  -6.503
REMARK INTRA:                  -2.003
REMARK UNBOUND:                -1.965
REMARK SMILES CCCCCCCCCCCCCCCC(=O)[O-]
REMARK SMILES IDX 9 1 10 2 11 3 12 4 13 5 14 6 15 7 16 8 17 9 18 10 8 11 7 12
REMARK SMILES IDX 6 13 5 14 4 15 3 16 2 17 1 18
REMARK H PARENT
REMARK Flexibility Score: inf
ROOT
ATOM      1  C   UNL     1      31.803   9.604  45.324  1.00  0.00     0.000 C 
ENDROOT
BRANCH   1   2
ATOM      2  C   UNL     1      30.511   9.393  46.132  1.00  0.00     0.000 C 
BRANCH   2   3
ATOM      3  C   UNL     1      30.083   7.914  46.241  1.00  0.00     0.000 C 
BRANCH   3   4
ATOM      4  C   UNL     1      29.537   7.571  47.638  1.00  0.00     0.000 C 
BRANCH   4   5
ATOM      5  C   UNL     1      29.610   6.069  47.953  1.00  0.00     0.000 C 
BRANCH   5   6
ATOM      6  C   UNL     1      31.032   5.501  47.800  1.00  0.00     0.006 C 
BRANCH   6   7
ATOM      7  C   UNL     1      31.851   5.634  49.091  1.00  0.00     0.053 C 
BRANCH   7   8
ATOM      8  C   UNL     1      31.936   4.335  49.833  1.00  0.00     0.041 C 
ATOM      9  O   UNL     1      33.046   3.919  50.256  1.00  0.00    -0.550 OA
ATOM     10  O   UNL     1      30.792   3.571  50.033  1.00  0.00    -0.550 OA
ENDBRANCH   7   8
ENDBRANCH   6   7
ENDBRANCH   5   6
ENDBRANCH   4   5
ENDBRANCH   3   4
ENDBRANCH   2   3
ENDBRANCH   1   2
BRANCH   1  11
ATOM     11  C   UNL     1      33.067   9.568  46.201  1.00  0.00     0.000 C 
BRANCH  11  12
ATOM     12  C   UNL     1      33.731   8.179  46.241  1.00  0.00    -0.000 C 
BRANCH  12  13
ATOM     13  C   UNL     1      33.757   7.427  44.898  1.00  0.00    -0.000 C 
BRANCH  13  14
ATOM     14  C   UNL     1      32.950   6.118  44.928  1.00  0.00    -0.000 C 
BRANCH  14  15
ATOM     15  C   UNL     1      32.170   5.867  43.625  1.00  0.00    -0.000 C 
BRANCH  15  16
ATOM     16  C   UNL     1      31.174   4.694  43.682  1.00  0.00    -0.000 C 
BRANCH  16  17
ATOM     17  C   UNL     1      29.770   5.120  44.135  1.00  0.00    -0.003 C 
ATOM     18  C   UNL     1      29.152   6.110  43.152  1.00  0.00     0.004 C 
ENDBRANCH  16  17
ENDBRANCH  15  16
ENDBRANCH  14  15
ENDBRANCH  13  14
ENDBRANCH  12  13
ENDBRANCH  11  12
ENDBRANCH   1  11
TORSDOF 14
ENDMDL
MODEL 5
REMARK VINA RESULT:    -3.574     15.092     17.042
REMARK INTER + INTRA:          -8.465
REMARK INTER:                  -5.961
REMARK INTRA:                  -2.504
REMARK UNBOUND:                -1.965
REMARK SMILES CCCCCCCCCCCCCCCC(=O)[O-]
REMARK SMILES IDX 9 1 10 2 11 3 12 4 13 5 14 6 15 7 16 8 17 9 18 10 8 11 7 12
REMARK SMILES IDX 6 13 5 14 4 15 3 16 2 17 1 18
REMARK H PARENT
REMARK Flexibility Score: inf
ROOT
ATOM      1  C   UNL     1      21.584  -4.974  56.674  1.00  0.00     0.000 C 
ENDROOT
BRANCH   1   2
ATOM      2  C   UNL     1      20.590  -4.737  55.525  1.00  0.00     0.000 C 
BRANCH   2   3
ATOM      3  C   UNL     1      21.016  -5.389  54.192  1.00  0.00     0.000 C 
BRANCH   3   4
ATOM      4  C   UNL     1      22.491  -5.829  54.208  1.00  0.00     0.000 C 
BRANCH   4   5
ATOM      5  C   UNL     1      22.971  -6.348  52.845  1.00  0.00     0.000 C 
BRANCH   5   6
ATOM      6  C   UNL     1      24.053  -5.451  52.217  1.00  0.00     0.006 C 
BRANCH   6   7
ATOM      7  C   UNL     1      23.450  -4.342  51.345  1.00  0.00     0.053 C 
BRANCH   7   8
ATOM      8  C   UNL     1      23.424  -4.724  49.897  1.00  0.00     0.041 C 
ATOM      9  O   UNL     1      23.786  -5.875  49.539  1.00  0.00    -0.550 OA
ATOM     10  O   UNL     1      23.026  -3.798  48.940  1.00  0.00    -0.550 OA
ENDBRANCH   7   8
ENDBRANCH   6   7
ENDBRANCH   5   6
ENDBRANCH   4   5
ENDBRANCH   3   4
ENDBRANCH   2   3
ENDBRANCH   1   2
BRANCH   1  11
ATOM     11  C   UNL     1      21.757  -3.740  57.576  1.00  0.00     0.000 C 
BRANCH  11  12
ATOM     12  C   UNL     1      23.230  -3.447  57.919  1.00  0.00    -0.000 C 
BRANCH  12  13
ATOM     13  C   UNL     1      24.183  -3.386  56.711  1.00  0.00    -0.000 C 
BRANCH  13  14
ATOM     14  C   UNL     1      24.027  -2.094  55.890  1.00  0.00    -0.000 C 
BRANCH  14  15
ATOM     15  C   UNL     1      23.586  -2.358  54.439  1.00  0.00    -0.000 C 
BRANCH  15  16
ATOM     16  C   UNL     1      22.196  -1.806  54.073  1.00  0.00    -0.000 C 
BRANCH  16  17
ATOM     17  C   UNL     1      21.630  -0.852  55.136  1.00  0.00    -0.003 C 
ATOM     18  C   UNL     1      20.153  -1.135  55.399  1.00  0.00     0.004 C 
ENDBRANCH  16  17
ENDBRANCH  15  16
ENDBRANCH  14  15
ENDBRANCH  13  14
ENDBRANCH  12  13
ENDBRANCH  11  12
ENDBRANCH   1  11
TORSDOF 14
ENDMDL
MODEL 6
REMARK VINA RESULT:    -3.520     15.635     17.820
REMARK INTER + INTRA:          -8.366
REMARK INTER:                  -6.064
REMARK INTRA:                  -2.302
REMARK UNBOUND:                -1.965
REMARK SMILES CCCCCCCCCCCCCCCC(=O)[O-]
REMARK SMILES IDX 9 1 10 2 11 3 12 4 13 5 14 6 15 7 16 8 17 9 18 10 8 11 7 12
REMARK SMILES IDX 6 13 5 14 4 15 3 16 2 17 1 18
REMARK H PARENT
REMARK Flexibility Score: inf
ROOT
ATOM      1  C   UNL     1      21.811  -4.613  57.626  1.00  0.00     0.000 C 
ENDROOT
BRANCH   1   2
ATOM      2  C   UNL     1      20.387  -4.388  57.091  1.00  0.00     0.000 C 
BRANCH   2   3
ATOM      3  C   UNL     1      20.107  -5.105  55.753  1.00  0.00     0.000 C 
BRANCH   3   4
ATOM      4  C   UNL     1      21.245  -6.065  55.361  1.00  0.00     0.000 C 
BRANCH   4   5
ATOM      5  C   UNL     1      20.905  -6.922  54.133  1.00  0.00     0.000 C 
BRANCH   5   6
ATOM      6  C   UNL     1      21.878  -6.694  52.964  1.00  0.00     0.006 C 
BRANCH   6   7
ATOM      7  C   UNL     1      23.340  -6.641  53.429  1.00  0.00     0.053 C 
BRANCH   7   8
ATOM      8  C   UNL     1      24.195  -5.849  52.489  1.00  0.00     0.041 C 
ATOM      9  O   UNL     1      23.725  -5.441  51.395  1.00  0.00    -0.550 OA
ATOM     10  O   UNL     1      25.522  -5.586  52.809  1.00  0.00    -0.550 OA
ENDBRANCH   7   8
ENDBRANCH   6   7
ENDBRANCH   5   6
ENDBRANCH   4   5
ENDBRANCH   3   4
ENDBRANCH   2   3
ENDBRANCH   1   2
BRANCH   1  11
ATOM     11  C   UNL     1      22.553  -3.297  57.918  1.00  0.00     0.000 C 
BRANCH  11  12
ATOM     12  C   UNL     1      24.063  -3.382  57.629  1.00  0.00    -0.000 C 
BRANCH  12  13
ATOM     13  C   UNL     1      24.524  -2.670  56.343  1.00  0.00    -0.000 C 
BRANCH  13  14
ATOM     14  C   UNL     1      23.967  -3.323  55.066  1.00  0.00    -0.000 C 
BRANCH  14  15
ATOM     15  C   UNL     1      23.231  -2.322  54.157  1.00  0.00    -0.000 C 
BRANCH  15  16
ATOM     16  C   UNL     1      21.716  -2.562  54.022  1.00  0.00    -0.000 C 
BRANCH  16  17
ATOM     17  C   UNL     1      20.873  -1.425  54.619  1.00  0.00    -0.003 C 
ATOM     18  C   UNL     1      21.728  -0.505  55.488  1.00  0.00     0.004 C 
ENDBRANCH  16  17
ENDBRANCH  15  16
ENDBRANCH  14  15
ENDBRANCH  13  14
ENDBRANCH  12  13
ENDBRANCH  11  12
ENDBRANCH   1  11
TORSDOF 14
ENDMDL
MODEL 7
REMARK VINA RESULT:    -3.466     15.219     17.635
REMARK INTER + INTRA:          -8.267
REMARK INTER:                  -5.904
REMARK INTRA:                  -2.363
REMARK UNBOUND:                -1.965
REMARK SMILES CCCCCCCCCCCCCCCC(=O)[O-]
REMARK SMILES IDX 9 1 10 2 11 3 12 4 13 5 14 6 15 7 16 8 17 9 18 10 8 11 7 12
REMARK SMILES IDX 6 13 5 14 4 15 3 16 2 17 1 18
REMARK H PARENT
REMARK Flexibility Score: inf
ROOT
ATOM      1  C   UNL     1      20.125  -3.574  54.187  1.00  0.00     0.000 C 
ENDROOT
BRANCH   1   2
ATOM      2  C   UNL     1      19.282  -2.384  54.676  1.00  0.00     0.000 C 
BRANCH   2   3
ATOM      3  C   UNL     1      19.890  -1.009  54.328  1.00  0.00     0.000 C 
BRANCH   3   4
ATOM      4  C   UNL     1      21.170  -0.723  55.133  1.00  0.00     0.000 C 
BRANCH   4   5
ATOM      5  C   UNL     1      20.981  -0.928  56.644  1.00  0.00     0.000 C 
BRANCH   5   6
ATOM      6  C   UNL     1      22.209  -1.569  57.312  1.00  0.00     0.006 C 
BRANCH   6   7
ATOM      7  C   UNL     1      23.309  -1.909  56.298  1.00  0.00     0.053 C 
BRANCH   7   8
ATOM      8  C   UNL     1      24.220  -2.986  56.803  1.00  0.00     0.041 C 
ATOM      9  O   UNL     1      24.224  -3.291  58.024  1.00  0.00    -0.550 OA
ATOM     10  O   UNL     1      25.085  -3.633  55.929  1.00  0.00    -0.550 OA
ENDBRANCH   7   8
ENDBRANCH   6   7
ENDBRANCH   5   6
ENDBRANCH   4   5
ENDBRANCH   3   4
ENDBRANCH   2   3
ENDBRANCH   1   2
BRANCH   1  11
ATOM     11  C   UNL     1      20.650  -4.446  55.341  1.00  0.00     0.000 C 
BRANCH  11  12
ATOM     12  C   UNL     1      21.950  -5.192  54.989  1.00  0.00    -0.000 C 
BRANCH  12  13
ATOM     13  C   UNL     1      21.817  -6.250  53.879  1.00  0.00    -0.000 C 
BRANCH  13  14
ATOM     14  C   UNL     1      23.166  -6.619  53.238  1.00  0.00    -0.000 C 
BRANCH  14  15
ATOM     15  C   UNL     1      24.054  -5.391  52.966  1.00  0.00    -0.000 C 
BRANCH  15  16
ATOM     16  C   UNL     1      23.827  -4.718  51.600  1.00  0.00    -0.000 C 
BRANCH  16  17
ATOM     17  C   UNL     1      22.974  -3.444  51.694  1.00  0.00    -0.003 C 
ATOM     18  C   UNL     1      23.477  -2.526  52.805  1.00  0.00     0.004 C 
ENDBRANCH  16  17
ENDBRANCH  15  16
ENDBRANCH  14  15
ENDBRANCH  13  14
ENDBRANCH  12  13
ENDBRANCH  11  12
ENDBRANCH   1  11
TORSDOF 14
ENDMDL
MODEL 8
REMARK VINA RESULT:    -3.459     15.753     17.433
REMARK INTER + INTRA:          -8.254
REMARK INTER:                  -6.045
REMARK INTRA:                  -2.209
REMARK UNBOUND:                -1.965
REMARK SMILES CCCCCCCCCCCCCCCC(=O)[O-]
REMARK SMILES IDX 9 1 10 2 11 3 12 4 13 5 14 6 15 7 16 8 17 9 18 10 8 11 7 12
REMARK SMILES IDX 6 13 5 14 4 15 3 16 2 17 1 18
REMARK H PARENT
REMARK Flexibility Score: inf
ROOT
ATOM      1  C   UNL     1      21.253  -4.779  56.013  1.00  0.00     0.000 C 
ENDROOT
BRANCH   1   2
ATOM      2  C   UNL     1      21.302  -6.166  55.349  1.00  0.00     0.000 C 
BRANCH   2   3
ATOM      3  C   UNL     1      21.416  -6.113  53.811  1.00  0.00     0.000 C 
BRANCH   3   4
ATOM      4  C   UNL     1      22.077  -4.812  53.324  1.00  0.00     0.000 C 
BRANCH   4   5
ATOM      5  C   UNL     1      23.244  -5.063  52.357  1.00  0.00     0.000 C 
BRANCH   5   6
ATOM      6  C   UNL     1      24.615  -4.782  52.997  1.00  0.00     0.006 C 
BRANCH   6   7
ATOM      7  C   UNL     1      25.331  -6.070  53.421  1.00  0.00     0.053 C 
BRANCH   7   8
ATOM      8  C   UNL     1      26.728  -5.803  53.891  1.00  0.00     0.041 C 
ATOM      9  O   UNL     1      27.711  -6.191  53.208  1.00  0.00    -0.550 OA
ATOM     10  O   UNL     1      26.943  -5.149  55.099  1.00  0.00    -0.550 OA
ENDBRANCH   7   8
ENDBRANCH   6   7
ENDBRANCH   5   6
ENDBRANCH   4   5
ENDBRANCH   3   4
ENDBRANCH   2   3
ENDBRANCH   1   2
BRANCH   1  11
ATOM     11  C   UNL     1      21.983  -4.740  57.366  1.00  0.00     0.000 C 
BRANCH  11  12
ATOM     12  C   UNL     1      22.949  -3.548  57.495  1.00  0.00    -0.000 C 
BRANCH  12  13
ATOM     13  C   UNL     1      23.960  -3.399  56.344  1.00  0.00    -0.000 C 
BRANCH  13  14
ATOM     14  C   UNL     1      23.746  -2.117  55.521  1.00  0.00    -0.000 C 
BRANCH  14  15
ATOM     15  C   UNL     1      22.707  -1.171  56.148  1.00  0.00    -0.000 C 
BRANCH  15  16
ATOM     16  C   UNL     1      21.606  -0.689  55.186  1.00  0.00    -0.000 C 
BRANCH  16  17
ATOM     17  C   UNL     1      20.237  -1.324  55.475  1.00  0.00    -0.003 C 
ATOM     18  C   UNL     1      19.975  -1.406  56.976  1.00  0.00     0.004 C 
ENDBRANCH  16  17
ENDBRANCH  15  16
ENDBRANCH  14  15
ENDBRANCH  13  14
ENDBRANCH  12  13
ENDBRANCH  11  12
ENDBRANCH   1  11
TORSDOF 14
ENDMDL
MODEL 9
REMARK VINA RESULT:    -3.380     13.255     15.401
REMARK INTER + INTRA:          -8.112
REMARK INTER:                  -5.953
REMARK INTRA:                  -2.159
REMARK UNBOUND:                -1.965
REMARK SMILES CCCCCCCCCCCCCCCC(=O)[O-]
REMARK SMILES IDX 9 1 10 2 11 3 12 4 13 5 14 6 15 7 16 8 17 9 18 10 8 11 7 12
REMARK SMILES IDX 6 13 5 14 4 15 3 16 2 17 1 18
REMARK H PARENT
REMARK Flexibility Score: inf
ROOT
ATOM      1  C   UNL     1      19.092  -4.825  46.913  1.00  0.00     0.000 C 
ENDROOT
BRANCH   1   2
ATOM      2  C   UNL     1      19.619  -3.427  46.548  1.00  0.00     0.000 C 
BRANCH   2   3
ATOM      3  C   UNL     1      20.736  -3.443  45.483  1.00  0.00     0.000 C 
BRANCH   3   4
ATOM      4  C   UNL     1      22.085  -2.970  46.053  1.00  0.00     0.000 C 
BRANCH   4   5
ATOM      5  C   UNL     1      21.949  -2.306  47.431  1.00  0.00     0.000 C 
BRANCH   5   6
ATOM      6  C   UNL     1      23.283  -2.249  48.195  1.00  0.00     0.006 C 
BRANCH   6   7
ATOM      7  C   UNL     1      24.488  -2.483  47.275  1.00  0.00     0.053 C 
BRANCH   7   8
ATOM      8  C   UNL     1      25.362  -1.271  47.182  1.00  0.00     0.041 C 
ATOM      9  O   UNL     1      26.612  -1.396  47.097  1.00  0.00    -0.550 OA
ATOM     10  O   UNL     1      24.798  -0.001  47.217  1.00  0.00    -0.550 OA
ENDBRANCH   7   8
ENDBRANCH   6   7
ENDBRANCH   5   6
ENDBRANCH   4   5
ENDBRANCH   3   4
ENDBRANCH   2   3
ENDBRANCH   1   2
BRANCH   1  11
ATOM     11  C   UNL     1      20.212  -5.873  47.027  1.00  0.00     0.000 C 
BRANCH  11  12
ATOM     12  C   UNL     1      19.796  -7.259  46.499  1.00  0.00    -0.000 C 
BRANCH  12  13
ATOM     13  C   UNL     1      20.711  -7.845  45.409  1.00  0.00    -0.000 C 
BRANCH  13  14
ATOM     14  C   UNL     1      21.799  -6.859  44.947  1.00  0.00    -0.000 C 
BRANCH  14  15
ATOM     15  C   UNL     1      23.208  -7.479  44.953  1.00  0.00    -0.000 C 
BRANCH  15  16
ATOM     16  C   UNL     1      23.913  -7.472  46.322  1.00  0.00    -0.000 C 
BRANCH  16  17
ATOM     17  C   UNL     1      24.044  -6.065  46.923  1.00  0.00    -0.003 C 
ATOM     18  C   UNL     1      23.641  -6.055  48.395  1.00  0.00     0.004 C 
ENDBRANCH  16  17
ENDBRANCH  15  16
ENDBRANCH  14  15
ENDBRANCH  13  14
ENDBRANCH  12  13
ENDBRANCH  11  12
ENDBRANCH   1  11
TORSDOF 14
ENDMDL
