MODEL 1
REMARK VINA RESULT:    -2.868      0.000      0.000
REMARK INTER + INTRA:          -4.163
REMARK INTER:                  -3.706
REMARK INTRA:                  -0.458
REMARK UNBOUND:                -0.458
REMARK SMILES CCCCCCC(C)=O
REMARK SMILES IDX 4 1 3 2 2 3 1 4 5 5 6 6 7 7 9 8 8 9
REMARK H PARENT
REMARK Flexibility Score: inf
ROOT
ATOM      1  C   UNL     1     161.687 172.042 170.299  1.00  0.00     0.000 C 
ENDROOT
BRANCH   1   2
ATOM      2  C   UNL     1     162.705 171.303 169.415  1.00  0.00    -0.000 C 
BRANCH   2   3
ATOM      3  C   UNL     1     163.168 172.145 168.216  1.00  0.00    -0.003 C 
ATOM      4  C   UNL     1     162.604 173.562 168.291  1.00  0.00     0.004 C 
ENDBRANCH   2   3
ENDBRANCH   1   2
BRANCH   1   5
ATOM      5  C   UNL     1     160.424 171.211 170.569  1.00  0.00     0.008 C 
BRANCH   5   6
ATOM      6  C   UNL     1     159.159 172.049 170.353  1.00  0.00     0.075 C 
BRANCH   6   7
ATOM      7  C   UNL     1     158.819 172.132 168.888  1.00  0.00     0.129 C 
ATOM      8  O   UNL     1     158.497 171.119 168.288  1.00  0.00    -0.300 OA
ATOM      9  C   UNL     1     158.854 173.438 168.150  1.00  0.00     0.087 C 
ENDBRANCH   6   7
ENDBRANCH   5   6
ENDBRANCH   1   5
TORSDOF 5
ENDMDL
MODEL 2
REMARK VINA RESULT:    -2.862     15.314     16.890
REMARK INTER + INTRA:          -4.156
REMARK INTER:                  -3.707
REMARK INTRA:                  -0.449
REMARK UNBOUND:                -0.458
REMARK SMILES CCCCCCC(C)=O
REMARK SMILES IDX 4 1 3 2 2 3 1 4 5 5 6 6 7 7 9 8 8 9
REMARK H PARENT
REMARK Flexibility Score: inf
ROOT
ATOM      1  C   UNL     1     168.843 159.751 169.350  1.00  0.00     0.000 C 
ENDROOT
BRANCH   1   2
ATOM      2  C   UNL     1     167.943 158.940 168.404  1.00  0.00    -0.000 C 
BRANCH   2   3
ATOM      3  C   UNL     1     168.378 157.471 168.289  1.00  0.00    -0.003 C 
ATOM      4  C   UNL     1     168.261 156.976 166.849  1.00  0.00     0.004 C 
ENDBRANCH   2   3
ENDBRANCH   1   2
BRANCH   1   5
ATOM      5  C   UNL     1     169.876 158.877 170.077  1.00  0.00     0.008 C 
BRANCH   5   6
ATOM      6  C   UNL     1     171.241 159.573 170.133  1.00  0.00     0.075 C 
BRANCH   6   7
ATOM      7  C   UNL     1     172.074 159.207 168.932  1.00  0.00     0.129 C 
ATOM      8  O   UNL     1     172.771 160.058 168.402  1.00  0.00    -0.300 OA
ATOM      9  C   UNL     1     172.077 157.813 168.378  1.00  0.00     0.087 C 
ENDBRANCH   6   7
ENDBRANCH   5   6
ENDBRANCH   1   5
TORSDOF 5
ENDMDL
MODEL 3
REMARK VINA RESULT:    -2.744     14.963     16.219
REMARK INTER + INTRA:          -4.003
REMARK INTER:                  -3.494
REMARK INTRA:                  -0.510
REMARK UNBOUND:                -0.458
REMARK SMILES CCCCCCC(C)=O
REMARK SMILES IDX 4 1 3 2 2 3 1 4 5 5 6 6 7 7 9 8 8 9
REMARK H PARENT
REMARK Flexibility Score: inf
ROOT
ATOM      1  C   UNL     1     169.811 159.374 170.877  1.00  0.00     0.000 C 
ENDROOT
BRANCH   1   2
ATOM      2  C   UNL     1     171.028 160.240 170.512  1.00  0.00    -0.000 C 
BRANCH   2   3
ATOM      3  C   UNL     1     172.221 159.405 170.024  1.00  0.00    -0.003 C 
ATOM      4  C   UNL     1     172.280 159.372 168.499  1.00  0.00     0.004 C 
ENDBRANCH   2   3
ENDBRANCH   1   2
BRANCH   1   5
ATOM      5  C   UNL     1     168.534 159.810 170.143  1.00  0.00     0.008 C 
BRANCH   5   6
ATOM      6  C   UNL     1     168.512 159.266 168.710  1.00  0.00     0.075 C 
BRANCH   6   7
ATOM      7  C   UNL     1     168.384 157.766 168.711  1.00  0.00     0.129 C 
ATOM      8  O   UNL     1     167.488 157.239 169.351  1.00  0.00    -0.300 OA
ATOM      9  C   UNL     1     169.329 156.900 167.931  1.00  0.00     0.087 C 
ENDBRANCH   6   7
ENDBRANCH   5   6
ENDBRANCH   1   5
TORSDOF 5
ENDMDL
MODEL 4
REMARK VINA RESULT:    -2.742      8.036      8.600
REMARK INTER + INTRA:          -4.000
REMARK INTER:                  -3.845
REMARK INTRA:                  -0.155
REMARK UNBOUND:                -0.458
REMARK SMILES CCCCCCC(C)=O
REMARK SMILES IDX 4 1 3 2 2 3 1 4 5 5 6 6 7 7 9 8 8 9
REMARK H PARENT
REMARK Flexibility Score: inf
ROOT
ATOM      1  C   UNL     1     163.521 164.945 170.467  1.00  0.00     0.000 C 
ENDROOT
BRANCH   1   2
ATOM      2  C   UNL     1     164.093 165.320 169.090  1.00  0.00    -0.000 C 
BRANCH   2   3
ATOM      3  C   UNL     1     165.496 165.939 169.181  1.00  0.00    -0.003 C 
ATOM      4  C   UNL     1     166.492 165.169 168.317  1.00  0.00     0.004 C 
ENDBRANCH   2   3
ENDBRANCH   1   2
BRANCH   1   5
ATOM      5  C   UNL     1     162.563 163.746 170.405  1.00  0.00     0.008 C 
BRANCH   5   6
ATOM      6  C   UNL     1     161.660 163.830 169.169  1.00  0.00     0.075 C 
BRANCH   6   7
ATOM      7  C   UNL     1     160.700 162.670 169.131  1.00  0.00     0.129 C 
ATOM      8  O   UNL     1     160.878 161.768 168.328  1.00  0.00    -0.300 OA
ATOM      9  C   UNL     1     159.532 162.591 170.069  1.00  0.00     0.087 C 
ENDBRANCH   6   7
ENDBRANCH   5   6
ENDBRANCH   1   5
TORSDOF 5
ENDMDL
MODEL 5
REMARK VINA RESULT:    -2.700      2.160      3.790
REMARK INTER + INTRA:          -3.947
REMARK INTER:                  -3.391
REMARK INTRA:                  -0.556
REMARK UNBOUND:                -0.458
REMARK SMILES CCCCCCC(C)=O
REMARK SMILES IDX 4 1 3 2 2 3 1 4 5 5 6 6 7 7 9 8 8 9
REMARK H PARENT
REMARK Flexibility Score: inf
ROOT
ATOM      1  C   UNL     1     161.527 171.686 170.884  1.00  0.00     0.000 C 
ENDROOT
BRANCH   1   2
ATOM      2  C   UNL     1     160.222 170.958 170.522  1.00  0.00    -0.000 C 
BRANCH   2   3
ATOM      3  C   UNL     1     159.122 171.919 170.045  1.00  0.00    -0.003 C 
ATOM      4  C   UNL     1     158.927 171.822 168.534  1.00  0.00     0.004 C 
ENDBRANCH   2   3
ENDBRANCH   1   2
BRANCH   1   5
ATOM      5  C   UNL     1     162.709 171.255 170.003  1.00  0.00     0.008 C 
BRANCH   5   6
ATOM      6  C   UNL     1     162.695 171.999 168.663  1.00  0.00     0.075 C 
BRANCH   6   7
ATOM      7  C   UNL     1     162.792 173.487 168.879  1.00  0.00     0.129 C 
ATOM      8  O   UNL     1     163.765 173.948 169.455  1.00  0.00    -0.300 OA
ATOM      9  C   UNL     1     161.724 174.419 168.390  1.00  0.00     0.087 C 
ENDBRANCH   6   7
ENDBRANCH   5   6
ENDBRANCH   1   5
TORSDOF 5
ENDMDL
MODEL 6
REMARK VINA RESULT:    -2.697      7.449      8.418
REMARK INTER + INTRA:          -3.942
REMARK INTER:                  -3.641
REMARK INTRA:                  -0.302
REMARK UNBOUND:                -0.458
REMARK SMILES CCCCCCC(C)=O
REMARK SMILES IDX 4 1 3 2 2 3 1 4 5 5 6 6 7 7 9 8 8 9
REMARK H PARENT
REMARK Flexibility Score: inf
ROOT
ATOM      1  C   UNL     1     166.713 165.349 168.483  1.00  0.00     0.000 C 
ENDROOT
BRANCH   1   2
ATOM      2  C   UNL     1     167.296 166.040 169.726  1.00  0.00    -0.000 C 
BRANCH   2   3
ATOM      3  C   UNL     1     168.606 166.786 169.428  1.00  0.00    -0.003 C 
ATOM      4  C   UNL     1     168.878 167.858 170.479  1.00  0.00     0.004 C 
ENDBRANCH   2   3
ENDBRANCH   1   2
BRANCH   1   5
ATOM      5  C   UNL     1     165.286 165.816 168.161  1.00  0.00     0.008 C 
BRANCH   5   6
ATOM      6  C   UNL     1     164.507 166.124 169.445  1.00  0.00     0.075 C 
BRANCH   6   7
ATOM      7  C   UNL     1     163.645 164.953 169.839  1.00  0.00     0.129 C 
ATOM      8  O   UNL     1     162.760 164.578 169.088  1.00  0.00    -0.300 OA
ATOM      9  C   UNL     1     163.859 164.227 171.135  1.00  0.00     0.087 C 
ENDBRANCH   6   7
ENDBRANCH   5   6
ENDBRANCH   1   5
TORSDOF 5
ENDMDL
MODEL 7
REMARK VINA RESULT:    -2.683     15.381     17.114
REMARK INTER + INTRA:          -3.925
REMARK INTER:                  -3.437
REMARK INTRA:                  -0.489
REMARK UNBOUND:                -0.458
REMARK SMILES CCCCCCC(C)=O
REMARK SMILES IDX 4 1 3 2 2 3 1 4 5 5 6 6 7 7 9 8 8 9
REMARK H PARENT
REMARK Flexibility Score: inf
ROOT
ATOM      1  C   UNL     1     169.520 156.786 168.577  1.00  0.00     0.000 C 
ENDROOT
BRANCH   1   2
ATOM      2  C   UNL     1     168.265 157.571 168.993  1.00  0.00    -0.000 C 
BRANCH   2   3
ATOM      3  C   UNL     1     168.272 159.016 168.469  1.00  0.00    -0.003 C 
ATOM      4  C   UNL     1     168.249 160.017 169.621  1.00  0.00     0.004 C 
ENDBRANCH   2   3
ENDBRANCH   1   2
BRANCH   1   5
ATOM      5  C   UNL     1     170.756 157.161 169.409  1.00  0.00     0.008 C 
BRANCH   5   6
ATOM      6  C   UNL     1     171.818 157.840 168.537  1.00  0.00     0.075 C 
BRANCH   6   7
ATOM      7  C   UNL     1     172.143 159.213 169.064  1.00  0.00     0.129 C 
ATOM      8  O   UNL     1     172.746 160.002 168.355  1.00  0.00    -0.300 OA
ATOM      9  C   UNL     1     171.732 159.638 170.443  1.00  0.00     0.087 C 
ENDBRANCH   6   7
ENDBRANCH   5   6
ENDBRANCH   1   5
TORSDOF 5
ENDMDL
MODEL 8
REMARK VINA RESULT:    -2.672      1.182      2.052
REMARK INTER + INTRA:          -3.911
REMARK INTER:                  -3.372
REMARK INTRA:                  -0.540
REMARK UNBOUND:                -0.458
REMARK SMILES CCCCCCC(C)=O
REMARK SMILES IDX 4 1 3 2 2 3 1 4 5 5 6 6 7 7 9 8 8 9
REMARK H PARENT
REMARK Flexibility Score: inf
ROOT
ATOM      1  C   UNL     1     162.107 174.115 169.305  1.00  0.00     0.000 C 
ENDROOT
BRANCH   1   2
ATOM      2  C   UNL     1     163.170 173.255 170.007  1.00  0.00    -0.000 C 
BRANCH   2   3
ATOM      3  C   UNL     1     163.392 171.904 169.311  1.00  0.00    -0.003 C 
ATOM      4  C   UNL     1     163.351 172.057 167.792  1.00  0.00     0.004 C 
ENDBRANCH   2   3
ENDBRANCH   1   2
BRANCH   1   5
ATOM      5  C   UNL     1     160.687 173.840 169.821  1.00  0.00     0.008 C 
BRANCH   5   6
ATOM      6  C   UNL     1     159.817 173.211 168.727  1.00  0.00     0.075 C 
BRANCH   6   7
ATOM      7  C   UNL     1     159.362 171.834 169.134  1.00  0.00     0.129 C 
ATOM      8  O   UNL     1     158.516 171.259 168.466  1.00  0.00    -0.300 OA
ATOM      9  C   UNL     1     159.933 171.146 170.338  1.00  0.00     0.087 C 
ENDBRANCH   6   7
ENDBRANCH   5   6
ENDBRANCH   1   5
TORSDOF 5
ENDMDL
MODEL 9
REMARK VINA RESULT:    -2.664      2.863      4.440
REMARK INTER + INTRA:          -3.901
REMARK INTER:                  -3.599
REMARK INTRA:                  -0.302
REMARK UNBOUND:                -0.458
REMARK SMILES CCCCCCC(C)=O
REMARK SMILES IDX 4 1 3 2 2 3 1 4 5 5 6 6 7 7 9 8 8 9
REMARK H PARENT
REMARK Flexibility Score: inf
ROOT
ATOM      1  C   UNL     1     163.090 172.100 168.353  1.00  0.00     0.000 C 
ENDROOT
BRANCH   1   2
ATOM      2  C   UNL     1     162.064 171.617 169.390  1.00  0.00    -0.000 C 
BRANCH   2   3
ATOM      3  C   UNL     1     160.776 172.454 169.381  1.00  0.00    -0.003 C 
ATOM      4  C   UNL     1     159.540 171.560 169.450  1.00  0.00     0.004 C 
ENDBRANCH   2   3
ENDBRANCH   1   2
BRANCH   1   5
ATOM      5  C   UNL     1     163.003 173.611 168.092  1.00  0.00     0.008 C 
BRANCH   5   6
ATOM      6  C   UNL     1     163.535 173.959 166.697  1.00  0.00     0.075 C 
BRANCH   6   7
ATOM      7  C   UNL     1     162.664 174.995 166.037  1.00  0.00     0.129 C 
ATOM      8  O   UNL     1     163.085 175.606 165.069  1.00  0.00    -0.300 OA
ATOM      9  C   UNL     1     161.280 175.285 166.538  1.00  0.00     0.087 C 
ENDBRANCH   6   7
ENDBRANCH   5   6
ENDBRANCH   1   5
TORSDOF 5
ENDMDL
