MODEL 1
REMARK VINA RESULT:    -3.975      0.000      0.000
REMARK INTER + INTRA:          -4.905
REMARK INTER:                  -4.556
REMARK INTRA:                  -0.349
REMARK UNBOUND:                -0.349
REMARK SMILES COC(=O)c1ccccc1O
REMARK SMILES IDX 5 1 6 2 7 3 8 4 9 5 10 6 3 7 4 8 2 9 1 10 11 11
REMARK H PARENT 11 12
REMARK Flexibility Score: inf
ROOT
ATOM      1  C   UNL     1       7.860 -33.306  15.104  1.00  0.00     0.101 A 
ATOM      2  C   UNL     1       6.955 -34.378  15.228  1.00  0.00     0.019 A 
ATOM      3  C   UNL     1       6.621 -34.887  16.485  1.00  0.00     0.001 A 
ATOM      4  C   UNL     1       7.184 -34.337  17.636  1.00  0.00     0.004 A 
ATOM      5  C   UNL     1       8.083 -33.276  17.534  1.00  0.00     0.047 A 
ATOM      6  C   UNL     1       8.428 -32.753  16.278  1.00  0.00     0.130 A 
ENDROOT
BRANCH   1   7
ATOM      7  C   UNL     1       8.190 -32.790  13.751  1.00  0.00     0.341 C 
ATOM      8  O   UNL     1       7.291 -32.661  12.875  1.00  0.00    -0.246 OA
BRANCH   7   9
ATOM      9  O   UNL     1       9.512 -32.441  13.445  1.00  0.00    -0.465 OA
ATOM     10  C   UNL     1      10.524 -33.408  13.192  1.00  0.00     0.282 C 
ENDBRANCH   7   9
ENDBRANCH   1   7
BRANCH   6  11
ATOM     11  O   UNL     1       9.329 -31.690  16.203  1.00  0.00    -0.507 OA
ATOM     12  H   UNL     1       9.020 -30.727  16.252  1.00  0.00     0.293 HD
ENDBRANCH   6  11
TORSDOF 3
ENDMDL
MODEL 2
REMARK VINA RESULT:    -3.915      1.670      3.639
REMARK INTER + INTRA:          -4.836
REMARK INTER:                  -4.685
REMARK INTRA:                  -0.151
REMARK UNBOUND:                -0.349
REMARK SMILES COC(=O)c1ccccc1O
REMARK SMILES IDX 5 1 6 2 7 3 8 4 9 5 10 6 3 7 4 8 2 9 1 10 11 11
REMARK H PARENT 11 12
REMARK Flexibility Score: inf
ROOT
ATOM      1  C   UNL     1       7.582 -33.087  16.113  1.00  0.00     0.101 A 
ATOM      2  C   UNL     1       6.335 -33.707  15.901  1.00  0.00     0.019 A 
ATOM      3  C   UNL     1       5.880 -33.968  14.606  1.00  0.00     0.001 A 
ATOM      4  C   UNL     1       6.660 -33.615  13.505  1.00  0.00     0.004 A 
ATOM      5  C   UNL     1       7.898 -33.001  13.695  1.00  0.00     0.047 A 
ATOM      6  C   UNL     1       8.368 -32.732  14.990  1.00  0.00     0.130 A 
ENDROOT
BRANCH   1   7
ATOM      7  C   UNL     1       8.034 -32.826  17.504  1.00  0.00     0.341 C 
ATOM      8  O   UNL     1       7.364 -33.248  18.487  1.00  0.00    -0.246 OA
BRANCH   7   9
ATOM      9  O   UNL     1       9.214 -32.107  17.727  1.00  0.00    -0.465 OA
ATOM     10  C   UNL     1       9.449 -31.363  18.917  1.00  0.00     0.282 C 
ENDBRANCH   7   9
ENDBRANCH   1   7
BRANCH   6  11
ATOM     11  O   UNL     1       9.610 -32.118  15.152  1.00  0.00    -0.507 OA
ATOM     12  H   UNL     1      10.167 -32.257  15.987  1.00  0.00     0.293 HD
ENDBRANCH   6  11
TORSDOF 3
ENDMDL
MODEL 3
REMARK VINA RESULT:    -3.817      2.077      4.098
REMARK INTER + INTRA:          -4.724
REMARK INTER:                  -4.469
REMARK INTRA:                  -0.255
REMARK UNBOUND:                -0.349
REMARK SMILES COC(=O)c1ccccc1O
REMARK SMILES IDX 5 1 6 2 7 3 8 4 9 5 10 6 3 7 4 8 2 9 1 10 11 11
REMARK H PARENT 11 12
REMARK Flexibility Score: inf
ROOT
ATOM      1  C   UNL     1       8.333 -32.792  15.668  1.00  0.00     0.101 A 
ATOM      2  C   UNL     1       9.490 -32.691  14.871  1.00  0.00     0.019 A 
ATOM      3  C   UNL     1       9.418 -32.859  13.486  1.00  0.00     0.001 A 
ATOM      4  C   UNL     1       8.194 -33.130  12.875  1.00  0.00     0.004 A 
ATOM      5  C   UNL     1       7.037 -33.233  13.647  1.00  0.00     0.047 A 
ATOM      6  C   UNL     1       7.094 -33.067  15.040  1.00  0.00     0.130 A 
ENDROOT
BRANCH   1   7
ATOM      7  C   UNL     1       8.447 -32.607  17.137  1.00  0.00     0.341 C 
ATOM      8  O   UNL     1       7.659 -33.201  17.923  1.00  0.00    -0.246 OA
BRANCH   7   9
ATOM      9  O   UNL     1       9.439 -31.765  17.655  1.00  0.00    -0.465 OA
ATOM     10  C   UNL     1       9.491 -31.391  19.027  1.00  0.00     0.282 C 
ENDBRANCH   7   9
ENDBRANCH   1   7
BRANCH   6  11
ATOM     11  O   UNL     1       5.922 -33.175  15.789  1.00  0.00    -0.507 OA
ATOM     12  H   UNL     1       5.661 -34.040  16.249  1.00  0.00     0.293 HD
ENDBRANCH   6  11
TORSDOF 3
ENDMDL
MODEL 4
REMARK VINA RESULT:    -3.725      1.877      3.680
REMARK INTER + INTRA:          -4.619
REMARK INTER:                  -4.299
REMARK INTRA:                  -0.320
REMARK UNBOUND:                -0.349
REMARK SMILES COC(=O)c1ccccc1O
REMARK SMILES IDX 5 1 6 2 7 3 8 4 9 5 10 6 3 7 4 8 2 9 1 10 11 11
REMARK H PARENT 11 12
REMARK Flexibility Score: inf
ROOT
ATOM      1  C   UNL     1       7.983 -33.522  15.136  1.00  0.00     0.101 A 
ATOM      2  C   UNL     1       7.801 -34.387  14.039  1.00  0.00     0.019 A 
ATOM      3  C   UNL     1       8.710 -34.393  12.978  1.00  0.00     0.001 A 
ATOM      4  C   UNL     1       9.812 -33.538  12.994  1.00  0.00     0.004 A 
ATOM      5  C   UNL     1      10.009 -32.675  14.071  1.00  0.00     0.047 A 
ATOM      6  C   UNL     1       9.105 -32.658  15.145  1.00  0.00     0.130 A 
ENDROOT
BRANCH   1   7
ATOM      7  C   UNL     1       6.998 -33.544  16.247  1.00  0.00     0.341 C 
ATOM      8  O   UNL     1       6.516 -32.470  16.700  1.00  0.00    -0.246 OA
BRANCH   7   9
ATOM      9  O   UNL     1       6.598 -34.769  16.796  1.00  0.00    -0.465 OA
ATOM     10  C   UNL     1       7.418 -35.519  17.684  1.00  0.00     0.282 C 
ENDBRANCH   7   9
ENDBRANCH   1   7
BRANCH   6  11
ATOM     11  O   UNL     1       9.326 -31.785  16.211  1.00  0.00    -0.507 OA
ATOM     12  H   UNL     1       8.570 -31.259  16.633  1.00  0.00     0.293 HD
ENDBRANCH   6  11
TORSDOF 3
ENDMDL
MODEL 5
REMARK VINA RESULT:    -3.684      2.527      3.992
REMARK INTER + INTRA:          -4.571
REMARK INTER:                  -4.273
REMARK INTRA:                  -0.298
REMARK UNBOUND:                -0.349
REMARK SMILES COC(=O)c1ccccc1O
REMARK SMILES IDX 5 1 6 2 7 3 8 4 9 5 10 6 3 7 4 8 2 9 1 10 11 11
REMARK H PARENT 11 12
REMARK Flexibility Score: inf
ROOT
ATOM      1  C   UNL     1       7.056 -34.205  17.229  1.00  0.00     0.101 A 
ATOM      2  C   UNL     1       7.125 -35.611  17.269  1.00  0.00     0.019 A 
ATOM      3  C   UNL     1       6.793 -36.373  16.146  1.00  0.00     0.001 A 
ATOM      4  C   UNL     1       6.387 -35.745  14.968  1.00  0.00     0.004 A 
ATOM      5  C   UNL     1       6.312 -34.354  14.910  1.00  0.00     0.047 A 
ATOM      6  C   UNL     1       6.643 -33.575  16.030  1.00  0.00     0.130 A 
ENDROOT
BRANCH   1   7
ATOM      7  C   UNL     1       7.417 -33.427  18.442  1.00  0.00     0.341 C 
ATOM      8  O   UNL     1       7.272 -33.926  19.592  1.00  0.00    -0.246 OA
BRANCH   7   9
ATOM      9  O   UNL     1       7.926 -32.129  18.308  1.00  0.00    -0.465 OA
ATOM     10  C   UNL     1       9.297 -31.815  18.520  1.00  0.00     0.282 C 
ENDBRANCH   7   9
ENDBRANCH   1   7
BRANCH   6  11
ATOM     11  O   UNL     1       6.560 -32.185  15.945  1.00  0.00    -0.507 OA
ATOM     12  H   UNL     1       6.587 -31.704  15.053  1.00  0.00     0.293 HD
ENDBRANCH   6  11
TORSDOF 3
ENDMDL
MODEL 6
REMARK VINA RESULT:    -3.665      2.034      3.495
REMARK INTER + INTRA:          -4.549
REMARK INTER:                  -4.244
REMARK INTRA:                  -0.305
REMARK UNBOUND:                -0.349
REMARK SMILES COC(=O)c1ccccc1O
REMARK SMILES IDX 5 1 6 2 7 3 8 4 9 5 10 6 3 7 4 8 2 9 1 10 11 11
REMARK H PARENT 11 12
REMARK Flexibility Score: inf
ROOT
ATOM      1  C   UNL     1       7.515 -33.940  16.302  1.00  0.00     0.101 A 
ATOM      2  C   UNL     1       6.913 -33.871  15.031  1.00  0.00     0.019 A 
ATOM      3  C   UNL     1       6.102 -34.911  14.569  1.00  0.00     0.001 A 
ATOM      4  C   UNL     1       5.880 -36.034  15.366  1.00  0.00     0.004 A 
ATOM      5  C   UNL     1       6.468 -36.120  16.627  1.00  0.00     0.047 A 
ATOM      6  C   UNL     1       7.285 -35.084  17.105  1.00  0.00     0.130 A 
ENDROOT
BRANCH   1   7
ATOM      7  C   UNL     1       8.370 -32.816  16.761  1.00  0.00     0.341 C 
ATOM      8  O   UNL     1       9.155 -32.237  15.960  1.00  0.00    -0.246 OA
BRANCH   7   9
ATOM      9  O   UNL     1       8.304 -32.392  18.094  1.00  0.00    -0.465 OA
ATOM     10  C   UNL     1       9.336 -31.633  18.712  1.00  0.00     0.282 C 
ENDBRANCH   7   9
ENDBRANCH   1   7
BRANCH   6  11
ATOM     11  O   UNL     1       7.861 -35.195  18.371  1.00  0.00    -0.507 OA
ATOM     12  H   UNL     1       8.598 -34.571  18.677  1.00  0.00     0.293 HD
ENDBRANCH   6  11
TORSDOF 3
ENDMDL
MODEL 7
REMARK VINA RESULT:    -3.551      2.802      4.159
REMARK INTER + INTRA:          -4.419
REMARK INTER:                  -4.131
REMARK INTRA:                  -0.288
REMARK UNBOUND:                -0.349
REMARK SMILES COC(=O)c1ccccc1O
REMARK SMILES IDX 5 1 6 2 7 3 8 4 9 5 10 6 3 7 4 8 2 9 1 10 11 11
REMARK H PARENT 11 12
REMARK Flexibility Score: inf
ROOT
ATOM      1  C   UNL     1       7.856 -33.551  16.961  1.00  0.00     0.101 A 
ATOM      2  C   UNL     1       7.769 -32.702  15.841  1.00  0.00     0.019 A 
ATOM      3  C   UNL     1       7.870 -33.218  14.546  1.00  0.00     0.001 A 
ATOM      4  C   UNL     1       8.059 -34.585  14.349  1.00  0.00     0.004 A 
ATOM      5  C   UNL     1       8.147 -35.442  15.446  1.00  0.00     0.047 A 
ATOM      6  C   UNL     1       8.047 -34.939  16.752  1.00  0.00     0.130 A 
ENDROOT
BRANCH   1   7
ATOM      7  C   UNL     1       7.742 -32.968  18.322  1.00  0.00     0.341 C 
ATOM      8  O   UNL     1       7.202 -33.619  19.258  1.00  0.00    -0.246 OA
BRANCH   7   9
ATOM      9  O   UNL     1       8.241 -31.683  18.570  1.00  0.00    -0.465 OA
ATOM     10  C   UNL     1       9.615 -31.429  18.837  1.00  0.00     0.282 C 
ENDBRANCH   7   9
ENDBRANCH   1   7
BRANCH   6  11
ATOM     11  O   UNL     1       8.138 -35.817  17.833  1.00  0.00    -0.507 OA
ATOM     12  H   UNL     1       8.462 -35.511  18.742  1.00  0.00     0.293 HD
ENDBRANCH   6  11
TORSDOF 3
ENDMDL
MODEL 8
REMARK VINA RESULT:    -3.532      3.213      4.604
REMARK INTER + INTRA:          -4.397
REMARK INTER:                  -4.112
REMARK INTRA:                  -0.285
REMARK UNBOUND:                -0.349
REMARK SMILES COC(=O)c1ccccc1O
REMARK SMILES IDX 5 1 6 2 7 3 8 4 9 5 10 6 3 7 4 8 2 9 1 10 11 11
REMARK H PARENT 11 12
REMARK Flexibility Score: inf
ROOT
ATOM      1  C   UNL     1       7.851 -34.892  17.235  1.00  0.00     0.101 A 
ATOM      2  C   UNL     1       8.322 -34.860  15.908  1.00  0.00     0.019 A 
ATOM      3  C   UNL     1       8.797 -33.671  15.348  1.00  0.00     0.001 A 
ATOM      4  C   UNL     1       8.807 -32.498  16.102  1.00  0.00     0.004 A 
ATOM      5  C   UNL     1       8.346 -32.510  17.418  1.00  0.00     0.047 A 
ATOM      6  C   UNL     1       7.866 -33.697  17.993  1.00  0.00     0.130 A 
ENDROOT
BRANCH   1   7
ATOM      7  C   UNL     1       7.356 -36.175  17.797  1.00  0.00     0.341 C 
ATOM      8  O   UNL     1       6.576 -36.910  17.131  1.00  0.00    -0.246 OA
BRANCH   7   9
ATOM      9  O   UNL     1       7.760 -36.574  19.077  1.00  0.00    -0.465 OA
ATOM     10  C   UNL     1       7.696 -37.925  19.518  1.00  0.00     0.282 C 
ENDBRANCH   7   9
ENDBRANCH   1   7
BRANCH   6  11
ATOM     11  O   UNL     1       7.410 -33.682  19.312  1.00  0.00    -0.507 OA
ATOM     12  H   UNL     1       7.070 -32.833  19.748  1.00  0.00     0.293 HD
ENDBRANCH   6  11
TORSDOF 3
ENDMDL
MODEL 9
REMARK VINA RESULT:    -3.362      1.359      2.055
REMARK INTER + INTRA:          -4.202
REMARK INTER:                  -3.970
REMARK INTRA:                  -0.232
REMARK UNBOUND:                -0.349
REMARK SMILES COC(=O)c1ccccc1O
REMARK SMILES IDX 5 1 6 2 7 3 8 4 9 5 10 6 3 7 4 8 2 9 1 10 11 11
REMARK H PARENT 11 12
REMARK Flexibility Score: inf
ROOT
ATOM      1  C   UNL     1       8.307 -33.435  15.624  1.00  0.00     0.101 A 
ATOM      2  C   UNL     1       8.160 -32.579  16.732  1.00  0.00     0.019 A 
ATOM      3  C   UNL     1       7.684 -33.067  17.952  1.00  0.00     0.001 A 
ATOM      4  C   UNL     1       7.349 -34.414  18.084  1.00  0.00     0.004 A 
ATOM      5  C   UNL     1       7.489 -35.278  16.998  1.00  0.00     0.047 A 
ATOM      6  C   UNL     1       7.965 -34.801  15.767  1.00  0.00     0.130 A 
ENDROOT
BRANCH   1   7
ATOM      7  C   UNL     1       8.817 -32.881  14.344  1.00  0.00     0.341 C 
ATOM      8  O   UNL     1       8.061 -32.785  13.338  1.00  0.00    -0.246 OA
BRANCH   7   9
ATOM      9  O   UNL     1      10.149 -32.459  14.251  1.00  0.00    -0.465 OA
ATOM     10  C   UNL     1      11.036 -32.926  13.241  1.00  0.00     0.282 C 
ENDBRANCH   7   9
ENDBRANCH   1   7
BRANCH   6  11
ATOM     11  O   UNL     1       8.096 -35.686  14.696  1.00  0.00    -0.507 OA
ATOM     12  H   UNL     1       7.565 -35.570  13.841  1.00  0.00     0.293 HD
ENDBRANCH   6  11
TORSDOF 3
ENDMDL
