MODEL 1
REMARK VINA RESULT:    -2.800      0.000      0.000
REMARK INTER + INTRA:          -3.595
REMARK INTER:                  -3.373
REMARK INTRA:                  -0.222
REMARK UNBOUND:                -0.222
REMARK SMILES OCC(O)CO
REMARK SMILES IDX 3 1 5 2 6 3 2 5 1 6 4 8
REMARK H PARENT 6 4 1 7 4 9
REMARK Flexibility Score: inf
ROOT
ATOM      1  C   UNL     1     176.843 162.013 180.061  1.00  0.00     0.165 C 
ENDROOT
BRANCH   1   2
ATOM      2  C   UNL     1     175.377 162.394 179.780  1.00  0.00     0.190 C 
BRANCH   2   3
ATOM      3  O   UNL     1     174.679 161.326 179.198  1.00  0.00    -0.394 OA
ATOM      4  H   UNL     1     174.139 160.911 179.921  1.00  0.00     0.210 HD
ENDBRANCH   2   3
ENDBRANCH   1   2
BRANCH   1   5
ATOM      5  C   UNL     1     176.996 161.183 181.347  1.00  0.00     0.190 C 
BRANCH   5   6
ATOM      6  O   UNL     1     176.198 160.033 181.281  1.00  0.00    -0.394 OA
ATOM      7  H   UNL     1     176.242 159.722 180.341  1.00  0.00     0.210 HD
ENDBRANCH   5   6
ENDBRANCH   1   5
BRANCH   1   8
ATOM      8  O   UNL     1     177.376 161.310 178.966  1.00  0.00    -0.388 OA
ATOM      9  H   UNL     1     177.524 161.964 178.233  1.00  0.00     0.211 HD
ENDBRANCH   1   8
TORSDOF 5
ENDMDL
MODEL 2
REMARK VINA RESULT:    -2.793      0.676      2.422
REMARK INTER + INTRA:          -3.586
REMARK INTER:                  -3.397
REMARK INTRA:                  -0.189
REMARK UNBOUND:                -0.222
REMARK SMILES OCC(O)CO
REMARK SMILES IDX 3 1 5 2 6 3 2 5 1 6 4 8
REMARK H PARENT 6 4 1 7 4 9
REMARK Flexibility Score: inf
ROOT
ATOM      1  C   UNL     1     175.589 161.948 180.352  1.00  0.00     0.165 C 
ENDROOT
BRANCH   1   2
ATOM      2  C   UNL     1     175.650 161.096 181.634  1.00  0.00     0.190 C 
BRANCH   2   3
ATOM      3  O   UNL     1     176.189 159.829 181.374  1.00  0.00    -0.394 OA
ATOM      4  H   UNL     1     176.003 159.630 180.419  1.00  0.00     0.210 HD
ENDBRANCH   2   3
ENDBRANCH   1   2
BRANCH   1   5
ATOM      5  C   UNL     1     176.987 162.282 179.804  1.00  0.00     0.190 C 
BRANCH   5   6
ATOM      6  O   UNL     1     177.392 161.310 178.879  1.00  0.00    -0.394 OA
ATOM      7  H   UNL     1     178.093 160.775 179.332  1.00  0.00     0.210 HD
ENDBRANCH   5   6
ENDBRANCH   1   5
BRANCH   1   8
ATOM      8  O   UNL     1     174.830 161.288 179.370  1.00  0.00    -0.388 OA
ATOM      9  H   UNL     1     175.232 161.500 178.487  1.00  0.00     0.211 HD
ENDBRANCH   1   8
TORSDOF 5
ENDMDL
MODEL 3
REMARK VINA RESULT:    -2.723      1.623      2.360
REMARK INTER + INTRA:          -3.502
REMARK INTER:                  -3.299
REMARK INTRA:                  -0.203
REMARK UNBOUND:                -0.222
REMARK SMILES OCC(O)CO
REMARK SMILES IDX 3 1 5 2 6 3 2 5 1 6 4 8
REMARK H PARENT 6 4 1 7 4 9
REMARK Flexibility Score: inf
ROOT
ATOM      1  C   UNL     1     175.541 161.011 181.563  1.00  0.00     0.165 C 
ENDROOT
BRANCH   1   2
ATOM      2  C   UNL     1     176.084 161.863 180.399  1.00  0.00     0.190 C 
BRANCH   2   3
ATOM      3  O   UNL     1     175.444 161.540 179.194  1.00  0.00    -0.394 OA
ATOM      4  H   UNL     1     175.479 162.352 178.625  1.00  0.00     0.210 HD
ENDBRANCH   2   3
ENDBRANCH   1   2
BRANCH   1   5
ATOM      5  C   UNL     1     174.014 160.835 181.497  1.00  0.00     0.190 C 
BRANCH   5   6
ATOM      6  O   UNL     1     173.676 159.879 180.530  1.00  0.00    -0.394 OA
ATOM      7  H   UNL     1     174.088 159.028 180.829  1.00  0.00     0.210 HD
ENDBRANCH   5   6
ENDBRANCH   1   5
BRANCH   1   8
ATOM      8  O   UNL     1     176.172 159.755 181.575  1.00  0.00    -0.388 OA
ATOM      9  H   UNL     1     176.958 159.808 180.970  1.00  0.00     0.211 HD
ENDBRANCH   1   8
TORSDOF 5
ENDMDL
MODEL 4
REMARK VINA RESULT:    -2.693      1.435      1.639
REMARK INTER + INTRA:          -3.466
REMARK INTER:                  -3.246
REMARK INTRA:                  -0.219
REMARK UNBOUND:                -0.222
REMARK SMILES OCC(O)CO
REMARK SMILES IDX 3 1 5 2 6 3 2 5 1 6 4 8
REMARK H PARENT 6 4 1 7 4 9
REMARK Flexibility Score: inf
ROOT
ATOM      1  C   UNL     1     175.384 161.638 180.641  1.00  0.00     0.165 C 
ENDROOT
BRANCH   1   2
ATOM      2  C   UNL     1     174.035 161.008 181.040  1.00  0.00     0.190 C 
BRANCH   2   3
ATOM      3  O   UNL     1     173.805 159.818 180.336  1.00  0.00    -0.394 OA
ATOM      4  H   UNL     1     173.495 160.078 179.429  1.00  0.00     0.210 HD
ENDBRANCH   2   3
ENDBRANCH   1   2
BRANCH   1   5
ATOM      5  C   UNL     1     176.567 161.023 181.409  1.00  0.00     0.190 C 
BRANCH   5   6
ATOM      6  O   UNL     1     176.294 159.688 181.736  1.00  0.00    -0.394 OA
ATOM      7  H   UNL     1     175.744 159.714 182.561  1.00  0.00     0.210 HD
ENDBRANCH   5   6
ENDBRANCH   1   5
BRANCH   1   8
ATOM      8  O   UNL     1     175.587 161.506 179.257  1.00  0.00    -0.388 OA
ATOM      9  H   UNL     1     174.853 160.940 178.898  1.00  0.00     0.211 HD
ENDBRANCH   1   8
TORSDOF 5
ENDMDL
MODEL 5
REMARK VINA RESULT:    -2.673     20.165     20.914
REMARK INTER + INTRA:          -3.442
REMARK INTER:                  -3.219
REMARK INTRA:                  -0.223
REMARK UNBOUND:                -0.222
REMARK SMILES OCC(O)CO
REMARK SMILES IDX 3 1 5 2 6 3 2 5 1 6 4 8
REMARK H PARENT 6 4 1 7 4 9
REMARK Flexibility Score: inf
ROOT
ATOM      1  C   UNL     1     159.818 172.797 180.307  1.00  0.00     0.165 C 
ENDROOT
BRANCH   1   2
ATOM      2  C   UNL     1     159.448 173.763 179.165  1.00  0.00     0.190 C 
BRANCH   2   3
ATOM      3  O   UNL     1     158.066 173.995 179.127  1.00  0.00    -0.394 OA
ATOM      4  H   UNL     1     157.888 174.761 179.734  1.00  0.00     0.210 HD
ENDBRANCH   2   3
ENDBRANCH   1   2
BRANCH   1   5
ATOM      5  C   UNL     1     159.928 173.512 181.666  1.00  0.00     0.190 C 
BRANCH   5   6
ATOM      6  O   UNL     1     159.364 174.792 181.588  1.00  0.00    -0.394 OA
ATOM      7  H   UNL     1     160.125 175.423 181.503  1.00  0.00     0.210 HD
ENDBRANCH   5   6
ENDBRANCH   1   5
BRANCH   1   8
ATOM      8  O   UNL     1     158.875 171.757 180.384  1.00  0.00    -0.388 OA
ATOM      9  H   UNL     1     158.319 171.915 181.192  1.00  0.00     0.211 HD
ENDBRANCH   1   8
TORSDOF 5
ENDMDL
MODEL 6
REMARK VINA RESULT:    -2.662     15.074     16.173
REMARK INTER + INTRA:          -3.429
REMARK INTER:                  -3.206
REMARK INTRA:                  -0.223
REMARK UNBOUND:                -0.222
REMARK SMILES OCC(O)CO
REMARK SMILES IDX 3 1 5 2 6 3 2 5 1 6 4 8
REMARK H PARENT 6 4 1 7 4 9
REMARK Flexibility Score: inf
ROOT
ATOM      1  C   UNL     1     160.923 161.730 180.348  1.00  0.00     0.165 C 
ENDROOT
BRANCH   1   2
ATOM      2  C   UNL     1     159.901 161.694 179.196  1.00  0.00     0.190 C 
BRANCH   2   3
ATOM      3  O   UNL     1     159.242 160.458 179.142  1.00  0.00    -0.394 OA
ATOM      4  H   UNL     1     159.923 159.763 179.340  1.00  0.00     0.210 HD
ENDBRANCH   2   3
ENDBRANCH   1   2
BRANCH   1   5
ATOM      5  C   UNL     1     160.272 162.086 181.697  1.00  0.00     0.190 C 
BRANCH   5   6
ATOM      6  O   UNL     1     158.884 161.911 181.627  1.00  0.00    -0.394 OA
ATOM      7  H   UNL     1     158.512 162.334 182.444  1.00  0.00     0.210 HD
ENDBRANCH   5   6
ENDBRANCH   1   5
BRANCH   1   8
ATOM      8  O   UNL     1     161.585 160.494 180.444  1.00  0.00    -0.388 OA
ATOM      9  H   UNL     1     161.875 160.381 181.387  1.00  0.00     0.211 HD
ENDBRANCH   1   8
TORSDOF 5
ENDMDL
MODEL 7
REMARK VINA RESULT:    -2.564     19.805     20.920
REMARK INTER + INTRA:          -3.310
REMARK INTER:                  -3.100
REMARK INTRA:                  -0.210
REMARK UNBOUND:                -0.222
REMARK SMILES OCC(O)CO
REMARK SMILES IDX 3 1 5 2 6 3 2 5 1 6 4 8
REMARK H PARENT 6 4 1 7 4 9
REMARK Flexibility Score: inf
ROOT
ATOM      1  C   UNL     1     158.778 160.582 168.198  1.00  0.00     0.165 C 
ENDROOT
BRANCH   1   2
ATOM      2  C   UNL     1     157.967 159.298 167.937  1.00  0.00     0.190 C 
BRANCH   2   3
ATOM      3  O   UNL     1     158.760 158.313 167.332  1.00  0.00    -0.394 OA
ATOM      4  H   UNL     1     159.706 158.566 167.498  1.00  0.00     0.210 HD
ENDBRANCH   2   3
ENDBRANCH   1   2
BRANCH   1   5
ATOM      5  C   UNL     1     159.379 160.617 169.614  1.00  0.00     0.190 C 
BRANCH   5   6
ATOM      6  O   UNL     1     159.446 159.322 170.145  1.00  0.00    -0.394 OA
ATOM      7  H   UNL     1     159.833 158.752 169.432  1.00  0.00     0.210 HD
ENDBRANCH   5   6
ENDBRANCH   1   5
BRANCH   1   8
ATOM      8  O   UNL     1     159.795 160.713 167.238  1.00  0.00    -0.388 OA
ATOM      9  H   UNL     1     160.066 161.669 167.215  1.00  0.00     0.211 HD
ENDBRANCH   1   8
TORSDOF 5
ENDMDL
MODEL 8
REMARK VINA RESULT:    -1.160     12.285     12.947
REMARK INTER + INTRA:          -1.619
REMARK INTER:                  -1.602
REMARK INTRA:                  -0.017
REMARK UNBOUND:                -0.222
REMARK SMILES OCC(O)CO
REMARK SMILES IDX 3 1 5 2 6 3 2 5 1 6 4 8
REMARK H PARENT 6 4 1 7 4 9
REMARK Flexibility Score: inf
ROOT
ATOM      1  C   UNL     1     176.287 173.919 180.195  1.00  0.00     0.165 C 
ENDROOT
BRANCH   1   2
ATOM      2  C   UNL     1     177.233 174.000 181.408  1.00  0.00     0.190 C 
BRANCH   2   3
ATOM      3  O   UNL     1     178.125 172.919 181.427  1.00  0.00    -0.394 OA
ATOM      4  H   UNL     1     177.970 172.436 182.280  1.00  0.00     0.210 HD
ENDBRANCH   2   3
ENDBRANCH   1   2
BRANCH   1   5
ATOM      5  C   UNL     1     176.310 175.204 179.348  1.00  0.00     0.190 C 
BRANCH   5   6
ATOM      6  O   UNL     1     177.321 175.130 178.381  1.00  0.00    -0.394 OA
ATOM      7  H   UNL     1     178.110 175.586 178.773  1.00  0.00     0.210 HD
ENDBRANCH   5   6
ENDBRANCH   1   5
BRANCH   1   8
ATOM      8  O   UNL     1     176.618 172.810 179.398  1.00  0.00    -0.388 OA
ATOM      9  H   UNL     1     177.111 173.146 178.604  1.00  0.00     0.211 HD
ENDBRANCH   1   8
TORSDOF 5
ENDMDL
