MODEL 1
REMARK VINA RESULT:    -3.016      0.000      0.000
REMARK INTER + INTRA:         -13.323
REMARK INTER:                  -7.601
REMARK INTRA:                  -5.722
REMARK UNBOUND:                -5.722
REMARK SMILES CCCCCCCCCCCCCCCCCCCCCCCCCCCC(=O)[O-]
REMARK SMILES IDX 15 1 16 2 17 3 18 4 19 5 20 6 21 7 22 8 23 9 24 10 25 11
REMARK SMILES IDX 26 12 27 13 28 14 29 15 30 16 14 17 13 18 12 19 11 20 10 21
REMARK SMILES IDX 9 22 8 23 7 24 6 25 5 26 4 27 3 28 2 29 1 30
REMARK H PARENT
REMARK Flexibility Score: inf
ROOT
ATOM      1  C   UNL     1      11.644  41.942 150.904  1.00  0.00     0.000 C 
ENDROOT
BRANCH   1   2
ATOM      2  C   UNL     1      11.790  40.575 151.600  1.00  0.00     0.000 C 
BRANCH   2   3
ATOM      3  C   UNL     1      10.458  39.817 151.703  1.00  0.00     0.000 C 
BRANCH   3   4
ATOM      4  C   UNL     1       9.709  40.114 153.010  1.00  0.00     0.000 C 
BRANCH   4   5
ATOM      5  C   UNL     1       8.226  40.413 152.742  1.00  0.00     0.000 C 
BRANCH   5   6
ATOM      6  C   UNL     1       7.954  40.876 151.298  1.00  0.00     0.000 C 
BRANCH   6   7
ATOM      7  C   UNL     1       7.713  42.389 151.128  1.00  0.00     0.000 C 
BRANCH   7   8
ATOM      8  C   UNL     1       8.049  43.198 152.389  1.00  0.00     0.000 C 
BRANCH   8   9
ATOM      9  C   UNL     1       6.900  44.150 152.755  1.00  0.00     0.000 C 
BRANCH   9  10
ATOM     10  C   UNL     1       5.695  43.425 153.379  1.00  0.00     0.000 C 
BRANCH  10  11
ATOM     11  C   UNL     1       6.011  42.593 154.639  1.00  0.00     0.000 C 
BRANCH  11  12
ATOM     12  C   UNL     1       4.782  42.002 155.361  1.00  0.00     0.006 C 
BRANCH  12  13
ATOM     13  C   UNL     1       3.869  41.155 154.459  1.00  0.00     0.053 C 
BRANCH  13  14
ATOM     14  C   UNL     1       4.544  39.912 153.962  1.00  0.00     0.041 C 
ATOM     15  O   UNL     1       4.930  39.030 154.775  1.00  0.00    -0.550 OA
ATOM     16  O   UNL     1       4.721  39.716 152.597  1.00  0.00    -0.550 OA
ENDBRANCH  13  14
ENDBRANCH  12  13
ENDBRANCH  11  12
ENDBRANCH  10  11
ENDBRANCH   9  10
ENDBRANCH   8   9
ENDBRANCH   7   8
ENDBRANCH   6   7
ENDBRANCH   5   6
ENDBRANCH   4   5
ENDBRANCH   3   4
ENDBRANCH   2   3
ENDBRANCH   1   2
BRANCH   1  17
ATOM     17  C   UNL     1      12.151  43.107 151.771  1.00  0.00     0.000 C 
BRANCH  17  18
ATOM     18  C   UNL     1      12.247  42.735 153.260  1.00  0.00     0.000 C 
BRANCH  18  19
ATOM     19  C   UNL     1      11.191  43.448 154.120  1.00  0.00     0.000 C 
BRANCH  19  20
ATOM     20  C   UNL     1      10.825  42.658 155.388  1.00  0.00     0.000 C 
BRANCH  20  21
ATOM     21  C   UNL     1       9.322  42.718 155.709  1.00  0.00     0.000 C 
BRANCH  21  22
ATOM     22  C   UNL     1       8.991  43.752 156.800  1.00  0.00    -0.000 C 
BRANCH  22  23
ATOM     23  C   UNL     1       8.304  45.007 156.242  1.00  0.00    -0.000 C 
BRANCH  23  24
ATOM     24  C   UNL     1       8.980  46.309 156.704  1.00  0.00    -0.000 C 
BRANCH  24  25
ATOM     25  C   UNL     1       9.633  47.087 155.547  1.00  0.00    -0.000 C 
BRANCH  25  26
ATOM     26  C   UNL     1       9.300  46.521 154.150  1.00  0.00    -0.000 C 
BRANCH  26  27
ATOM     27  C   UNL     1       9.352  47.604 153.057  1.00  0.00    -0.000 C 
BRANCH  27  28
ATOM     28  C   UNL     1       9.083  47.045 151.651  1.00  0.00    -0.000 C 
BRANCH  28  29
ATOM     29  C   UNL     1      10.131  46.010 151.215  1.00  0.00    -0.003 C 
ATOM     30  C   UNL     1       9.779  45.412 149.856  1.00  0.00     0.004 C 
ENDBRANCH  28  29
ENDBRANCH  27  28
ENDBRANCH  26  27
ENDBRANCH  25  26
ENDBRANCH  24  25
ENDBRANCH  23  24
ENDBRANCH  22  23
ENDBRANCH  21  22
ENDBRANCH  20  21
ENDBRANCH  19  20
ENDBRANCH  18  19
ENDBRANCH  17  18
ENDBRANCH   1  17
TORSDOF 26
ENDMDL
MODEL 2
REMARK VINA RESULT:    -3.013      2.655      6.712
REMARK INTER + INTRA:         -13.316
REMARK INTER:                  -7.553
REMARK INTRA:                  -5.763
REMARK UNBOUND:                -5.722
REMARK SMILES CCCCCCCCCCCCCCCCCCCCCCCCCCCC(=O)[O-]
REMARK SMILES IDX 15 1 16 2 17 3 18 4 19 5 20 6 21 7 22 8 23 9 24 10 25 11
REMARK SMILES IDX 26 12 27 13 28 14 29 15 30 16 14 17 13 18 12 19 11 20 10 21
REMARK SMILES IDX 9 22 8 23 7 24 6 25 5 26 4 27 3 28 2 29 1 30
REMARK H PARENT
REMARK Flexibility Score: inf
ROOT
ATOM      1  C   UNL     1       9.334  43.122 155.932  1.00  0.00     0.000 C 
ENDROOT
BRANCH   1   2
ATOM      2  C   UNL     1       8.983  44.510 155.362  1.00  0.00     0.000 C 
BRANCH   2   3
ATOM      3  C   UNL     1       8.593  45.518 156.454  1.00  0.00     0.000 C 
BRANCH   3   4
ATOM      4  C   UNL     1       8.913  46.967 156.062  1.00  0.00     0.000 C 
BRANCH   4   5
ATOM      5  C   UNL     1       9.987  47.017 154.964  1.00  0.00     0.000 C 
BRANCH   5   6
ATOM      6  C   UNL     1      10.190  48.429 154.382  1.00  0.00     0.000 C 
BRANCH   6   7
ATOM      7  C   UNL     1       8.911  49.280 154.264  1.00  0.00     0.000 C 
BRANCH   7   8
ATOM      8  C   UNL     1       8.322  49.292 152.846  1.00  0.00     0.000 C 
BRANCH   8   9
ATOM      9  C   UNL     1       7.209  48.242 152.703  1.00  0.00     0.000 C 
BRANCH   9  10
ATOM     10  C   UNL     1       7.494  47.211 151.597  1.00  0.00     0.000 C 
BRANCH  10  11
ATOM     11  C   UNL     1       7.644  45.754 152.082  1.00  0.00     0.000 C 
BRANCH  11  12
ATOM     12  C   UNL     1       8.991  45.084 151.739  1.00  0.00     0.006 C 
BRANCH  12  13
ATOM     13  C   UNL     1      10.096  46.067 151.320  1.00  0.00     0.053 C 
BRANCH  13  14
ATOM     14  C   UNL     1      10.545  45.858 149.905  1.00  0.00     0.041 C 
ATOM     15  O   UNL     1       9.705  45.593 149.003  1.00  0.00    -0.550 OA
ATOM     16  O   UNL     1      11.891  45.983 149.577  1.00  0.00    -0.550 OA
ENDBRANCH  13  14
ENDBRANCH  12  13
ENDBRANCH  11  12
ENDBRANCH  10  11
ENDBRANCH   9  10
ENDBRANCH   8   9
ENDBRANCH   7   8
ENDBRANCH   6   7
ENDBRANCH   5   6
ENDBRANCH   4   5
ENDBRANCH   3   4
ENDBRANCH   2   3
ENDBRANCH   1   2
BRANCH   1  17
ATOM     17  C   UNL     1      10.470  42.433 155.158  1.00  0.00     0.000 C 
BRANCH  17  18
ATOM     18  C   UNL     1      11.177  43.384 154.177  1.00  0.00     0.000 C 
BRANCH  18  19
ATOM     19  C   UNL     1      12.266  42.685 153.349  1.00  0.00     0.000 C 
BRANCH  19  20
ATOM     20  C   UNL     1      12.182  43.021 151.851  1.00  0.00     0.000 C 
BRANCH  20  21
ATOM     21  C   UNL     1      11.965  41.775 150.977  1.00  0.00     0.000 C 
BRANCH  21  22
ATOM     22  C   UNL     1      11.942  40.472 151.797  1.00  0.00    -0.000 C 
BRANCH  22  23
ATOM     23  C   UNL     1      10.535  39.867 151.911  1.00  0.00    -0.000 C 
BRANCH  23  24
ATOM     24  C   UNL     1       9.456  40.744 151.252  1.00  0.00    -0.000 C 
BRANCH  24  25
ATOM     25  C   UNL     1       8.556  41.456 152.278  1.00  0.00    -0.000 C 
BRANCH  25  26
ATOM     26  C   UNL     1       7.812  40.492 153.228  1.00  0.00    -0.000 C 
BRANCH  26  27
ATOM     27  C   UNL     1       6.467  41.071 153.704  1.00  0.00    -0.000 C 
BRANCH  27  28
ATOM     28  C   UNL     1       6.381  42.596 153.528  1.00  0.00    -0.000 C 
BRANCH  28  29
ATOM     29  C   UNL     1       5.548  43.272 154.627  1.00  0.00    -0.003 C 
ATOM     30  C   UNL     1       5.170  42.277 155.720  1.00  0.00     0.004 C 
ENDBRANCH  28  29
ENDBRANCH  27  28
ENDBRANCH  26  27
ENDBRANCH  25  26
ENDBRANCH  24  25
ENDBRANCH  23  24
ENDBRANCH  22  23
ENDBRANCH  21  22
ENDBRANCH  20  21
ENDBRANCH  19  20
ENDBRANCH  18  19
ENDBRANCH  17  18
ENDBRANCH   1  17
TORSDOF 26
ENDMDL
MODEL 3
REMARK VINA RESULT:    -2.976      1.407      2.501
REMARK INTER + INTRA:         -13.221
REMARK INTER:                  -7.788
REMARK INTRA:                  -5.433
REMARK UNBOUND:                -5.722
REMARK SMILES CCCCCCCCCCCCCCCCCCCCCCCCCCCC(=O)[O-]
REMARK SMILES IDX 15 1 16 2 17 3 18 4 19 5 20 6 21 7 22 8 23 9 24 10 25 11
REMARK SMILES IDX 26 12 27 13 28 14 29 15 30 16 14 17 13 18 12 19 11 20 10 21
REMARK SMILES IDX 9 22 8 23 7 24 6 25 5 26 4 27 3 28 2 29 1 30
REMARK H PARENT
REMARK Flexibility Score: inf
ROOT
ATOM      1  C   UNL     1      10.390  43.094 150.683  1.00  0.00     0.000 C 
ENDROOT
BRANCH   1   2
ATOM      2  C   UNL     1      11.851  42.680 150.419  1.00  0.00     0.000 C 
BRANCH   2   3
ATOM      3  C   UNL     1      12.004  41.172 150.167  1.00  0.00     0.000 C 
BRANCH   3   4
ATOM      4  C   UNL     1      11.949  40.350 151.462  1.00  0.00     0.000 C 
BRANCH   4   5
ATOM      5  C   UNL     1      10.623  39.582 151.574  1.00  0.00     0.000 C 
BRANCH   5   6
ATOM      6  C   UNL     1      10.411  38.573 150.430  1.00  0.00     0.000 C 
BRANCH   6   7
ATOM      7  C   UNL     1       9.032  38.638 149.745  1.00  0.00     0.000 C 
BRANCH   7   8
ATOM      8  C   UNL     1       8.738  40.005 149.110  1.00  0.00     0.000 C 
BRANCH   8   9
ATOM      9  C   UNL     1       7.352  40.520 149.528  1.00  0.00     0.000 C 
BRANCH   9  10
ATOM     10  C   UNL     1       7.336  41.112 150.948  1.00  0.00     0.000 C 
BRANCH  10  11
ATOM     11  C   UNL     1       6.546  40.293 151.990  1.00  0.00     0.000 C 
BRANCH  11  12
ATOM     12  C   UNL     1       6.828  40.658 153.463  1.00  0.00     0.006 C 
BRANCH  12  13
ATOM     13  C   UNL     1       5.588  41.118 154.247  1.00  0.00     0.053 C 
BRANCH  13  14
ATOM     14  C   UNL     1       4.585  40.020 154.432  1.00  0.00     0.041 C 
ATOM     15  O   UNL     1       4.944  38.899 154.884  1.00  0.00    -0.550 OA
ATOM     16  O   UNL     1       3.246  40.244 154.130  1.00  0.00    -0.550 OA
ENDBRANCH  13  14
ENDBRANCH  12  13
ENDBRANCH  11  12
ENDBRANCH  10  11
ENDBRANCH   9  10
ENDBRANCH   8   9
ENDBRANCH   7   8
ENDBRANCH   6   7
ENDBRANCH   5   6
ENDBRANCH   4   5
ENDBRANCH   3   4
ENDBRANCH   2   3
ENDBRANCH   1   2
BRANCH   1  17
ATOM     17  C   UNL     1      10.143  43.501 152.145  1.00  0.00     0.000 C 
BRANCH  17  18
ATOM     18  C   UNL     1      11.449  43.798 152.902  1.00  0.00     0.000 C 
BRANCH  18  19
ATOM     19  C   UNL     1      11.621  42.927 154.157  1.00  0.00     0.000 C 
BRANCH  19  20
ATOM     20  C   UNL     1      10.309  42.260 154.602  1.00  0.00     0.000 C 
BRANCH  20  21
ATOM     21  C   UNL     1      10.054  42.406 156.111  1.00  0.00     0.000 C 
BRANCH  21  22
ATOM     22  C   UNL     1       8.978  43.460 156.431  1.00  0.00    -0.000 C 
BRANCH  22  23
ATOM     23  C   UNL     1       8.055  43.749 155.238  1.00  0.00    -0.000 C 
BRANCH  23  24
ATOM     24  C   UNL     1       8.075  45.228 154.818  1.00  0.00    -0.000 C 
BRANCH  24  25
ATOM     25  C   UNL     1       9.188  46.033 155.513  1.00  0.00    -0.000 C 
BRANCH  25  26
ATOM     26  C   UNL     1      10.148  46.742 154.534  1.00  0.00    -0.000 C 
BRANCH  26  27
ATOM     27  C   UNL     1       9.391  47.521 153.442  1.00  0.00    -0.000 C 
BRANCH  27  28
ATOM     28  C   UNL     1       9.703  47.013 152.025  1.00  0.00    -0.000 C 
BRANCH  28  29
ATOM     29  C   UNL     1       8.437  46.778 151.188  1.00  0.00    -0.003 C 
ATOM     30  C   UNL     1       7.204  47.339 151.890  1.00  0.00     0.004 C 
ENDBRANCH  28  29
ENDBRANCH  27  28
ENDBRANCH  26  27
ENDBRANCH  25  26
ENDBRANCH  24  25
ENDBRANCH  23  24
ENDBRANCH  22  23
ENDBRANCH  21  22
ENDBRANCH  20  21
ENDBRANCH  19  20
ENDBRANCH  18  19
ENDBRANCH  17  18
ENDBRANCH   1  17
TORSDOF 26
ENDMDL
MODEL 4
REMARK VINA RESULT:    -2.826      2.356      6.317
REMARK INTER + INTRA:         -12.842
REMARK INTER:                  -7.106
REMARK INTRA:                  -5.737
REMARK UNBOUND:                -5.722
REMARK SMILES CCCCCCCCCCCCCCCCCCCCCCCCCCCC(=O)[O-]
REMARK SMILES IDX 15 1 16 2 17 3 18 4 19 5 20 6 21 7 22 8 23 9 24 10 25 11
REMARK SMILES IDX 26 12 27 13 28 14 29 15 30 16 14 17 13 18 12 19 11 20 10 21
REMARK SMILES IDX 9 22 8 23 7 24 6 25 5 26 4 27 3 28 2 29 1 30
REMARK H PARENT
REMARK Flexibility Score: inf
ROOT
ATOM      1  C   UNL     1      10.507  43.156 154.780  1.00  0.00     0.000 C 
ENDROOT
BRANCH   1   2
ATOM      2  C   UNL     1      10.170  42.366 156.059  1.00  0.00     0.000 C 
BRANCH   2   3
ATOM      3  C   UNL     1       8.867  42.837 156.721  1.00  0.00     0.000 C 
BRANCH   3   4
ATOM      4  C   UNL     1       8.847  44.352 156.972  1.00  0.00     0.000 C 
BRANCH   4   5
ATOM      5  C   UNL     1       7.640  45.010 156.287  1.00  0.00     0.000 C 
BRANCH   5   6
ATOM      6  C   UNL     1       8.034  46.179 155.363  1.00  0.00     0.000 C 
BRANCH   6   7
ATOM      7  C   UNL     1       9.375  46.858 155.700  1.00  0.00     0.000 C 
BRANCH   7   8
ATOM      8  C   UNL     1      10.199  47.216 154.455  1.00  0.00     0.000 C 
BRANCH   8   9
ATOM      9  C   UNL     1       9.759  46.379 153.244  1.00  0.00     0.000 C 
BRANCH   9  10
ATOM     10  C   UNL     1       9.343  47.240 152.038  1.00  0.00     0.000 C 
BRANCH  10  11
ATOM     11  C   UNL     1       7.837  47.215 151.704  1.00  0.00     0.000 C 
BRANCH  11  12
ATOM     12  C   UNL     1       7.490  46.747 150.275  1.00  0.00     0.006 C 
BRANCH  12  13
ATOM     13  C   UNL     1       8.513  45.776 149.663  1.00  0.00     0.053 C 
BRANCH  13  14
ATOM     14  C   UNL     1       7.916  44.911 148.594  1.00  0.00     0.041 C 
ATOM     15  O   UNL     1       7.811  43.667 148.766  1.00  0.00    -0.550 OA
ATOM     16  O   UNL     1       7.448  45.485 147.417  1.00  0.00    -0.550 OA
ENDBRANCH  13  14
ENDBRANCH  12  13
ENDBRANCH  11  12
ENDBRANCH  10  11
ENDBRANCH   9  10
ENDBRANCH   8   9
ENDBRANCH   7   8
ENDBRANCH   6   7
ENDBRANCH   5   6
ENDBRANCH   4   5
ENDBRANCH   3   4
ENDBRANCH   2   3
ENDBRANCH   1   2
BRANCH   1  17
ATOM     17  C   UNL     1      11.859  42.750 154.169  1.00  0.00     0.000 C 
BRANCH  17  18
ATOM     18  C   UNL     1      12.523  43.898 153.391  1.00  0.00     0.000 C 
BRANCH  18  19
ATOM     19  C   UNL     1      12.629  43.614 151.884  1.00  0.00     0.000 C 
BRANCH  19  20
ATOM     20  C   UNL     1      11.300  43.837 151.143  1.00  0.00     0.000 C 
BRANCH  20  21
ATOM     21  C   UNL     1      11.028  42.759 150.081  1.00  0.00     0.000 C 
BRANCH  21  22
ATOM     22  C   UNL     1      12.297  41.982 149.685  1.00  0.00    -0.000 C 
BRANCH  22  23
ATOM     23  C   UNL     1      12.101  40.460 149.730  1.00  0.00    -0.000 C 
BRANCH  23  24
ATOM     24  C   UNL     1      11.958  39.922 151.164  1.00  0.00    -0.000 C 
BRANCH  24  25
ATOM     25  C   UNL     1      10.527  39.458 151.488  1.00  0.00    -0.000 C 
BRANCH  25  26
ATOM     26  C   UNL     1       9.857  40.257 152.628  1.00  0.00    -0.000 C 
BRANCH  26  27
ATOM     27  C   UNL     1       8.459  40.768 152.233  1.00  0.00    -0.000 C 
BRANCH  27  28
ATOM     28  C   UNL     1       7.577  41.089 153.450  1.00  0.00    -0.000 C 
BRANCH  28  29
ATOM     29  C   UNL     1       7.100  42.549 153.467  1.00  0.00    -0.003 C 
ATOM     30  C   UNL     1       7.772  43.358 152.362  1.00  0.00     0.004 C 
ENDBRANCH  28  29
ENDBRANCH  27  28
ENDBRANCH  26  27
ENDBRANCH  25  26
ENDBRANCH  24  25
ENDBRANCH  23  24
ENDBRANCH  22  23
ENDBRANCH  21  22
ENDBRANCH  20  21
ENDBRANCH  19  20
ENDBRANCH  18  19
ENDBRANCH  17  18
ENDBRANCH   1  17
TORSDOF 26
ENDMDL
MODEL 5
REMARK VINA RESULT:    -2.788      1.474      3.088
REMARK INTER + INTRA:         -12.748
REMARK INTER:                  -7.011
REMARK INTRA:                  -5.737
REMARK UNBOUND:                -5.722
REMARK SMILES CCCCCCCCCCCCCCCCCCCCCCCCCCCC(=O)[O-]
REMARK SMILES IDX 15 1 16 2 17 3 18 4 19 5 20 6 21 7 22 8 23 9 24 10 25 11
REMARK SMILES IDX 26 12 27 13 28 14 29 15 30 16 14 17 13 18 12 19 11 20 10 21
REMARK SMILES IDX 9 22 8 23 7 24 6 25 5 26 4 27 3 28 2 29 1 30
REMARK H PARENT
REMARK Flexibility Score: inf
ROOT
ATOM      1  C   UNL     1      12.446  43.097 153.050  1.00  0.00     0.000 C 
ENDROOT
BRANCH   1   2
ATOM      2  C   UNL     1      11.828  41.921 152.269  1.00  0.00     0.000 C 
BRANCH   2   3
ATOM      3  C   UNL     1      11.742  42.192 150.759  1.00  0.00     0.000 C 
BRANCH   3   4
ATOM      4  C   UNL     1      12.134  40.969 149.917  1.00  0.00     0.000 C 
BRANCH   4   5
ATOM      5  C   UNL     1      12.067  39.680 150.751  1.00  0.00     0.000 C 
BRANCH   5   6
ATOM      6  C   UNL     1      11.222  38.575 150.087  1.00  0.00     0.000 C 
BRANCH   6   7
ATOM      7  C   UNL     1       9.760  38.490 150.567  1.00  0.00     0.000 C 
BRANCH   7   8
ATOM      8  C   UNL     1       8.820  39.439 149.810  1.00  0.00     0.000 C 
BRANCH   8   9
ATOM      9  C   UNL     1       8.233  40.500 150.754  1.00  0.00     0.000 C 
BRANCH   9  10
ATOM     10  C   UNL     1       8.682  40.319 152.215  1.00  0.00     0.000 C 
BRANCH  10  11
ATOM     11  C   UNL     1       7.580  40.545 153.271  1.00  0.00     0.000 C 
BRANCH  11  12
ATOM     12  C   UNL     1       6.373  41.379 152.792  1.00  0.00     0.006 C 
BRANCH  12  13
ATOM     13  C   UNL     1       5.280  41.575 153.855  1.00  0.00     0.053 C 
BRANCH  13  14
ATOM     14  C   UNL     1       4.065  40.737 153.591  1.00  0.00     0.041 C 
ATOM     15  O   UNL     1       2.927  41.131 153.964  1.00  0.00    -0.550 OA
ATOM     16  O   UNL     1       4.187  39.532 152.907  1.00  0.00    -0.550 OA
ENDBRANCH  13  14
ENDBRANCH  12  13
ENDBRANCH  11  12
ENDBRANCH  10  11
ENDBRANCH   9  10
ENDBRANCH   8   9
ENDBRANCH   7   8
ENDBRANCH   6   7
ENDBRANCH   5   6
ENDBRANCH   4   5
ENDBRANCH   3   4
ENDBRANCH   2   3
ENDBRANCH   1   2
BRANCH   1  17
ATOM     17  C   UNL     1      11.871  43.234 154.470  1.00  0.00     0.000 C 
BRANCH  17  18
ATOM     18  C   UNL     1      10.548  42.470 154.646  1.00  0.00     0.000 C 
BRANCH  18  19
ATOM     19  C   UNL     1      10.127  42.340 156.118  1.00  0.00     0.000 C 
BRANCH  19  20
ATOM     20  C   UNL     1       9.147  43.442 156.556  1.00  0.00     0.000 C 
BRANCH  20  21
ATOM     21  C   UNL     1       7.736  43.241 155.979  1.00  0.00     0.000 C 
BRANCH  21  22
ATOM     22  C   UNL     1       7.100  44.558 155.497  1.00  0.00    -0.000 C 
BRANCH  22  23
ATOM     23  C   UNL     1       7.354  44.831 154.007  1.00  0.00    -0.000 C 
BRANCH  23  24
ATOM     24  C   UNL     1       8.592  45.712 153.768  1.00  0.00    -0.000 C 
BRANCH  24  25
ATOM     25  C   UNL     1       9.412  45.271 152.543  1.00  0.00    -0.000 C 
BRANCH  25  26
ATOM     26  C   UNL     1       8.812  44.059 151.796  1.00  0.00    -0.000 C 
BRANCH  26  27
ATOM     27  C   UNL     1       8.705  44.307 150.280  1.00  0.00    -0.000 C 
BRANCH  27  28
ATOM     28  C   UNL     1       9.221  45.695 149.867  1.00  0.00    -0.000 C 
BRANCH  28  29
ATOM     29  C   UNL     1      10.417  45.621 148.908  1.00  0.00    -0.003 C 
ATOM     30  C   UNL     1      11.737  45.706 149.669  1.00  0.00     0.004 C 
ENDBRANCH  28  29
ENDBRANCH  27  28
ENDBRANCH  26  27
ENDBRANCH  25  26
ENDBRANCH  24  25
ENDBRANCH  23  24
ENDBRANCH  22  23
ENDBRANCH  21  22
ENDBRANCH  20  21
ENDBRANCH  19  20
ENDBRANCH  18  19
ENDBRANCH  17  18
ENDBRANCH   1  17
TORSDOF 26
ENDMDL
MODEL 6
REMARK VINA RESULT:    -2.785      1.326      3.289
REMARK INTER + INTRA:         -12.741
REMARK INTER:                  -7.303
REMARK INTRA:                  -5.438
REMARK UNBOUND:                -5.722
REMARK SMILES CCCCCCCCCCCCCCCCCCCCCCCCCCCC(=O)[O-]
REMARK SMILES IDX 15 1 16 2 17 3 18 4 19 5 20 6 21 7 22 8 23 9 24 10 25 11
REMARK SMILES IDX 26 12 27 13 28 14 29 15 30 16 14 17 13 18 12 19 11 20 10 21
REMARK SMILES IDX 9 22 8 23 7 24 6 25 5 26 4 27 3 28 2 29 1 30
REMARK H PARENT
REMARK Flexibility Score: inf
ROOT
ATOM      1  C   UNL     1      11.497  43.376 154.360  1.00  0.00     0.000 C 
ENDROOT
BRANCH   1   2
ATOM      2  C   UNL     1      12.313  42.894 153.145  1.00  0.00     0.000 C 
BRANCH   2   3
ATOM      3  C   UNL     1      11.787  41.571 152.565  1.00  0.00     0.000 C 
BRANCH   3   4
ATOM      4  C   UNL     1      12.140  41.395 151.082  1.00  0.00     0.000 C 
BRANCH   4   5
ATOM      5  C   UNL     1      11.833  39.967 150.605  1.00  0.00     0.000 C 
BRANCH   5   6
ATOM      6  C   UNL     1      10.524  39.404 151.192  1.00  0.00     0.000 C 
BRANCH   6   7
ATOM      7  C   UNL     1       9.279  39.575 150.301  1.00  0.00     0.000 C 
BRANCH   7   8
ATOM      8  C   UNL     1       7.995  39.831 151.103  1.00  0.00     0.000 C 
BRANCH   8   9
ATOM      9  C   UNL     1       8.306  40.544 152.428  1.00  0.00     0.000 C 
BRANCH   9  10
ATOM     10  C   UNL     1       7.164  40.430 153.454  1.00  0.00     0.000 C 
BRANCH  10  11
ATOM     11  C   UNL     1       6.191  41.627 153.487  1.00  0.00     0.000 C 
BRANCH  11  12
ATOM     12  C   UNL     1       4.707  41.259 153.692  1.00  0.00     0.006 C 
BRANCH  12  13
ATOM     13  C   UNL     1       4.322  39.868 153.164  1.00  0.00     0.053 C 
BRANCH  13  14
ATOM     14  C   UNL     1       3.683  39.011 154.215  1.00  0.00     0.041 C 
ATOM     15  O   UNL     1       2.428  38.982 154.336  1.00  0.00    -0.550 OA
ATOM     16  O   UNL     1       4.473  38.221 155.042  1.00  0.00    -0.550 OA
ENDBRANCH  13  14
ENDBRANCH  12  13
ENDBRANCH  11  12
ENDBRANCH  10  11
ENDBRANCH   9  10
ENDBRANCH   8   9
ENDBRANCH   7   8
ENDBRANCH   6   7
ENDBRANCH   5   6
ENDBRANCH   4   5
ENDBRANCH   3   4
ENDBRANCH   2   3
ENDBRANCH   1   2
BRANCH   1  17
ATOM     17  C   UNL     1      10.181  42.599 154.538  1.00  0.00     0.000 C 
BRANCH  17  18
ATOM     18  C   UNL     1       9.710  42.568 156.002  1.00  0.00     0.000 C 
BRANCH  18  19
ATOM     19  C   UNL     1       8.406  43.351 156.224  1.00  0.00     0.000 C 
BRANCH  19  20
ATOM     20  C   UNL     1       8.640  44.716 156.893  1.00  0.00     0.000 C 
BRANCH  20  21
ATOM     21  C   UNL     1       8.541  45.886 155.899  1.00  0.00     0.000 C 
BRANCH  21  22
ATOM     22  C   UNL     1       7.329  45.764 154.958  1.00  0.00    -0.000 C 
BRANCH  22  23
ATOM     23  C   UNL     1       7.699  45.968 153.482  1.00  0.00    -0.000 C 
BRANCH  23  24
ATOM     24  C   UNL     1       9.218  46.026 153.253  1.00  0.00    -0.000 C 
BRANCH  24  25
ATOM     25  C   UNL     1       9.592  46.354 151.796  1.00  0.00    -0.000 C 
BRANCH  25  26
ATOM     26  C   UNL     1      10.211  45.164 151.030  1.00  0.00    -0.000 C 
BRANCH  26  27
ATOM     27  C   UNL     1       9.367  43.883 151.170  1.00  0.00    -0.000 C 
BRANCH  27  28
ATOM     28  C   UNL     1       9.108  43.193 149.821  1.00  0.00    -0.000 C 
BRANCH  28  29
ATOM     29  C   UNL     1       7.660  43.362 149.338  1.00  0.00    -0.003 C 
ATOM     30  C   UNL     1       6.720  43.632 150.509  1.00  0.00     0.004 C 
ENDBRANCH  28  29
ENDBRANCH  27  28
ENDBRANCH  26  27
ENDBRANCH  25  26
ENDBRANCH  24  25
ENDBRANCH  23  24
ENDBRANCH  22  23
ENDBRANCH  21  22
ENDBRANCH  20  21
ENDBRANCH  19  20
ENDBRANCH  18  19
ENDBRANCH  17  18
ENDBRANCH   1  17
TORSDOF 26
ENDMDL
MODEL 7
REMARK VINA RESULT:    -2.783      2.367      6.362
REMARK INTER + INTRA:         -12.736
REMARK INTER:                  -7.382
REMARK INTRA:                  -5.354
REMARK UNBOUND:                -5.722
REMARK SMILES CCCCCCCCCCCCCCCCCCCCCCCCCCCC(=O)[O-]
REMARK SMILES IDX 15 1 16 2 17 3 18 4 19 5 20 6 21 7 22 8 23 9 24 10 25 11
REMARK SMILES IDX 26 12 27 13 28 14 29 15 30 16 14 17 13 18 12 19 11 20 10 21
REMARK SMILES IDX 9 22 8 23 7 24 6 25 5 26 4 27 3 28 2 29 1 30
REMARK H PARENT
REMARK Flexibility Score: inf
ROOT
ATOM      1  C   UNL     1      11.885  42.735 154.531  1.00  0.00     0.000 C 
ENDROOT
BRANCH   1   2
ATOM      2  C   UNL     1      10.372  42.672 154.814  1.00  0.00     0.000 C 
BRANCH   2   3
ATOM      3  C   UNL     1      10.056  42.389 156.291  1.00  0.00     0.000 C 
BRANCH   3   4
ATOM      4  C   UNL     1       9.029  43.370 156.872  1.00  0.00     0.000 C 
BRANCH   4   5
ATOM      5  C   UNL     1       8.865  44.601 155.968  1.00  0.00     0.000 C 
BRANCH   5   6
ATOM      6  C   UNL     1       7.547  45.359 156.212  1.00  0.00     0.000 C 
BRANCH   6   7
ATOM      7  C   UNL     1       7.697  46.740 156.878  1.00  0.00     0.000 C 
BRANCH   7   8
ATOM      8  C   UNL     1       7.157  47.889 156.015  1.00  0.00     0.000 C 
BRANCH   8   9
ATOM      9  C   UNL     1       8.261  48.910 155.703  1.00  0.00     0.000 C 
BRANCH   9  10
ATOM     10  C   UNL     1       9.674  48.304 155.763  1.00  0.00     0.000 C 
BRANCH  10  11
ATOM     11  C   UNL     1      10.143  47.605 154.469  1.00  0.00     0.000 C 
BRANCH  11  12
ATOM     12  C   UNL     1       9.393  48.026 153.188  1.00  0.00     0.006 C 
BRANCH  12  13
ATOM     13  C   UNL     1       8.661  46.876 152.478  1.00  0.00     0.053 C 
BRANCH  13  14
ATOM     14  C   UNL     1       7.188  47.125 152.349  1.00  0.00     0.041 C 
ATOM     15  O   UNL     1       6.363  46.401 152.970  1.00  0.00    -0.550 OA
ATOM     16  O   UNL     1       6.727  48.175 151.563  1.00  0.00    -0.550 OA
ENDBRANCH  13  14
ENDBRANCH  12  13
ENDBRANCH  11  12
ENDBRANCH  10  11
ENDBRANCH   9  10
ENDBRANCH   8   9
ENDBRANCH   7   8
ENDBRANCH   6   7
ENDBRANCH   5   6
ENDBRANCH   4   5
ENDBRANCH   3   4
ENDBRANCH   2   3
ENDBRANCH   1   2
BRANCH   1  17
ATOM     17  C   UNL     1      12.250  43.799 153.482  1.00  0.00     0.000 C 
BRANCH  17  18
ATOM     18  C   UNL     1      11.025  44.291 152.692  1.00  0.00     0.000 C 
BRANCH  18  19
ATOM     19  C   UNL     1      11.261  44.301 151.173  1.00  0.00     0.000 C 
BRANCH  19  20
ATOM     20  C   UNL     1      12.230  43.198 150.715  1.00  0.00     0.000 C 
BRANCH  20  21
ATOM     21  C   UNL     1      11.676  42.375 149.539  1.00  0.00     0.000 C 
BRANCH  21  22
ATOM     22  C   UNL     1      11.979  40.872 149.673  1.00  0.00    -0.000 C 
BRANCH  22  23
ATOM     23  C   UNL     1      12.047  40.406 151.135  1.00  0.00    -0.000 C 
BRANCH  23  24
ATOM     24  C   UNL     1      10.847  39.530 151.536  1.00  0.00    -0.000 C 
BRANCH  24  25
ATOM     25  C   UNL     1       9.890  40.237 152.512  1.00  0.00    -0.000 C 
BRANCH  25  26
ATOM     26  C   UNL     1       8.505  40.552 151.907  1.00  0.00    -0.000 C 
BRANCH  26  27
ATOM     27  C   UNL     1       8.300  42.062 151.684  1.00  0.00    -0.000 C 
BRANCH  27  28
ATOM     28  C   UNL     1       7.422  42.709 152.768  1.00  0.00    -0.000 C 
BRANCH  28  29
ATOM     29  C   UNL     1       6.875  41.686 153.775  1.00  0.00    -0.003 C 
ATOM     30  C   UNL     1       5.934  42.350 154.775  1.00  0.00     0.004 C 
ENDBRANCH  28  29
ENDBRANCH  27  28
ENDBRANCH  26  27
ENDBRANCH  25  26
ENDBRANCH  24  25
ENDBRANCH  23  24
ENDBRANCH  22  23
ENDBRANCH  21  22
ENDBRANCH  20  21
ENDBRANCH  19  20
ENDBRANCH  18  19
ENDBRANCH  17  18
ENDBRANCH   1  17
TORSDOF 26
ENDMDL
MODEL 8
REMARK VINA RESULT:    -2.763      1.539      4.024
REMARK INTER + INTRA:         -12.685
REMARK INTER:                  -7.220
REMARK INTRA:                  -5.465
REMARK UNBOUND:                -5.722
REMARK SMILES CCCCCCCCCCCCCCCCCCCCCCCCCCCC(=O)[O-]
REMARK SMILES IDX 15 1 16 2 17 3 18 4 19 5 20 6 21 7 22 8 23 9 24 10 25 11
REMARK SMILES IDX 26 12 27 13 28 14 29 15 30 16 14 17 13 18 12 19 11 20 10 21
REMARK SMILES IDX 9 22 8 23 7 24 6 25 5 26 4 27 3 28 2 29 1 30
REMARK H PARENT
REMARK Flexibility Score: inf
ROOT
ATOM      1  C   UNL     1       8.328  38.956 149.860  1.00  0.00     0.000 C 
ENDROOT
BRANCH   1   2
ATOM      2  C   UNL     1       8.086  39.755 151.156  1.00  0.00     0.000 C 
BRANCH   2   3
ATOM      3  C   UNL     1       8.134  41.275 150.933  1.00  0.00     0.000 C 
BRANCH   3   4
ATOM      4  C   UNL     1       8.697  42.031 152.144  1.00  0.00     0.000 C 
BRANCH   4   5
ATOM      5  C   UNL     1       9.263  41.057 153.190  1.00  0.00     0.000 C 
BRANCH   5   6
ATOM      6  C   UNL     1      10.119  41.755 154.264  1.00  0.00     0.000 C 
BRANCH   6   7
ATOM      7  C   UNL     1       9.690  43.193 154.613  1.00  0.00     0.000 C 
BRANCH   7   8
ATOM      8  C   UNL     1       8.608  43.252 155.702  1.00  0.00     0.000 C 
BRANCH   8   9
ATOM      9  C   UNL     1       7.262  43.707 155.117  1.00  0.00     0.000 C 
BRANCH   9  10
ATOM     10  C   UNL     1       6.139  42.673 155.320  1.00  0.00     0.000 C 
BRANCH  10  11
ATOM     11  C   UNL     1       5.578  42.054 154.024  1.00  0.00     0.000 C 
BRANCH  11  12
ATOM     12  C   UNL     1       5.727  40.522 153.910  1.00  0.00     0.006 C 
BRANCH  12  13
ATOM     13  C   UNL     1       4.510  39.813 153.295  1.00  0.00     0.053 C 
BRANCH  13  14
ATOM     14  C   UNL     1       3.812  38.917 154.273  1.00  0.00     0.041 C 
ATOM     15  O   UNL     1       4.476  38.248 155.110  1.00  0.00    -0.550 OA
ATOM     16  O   UNL     1       2.423  38.842 154.280  1.00  0.00    -0.550 OA
ENDBRANCH  13  14
ENDBRANCH  12  13
ENDBRANCH  11  12
ENDBRANCH  10  11
ENDBRANCH   9  10
ENDBRANCH   8   9
ENDBRANCH   7   8
ENDBRANCH   6   7
ENDBRANCH   5   6
ENDBRANCH   4   5
ENDBRANCH   3   4
ENDBRANCH   2   3
ENDBRANCH   1   2
BRANCH   1  17
ATOM     17  C   UNL     1       9.816  38.892 149.472  1.00  0.00     0.000 C 
BRANCH  17  18
ATOM     18  C   UNL     1      10.734  38.685 150.689  1.00  0.00     0.000 C 
BRANCH  18  19
ATOM     19  C   UNL     1      11.873  39.714 150.757  1.00  0.00     0.000 C 
BRANCH  19  20
ATOM     20  C   UNL     1      11.938  40.612 149.510  1.00  0.00     0.000 C 
BRANCH  20  21
ATOM     21  C   UNL     1      11.977  42.109 149.861  1.00  0.00     0.000 C 
BRANCH  21  22
ATOM     22  C   UNL     1      12.283  42.361 151.349  1.00  0.00    -0.000 C 
BRANCH  22  23
ATOM     23  C   UNL     1      12.090  43.829 151.756  1.00  0.00    -0.000 C 
BRANCH  23  24
ATOM     24  C   UNL     1      10.963  44.520 150.969  1.00  0.00    -0.000 C 
BRANCH  24  25
ATOM     25  C   UNL     1      10.208  45.570 151.804  1.00  0.00    -0.000 C 
BRANCH  25  26
ATOM     26  C   UNL     1       8.675  45.528 151.618  1.00  0.00    -0.000 C 
BRANCH  26  27
ATOM     27  C   UNL     1       7.945  46.440 152.622  1.00  0.00    -0.000 C 
BRANCH  27  28
ATOM     28  C   UNL     1       8.847  46.887 153.783  1.00  0.00    -0.000 C 
BRANCH  28  29
ATOM     29  C   UNL     1       8.918  48.415 153.922  1.00  0.00    -0.003 C 
ATOM     30  C   UNL     1      10.209  48.843 154.613  1.00  0.00     0.004 C 
ENDBRANCH  28  29
ENDBRANCH  27  28
ENDBRANCH  26  27
ENDBRANCH  25  26
ENDBRANCH  24  25
ENDBRANCH  23  24
ENDBRANCH  22  23
ENDBRANCH  21  22
ENDBRANCH  20  21
ENDBRANCH  19  20
ENDBRANCH  18  19
ENDBRANCH  17  18
ENDBRANCH   1  17
TORSDOF 26
ENDMDL
MODEL 9
REMARK VINA RESULT:    -2.739      2.562      6.039
REMARK INTER + INTRA:         -12.625
REMARK INTER:                  -6.535
REMARK INTRA:                  -6.090
REMARK UNBOUND:                -5.722
REMARK SMILES CCCCCCCCCCCCCCCCCCCCCCCCCCCC(=O)[O-]
REMARK SMILES IDX 15 1 16 2 17 3 18 4 19 5 20 6 21 7 22 8 23 9 24 10 25 11
REMARK SMILES IDX 26 12 27 13 28 14 29 15 30 16 14 17 13 18 12 19 11 20 10 21
REMARK SMILES IDX 9 22 8 23 7 24 6 25 5 26 4 27 3 28 2 29 1 30
REMARK H PARENT
REMARK Flexibility Score: inf
ROOT
ATOM      1  C   UNL     1       7.960  43.534 155.964  1.00  0.00     0.000 C 
ENDROOT
BRANCH   1   2
ATOM      2  C   UNL     1       9.379  43.025 156.286  1.00  0.00     0.000 C 
BRANCH   2   3
ATOM      3  C   UNL     1      10.153  42.594 155.031  1.00  0.00     0.000 C 
BRANCH   3   4
ATOM      4  C   UNL     1       9.241  41.992 153.953  1.00  0.00     0.000 C 
BRANCH   4   5
ATOM      5  C   UNL     1       9.814  40.670 153.418  1.00  0.00     0.000 C 
BRANCH   5   6
ATOM      6  C   UNL     1       9.262  40.290 152.031  1.00  0.00     0.000 C 
BRANCH   6   7
ATOM      7  C   UNL     1      10.179  39.385 151.186  1.00  0.00     0.000 C 
BRANCH   7   8
ATOM      8  C   UNL     1      11.650  39.824 151.211  1.00  0.00     0.000 C 
BRANCH   8   9
ATOM      9  C   UNL     1      12.088  40.360 149.839  1.00  0.00     0.000 C 
BRANCH   9  10
ATOM     10  C   UNL     1      12.389  41.869 149.851  1.00  0.00     0.000 C 
BRANCH  10  11
ATOM     11  C   UNL     1      12.200  42.563 151.216  1.00  0.00     0.000 C 
BRANCH  11  12
ATOM     12  C   UNL     1      11.059  43.600 151.273  1.00  0.00     0.006 C 
BRANCH  12  13
ATOM     13  C   UNL     1      10.036  43.475 150.132  1.00  0.00     0.053 C 
BRANCH  13  14
ATOM     14  C   UNL     1       9.990  44.697 149.265  1.00  0.00     0.041 C 
ATOM     15  O   UNL     1      11.049  45.321 148.987  1.00  0.00    -0.550 OA
ATOM     16  O   UNL     1       8.777  45.132 148.741  1.00  0.00    -0.550 OA
ENDBRANCH  13  14
ENDBRANCH  12  13
ENDBRANCH  11  12
ENDBRANCH  10  11
ENDBRANCH   9  10
ENDBRANCH   8   9
ENDBRANCH   7   8
ENDBRANCH   6   7
ENDBRANCH   5   6
ENDBRANCH   4   5
ENDBRANCH   3   4
ENDBRANCH   2   3
ENDBRANCH   1   2
BRANCH   1  17
ATOM     17  C   UNL     1       7.473  44.604 156.956  1.00  0.00     0.000 C 
BRANCH  17  18
ATOM     18  C   UNL     1       8.366  45.856 156.956  1.00  0.00     0.000 C 
BRANCH  18  19
ATOM     19  C   UNL     1       7.843  46.960 156.023  1.00  0.00     0.000 C 
BRANCH  19  20
ATOM     20  C   UNL     1       8.968  47.658 155.241  1.00  0.00     0.000 C 
BRANCH  20  21
ATOM     21  C   UNL     1      10.136  46.713 154.914  1.00  0.00     0.000 C 
BRANCH  21  22
ATOM     22  C   UNL     1       9.967  46.009 153.555  1.00  0.00    -0.000 C 
BRANCH  22  23
ATOM     23  C   UNL     1       9.312  46.908 152.497  1.00  0.00    -0.000 C 
BRANCH  23  24
ATOM     24  C   UNL     1       7.992  46.328 151.960  1.00  0.00    -0.000 C 
BRANCH  24  25
ATOM     25  C   UNL     1       7.520  45.091 152.744  1.00  0.00    -0.000 C 
BRANCH  25  26
ATOM     26  C   UNL     1       6.329  44.357 152.089  1.00  0.00    -0.000 C 
BRANCH  26  27
ATOM     27  C   UNL     1       6.755  43.029 151.435  1.00  0.00    -0.000 C 
BRANCH  27  28
ATOM     28  C   UNL     1       5.795  41.873 151.757  1.00  0.00    -0.000 C 
BRANCH  28  29
ATOM     29  C   UNL     1       5.537  41.720 153.263  1.00  0.00    -0.003 C 
ATOM     30  C   UNL     1       5.930  40.328 153.749  1.00  0.00     0.004 C 
ENDBRANCH  28  29
ENDBRANCH  27  28
ENDBRANCH  26  27
ENDBRANCH  25  26
ENDBRANCH  24  25
ENDBRANCH  23  24
ENDBRANCH  22  23
ENDBRANCH  21  22
ENDBRANCH  20  21
ENDBRANCH  19  20
ENDBRANCH  18  19
ENDBRANCH  17  18
ENDBRANCH   1  17
TORSDOF 26
ENDMDL
