MODEL 1
REMARK VINA RESULT:    -6.004      0.000      0.000
REMARK INTER + INTRA:         -14.906
REMARK INTER:                 -13.024
REMARK INTRA:                  -1.882
REMARK UNBOUND:                -1.882
REMARK SMILES CCCCCCCCCCCCCCCCCCCCCC(=O)[O-]
REMARK SMILES IDX 12 1 11 2 10 3 9 4 8 5 7 6 6 7 5 8 4 9 3 10 2 11 1 12 13 13
REMARK SMILES IDX 14 14 15 15 16 16 17 17 18 18 19 19 20 20 21 21 22 22 23 23
REMARK SMILES IDX 24 24
REMARK H PARENT
REMARK Flexibility Score: inf
ROOT
ATOM      1  C   UNL     1      88.686 324.558 201.772  1.00  0.00     0.000 C 
ENDROOT
BRANCH   1   2
ATOM      2  C   UNL     1      88.449 325.967 201.197  1.00  0.00     0.000 C 
BRANCH   2   3
ATOM      3  C   UNL     1      89.461 326.341 200.100  1.00  0.00     0.000 C 
BRANCH   3   4
ATOM      4  C   UNL     1      88.866 326.264 198.682  1.00  0.00    -0.000 C 
BRANCH   4   5
ATOM      5  C   UNL     1      88.829 324.860 198.054  1.00  0.00    -0.000 C 
BRANCH   5   6
ATOM      6  C   UNL     1      88.765 324.890 196.517  1.00  0.00    -0.000 C 
BRANCH   6   7
ATOM      7  C   UNL     1      88.917 326.309 195.937  1.00  0.00    -0.000 C 
BRANCH   7   8
ATOM      8  C   UNL     1      88.412 326.483 194.491  1.00  0.00    -0.000 C 
BRANCH   8   9
ATOM      9  C   UNL     1      86.907 326.199 194.344  1.00  0.00    -0.000 C 
BRANCH   9  10
ATOM     10  C   UNL     1      86.614 325.072 193.340  1.00  0.00    -0.000 C 
BRANCH  10  11
ATOM     11  C   UNL     1      87.877 324.287 192.954  1.00  0.00    -0.003 C 
ATOM     12  C   UNL     1      88.000 324.155 191.439  1.00  0.00     0.004 C 
ENDBRANCH  10  11
ENDBRANCH   9  10
ENDBRANCH   8   9
ENDBRANCH   7   8
ENDBRANCH   6   7
ENDBRANCH   5   6
ENDBRANCH   4   5
ENDBRANCH   3   4
ENDBRANCH   2   3
ENDBRANCH   1   2
BRANCH   1  13
ATOM     13  C   UNL     1      87.495 323.584 201.646  1.00  0.00     0.000 C 
BRANCH  13  14
ATOM     14  C   UNL     1      86.447 323.683 202.770  1.00  0.00     0.000 C 
BRANCH  14  15
ATOM     15  C   UNL     1      87.050 323.466 204.166  1.00  0.00     0.000 C 
BRANCH  15  16
ATOM     16  C   UNL     1      86.197 324.141 205.246  1.00  0.00     0.000 C 
BRANCH  16  17
ATOM     17  C   UNL     1      87.039 325.121 206.076  1.00  0.00     0.000 C 
BRANCH  17  18
ATOM     18  C   UNL     1      88.446 325.343 205.495  1.00  0.00     0.000 C 
BRANCH  18  19
ATOM     19  C   UNL     1      89.010 326.767 205.674  1.00  0.00     0.000 C 
BRANCH  19  20
ATOM     20  C   UNL     1      89.212 327.557 204.368  1.00  0.00     0.006 C 
BRANCH  20  21
ATOM     21  C   UNL     1      90.650 327.476 203.838  1.00  0.00     0.053 C 
BRANCH  21  22
ATOM     22  C   UNL     1      91.604 327.197 204.956  1.00  0.00     0.041 C 
ATOM     23  O   UNL     1      91.821 328.070 205.839  1.00  0.00    -0.550 OA
ATOM     24  O   UNL     1      92.282 325.984 205.003  1.00  0.00    -0.550 OA
ENDBRANCH  21  22
ENDBRANCH  20  21
ENDBRANCH  19  20
ENDBRANCH  18  19
ENDBRANCH  17  18
ENDBRANCH  16  17
ENDBRANCH  15  16
ENDBRANCH  14  15
ENDBRANCH  13  14
ENDBRANCH   1  13
TORSDOF 20
ENDMDL
MODEL 2
REMARK VINA RESULT:    -5.945      2.399      3.811
REMARK INTER + INTRA:         -14.777
REMARK INTER:                 -13.040
REMARK INTRA:                  -1.737
REMARK UNBOUND:                -1.882
REMARK SMILES CCCCCCCCCCCCCCCCCCCCCC(=O)[O-]
REMARK SMILES IDX 12 1 11 2 10 3 9 4 8 5 7 6 6 7 5 8 4 9 3 10 2 11 1 12 13 13
REMARK SMILES IDX 14 14 15 15 16 16 17 17 18 18 19 19 20 20 21 21 22 22 23 23
REMARK SMILES IDX 24 24
REMARK H PARENT
REMARK Flexibility Score: inf
ROOT
ATOM      1  C   UNL     1      89.276 326.045 202.869  1.00  0.00     0.000 C 
ENDROOT
BRANCH   1   2
ATOM      2  C   UNL     1      88.605 326.252 201.497  1.00  0.00     0.000 C 
BRANCH   2   3
ATOM      3  C   UNL     1      89.621 326.490 200.367  1.00  0.00     0.000 C 
BRANCH   3   4
ATOM      4  C   UNL     1      89.256 325.753 199.066  1.00  0.00    -0.000 C 
BRANCH   4   5
ATOM      5  C   UNL     1      88.523 326.598 198.009  1.00  0.00    -0.000 C 
BRANCH   5   6
ATOM      6  C   UNL     1      88.082 325.779 196.784  1.00  0.00    -0.000 C 
BRANCH   6   7
ATOM      7  C   UNL     1      88.881 326.124 195.512  1.00  0.00    -0.000 C 
BRANCH   7   8
ATOM      8  C   UNL     1      88.048 326.705 194.353  1.00  0.00    -0.000 C 
BRANCH   8   9
ATOM      9  C   UNL     1      87.241 325.634 193.599  1.00  0.00    -0.000 C 
BRANCH   9  10
ATOM     10  C   UNL     1      88.131 324.713 192.748  1.00  0.00    -0.000 C 
BRANCH  10  11
ATOM     11  C   UNL     1      87.338 323.969 191.663  1.00  0.00    -0.003 C 
ATOM     12  C   UNL     1      88.272 323.368 190.617  1.00  0.00     0.004 C 
ENDBRANCH  10  11
ENDBRANCH   9  10
ENDBRANCH   8   9
ENDBRANCH   7   8
ENDBRANCH   6   7
ENDBRANCH   5   6
ENDBRANCH   4   5
ENDBRANCH   3   4
ENDBRANCH   2   3
ENDBRANCH   1   2
BRANCH   1  13
ATOM     13  C   UNL     1      89.236 327.265 203.814  1.00  0.00     0.000 C 
BRANCH  13  14
ATOM     14  C   UNL     1      89.979 327.082 205.150  1.00  0.00     0.000 C 
BRANCH  14  15
ATOM     15  C   UNL     1      89.027 326.852 206.334  1.00  0.00     0.000 C 
BRANCH  15  16
ATOM     16  C   UNL     1      89.344 325.533 207.048  1.00  0.00     0.000 C 
BRANCH  16  17
ATOM     17  C   UNL     1      88.249 324.489 206.781  1.00  0.00     0.000 C 
BRANCH  17  18
ATOM     18  C   UNL     1      86.941 325.113 206.266  1.00  0.00     0.000 C 
BRANCH  18  19
ATOM     19  C   UNL     1      86.175 324.264 205.231  1.00  0.00     0.000 C 
BRANCH  19  20
ATOM     20  C   UNL     1      87.060 323.505 204.226  1.00  0.00     0.006 C 
BRANCH  20  21
ATOM     21  C   UNL     1      86.470 323.483 202.809  1.00  0.00     0.053 C 
BRANCH  21  22
ATOM     22  C   UNL     1      87.258 322.565 201.929  1.00  0.00     0.041 C 
ATOM     23  O   UNL     1      87.609 322.936 200.777  1.00  0.00    -0.550 OA
ATOM     24  O   UNL     1      87.575 321.285 202.369  1.00  0.00    -0.550 OA
ENDBRANCH  21  22
ENDBRANCH  20  21
ENDBRANCH  19  20
ENDBRANCH  18  19
ENDBRANCH  17  18
ENDBRANCH  16  17
ENDBRANCH  15  16
ENDBRANCH  14  15
ENDBRANCH  13  14
ENDBRANCH   1  13
TORSDOF 20
ENDMDL
MODEL 3
REMARK VINA RESULT:    -5.945      2.063      4.030
REMARK INTER + INTRA:         -14.777
REMARK INTER:                 -13.464
REMARK INTRA:                  -1.313
REMARK UNBOUND:                -1.882
REMARK SMILES CCCCCCCCCCCCCCCCCCCCCC(=O)[O-]
REMARK SMILES IDX 12 1 11 2 10 3 9 4 8 5 7 6 6 7 5 8 4 9 3 10 2 11 1 12 13 13
REMARK SMILES IDX 14 14 15 15 16 16 17 17 18 18 19 19 20 20 21 21 22 22 23 23
REMARK SMILES IDX 24 24
REMARK H PARENT
REMARK Flexibility Score: inf
ROOT
ATOM      1  C   UNL     1      89.103 326.358 199.234  1.00  0.00     0.000 C 
ENDROOT
BRANCH   1   2
ATOM      2  C   UNL     1      88.932 325.436 198.013  1.00  0.00     0.000 C 
BRANCH   2   3
ATOM      3  C   UNL     1      88.134 326.096 196.875  1.00  0.00     0.000 C 
BRANCH   3   4
ATOM      4  C   UNL     1      88.987 326.373 195.625  1.00  0.00    -0.000 C 
BRANCH   4   5
ATOM      5  C   UNL     1      88.200 326.699 194.343  1.00  0.00    -0.000 C 
BRANCH   5   6
ATOM      6  C   UNL     1      86.763 326.150 194.364  1.00  0.00    -0.000 C 
BRANCH   6   7
ATOM      7  C   UNL     1      86.528 325.039 193.324  1.00  0.00    -0.000 C 
BRANCH   7   8
ATOM      8  C   UNL     1      87.767 324.645 192.496  1.00  0.00    -0.000 C 
BRANCH   8   9
ATOM      9  C   UNL     1      88.213 323.192 192.738  1.00  0.00    -0.000 C 
BRANCH   9  10
ATOM     10  C   UNL     1      88.484 322.432 191.429  1.00  0.00    -0.000 C 
BRANCH  10  11
ATOM     11  C   UNL     1      87.915 323.156 190.200  1.00  0.00    -0.003 C 
ATOM     12  C   UNL     1      89.010 323.442 189.176  1.00  0.00     0.004 C 
ENDBRANCH  10  11
ENDBRANCH   9  10
ENDBRANCH   8   9
ENDBRANCH   7   8
ENDBRANCH   6   7
ENDBRANCH   5   6
ENDBRANCH   4   5
ENDBRANCH   3   4
ENDBRANCH   2   3
ENDBRANCH   1   2
BRANCH   1  13
ATOM     13  C   UNL     1      89.234 325.638 200.593  1.00  0.00     0.000 C 
BRANCH  13  14
ATOM     14  C   UNL     1      88.619 326.383 201.792  1.00  0.00     0.000 C 
BRANCH  14  15
ATOM     15  C   UNL     1      89.676 326.876 202.792  1.00  0.00     0.000 C 
BRANCH  15  16
ATOM     16  C   UNL     1      89.575 326.116 204.120  1.00  0.00     0.000 C 
BRANCH  16  17
ATOM     17  C   UNL     1      89.337 327.085 205.288  1.00  0.00     0.000 C 
BRANCH  17  18
ATOM     18  C   UNL     1      88.779 326.387 206.540  1.00  0.00     0.000 C 
BRANCH  18  19
ATOM     19  C   UNL     1      87.347 325.832 206.395  1.00  0.00     0.000 C 
BRANCH  19  20
ATOM     20  C   UNL     1      87.259 324.320 206.119  1.00  0.00     0.006 C 
BRANCH  20  21
ATOM     21  C   UNL     1      86.187 323.965 205.080  1.00  0.00     0.053 C 
BRANCH  21  22
ATOM     22  C   UNL     1      86.824 323.583 203.781  1.00  0.00     0.041 C 
ATOM     23  O   UNL     1      87.971 323.060 203.766  1.00  0.00    -0.550 OA
ATOM     24  O   UNL     1      86.166 323.840 202.584  1.00  0.00    -0.550 OA
ENDBRANCH  21  22
ENDBRANCH  20  21
ENDBRANCH  19  20
ENDBRANCH  18  19
ENDBRANCH  17  18
ENDBRANCH  16  17
ENDBRANCH  15  16
ENDBRANCH  14  15
ENDBRANCH  13  14
ENDBRANCH   1  13
TORSDOF 20
ENDMDL
MODEL 4
REMARK VINA RESULT:    -5.925      4.618     10.414
REMARK INTER + INTRA:         -14.735
REMARK INTER:                 -12.931
REMARK INTRA:                  -1.804
REMARK UNBOUND:                -1.882
REMARK SMILES CCCCCCCCCCCCCCCCCCCCCC(=O)[O-]
REMARK SMILES IDX 12 1 11 2 10 3 9 4 8 5 7 6 6 7 5 8 4 9 3 10 2 11 1 12 13 13
REMARK SMILES IDX 14 14 15 15 16 16 17 17 18 18 19 19 20 20 21 21 22 22 23 23
REMARK SMILES IDX 24 24
REMARK H PARENT
REMARK Flexibility Score: inf
ROOT
ATOM      1  C   UNL     1      88.654 326.124 200.787  1.00  0.00     0.000 C 
ENDROOT
BRANCH   1   2
ATOM      2  C   UNL     1      89.682 326.473 201.880  1.00  0.00     0.000 C 
BRANCH   2   3
ATOM      3  C   UNL     1      89.135 326.259 203.302  1.00  0.00     0.000 C 
BRANCH   3   4
ATOM      4  C   UNL     1      89.228 327.522 204.177  1.00  0.00    -0.000 C 
BRANCH   4   5
ATOM      5  C   UNL     1      89.718 327.295 205.618  1.00  0.00    -0.000 C 
BRANCH   5   6
ATOM      6  C   UNL     1      89.416 325.880 206.141  1.00  0.00    -0.000 C 
BRANCH   6   7
ATOM      7  C   UNL     1      88.183 325.830 207.063  1.00  0.00    -0.000 C 
BRANCH   7   8
ATOM      8  C   UNL     1      86.876 325.376 206.385  1.00  0.00    -0.000 C 
BRANCH   8   9
ATOM      9  C   UNL     1      86.984 323.978 205.751  1.00  0.00    -0.000 C 
BRANCH   9  10
ATOM     10  C   UNL     1      86.350 323.914 204.351  1.00  0.00    -0.000 C 
BRANCH  10  11
ATOM     11  C   UNL     1      87.170 323.057 203.375  1.00  0.00    -0.003 C 
ATOM     12  C   UNL     1      86.626 323.173 201.954  1.00  0.00     0.004 C 
ENDBRANCH  10  11
ENDBRANCH   9  10
ENDBRANCH   8   9
ENDBRANCH   7   8
ENDBRANCH   6   7
ENDBRANCH   5   6
ENDBRANCH   4   5
ENDBRANCH   3   4
ENDBRANCH   2   3
ENDBRANCH   1   2
BRANCH   1  13
ATOM     13  C   UNL     1      89.244 325.535 199.488  1.00  0.00     0.000 C 
BRANCH  13  14
ATOM     14  C   UNL     1      88.630 326.078 198.185  1.00  0.00     0.000 C 
BRANCH  14  15
ATOM     15  C   UNL     1      88.281 324.966 197.183  1.00  0.00     0.000 C 
BRANCH  15  16
ATOM     16  C   UNL     1      89.059 325.141 195.873  1.00  0.00     0.000 C 
BRANCH  16  17
ATOM     17  C   UNL     1      88.806 326.529 195.267  1.00  0.00     0.000 C 
BRANCH  17  18
ATOM     18  C   UNL     1      88.205 326.465 193.853  1.00  0.00     0.000 C 
BRANCH  18  19
ATOM     19  C   UNL     1      86.786 325.867 193.771  1.00  0.00     0.000 C 
BRANCH  19  20
ATOM     20  C   UNL     1      86.664 324.587 192.924  1.00  0.00     0.006 C 
BRANCH  20  21
ATOM     21  C   UNL     1      87.872 324.365 192.003  1.00  0.00     0.053 C 
BRANCH  21  22
ATOM     22  C   UNL     1      87.610 323.231 191.063  1.00  0.00     0.041 C 
ATOM     23  O   UNL     1      87.939 323.323 189.850  1.00  0.00    -0.550 OA
ATOM     24  O   UNL     1      86.967 322.086 191.520  1.00  0.00    -0.550 OA
ENDBRANCH  21  22
ENDBRANCH  20  21
ENDBRANCH  19  20
ENDBRANCH  18  19
ENDBRANCH  17  18
ENDBRANCH  16  17
ENDBRANCH  15  16
ENDBRANCH  14  15
ENDBRANCH  13  14
ENDBRANCH   1  13
TORSDOF 20
ENDMDL
MODEL 5
REMARK VINA RESULT:    -5.867      2.029      3.813
REMARK INTER + INTRA:         -14.608
REMARK INTER:                 -12.592
REMARK INTRA:                  -2.016
REMARK UNBOUND:                -1.882
REMARK SMILES CCCCCCCCCCCCCCCCCCCCCC(=O)[O-]
REMARK SMILES IDX 12 1 11 2 10 3 9 4 8 5 7 6 6 7 5 8 4 9 3 10 2 11 1 12 13 13
REMARK SMILES IDX 14 14 15 15 16 16 17 17 18 18 19 19 20 20 21 21 22 22 23 23
REMARK SMILES IDX 24 24
REMARK H PARENT
REMARK Flexibility Score: inf
ROOT
ATOM      1  C   UNL     1      89.399 324.952 199.925  1.00  0.00     0.000 C 
ENDROOT
BRANCH   1   2
ATOM      2  C   UNL     1      89.224 325.024 198.396  1.00  0.00     0.000 C 
BRANCH   2   3
ATOM      3  C   UNL     1      88.542 326.325 197.936  1.00  0.00     0.000 C 
BRANCH   3   4
ATOM      4  C   UNL     1      87.909 326.209 196.538  1.00  0.00    -0.000 C 
BRANCH   4   5
ATOM      5  C   UNL     1      88.879 326.378 195.355  1.00  0.00    -0.000 C 
BRANCH   5   6
ATOM      6  C   UNL     1      88.159 326.617 194.017  1.00  0.00    -0.000 C 
BRANCH   6   7
ATOM      7  C   UNL     1      86.730 326.042 193.991  1.00  0.00    -0.000 C 
BRANCH   7   8
ATOM      8  C   UNL     1      86.515 324.865 193.019  1.00  0.00    -0.000 C 
BRANCH   8   9
ATOM      9  C   UNL     1      87.834 324.300 192.462  1.00  0.00    -0.000 C 
BRANCH   9  10
ATOM     10  C   UNL     1      88.104 322.861 192.931  1.00  0.00    -0.000 C 
BRANCH  10  11
ATOM     11  C   UNL     1      88.841 322.811 194.277  1.00  0.00    -0.003 C 
ATOM     12  C   UNL     1      87.857 322.699 195.438  1.00  0.00     0.004 C 
ENDBRANCH  10  11
ENDBRANCH   9  10
ENDBRANCH   8   9
ENDBRANCH   7   8
ENDBRANCH   6   7
ENDBRANCH   5   6
ENDBRANCH   4   5
ENDBRANCH   3   4
ENDBRANCH   2   3
ENDBRANCH   1   2
BRANCH   1  13
ATOM     13  C   UNL     1      89.661 326.303 200.624  1.00  0.00     0.000 C 
BRANCH  13  14
ATOM     14  C   UNL     1      88.890 326.521 201.939  1.00  0.00     0.000 C 
BRANCH  14  15
ATOM     15  C   UNL     1      89.817 326.700 203.151  1.00  0.00     0.000 C 
BRANCH  15  16
ATOM     16  C   UNL     1      89.024 327.112 204.396  1.00  0.00     0.000 C 
BRANCH  16  17
ATOM     17  C   UNL     1      89.624 326.482 205.661  1.00  0.00     0.000 C 
BRANCH  17  18
ATOM     18  C   UNL     1      88.667 326.526 206.864  1.00  0.00     0.000 C 
BRANCH  18  19
ATOM     19  C   UNL     1      87.339 325.765 206.672  1.00  0.00     0.000 C 
BRANCH  19  20
ATOM     20  C   UNL     1      87.483 324.317 206.170  1.00  0.00     0.006 C 
BRANCH  20  21
ATOM     21  C   UNL     1      86.596 324.016 204.954  1.00  0.00     0.053 C 
BRANCH  21  22
ATOM     22  C   UNL     1      87.326 323.149 203.977  1.00  0.00     0.041 C 
ATOM     23  O   UNL     1      88.503 323.437 203.628  1.00  0.00    -0.550 OA
ATOM     24  O   UNL     1      86.693 322.042 203.424  1.00  0.00    -0.550 OA
ENDBRANCH  21  22
ENDBRANCH  20  21
ENDBRANCH  19  20
ENDBRANCH  18  19
ENDBRANCH  17  18
ENDBRANCH  16  17
ENDBRANCH  15  16
ENDBRANCH  14  15
ENDBRANCH  13  14
ENDBRANCH   1  13
TORSDOF 20
ENDMDL
MODEL 6
REMARK VINA RESULT:    -5.828      1.950      3.821
REMARK INTER + INTRA:         -14.523
REMARK INTER:                 -12.564
REMARK INTRA:                  -1.959
REMARK UNBOUND:                -1.882
REMARK SMILES CCCCCCCCCCCCCCCCCCCCCC(=O)[O-]
REMARK SMILES IDX 12 1 11 2 10 3 9 4 8 5 7 6 6 7 5 8 4 9 3 10 2 11 1 12 13 13
REMARK SMILES IDX 14 14 15 15 16 16 17 17 18 18 19 19 20 20 21 21 22 22 23 23
REMARK SMILES IDX 24 24
REMARK H PARENT
REMARK Flexibility Score: inf
ROOT
ATOM      1  C   UNL     1      89.161 325.352 200.107  1.00  0.00     0.000 C 
ENDROOT
BRANCH   1   2
ATOM      2  C   UNL     1      88.875 326.152 198.822  1.00  0.00     0.000 C 
BRANCH   2   3
ATOM      3  C   UNL     1      88.556 325.249 197.618  1.00  0.00     0.000 C 
BRANCH   3   4
ATOM      4  C   UNL     1      87.930 326.017 196.440  1.00  0.00    -0.000 C 
BRANCH   4   5
ATOM      5  C   UNL     1      88.909 326.447 195.333  1.00  0.00    -0.000 C 
BRANCH   5   6
ATOM      6  C   UNL     1      88.208 326.780 194.005  1.00  0.00    -0.000 C 
BRANCH   6   7
ATOM      7  C   UNL     1      86.754 326.273 193.950  1.00  0.00    -0.000 C 
BRANCH   7   8
ATOM      8  C   UNL     1      86.553 324.940 193.204  1.00  0.00    -0.000 C 
BRANCH   8   9
ATOM      9  C   UNL     1      87.830 324.449 192.499  1.00  0.00    -0.000 C 
BRANCH   9  10
ATOM     10  C   UNL     1      88.251 323.041 192.953  1.00  0.00    -0.000 C 
BRANCH  10  11
ATOM     11  C   UNL     1      87.994 322.805 194.448  1.00  0.00    -0.003 C 
ATOM     12  C   UNL     1      89.303 322.587 195.202  1.00  0.00     0.004 C 
ENDBRANCH  10  11
ENDBRANCH   9  10
ENDBRANCH   8   9
ENDBRANCH   7   8
ENDBRANCH   6   7
ENDBRANCH   5   6
ENDBRANCH   4   5
ENDBRANCH   3   4
ENDBRANCH   2   3
ENDBRANCH   1   2
BRANCH   1  13
ATOM     13  C   UNL     1      88.511 325.911 201.391  1.00  0.00     0.000 C 
BRANCH  13  14
ATOM     14  C   UNL     1      89.447 326.735 202.293  1.00  0.00     0.000 C 
BRANCH  14  15
ATOM     15  C   UNL     1      90.924 326.615 201.888  1.00  0.00     0.000 C 
BRANCH  15  16
ATOM     16  C   UNL     1      91.841 327.199 202.968  1.00  0.00     0.000 C 
BRANCH  16  17
ATOM     17  C   UNL     1      91.041 327.565 204.227  1.00  0.00     0.000 C 
BRANCH  17  18
ATOM     18  C   UNL     1      91.357 326.653 205.423  1.00  0.00     0.000 C 
BRANCH  18  19
ATOM     19  C   UNL     1      90.337 326.711 206.578  1.00  0.00     0.000 C 
BRANCH  19  20
ATOM     20  C   UNL     1      88.865 326.835 206.143  1.00  0.00     0.006 C 
BRANCH  20  21
ATOM     21  C   UNL     1      87.936 325.874 206.899  1.00  0.00     0.053 C 
BRANCH  21  22
ATOM     22  C   UNL     1      87.590 324.700 206.040  1.00  0.00     0.041 C 
ATOM     23  O   UNL     1      88.491 323.908 205.652  1.00  0.00    -0.550 OA
ATOM     24  O   UNL     1      86.275 324.499 205.637  1.00  0.00    -0.550 OA
ENDBRANCH  21  22
ENDBRANCH  20  21
ENDBRANCH  19  20
ENDBRANCH  18  19
ENDBRANCH  17  18
ENDBRANCH  16  17
ENDBRANCH  15  16
ENDBRANCH  14  15
ENDBRANCH  13  14
ENDBRANCH   1  13
TORSDOF 20
ENDMDL
MODEL 7
REMARK VINA RESULT:    -5.802      4.935     11.400
REMARK INTER + INTRA:         -14.468
REMARK INTER:                 -13.161
REMARK INTRA:                  -1.307
REMARK UNBOUND:                -1.882
REMARK SMILES CCCCCCCCCCCCCCCCCCCCCC(=O)[O-]
REMARK SMILES IDX 12 1 11 2 10 3 9 4 8 5 7 6 6 7 5 8 4 9 3 10 2 11 1 12 13 13
REMARK SMILES IDX 14 14 15 15 16 16 17 17 18 18 19 19 20 20 21 21 22 22 23 23
REMARK SMILES IDX 24 24
REMARK H PARENT
REMARK Flexibility Score: inf
ROOT
ATOM      1  C   UNL     1      88.902 326.816 198.676  1.00  0.00     0.000 C 
ENDROOT
BRANCH   1   2
ATOM      2  C   UNL     1      89.574 326.393 199.997  1.00  0.00     0.000 C 
BRANCH   2   3
ATOM      3  C   UNL     1      88.570 325.850 201.028  1.00  0.00     0.000 C 
BRANCH   3   4
ATOM      4  C   UNL     1      88.891 326.288 202.468  1.00  0.00    -0.000 C 
BRANCH   4   5
ATOM      5  C   UNL     1      90.279 326.922 202.674  1.00  0.00    -0.000 C 
BRANCH   5   6
ATOM      6  C   UNL     1      90.511 327.407 204.115  1.00  0.00    -0.000 C 
BRANCH   6   7
ATOM      7  C   UNL     1      89.264 327.257 205.008  1.00  0.00    -0.000 C 
BRANCH   7   8
ATOM      8  C   UNL     1      89.541 326.770 206.443  1.00  0.00    -0.000 C 
BRANCH   8   9
ATOM      9  C   UNL     1      88.711 325.532 206.827  1.00  0.00    -0.000 C 
BRANCH   9  10
ATOM     10  C   UNL     1      87.242 325.647 206.389  1.00  0.00    -0.000 C 
BRANCH  10  11
ATOM     11  C   UNL     1      86.661 324.305 205.921  1.00  0.00    -0.003 C 
ATOM     12  C   UNL     1      87.147 323.957 204.517  1.00  0.00     0.004 C 
ENDBRANCH  10  11
ENDBRANCH   9  10
ENDBRANCH   8   9
ENDBRANCH   7   8
ENDBRANCH   6   7
ENDBRANCH   5   6
ENDBRANCH   4   5
ENDBRANCH   3   4
ENDBRANCH   2   3
ENDBRANCH   1   2
BRANCH   1  13
ATOM     13  C   UNL     1      88.545 325.661 197.717  1.00  0.00     0.000 C 
BRANCH  13  14
ATOM     14  C   UNL     1      87.870 326.088 196.401  1.00  0.00     0.000 C 
BRANCH  14  15
ATOM     15  C   UNL     1      88.880 326.374 195.279  1.00  0.00     0.000 C 
BRANCH  15  16
ATOM     16  C   UNL     1      88.169 326.578 193.936  1.00  0.00     0.000 C 
BRANCH  16  17
ATOM     17  C   UNL     1      87.301 325.360 193.586  1.00  0.00     0.000 C 
BRANCH  17  18
ATOM     18  C   UNL     1      88.094 324.240 192.891  1.00  0.00     0.000 C 
BRANCH  18  19
ATOM     19  C   UNL     1      88.160 324.342 191.353  1.00  0.00     0.000 C 
BRANCH  19  20
ATOM     20  C   UNL     1      87.810 323.048 190.598  1.00  0.00     0.006 C 
BRANCH  20  21
ATOM     21  C   UNL     1      88.777 321.896 190.905  1.00  0.00     0.053 C 
BRANCH  21  22
ATOM     22  C   UNL     1      89.793 321.762 189.815  1.00  0.00     0.041 C 
ATOM     23  O   UNL     1      90.757 320.960 189.940  1.00  0.00    -0.550 OA
ATOM     24  O   UNL     1      89.695 322.552 188.675  1.00  0.00    -0.550 OA
ENDBRANCH  21  22
ENDBRANCH  20  21
ENDBRANCH  19  20
ENDBRANCH  18  19
ENDBRANCH  17  18
ENDBRANCH  16  17
ENDBRANCH  15  16
ENDBRANCH  14  15
ENDBRANCH  13  14
ENDBRANCH   1  13
TORSDOF 20
ENDMDL
MODEL 8
REMARK VINA RESULT:    -5.777      5.246     11.515
REMARK INTER + INTRA:         -14.413
REMARK INTER:                 -12.808
REMARK INTRA:                  -1.605
REMARK UNBOUND:                -1.882
REMARK SMILES CCCCCCCCCCCCCCCCCCCCCC(=O)[O-]
REMARK SMILES IDX 12 1 11 2 10 3 9 4 8 5 7 6 6 7 5 8 4 9 3 10 2 11 1 12 13 13
REMARK SMILES IDX 14 14 15 15 16 16 17 17 18 18 19 19 20 20 21 21 22 22 23 23
REMARK SMILES IDX 24 24
REMARK H PARENT
REMARK Flexibility Score: inf
ROOT
ATOM      1  C   UNL     1      89.247 324.669 197.101  1.00  0.00     0.000 C 
ENDROOT
BRANCH   1   2
ATOM      2  C   UNL     1      88.890 324.385 198.572  1.00  0.00     0.000 C 
BRANCH   2   3
ATOM      3  C   UNL     1      89.876 325.034 199.560  1.00  0.00     0.000 C 
BRANCH   3   4
ATOM      4  C   UNL     1      89.338 326.337 200.176  1.00  0.00    -0.000 C 
BRANCH   4   5
ATOM      5  C   UNL     1      88.430 326.163 201.407  1.00  0.00    -0.000 C 
BRANCH   5   6
ATOM      6  C   UNL     1      89.209 325.801 202.683  1.00  0.00    -0.000 C 
BRANCH   6   7
ATOM      7  C   UNL     1      90.417 326.725 202.932  1.00  0.00    -0.000 C 
BRANCH   7   8
ATOM      8  C   UNL     1      90.462 327.384 204.324  1.00  0.00    -0.000 C 
BRANCH   8   9
ATOM      9  C   UNL     1      89.132 327.263 205.088  1.00  0.00    -0.000 C 
BRANCH   9  10
ATOM     10  C   UNL     1      89.314 326.703 206.508  1.00  0.00    -0.000 C 
BRANCH  10  11
ATOM     11  C   UNL     1      88.022 326.090 207.067  1.00  0.00    -0.003 C 
ATOM     12  C   UNL     1      87.369 325.161 206.048  1.00  0.00     0.004 C 
ENDBRANCH  10  11
ENDBRANCH   9  10
ENDBRANCH   8   9
ENDBRANCH   7   8
ENDBRANCH   6   7
ENDBRANCH   5   6
ENDBRANCH   4   5
ENDBRANCH   3   4
ENDBRANCH   2   3
ENDBRANCH   1   2
BRANCH   1  13
ATOM     13  C   UNL     1      88.764 326.030 196.556  1.00  0.00     0.000 C 
BRANCH  13  14
ATOM     14  C   UNL     1      87.241 326.161 196.377  1.00  0.00     0.000 C 
BRANCH  14  15
ATOM     15  C   UNL     1      86.831 326.396 194.915  1.00  0.00     0.000 C 
BRANCH  15  16
ATOM     16  C   UNL     1      88.063 326.551 194.015  1.00  0.00     0.000 C 
BRANCH  16  17
ATOM     17  C   UNL     1      88.053 325.508 192.889  1.00  0.00     0.000 C 
BRANCH  17  18
ATOM     18  C   UNL     1      88.252 324.071 193.401  1.00  0.00     0.000 C 
BRANCH  18  19
ATOM     19  C   UNL     1      88.242 322.980 192.311  1.00  0.00     0.000 C 
BRANCH  19  20
ATOM     20  C   UNL     1      87.465 323.343 191.032  1.00  0.00     0.006 C 
BRANCH  20  21
ATOM     21  C   UNL     1      88.115 322.781 189.760  1.00  0.00     0.053 C 
BRANCH  21  22
ATOM     22  C   UNL     1      87.283 321.674 189.194  1.00  0.00     0.041 C 
ATOM     23  O   UNL     1      87.382 321.365 187.976  1.00  0.00    -0.550 OA
ATOM     24  O   UNL     1      86.372 321.007 190.004  1.00  0.00    -0.550 OA
ENDBRANCH  21  22
ENDBRANCH  20  21
ENDBRANCH  19  20
ENDBRANCH  18  19
ENDBRANCH  17  18
ENDBRANCH  16  17
ENDBRANCH  15  16
ENDBRANCH  14  15
ENDBRANCH  13  14
ENDBRANCH   1  13
TORSDOF 20
ENDMDL
MODEL 9
REMARK VINA RESULT:    -5.704      3.869     10.094
REMARK INTER + INTRA:         -14.254
REMARK INTER:                 -12.189
REMARK INTRA:                  -2.065
REMARK UNBOUND:                -1.882
REMARK SMILES CCCCCCCCCCCCCCCCCCCCCC(=O)[O-]
REMARK SMILES IDX 12 1 11 2 10 3 9 4 8 5 7 6 6 7 5 8 4 9 3 10 2 11 1 12 13 13
REMARK SMILES IDX 14 14 15 15 16 16 17 17 18 18 19 19 20 20 21 21 22 22 23 23
REMARK SMILES IDX 24 24
REMARK H PARENT
REMARK Flexibility Score: inf
ROOT
ATOM      1  C   UNL     1      89.372 324.781 199.716  1.00  0.00     0.000 C 
ENDROOT
BRANCH   1   2
ATOM      2  C   UNL     1      88.485 324.060 200.748  1.00  0.00     0.000 C 
BRANCH   2   3
ATOM      3  C   UNL     1      88.094 324.963 201.931  1.00  0.00     0.000 C 
BRANCH   3   4
ATOM      4  C   UNL     1      88.062 324.213 203.275  1.00  0.00    -0.000 C 
BRANCH   4   5
ATOM      5  C   UNL     1      86.661 323.872 203.811  1.00  0.00    -0.000 C 
BRANCH   5   6
ATOM      6  C   UNL     1      86.531 324.075 205.330  1.00  0.00    -0.000 C 
BRANCH   6   7
ATOM      7  C   UNL     1      87.852 324.509 205.993  1.00  0.00    -0.000 C 
BRANCH   7   8
ATOM      8  C   UNL     1      87.848 325.929 206.593  1.00  0.00    -0.000 C 
BRANCH   8   9
ATOM      9  C   UNL     1      89.133 326.716 206.279  1.00  0.00    -0.000 C 
BRANCH   9  10
ATOM     10  C   UNL     1      89.187 327.201 204.821  1.00  0.00    -0.000 C 
BRANCH  10  11
ATOM     11  C   UNL     1      90.617 327.529 204.365  1.00  0.00    -0.003 C 
ATOM     12  C   UNL     1      90.855 327.065 202.931  1.00  0.00     0.004 C 
ENDBRANCH  10  11
ENDBRANCH   9  10
ENDBRANCH   8   9
ENDBRANCH   7   8
ENDBRANCH   6   7
ENDBRANCH   5   6
ENDBRANCH   4   5
ENDBRANCH   3   4
ENDBRANCH   2   3
ENDBRANCH   1   2
BRANCH   1  13
ATOM     13  C   UNL     1      89.219 326.317 199.672  1.00  0.00     0.000 C 
BRANCH  13  14
ATOM     14  C   UNL     1      88.936 326.907 198.278  1.00  0.00     0.000 C 
BRANCH  14  15
ATOM     15  C   UNL     1      87.846 326.138 197.517  1.00  0.00     0.000 C 
BRANCH  15  16
ATOM     16  C   UNL     1      88.422 325.452 196.272  1.00  0.00     0.000 C 
BRANCH  16  17
ATOM     17  C   UNL     1      88.972 326.488 195.281  1.00  0.00     0.000 C 
BRANCH  17  18
ATOM     18  C   UNL     1      88.165 326.553 193.974  1.00  0.00     0.000 C 
BRANCH  18  19
ATOM     19  C   UNL     1      86.806 325.824 194.007  1.00  0.00     0.000 C 
BRANCH  19  20
ATOM     20  C   UNL     1      86.579 324.816 192.866  1.00  0.00     0.006 C 
BRANCH  20  21
ATOM     21  C   UNL     1      87.889 324.261 192.290  1.00  0.00     0.053 C 
BRANCH  21  22
ATOM     22  C   UNL     1      88.187 322.916 192.873  1.00  0.00     0.041 C 
ATOM     23  O   UNL     1      87.699 321.876 192.354  1.00  0.00    -0.550 OA
ATOM     24  O   UNL     1      88.977 322.814 194.013  1.00  0.00    -0.550 OA
ENDBRANCH  21  22
ENDBRANCH  20  21
ENDBRANCH  19  20
ENDBRANCH  18  19
ENDBRANCH  17  18
ENDBRANCH  16  17
ENDBRANCH  15  16
ENDBRANCH  14  15
ENDBRANCH  13  14
ENDBRANCH   1  13
TORSDOF 20
ENDMDL
