MODEL 1
REMARK VINA RESULT:    -4.125      0.000      0.000
REMARK INTER + INTRA:         -14.176
REMARK INTER:                 -10.396
REMARK INTRA:                  -3.780
REMARK UNBOUND:                -3.780
REMARK SMILES CCCCCCCCCCCCCCCCCCCCCCCCCCCC(=O)[O-]
REMARK SMILES IDX 15 1 16 2 17 3 18 4 19 5 20 6 21 7 22 8 23 9 24 10 25 11
REMARK SMILES IDX 26 12 27 13 28 14 29 15 30 16 14 17 13 18 12 19 11 20 10 21
REMARK SMILES IDX 9 22 8 23 7 24 6 25 5 26 4 27 3 28 2 29 1 30
REMARK H PARENT
REMARK Flexibility Score: inf
ROOT
ATOM      1  C   UNL     1      10.990 -25.886 -31.718  1.00  0.00     0.000 C 
ENDROOT
BRANCH   1   2
ATOM      2  C   UNL     1       9.902 -24.868 -31.343  1.00  0.00     0.000 C 
BRANCH   2   3
ATOM      3  C   UNL     1      10.475 -23.485 -30.992  1.00  0.00     0.000 C 
BRANCH   3   4
ATOM      4  C   UNL     1      12.006 -23.417 -31.146  1.00  0.00     0.000 C 
BRANCH   4   5
ATOM      5  C   UNL     1      12.516 -21.988 -31.407  1.00  0.00     0.000 C 
BRANCH   5   6
ATOM      6  C   UNL     1      11.885 -21.283 -32.621  1.00  0.00     0.000 C 
BRANCH   6   7
ATOM      7  C   UNL     1      11.151 -19.986 -32.240  1.00  0.00     0.000 C 
BRANCH   7   8
ATOM      8  C   UNL     1      11.101 -19.751 -30.719  1.00  0.00     0.000 C 
BRANCH   8   9
ATOM      9  C   UNL     1      10.032 -18.749 -30.239  1.00  0.00     0.000 C 
BRANCH   9  10
ATOM     10  C   UNL     1       9.718 -17.610 -31.225  1.00  0.00     0.000 C 
BRANCH  10  11
ATOM     11  C   UNL     1       9.075 -16.391 -30.540  1.00  0.00     0.000 C 
BRANCH  11  12
ATOM     12  C   UNL     1       9.800 -15.993 -29.245  1.00  0.00     0.006 C 
BRANCH  12  13
ATOM     13  C   UNL     1       8.830 -15.721 -28.087  1.00  0.00     0.053 C 
BRANCH  13  14
ATOM     14  C   UNL     1       9.153 -16.598 -26.918  1.00  0.00     0.041 C 
ATOM     15  O   UNL     1       8.797 -17.806 -26.915  1.00  0.00    -0.550 OA
ATOM     16  O   UNL     1       9.888 -16.094 -25.854  1.00  0.00    -0.550 OA
ENDBRANCH  13  14
ENDBRANCH  12  13
ENDBRANCH  11  12
ENDBRANCH  10  11
ENDBRANCH   9  10
ENDBRANCH   8   9
ENDBRANCH   7   8
ENDBRANCH   6   7
ENDBRANCH   5   6
ENDBRANCH   4   5
ENDBRANCH   3   4
ENDBRANCH   2   3
ENDBRANCH   1   2
BRANCH   1  17
ATOM     17  C   UNL     1      10.744 -27.238 -31.031  1.00  0.00     0.000 C 
BRANCH  17  18
ATOM     18  C   UNL     1       9.499 -27.228 -30.131  1.00  0.00     0.000 C 
BRANCH  18  19
ATOM     19  C   UNL     1       9.239 -28.586 -29.462  1.00  0.00     0.000 C 
BRANCH  19  20
ATOM     20  C   UNL     1       8.593 -28.404 -28.083  1.00  0.00     0.000 C 
BRANCH  20  21
ATOM     21  C   UNL     1       8.601 -26.927 -27.662  1.00  0.00     0.000 C 
BRANCH  21  22
ATOM     22  C   UNL     1       9.240 -26.700 -26.281  1.00  0.00    -0.000 C 
BRANCH  22  23
ATOM     23  C   UNL     1      10.345 -25.623 -26.278  1.00  0.00    -0.000 C 
BRANCH  23  24
ATOM     24  C   UNL     1      10.731 -25.184 -27.702  1.00  0.00    -0.000 C 
BRANCH  24  25
ATOM     25  C   UNL     1      12.231 -25.360 -27.986  1.00  0.00    -0.000 C 
BRANCH  25  26
ATOM     26  C   UNL     1      12.904 -26.350 -27.020  1.00  0.00    -0.000 C 
BRANCH  26  27
ATOM     27  C   UNL     1      12.884 -27.797 -27.557  1.00  0.00    -0.000 C 
BRANCH  27  28
ATOM     28  C   UNL     1      13.357 -28.843 -26.533  1.00  0.00    -0.000 C 
BRANCH  28  29
ATOM     29  C   UNL     1      12.210 -29.684 -25.962  1.00  0.00    -0.003 C 
ATOM     30  C   UNL     1      11.396 -30.337 -27.076  1.00  0.00     0.004 C 
ENDBRANCH  28  29
ENDBRANCH  27  28
ENDBRANCH  26  27
ENDBRANCH  25  26
ENDBRANCH  24  25
ENDBRANCH  23  24
ENDBRANCH  22  23
ENDBRANCH  21  22
ENDBRANCH  20  21
ENDBRANCH  19  20
ENDBRANCH  18  19
ENDBRANCH  17  18
ENDBRANCH   1  17
TORSDOF 26
ENDMDL
MODEL 2
REMARK VINA RESULT:    -4.083      3.962      9.299
REMARK INTER + INTRA:         -14.068
REMARK INTER:                  -9.585
REMARK INTRA:                  -4.483
REMARK UNBOUND:                -3.780
REMARK SMILES CCCCCCCCCCCCCCCCCCCCCCCCCCCC(=O)[O-]
REMARK SMILES IDX 15 1 16 2 17 3 18 4 19 5 20 6 21 7 22 8 23 9 24 10 25 11
REMARK SMILES IDX 26 12 27 13 28 14 29 15 30 16 14 17 13 18 12 19 11 20 10 21
REMARK SMILES IDX 9 22 8 23 7 24 6 25 5 26 4 27 3 28 2 29 1 30
REMARK H PARENT
REMARK Flexibility Score: inf
ROOT
ATOM      1  C   UNL     1       9.377 -26.244 -25.848  1.00  0.00     0.000 C 
ENDROOT
BRANCH   1   2
ATOM      2  C   UNL     1      10.430 -25.567 -26.738  1.00  0.00     0.000 C 
BRANCH   2   3
ATOM      3  C   UNL     1      11.864 -26.014 -26.411  1.00  0.00     0.000 C 
BRANCH   3   4
ATOM      4  C   UNL     1      12.628 -26.519 -27.649  1.00  0.00     0.000 C 
BRANCH   4   5
ATOM      5  C   UNL     1      12.833 -28.045 -27.641  1.00  0.00     0.000 C 
BRANCH   5   6
ATOM      6  C   UNL     1      11.664 -28.856 -27.051  1.00  0.00     0.000 C 
BRANCH   6   7
ATOM      7  C   UNL     1      12.096 -29.756 -25.881  1.00  0.00     0.000 C 
BRANCH   7   8
ATOM      8  C   UNL     1      12.040 -29.037 -24.520  1.00  0.00     0.000 C 
BRANCH   8   9
ATOM      9  C   UNL     1      13.389 -28.909 -23.784  1.00  0.00     0.000 C 
BRANCH   9  10
ATOM     10  C   UNL     1      14.620 -29.346 -24.598  1.00  0.00     0.000 C 
BRANCH  10  11
ATOM     11  C   UNL     1      15.457 -28.155 -25.097  1.00  0.00     0.000 C 
BRANCH  11  12
ATOM     12  C   UNL     1      16.173 -28.454 -26.424  1.00  0.00     0.006 C 
BRANCH  12  13
ATOM     13  C   UNL     1      16.444 -27.187 -27.245  1.00  0.00     0.053 C 
BRANCH  13  14
ATOM     14  C   UNL     1      17.886 -27.119 -27.640  1.00  0.00     0.041 C 
ATOM     15  O   UNL     1      18.250 -26.367 -28.582  1.00  0.00    -0.550 OA
ATOM     16  O   UNL     1      18.834 -27.849 -26.936  1.00  0.00    -0.550 OA
ENDBRANCH  13  14
ENDBRANCH  12  13
ENDBRANCH  11  12
ENDBRANCH  10  11
ENDBRANCH   9  10
ENDBRANCH   8   9
ENDBRANCH   7   8
ENDBRANCH   6   7
ENDBRANCH   5   6
ENDBRANCH   4   5
ENDBRANCH   3   4
ENDBRANCH   2   3
ENDBRANCH   1   2
BRANCH   1  17
ATOM     17  C   UNL     1       8.378 -27.053 -26.689  1.00  0.00     0.000 C 
BRANCH  17  18
ATOM     18  C   UNL     1       8.681 -26.988 -28.195  1.00  0.00     0.000 C 
BRANCH  18  19
ATOM     19  C   UNL     1       8.418 -28.321 -28.912  1.00  0.00     0.000 C 
BRANCH  19  20
ATOM     20  C   UNL     1       9.373 -28.503 -30.098  1.00  0.00     0.000 C 
BRANCH  20  21
ATOM     21  C   UNL     1      10.390 -27.355 -30.168  1.00  0.00     0.000 C 
BRANCH  21  22
ATOM     22  C   UNL     1      10.609 -26.834 -31.599  1.00  0.00    -0.000 C 
BRANCH  22  23
ATOM     23  C   UNL     1      10.350 -25.321 -31.755  1.00  0.00    -0.000 C 
BRANCH  23  24
ATOM     24  C   UNL     1      10.289 -24.599 -30.397  1.00  0.00    -0.000 C 
BRANCH  24  25
ATOM     25  C   UNL     1      11.365 -23.511 -30.258  1.00  0.00    -0.000 C 
BRANCH  25  26
ATOM     26  C   UNL     1      12.272 -23.415 -31.497  1.00  0.00    -0.000 C 
BRANCH  26  27
ATOM     27  C   UNL     1      12.187 -22.032 -32.178  1.00  0.00    -0.000 C 
BRANCH  27  28
ATOM     28  C   UNL     1      12.922 -20.920 -31.409  1.00  0.00    -0.000 C 
BRANCH  28  29
ATOM     29  C   UNL     1      12.079 -19.650 -31.241  1.00  0.00    -0.003 C 
ATOM     30  C   UNL     1      10.605 -19.988 -31.035  1.00  0.00     0.004 C 
ENDBRANCH  28  29
ENDBRANCH  27  28
ENDBRANCH  26  27
ENDBRANCH  25  26
ENDBRANCH  24  25
ENDBRANCH  23  24
ENDBRANCH  22  23
ENDBRANCH  21  22
ENDBRANCH  20  21
ENDBRANCH  19  20
ENDBRANCH  18  19
ENDBRANCH  17  18
ENDBRANCH   1  17
TORSDOF 26
ENDMDL
MODEL 3
REMARK VINA RESULT:    -4.057      5.361      8.406
REMARK INTER + INTRA:         -14.003
REMARK INTER:                  -9.419
REMARK INTRA:                  -4.584
REMARK UNBOUND:                -3.780
REMARK SMILES CCCCCCCCCCCCCCCCCCCCCCCCCCCC(=O)[O-]
REMARK SMILES IDX 15 1 16 2 17 3 18 4 19 5 20 6 21 7 22 8 23 9 24 10 25 11
REMARK SMILES IDX 26 12 27 13 28 14 29 15 30 16 14 17 13 18 12 19 11 20 10 21
REMARK SMILES IDX 9 22 8 23 7 24 6 25 5 26 4 27 3 28 2 29 1 30
REMARK H PARENT
REMARK Flexibility Score: inf
ROOT
ATOM      1  C   UNL     1       8.237 -27.346 -26.833  1.00  0.00     0.000 C 
ENDROOT
BRANCH   1   2
ATOM      2  C   UNL     1       9.406 -26.501 -26.307  1.00  0.00     0.000 C 
BRANCH   2   3
ATOM      3  C   UNL     1       9.116 -25.869 -24.936  1.00  0.00     0.000 C 
BRANCH   3   4
ATOM      4  C   UNL     1      10.227 -24.907 -24.476  1.00  0.00     0.000 C 
BRANCH   4   5
ATOM      5  C   UNL     1      11.365 -24.774 -25.504  1.00  0.00     0.000 C 
BRANCH   5   6
ATOM      6  C   UNL     1      12.742 -24.429 -24.909  1.00  0.00     0.000 C 
BRANCH   6   7
ATOM      7  C   UNL     1      12.856 -24.800 -23.421  1.00  0.00     0.000 C 
BRANCH   7   8
ATOM      8  C   UNL     1      13.959 -25.838 -23.145  1.00  0.00     0.000 C 
BRANCH   8   9
ATOM      9  C   UNL     1      13.822 -27.168 -23.914  1.00  0.00     0.000 C 
BRANCH   9  10
ATOM     10  C   UNL     1      15.119 -27.682 -24.564  1.00  0.00     0.000 C 
BRANCH  10  11
ATOM     11  C   UNL     1      16.079 -26.545 -24.955  1.00  0.00     0.000 C 
BRANCH  11  12
ATOM     12  C   UNL     1      16.147 -26.329 -26.475  1.00  0.00     0.006 C 
BRANCH  12  13
ATOM     13  C   UNL     1      16.919 -27.442 -27.195  1.00  0.00     0.053 C 
BRANCH  13  14
ATOM     14  C   UNL     1      18.165 -26.895 -27.816  1.00  0.00     0.041 C 
ATOM     15  O   UNL     1      18.097 -26.181 -28.851  1.00  0.00    -0.550 OA
ATOM     16  O   UNL     1      19.398 -27.135 -27.225  1.00  0.00    -0.550 OA
ENDBRANCH  13  14
ENDBRANCH  12  13
ENDBRANCH  11  12
ENDBRANCH  10  11
ENDBRANCH   9  10
ENDBRANCH   8   9
ENDBRANCH   7   8
ENDBRANCH   6   7
ENDBRANCH   5   6
ENDBRANCH   4   5
ENDBRANCH   3   4
ENDBRANCH   2   3
ENDBRANCH   1   2
BRANCH   1  17
ATOM     17  C   UNL     1       8.098 -27.213 -28.358  1.00  0.00     0.000 C 
BRANCH  17  18
ATOM     18  C   UNL     1       7.979 -28.573 -29.064  1.00  0.00     0.000 C 
BRANCH  18  19
ATOM     19  C   UNL     1       9.343 -29.227 -29.326  1.00  0.00     0.000 C 
BRANCH  19  20
ATOM     20  C   UNL     1       9.580 -30.403 -28.371  1.00  0.00     0.000 C 
BRANCH  20  21
ATOM     21  C   UNL     1      11.035 -30.429 -27.880  1.00  0.00     0.000 C 
BRANCH  21  22
ATOM     22  C   UNL     1      11.395 -29.215 -27.006  1.00  0.00    -0.000 C 
BRANCH  22  23
ATOM     23  C   UNL     1      12.857 -28.749 -27.162  1.00  0.00    -0.000 C 
BRANCH  23  24
ATOM     24  C   UNL     1      12.953 -27.283 -27.621  1.00  0.00    -0.000 C 
BRANCH  24  25
ATOM     25  C   UNL     1      11.767 -26.862 -28.502  1.00  0.00    -0.000 C 
BRANCH  25  26
ATOM     26  C   UNL     1      11.885 -25.411 -28.999  1.00  0.00    -0.000 C 
BRANCH  26  27
ATOM     27  C   UNL     1      10.507 -24.777 -29.286  1.00  0.00    -0.000 C 
BRANCH  27  28
ATOM     28  C   UNL     1       9.969 -25.082 -30.695  1.00  0.00    -0.000 C 
BRANCH  28  29
ATOM     29  C   UNL     1      11.073 -25.470 -31.686  1.00  0.00    -0.003 C 
ATOM     30  C   UNL     1      10.953 -26.933 -32.101  1.00  0.00     0.004 C 
ENDBRANCH  28  29
ENDBRANCH  27  28
ENDBRANCH  26  27
ENDBRANCH  25  26
ENDBRANCH  24  25
ENDBRANCH  23  24
ENDBRANCH  22  23
ENDBRANCH  21  22
ENDBRANCH  20  21
ENDBRANCH  19  20
ENDBRANCH  18  19
ENDBRANCH  17  18
ENDBRANCH   1  17
TORSDOF 26
ENDMDL
MODEL 4
REMARK VINA RESULT:    -4.042      4.936      8.752
REMARK INTER + INTRA:         -13.965
REMARK INTER:                  -9.206
REMARK INTRA:                  -4.759
REMARK UNBOUND:                -3.780
REMARK SMILES CCCCCCCCCCCCCCCCCCCCCCCCCCCC(=O)[O-]
REMARK SMILES IDX 15 1 16 2 17 3 18 4 19 5 20 6 21 7 22 8 23 9 24 10 25 11
REMARK SMILES IDX 26 12 27 13 28 14 29 15 30 16 14 17 13 18 12 19 11 20 10 21
REMARK SMILES IDX 9 22 8 23 7 24 6 25 5 26 4 27 3 28 2 29 1 30
REMARK H PARENT
REMARK Flexibility Score: inf
ROOT
ATOM      1  C   UNL     1      10.367 -25.486 -26.618  1.00  0.00     0.000 C 
ENDROOT
BRANCH   1   2
ATOM      2  C   UNL     1       9.556 -26.066 -25.449  1.00  0.00     0.000 C 
BRANCH   2   3
ATOM      3  C   UNL     1       9.462 -25.105 -24.254  1.00  0.00     0.000 C 
BRANCH   3   4
ATOM      4  C   UNL     1      10.337 -25.543 -23.065  1.00  0.00     0.000 C 
BRANCH   4   5
ATOM      5  C   UNL     1      11.665 -24.768 -22.984  1.00  0.00     0.000 C 
BRANCH   5   6
ATOM      6  C   UNL     1      12.673 -25.311 -21.955  1.00  0.00     0.000 C 
BRANCH   6   7
ATOM      7  C   UNL     1      13.990 -25.774 -22.600  1.00  0.00     0.000 C 
BRANCH   7   8
ATOM      8  C   UNL     1      13.806 -26.983 -23.536  1.00  0.00     0.000 C 
BRANCH   8   9
ATOM      9  C   UNL     1      14.940 -27.209 -24.556  1.00  0.00     0.000 C 
BRANCH   9  10
ATOM     10  C   UNL     1      15.390 -25.950 -25.319  1.00  0.00     0.000 C 
BRANCH  10  11
ATOM     11  C   UNL     1      16.266 -26.277 -26.541  1.00  0.00     0.000 C 
BRANCH  11  12
ATOM     12  C   UNL     1      17.475 -25.336 -26.667  1.00  0.00     0.006 C 
BRANCH  12  13
ATOM     13  C   UNL     1      17.684 -24.834 -28.101  1.00  0.00     0.053 C 
BRANCH  13  14
ATOM     14  C   UNL     1      18.464 -25.834 -28.896  1.00  0.00     0.041 C 
ATOM     15  O   UNL     1      18.437 -25.804 -30.154  1.00  0.00    -0.550 OA
ATOM     16  O   UNL     1      19.259 -26.769 -28.246  1.00  0.00    -0.550 OA
ENDBRANCH  13  14
ENDBRANCH  12  13
ENDBRANCH  11  12
ENDBRANCH  10  11
ENDBRANCH   9  10
ENDBRANCH   8   9
ENDBRANCH   7   8
ENDBRANCH   6   7
ENDBRANCH   5   6
ENDBRANCH   4   5
ENDBRANCH   3   4
ENDBRANCH   2   3
ENDBRANCH   1   2
BRANCH   1  17
ATOM     17  C   UNL     1      11.864 -25.798 -26.464  1.00  0.00     0.000 C 
BRANCH  17  18
ATOM     18  C   UNL     1      12.515 -26.244 -27.782  1.00  0.00     0.000 C 
BRANCH  18  19
ATOM     19  C   UNL     1      12.833 -27.747 -27.808  1.00  0.00     0.000 C 
BRANCH  19  20
ATOM     20  C   UNL     1      12.284 -28.446 -26.559  1.00  0.00     0.000 C 
BRANCH  20  21
ATOM     21  C   UNL     1      11.249 -29.515 -26.937  1.00  0.00     0.000 C 
BRANCH  21  22
ATOM     22  C   UNL     1      10.658 -29.309 -28.343  1.00  0.00    -0.000 C 
BRANCH  22  23
ATOM     23  C   UNL     1       9.258 -28.662 -28.338  1.00  0.00    -0.000 C 
BRANCH  23  24
ATOM     24  C   UNL     1       9.133 -27.541 -29.385  1.00  0.00    -0.000 C 
BRANCH  24  25
ATOM     25  C   UNL     1      10.265 -27.576 -30.424  1.00  0.00    -0.000 C 
BRANCH  25  26
ATOM     26  C   UNL     1      10.476 -26.217 -31.115  1.00  0.00    -0.000 C 
BRANCH  26  27
ATOM     27  C   UNL     1       9.995 -25.038 -30.243  1.00  0.00    -0.000 C 
BRANCH  27  28
ATOM     28  C   UNL     1      10.540 -23.672 -30.697  1.00  0.00    -0.000 C 
BRANCH  28  29
ATOM     29  C   UNL     1      12.019 -23.721 -31.097  1.00  0.00    -0.003 C 
ATOM     30  C   UNL     1      12.905 -23.114 -30.013  1.00  0.00     0.004 C 
ENDBRANCH  28  29
ENDBRANCH  27  28
ENDBRANCH  26  27
ENDBRANCH  25  26
ENDBRANCH  24  25
ENDBRANCH  23  24
ENDBRANCH  22  23
ENDBRANCH  21  22
ENDBRANCH  20  21
ENDBRANCH  19  20
ENDBRANCH  18  19
ENDBRANCH  17  18
ENDBRANCH   1  17
TORSDOF 26
ENDMDL
MODEL 5
REMARK VINA RESULT:    -4.041      3.878      8.276
REMARK INTER + INTRA:         -13.963
REMARK INTER:                  -9.659
REMARK INTRA:                  -4.304
REMARK UNBOUND:                -3.780
REMARK SMILES CCCCCCCCCCCCCCCCCCCCCCCCCCCC(=O)[O-]
REMARK SMILES IDX 15 1 16 2 17 3 18 4 19 5 20 6 21 7 22 8 23 9 24 10 25 11
REMARK SMILES IDX 26 12 27 13 28 14 29 15 30 16 14 17 13 18 12 19 11 20 10 21
REMARK SMILES IDX 9 22 8 23 7 24 6 25 5 26 4 27 3 28 2 29 1 30
REMARK H PARENT
REMARK Flexibility Score: inf
ROOT
ATOM      1  C   UNL     1      11.002 -25.762 -26.654  1.00  0.00     0.000 C 
ENDROOT
BRANCH   1   2
ATOM      2  C   UNL     1      10.941 -25.033 -25.303  1.00  0.00     0.000 C 
BRANCH   2   3
ATOM      3  C   UNL     1      10.172 -25.823 -24.233  1.00  0.00     0.000 C 
BRANCH   3   4
ATOM      4  C   UNL     1      11.011 -26.954 -23.609  1.00  0.00     0.000 C 
BRANCH   4   5
ATOM      5  C   UNL     1      12.262 -26.434 -22.877  1.00  0.00     0.000 C 
BRANCH   5   6
ATOM      6  C   UNL     1      12.010 -25.908 -21.452  1.00  0.00     0.000 C 
BRANCH   6   7
ATOM      7  C   UNL     1      12.149 -27.004 -20.381  1.00  0.00     0.000 C 
BRANCH   7   8
ATOM      8  C   UNL     1      10.841 -27.255 -19.609  1.00  0.00     0.000 C 
BRANCH   8   9
ATOM      9  C   UNL     1       9.568 -26.671 -20.256  1.00  0.00     0.000 C 
BRANCH   9  10
ATOM     10  C   UNL     1       8.747 -25.736 -19.351  1.00  0.00     0.000 C 
BRANCH  10  11
ATOM     11  C   UNL     1       9.070 -24.249 -19.582  1.00  0.00     0.000 C 
BRANCH  11  12
ATOM     12  C   UNL     1       9.152 -23.890 -21.075  1.00  0.00     0.006 C 
BRANCH  12  13
ATOM     13  C   UNL     1       9.957 -22.609 -21.329  1.00  0.00     0.053 C 
BRANCH  13  14
ATOM     14  C   UNL     1      10.122 -22.379 -22.798  1.00  0.00     0.041 C 
ATOM     15  O   UNL     1       9.115 -22.356 -23.554  1.00  0.00    -0.550 OA
ATOM     16  O   UNL     1      11.384 -22.143 -23.326  1.00  0.00    -0.550 OA
ENDBRANCH  13  14
ENDBRANCH  12  13
ENDBRANCH  11  12
ENDBRANCH  10  11
ENDBRANCH   9  10
ENDBRANCH   8   9
ENDBRANCH   7   8
ENDBRANCH   6   7
ENDBRANCH   5   6
ENDBRANCH   4   5
ENDBRANCH   3   4
ENDBRANCH   2   3
ENDBRANCH   1   2
BRANCH   1  17
ATOM     17  C   UNL     1      12.441 -26.179 -26.995  1.00  0.00     0.000 C 
BRANCH  17  18
ATOM     18  C   UNL     1      12.523 -27.595 -27.588  1.00  0.00     0.000 C 
BRANCH  18  19
ATOM     19  C   UNL     1      11.498 -28.558 -26.970  1.00  0.00     0.000 C 
BRANCH  19  20
ATOM     20  C   UNL     1      11.076 -29.631 -27.981  1.00  0.00     0.000 C 
BRANCH  20  21
ATOM     21  C   UNL     1       9.547 -29.697 -28.107  1.00  0.00     0.000 C 
BRANCH  21  22
ATOM     22  C   UNL     1       9.016 -28.963 -29.351  1.00  0.00    -0.000 C 
BRANCH  22  23
ATOM     23  C   UNL     1       8.688 -27.476 -29.101  1.00  0.00    -0.000 C 
BRANCH  23  24
ATOM     24  C   UNL     1       9.665 -26.536 -29.829  1.00  0.00    -0.000 C 
BRANCH  24  25
ATOM     25  C   UNL     1      10.638 -27.292 -30.747  1.00  0.00    -0.000 C 
BRANCH  25  26
ATOM     26  C   UNL     1      10.973 -26.508 -32.028  1.00  0.00    -0.000 C 
BRANCH  26  27
ATOM     27  C   UNL     1      10.208 -25.170 -32.110  1.00  0.00    -0.000 C 
BRANCH  27  28
ATOM     28  C   UNL     1      11.126 -23.935 -32.121  1.00  0.00    -0.000 C 
BRANCH  28  29
ATOM     29  C   UNL     1      11.176 -23.214 -30.769  1.00  0.00    -0.003 C 
ATOM     30  C   UNL     1      12.279 -23.782 -29.881  1.00  0.00     0.004 C 
ENDBRANCH  28  29
ENDBRANCH  27  28
ENDBRANCH  26  27
ENDBRANCH  25  26
ENDBRANCH  24  25
ENDBRANCH  23  24
ENDBRANCH  22  23
ENDBRANCH  21  22
ENDBRANCH  20  21
ENDBRANCH  19  20
ENDBRANCH  18  19
ENDBRANCH  17  18
ENDBRANCH   1  17
TORSDOF 26
ENDMDL
MODEL 6
REMARK VINA RESULT:    -4.032      4.852      9.432
REMARK INTER + INTRA:         -13.940
REMARK INTER:                 -10.547
REMARK INTRA:                  -3.393
REMARK UNBOUND:                -3.780
REMARK SMILES CCCCCCCCCCCCCCCCCCCCCCCCCCCC(=O)[O-]
REMARK SMILES IDX 15 1 16 2 17 3 18 4 19 5 20 6 21 7 22 8 23 9 24 10 25 11
REMARK SMILES IDX 26 12 27 13 28 14 29 15 30 16 14 17 13 18 12 19 11 20 10 21
REMARK SMILES IDX 9 22 8 23 7 24 6 25 5 26 4 27 3 28 2 29 1 30
REMARK H PARENT
REMARK Flexibility Score: inf
ROOT
ATOM      1  C   UNL     1       8.815 -28.297 -27.990  1.00  0.00     0.000 C 
ENDROOT
BRANCH   1   2
ATOM      2  C   UNL     1       8.648 -27.003 -27.179  1.00  0.00     0.000 C 
BRANCH   2   3
ATOM      3  C   UNL     1       9.850 -26.712 -26.266  1.00  0.00     0.000 C 
BRANCH   3   4
ATOM      4  C   UNL     1      10.764 -25.603 -26.819  1.00  0.00     0.000 C 
BRANCH   4   5
ATOM      5  C   UNL     1      12.183 -26.105 -27.140  1.00  0.00     0.000 C 
BRANCH   5   6
ATOM      6  C   UNL     1      12.379 -27.627 -27.016  1.00  0.00     0.000 C 
BRANCH   6   7
ATOM      7  C   UNL     1      13.861 -28.034 -26.964  1.00  0.00     0.000 C 
BRANCH   7   8
ATOM      8  C   UNL     1      14.810 -26.826 -26.849  1.00  0.00     0.000 C 
BRANCH   8   9
ATOM      9  C   UNL     1      16.305 -27.171 -26.701  1.00  0.00     0.000 C 
BRANCH   9  10
ATOM     10  C   UNL     1      17.204 -26.000 -26.268  1.00  0.00     0.000 C 
BRANCH  10  11
ATOM     11  C   UNL     1      17.805 -25.237 -27.461  1.00  0.00     0.000 C 
BRANCH  11  12
ATOM     12  C   UNL     1      19.266 -24.826 -27.223  1.00  0.00     0.006 C 
BRANCH  12  13
ATOM     13  C   UNL     1      20.108 -24.872 -28.504  1.00  0.00     0.053 C 
BRANCH  13  14
ATOM     14  C   UNL     1      20.511 -26.280 -28.814  1.00  0.00     0.041 C 
ATOM     15  O   UNL     1      20.461 -26.708 -29.997  1.00  0.00    -0.550 OA
ATOM     16  O   UNL     1      20.987 -27.104 -27.803  1.00  0.00    -0.550 OA
ENDBRANCH  13  14
ENDBRANCH  12  13
ENDBRANCH  11  12
ENDBRANCH  10  11
ENDBRANCH   9  10
ENDBRANCH   8   9
ENDBRANCH   7   8
ENDBRANCH   6   7
ENDBRANCH   5   6
ENDBRANCH   4   5
ENDBRANCH   3   4
ENDBRANCH   2   3
ENDBRANCH   1   2
BRANCH   1  17
ATOM     17  C   UNL     1       8.914 -28.000 -29.494  1.00  0.00     0.000 C 
BRANCH  17  18
ATOM     18  C   UNL     1      10.352 -27.702 -29.947  1.00  0.00     0.000 C 
BRANCH  18  19
ATOM     19  C   UNL     1      10.449 -26.448 -30.828  1.00  0.00     0.000 C 
BRANCH  19  20
ATOM     20  C   UNL     1       9.606 -25.305 -30.250  1.00  0.00     0.000 C 
BRANCH  20  21
ATOM     21  C   UNL     1      10.110 -23.942 -30.749  1.00  0.00     0.000 C 
BRANCH  21  22
ATOM     22  C   UNL     1      11.540 -23.624 -30.281  1.00  0.00    -0.000 C 
BRANCH  22  23
ATOM     23  C   UNL     1      12.498 -23.239 -31.429  1.00  0.00    -0.000 C 
BRANCH  23  24
ATOM     24  C   UNL     1      11.978 -23.708 -32.800  1.00  0.00    -0.000 C 
BRANCH  24  25
ATOM     25  C   UNL     1      12.587 -22.914 -33.965  1.00  0.00    -0.000 C 
BRANCH  25  26
ATOM     26  C   UNL     1      11.779 -21.650 -34.306  1.00  0.00    -0.000 C 
BRANCH  26  27
ATOM     27  C   UNL     1      12.617 -20.362 -34.154  1.00  0.00    -0.000 C 
BRANCH  27  28
ATOM     28  C   UNL     1      12.172 -19.471 -32.982  1.00  0.00    -0.000 C 
BRANCH  28  29
ATOM     29  C   UNL     1      10.834 -19.907 -32.372  1.00  0.00    -0.003 C 
ATOM     30  C   UNL     1      10.913 -19.963 -30.849  1.00  0.00     0.004 C 
ENDBRANCH  28  29
ENDBRANCH  27  28
ENDBRANCH  26  27
ENDBRANCH  25  26
ENDBRANCH  24  25
ENDBRANCH  23  24
ENDBRANCH  22  23
ENDBRANCH  21  22
ENDBRANCH  20  21
ENDBRANCH  19  20
ENDBRANCH  18  19
ENDBRANCH  17  18
ENDBRANCH   1  17
TORSDOF 26
ENDMDL
MODEL 7
REMARK VINA RESULT:    -4.029      4.930      9.295
REMARK INTER + INTRA:         -13.932
REMARK INTER:                 -10.508
REMARK INTRA:                  -3.424
REMARK UNBOUND:                -3.780
REMARK SMILES CCCCCCCCCCCCCCCCCCCCCCCCCCCC(=O)[O-]
REMARK SMILES IDX 15 1 16 2 17 3 18 4 19 5 20 6 21 7 22 8 23 9 24 10 25 11
REMARK SMILES IDX 26 12 27 13 28 14 29 15 30 16 14 17 13 18 12 19 11 20 10 21
REMARK SMILES IDX 9 22 8 23 7 24 6 25 5 26 4 27 3 28 2 29 1 30
REMARK H PARENT
REMARK Flexibility Score: inf
ROOT
ATOM      1  C   UNL     1       8.483 -27.000 -27.530  1.00  0.00     0.000 C 
ENDROOT
BRANCH   1   2
ATOM      2  C   UNL     1       9.453 -26.686 -26.381  1.00  0.00     0.000 C 
BRANCH   2   3
ATOM      3  C   UNL     1      10.471 -25.593 -26.742  1.00  0.00     0.000 C 
BRANCH   3   4
ATOM      4  C   UNL     1      11.928 -26.040 -26.522  1.00  0.00     0.000 C 
BRANCH   4   5
ATOM      5  C   UNL     1      12.047 -27.534 -26.172  1.00  0.00     0.000 C 
BRANCH   5   6
ATOM      6  C   UNL     1      13.363 -28.202 -26.611  1.00  0.00     0.000 C 
BRANCH   6   7
ATOM      7  C   UNL     1      14.472 -27.182 -26.924  1.00  0.00     0.000 C 
BRANCH   7   8
ATOM      8  C   UNL     1      15.525 -27.080 -25.805  1.00  0.00     0.000 C 
BRANCH   8   9
ATOM      9  C   UNL     1      16.989 -27.249 -26.258  1.00  0.00     0.000 C 
BRANCH   9  10
ATOM     10  C   UNL     1      17.805 -25.946 -26.325  1.00  0.00     0.000 C 
BRANCH  10  11
ATOM     11  C   UNL     1      17.760 -25.286 -27.714  1.00  0.00     0.000 C 
BRANCH  11  12
ATOM     12  C   UNL     1      18.156 -26.255 -28.839  1.00  0.00     0.006 C 
BRANCH  12  13
ATOM     13  C   UNL     1      19.476 -25.863 -29.516  1.00  0.00     0.053 C 
BRANCH  13  14
ATOM     14  C   UNL     1      20.632 -26.512 -28.821  1.00  0.00     0.041 C 
ATOM     15  O   UNL     1      21.768 -25.969 -28.840  1.00  0.00    -0.550 OA
ATOM     16  O   UNL     1      20.443 -27.690 -28.112  1.00  0.00    -0.550 OA
ENDBRANCH  13  14
ENDBRANCH  12  13
ENDBRANCH  11  12
ENDBRANCH  10  11
ENDBRANCH   9  10
ENDBRANCH   8   9
ENDBRANCH   7   8
ENDBRANCH   6   7
ENDBRANCH   5   6
ENDBRANCH   4   5
ENDBRANCH   3   4
ENDBRANCH   2   3
ENDBRANCH   1   2
BRANCH   1  17
ATOM     17  C   UNL     1       8.730 -28.409 -28.094  1.00  0.00     0.000 C 
BRANCH  17  18
ATOM     18  C   UNL     1       9.336 -28.384 -29.506  1.00  0.00     0.000 C 
BRANCH  18  19
ATOM     19  C   UNL     1      10.863 -28.222 -29.495  1.00  0.00     0.000 C 
BRANCH  19  20
ATOM     20  C   UNL     1      11.277 -26.877 -30.103  1.00  0.00     0.000 C 
BRANCH  20  21
ATOM     21  C   UNL     1      10.945 -26.825 -31.601  1.00  0.00     0.000 C 
BRANCH  21  22
ATOM     22  C   UNL     1      10.578 -25.411 -32.086  1.00  0.00    -0.000 C 
BRANCH  22  23
ATOM     23  C   UNL     1       9.479 -24.732 -31.242  1.00  0.00    -0.000 C 
BRANCH  23  24
ATOM     24  C   UNL     1       9.969 -23.424 -30.596  1.00  0.00    -0.000 C 
BRANCH  24  25
ATOM     25  C   UNL     1      11.474 -23.191 -30.804  1.00  0.00    -0.000 C 
BRANCH  25  26
ATOM     26  C   UNL     1      11.819 -21.706 -31.007  1.00  0.00    -0.000 C 
BRANCH  26  27
ATOM     27  C   UNL     1      12.903 -21.500 -32.087  1.00  0.00    -0.000 C 
BRANCH  27  28
ATOM     28  C   UNL     1      12.336 -21.114 -33.464  1.00  0.00    -0.000 C 
BRANCH  28  29
ATOM     29  C   UNL     1      12.206 -22.310 -34.415  1.00  0.00    -0.003 C 
ATOM     30  C   UNL     1      13.367 -23.284 -34.238  1.00  0.00     0.004 C 
ENDBRANCH  28  29
ENDBRANCH  27  28
ENDBRANCH  26  27
ENDBRANCH  25  26
ENDBRANCH  24  25
ENDBRANCH  23  24
ENDBRANCH  22  23
ENDBRANCH  21  22
ENDBRANCH  20  21
ENDBRANCH  19  20
ENDBRANCH  18  19
ENDBRANCH  17  18
ENDBRANCH   1  17
TORSDOF 26
ENDMDL
MODEL 8
REMARK VINA RESULT:    -4.008      2.863      8.045
REMARK INTER + INTRA:         -13.879
REMARK INTER:                 -10.725
REMARK INTRA:                  -3.154
REMARK UNBOUND:                -3.780
REMARK SMILES CCCCCCCCCCCCCCCCCCCCCCCCCCCC(=O)[O-]
REMARK SMILES IDX 15 1 16 2 17 3 18 4 19 5 20 6 21 7 22 8 23 9 24 10 25 11
REMARK SMILES IDX 26 12 27 13 28 14 29 15 30 16 14 17 13 18 12 19 11 20 10 21
REMARK SMILES IDX 9 22 8 23 7 24 6 25 5 26 4 27 3 28 2 29 1 30
REMARK H PARENT
REMARK Flexibility Score: inf
ROOT
ATOM      1  C   UNL     1       8.306 -29.614 -29.871  1.00  0.00     0.000 C 
ENDROOT
BRANCH   1   2
ATOM      2  C   UNL     1       8.752 -30.860 -29.091  1.00  0.00     0.000 C 
BRANCH   2   3
ATOM      3  C   UNL     1       9.529 -30.516 -27.811  1.00  0.00     0.000 C 
BRANCH   3   4
ATOM      4  C   UNL     1      11.055 -30.573 -28.007  1.00  0.00     0.000 C 
BRANCH   4   5
ATOM      5  C   UNL     1      11.819 -29.687 -27.005  1.00  0.00     0.000 C 
BRANCH   5   6
ATOM      6  C   UNL     1      11.070 -28.419 -26.555  1.00  0.00     0.000 C 
BRANCH   6   7
ATOM      7  C   UNL     1      11.813 -27.126 -26.932  1.00  0.00     0.000 C 
BRANCH   7   8
ATOM      8  C   UNL     1      10.920 -25.875 -26.840  1.00  0.00     0.000 C 
BRANCH   8   9
ATOM      9  C   UNL     1       9.600 -26.060 -26.064  1.00  0.00     0.000 C 
BRANCH   9  10
ATOM     10  C   UNL     1       9.519 -25.304 -24.726  1.00  0.00     0.000 C 
BRANCH  10  11
ATOM     11  C   UNL     1      10.678 -24.312 -24.532  1.00  0.00     0.000 C 
BRANCH  11  12
ATOM     12  C   UNL     1      10.275 -23.094 -23.684  1.00  0.00     0.006 C 
BRANCH  12  13
ATOM     13  C   UNL     1       9.039 -23.364 -22.816  1.00  0.00     0.053 C 
BRANCH  13  14
ATOM     14  C   UNL     1       9.431 -23.504 -21.379  1.00  0.00     0.041 C 
ATOM     15  O   UNL     1       9.789 -24.623 -20.925  1.00  0.00    -0.550 OA
ATOM     16  O   UNL     1       9.446 -22.389 -20.552  1.00  0.00    -0.550 OA
ENDBRANCH  13  14
ENDBRANCH  12  13
ENDBRANCH  11  12
ENDBRANCH  10  11
ENDBRANCH   9  10
ENDBRANCH   8   9
ENDBRANCH   7   8
ENDBRANCH   6   7
ENDBRANCH   5   6
ENDBRANCH   4   5
ENDBRANCH   3   4
ENDBRANCH   2   3
ENDBRANCH   1   2
BRANCH   1  17
ATOM     17  C   UNL     1       8.273 -28.374 -28.964  1.00  0.00     0.000 C 
BRANCH  17  18
ATOM     18  C   UNL     1       9.082 -27.199 -29.536  1.00  0.00     0.000 C 
BRANCH  18  19
ATOM     19  C   UNL     1      10.382 -27.649 -30.220  1.00  0.00     0.000 C 
BRANCH  19  20
ATOM     20  C   UNL     1      10.825 -26.633 -31.279  1.00  0.00     0.000 C 
BRANCH  20  21
ATOM     21  C   UNL     1      10.115 -25.286 -31.081  1.00  0.00     0.000 C 
BRANCH  21  22
ATOM     22  C   UNL     1      10.990 -24.247 -30.358  1.00  0.00    -0.000 C 
BRANCH  22  23
ATOM     23  C   UNL     1      11.987 -23.522 -31.285  1.00  0.00    -0.000 C 
BRANCH  23  24
ATOM     24  C   UNL     1      11.488 -23.461 -32.740  1.00  0.00    -0.000 C 
BRANCH  24  25
ATOM     25  C   UNL     1      11.359 -22.020 -33.259  1.00  0.00    -0.000 C 
BRANCH  25  26
ATOM     26  C   UNL     1      11.851 -20.978 -32.239  1.00  0.00    -0.000 C 
BRANCH  26  27
ATOM     27  C   UNL     1      11.046 -19.663 -32.314  1.00  0.00    -0.000 C 
BRANCH  27  28
ATOM     28  C   UNL     1      11.250 -18.745 -31.096  1.00  0.00    -0.000 C 
BRANCH  28  29
ATOM     29  C   UNL     1       9.994 -18.615 -30.227  1.00  0.00    -0.003 C 
ATOM     30  C   UNL     1       9.807 -17.182 -29.737  1.00  0.00     0.004 C 
ENDBRANCH  28  29
ENDBRANCH  27  28
ENDBRANCH  26  27
ENDBRANCH  25  26
ENDBRANCH  24  25
ENDBRANCH  23  24
ENDBRANCH  22  23
ENDBRANCH  21  22
ENDBRANCH  20  21
ENDBRANCH  19  20
ENDBRANCH  18  19
ENDBRANCH  17  18
ENDBRANCH   1  17
TORSDOF 26
ENDMDL
MODEL 9
REMARK VINA RESULT:    -3.975      3.537      6.784
REMARK INTER + INTRA:         -13.798
REMARK INTER:                  -8.848
REMARK INTRA:                  -4.949
REMARK UNBOUND:                -3.780
REMARK SMILES CCCCCCCCCCCCCCCCCCCCCCCCCCCC(=O)[O-]
REMARK SMILES IDX 15 1 16 2 17 3 18 4 19 5 20 6 21 7 22 8 23 9 24 10 25 11
REMARK SMILES IDX 26 12 27 13 28 14 29 15 30 16 14 17 13 18 12 19 11 20 10 21
REMARK SMILES IDX 9 22 8 23 7 24 6 25 5 26 4 27 3 28 2 29 1 30
REMARK H PARENT
REMARK Flexibility Score: inf
ROOT
ATOM      1  C   UNL     1      12.227 -26.847 -27.534  1.00  0.00     0.000 C 
ENDROOT
BRANCH   1   2
ATOM      2  C   UNL     1      11.766 -28.179 -26.922  1.00  0.00     0.000 C 
BRANCH   2   3
ATOM      3  C   UNL     1      11.792 -29.339 -27.930  1.00  0.00     0.000 C 
BRANCH   3   4
ATOM      4  C   UNL     1      10.539 -30.230 -27.846  1.00  0.00     0.000 C 
BRANCH   4   5
ATOM      5  C   UNL     1       9.229 -29.430 -27.965  1.00  0.00     0.000 C 
BRANCH   5   6
ATOM      6  C   UNL     1       8.799 -29.098 -29.405  1.00  0.00     0.000 C 
BRANCH   6   7
ATOM      7  C   UNL     1       9.136 -27.652 -29.808  1.00  0.00     0.000 C 
BRANCH   7   8
ATOM      8  C   UNL     1      10.307 -27.565 -30.804  1.00  0.00     0.000 C 
BRANCH   8   9
ATOM      9  C   UNL     1      10.867 -26.149 -31.045  1.00  0.00     0.000 C 
BRANCH   9  10
ATOM     10  C   UNL     1       9.869 -25.003 -30.801  1.00  0.00     0.000 C 
BRANCH  10  11
ATOM     11  C   UNL     1      10.556 -23.634 -30.664  1.00  0.00     0.000 C 
BRANCH  11  12
ATOM     12  C   UNL     1      11.997 -23.748 -30.141  1.00  0.00     0.006 C 
BRANCH  12  13
ATOM     13  C   UNL     1      12.982 -22.879 -30.933  1.00  0.00     0.053 C 
BRANCH  13  14
ATOM     14  C   UNL     1      13.279 -21.615 -30.188  1.00  0.00     0.041 C 
ATOM     15  O   UNL     1      12.587 -20.582 -30.392  1.00  0.00    -0.550 OA
ATOM     16  O   UNL     1      14.287 -21.592 -29.235  1.00  0.00    -0.550 OA
ENDBRANCH  13  14
ENDBRANCH  12  13
ENDBRANCH  11  12
ENDBRANCH  10  11
ENDBRANCH   9  10
ENDBRANCH   8   9
ENDBRANCH   7   8
ENDBRANCH   6   7
ENDBRANCH   5   6
ENDBRANCH   4   5
ENDBRANCH   3   4
ENDBRANCH   2   3
ENDBRANCH   1   2
BRANCH   1  17
ATOM     17  C   UNL     1      11.400 -25.671 -26.991  1.00  0.00     0.000 C 
BRANCH  17  18
ATOM     18  C   UNL     1       9.886 -25.912 -27.101  1.00  0.00     0.000 C 
BRANCH  18  19
ATOM     19  C   UNL     1       9.244 -26.282 -25.755  1.00  0.00     0.000 C 
BRANCH  19  20
ATOM     20  C   UNL     1       9.707 -25.329 -24.646  1.00  0.00     0.000 C 
BRANCH  20  21
ATOM     21  C   UNL     1      10.114 -26.106 -23.386  1.00  0.00     0.000 C 
BRANCH  21  22
ATOM     22  C   UNL     1      11.569 -26.603 -23.431  1.00  0.00    -0.000 C 
BRANCH  22  23
ATOM     23  C   UNL     1      12.583 -25.614 -22.819  1.00  0.00    -0.000 C 
BRANCH  23  24
ATOM     24  C   UNL     1      13.397 -24.877 -23.898  1.00  0.00    -0.000 C 
BRANCH  24  25
ATOM     25  C   UNL     1      12.804 -23.504 -24.250  1.00  0.00    -0.000 C 
BRANCH  25  26
ATOM     26  C   UNL     1      12.618 -22.606 -23.014  1.00  0.00    -0.000 C 
BRANCH  26  27
ATOM     27  C   UNL     1      11.329 -21.760 -23.094  1.00  0.00    -0.000 C 
BRANCH  27  28
ATOM     28  C   UNL     1      10.093 -22.463 -22.508  1.00  0.00    -0.000 C 
BRANCH  28  29
ATOM     29  C   UNL     1      10.378 -23.161 -21.173  1.00  0.00    -0.003 C 
ATOM     30  C   UNL     1       9.135 -23.871 -20.645  1.00  0.00     0.004 C 
ENDBRANCH  28  29
ENDBRANCH  27  28
ENDBRANCH  26  27
ENDBRANCH  25  26
ENDBRANCH  24  25
ENDBRANCH  23  24
ENDBRANCH  22  23
ENDBRANCH  21  22
ENDBRANCH  20  21
ENDBRANCH  19  20
ENDBRANCH  18  19
ENDBRANCH  17  18
ENDBRANCH   1  17
TORSDOF 26
ENDMDL
