MODEL 1
REMARK VINA RESULT:    -3.212      0.000      0.000
REMARK INTER + INTRA:          -3.832
REMARK INTER:                  -3.775
REMARK INTRA:                  -0.057
REMARK UNBOUND:                -0.057
REMARK SMILES CCCCC(=O)[O-]
REMARK SMILES IDX 4 1 5 2 6 3 7 4 3 5 2 6 1 7
REMARK H PARENT
REMARK Flexibility Score: inf
ROOT
ATOM      1  C   UNL     1       2.164 -28.948  52.348  1.00  0.00     0.053 C 
ENDROOT
BRANCH   1   2
ATOM      2  C   UNL     1       3.137 -27.812  52.384  1.00  0.00     0.041 C 
ATOM      3  O   UNL     1       4.226 -27.891  51.756  1.00  0.00    -0.550 OA
ATOM      4  O   UNL     1       2.864 -26.687  53.150  1.00  0.00    -0.550 OA
ENDBRANCH   1   2
BRANCH   1   5
ATOM      5  C   UNL     1       2.728 -30.109  51.520  1.00  0.00     0.006 C 
BRANCH   5   6
ATOM      6  C   UNL     1       2.559 -31.467  52.217  1.00  0.00    -0.003 C 
ATOM      7  C   UNL     1       1.573 -31.415  53.384  1.00  0.00     0.004 C 
ENDBRANCH   5   6
ENDBRANCH   1   5
TORSDOF 3
ENDMDL
MODEL 2
REMARK VINA RESULT:    -3.190     12.100     13.036
REMARK INTER + INTRA:          -3.807
REMARK INTER:                  -3.789
REMARK INTRA:                  -0.018
REMARK UNBOUND:                -0.057
REMARK SMILES CCCCC(=O)[O-]
REMARK SMILES IDX 4 1 5 2 6 3 7 4 3 5 2 6 1 7
REMARK H PARENT
REMARK Flexibility Score: inf
ROOT
ATOM      1  C   UNL     1       2.669 -27.987  39.344  1.00  0.00     0.053 C 
ENDROOT
BRANCH   1   2
ATOM      2  C   UNL     1       1.924 -29.252  39.057  1.00  0.00     0.041 C 
ATOM      3  O   UNL     1       1.948 -30.203  39.883  1.00  0.00    -0.550 OA
ATOM      4  O   UNL     1       1.242 -29.400  37.856  1.00  0.00    -0.550 OA
ENDBRANCH   1   2
BRANCH   1   5
ATOM      5  C   UNL     1       2.156 -27.346  40.639  1.00  0.00     0.006 C 
BRANCH   5   6
ATOM      6  C   UNL     1       2.963 -26.102  41.041  1.00  0.00    -0.003 C 
ATOM      7  C   UNL     1       4.155 -26.435  41.938  1.00  0.00     0.004 C 
ENDBRANCH   5   6
ENDBRANCH   1   5
TORSDOF 3
ENDMDL
MODEL 3
REMARK VINA RESULT:    -3.051      8.125      9.017
REMARK INTER + INTRA:          -3.643
REMARK INTER:                  -3.592
REMARK INTRA:                  -0.052
REMARK UNBOUND:                -0.057
REMARK SMILES CCCCC(=O)[O-]
REMARK SMILES IDX 4 1 5 2 6 3 7 4 3 5 2 6 1 7
REMARK H PARENT
REMARK Flexibility Score: inf
ROOT
ATOM      1  C   UNL     1      10.939 -32.059  49.970  1.00  0.00     0.053 C 
ENDROOT
BRANCH   1   2
ATOM      2  C   UNL     1      10.481 -32.503  48.617  1.00  0.00     0.041 C 
ATOM      3  O   UNL     1      11.249 -32.399  47.623  1.00  0.00    -0.550 OA
ATOM      4  O   UNL     1       9.191 -32.984  48.443  1.00  0.00    -0.550 OA
ENDBRANCH   1   2
BRANCH   1   5
ATOM      5  C   UNL     1       9.737 -31.843  50.897  1.00  0.00     0.006 C 
BRANCH   5   6
ATOM      6  C   UNL     1       9.624 -30.391  51.388  1.00  0.00    -0.003 C 
ATOM      7  C   UNL     1      10.979 -29.781  51.745  1.00  0.00     0.004 C 
ENDBRANCH   5   6
ENDBRANCH   1   5
TORSDOF 3
ENDMDL
MODEL 4
REMARK VINA RESULT:    -2.975     15.056     15.660
REMARK INTER + INTRA:          -3.554
REMARK INTER:                  -3.481
REMARK INTRA:                  -0.072
REMARK UNBOUND:                -0.057
REMARK SMILES CCCCC(=O)[O-]
REMARK SMILES IDX 4 1 5 2 6 3 7 4 3 5 2 6 1 7
REMARK H PARENT
REMARK Flexibility Score: inf
ROOT
ATOM      1  C   UNL     1       9.609 -24.286  40.649  1.00  0.00     0.053 C 
ENDROOT
BRANCH   1   2
ATOM      2  C   UNL     1       9.887 -24.657  39.226  1.00  0.00     0.041 C 
ATOM      3  O   UNL     1       8.940 -24.760  38.401  1.00  0.00    -0.550 OA
ATOM      4  O   UNL     1      11.185 -24.937  38.822  1.00  0.00    -0.550 OA
ENDBRANCH   1   2
BRANCH   1   5
ATOM      5  C   UNL     1       9.597 -22.762  40.811  1.00  0.00     0.006 C 
BRANCH   5   6
ATOM      6  C   UNL     1      10.977 -22.198  41.182  1.00  0.00    -0.003 C 
ATOM      7  C   UNL     1      11.470 -22.687  42.544  1.00  0.00     0.004 C 
ENDBRANCH   5   6
ENDBRANCH   1   5
TORSDOF 3
ENDMDL
MODEL 5
REMARK VINA RESULT:    -2.915     17.610     18.726
REMARK INTER + INTRA:          -3.483
REMARK INTER:                  -3.464
REMARK INTRA:                  -0.019
REMARK UNBOUND:                -0.057
REMARK SMILES CCCCC(=O)[O-]
REMARK SMILES IDX 4 1 5 2 6 3 7 4 3 5 2 6 1 7
REMARK H PARENT
REMARK Flexibility Score: inf
ROOT
ATOM      1  C   UNL     1      13.637 -21.691  38.480  1.00  0.00     0.053 C 
ENDROOT
BRANCH   1   2
ATOM      2  C   UNL     1      13.867 -22.503  37.245  1.00  0.00     0.041 C 
ATOM      3  O   UNL     1      14.097 -21.932  36.145  1.00  0.00    -0.550 OA
ATOM      4  O   UNL     1      13.778 -23.888  37.296  1.00  0.00    -0.550 OA
ENDBRANCH   1   2
BRANCH   1   5
ATOM      5  C   UNL     1      12.647 -22.402  39.411  1.00  0.00     0.006 C 
BRANCH   5   6
ATOM      6  C   UNL     1      12.386 -21.616  40.705  1.00  0.00    -0.003 C 
ATOM      7  C   UNL     1      11.166 -22.127  41.472  1.00  0.00     0.004 C 
ENDBRANCH   5   6
ENDBRANCH   1   5
TORSDOF 3
ENDMDL
MODEL 6
REMARK VINA RESULT:    -2.900     11.436     12.188
REMARK INTER + INTRA:          -3.466
REMARK INTER:                  -3.450
REMARK INTRA:                  -0.016
REMARK UNBOUND:                -0.057
REMARK SMILES CCCCC(=O)[O-]
REMARK SMILES IDX 4 1 5 2 6 3 7 4 3 5 2 6 1 7
REMARK H PARENT
REMARK Flexibility Score: inf
ROOT
ATOM      1  C   UNL     1       3.136 -27.371  40.101  1.00  0.00     0.053 C 
ENDROOT
BRANCH   1   2
ATOM      2  C   UNL     1       3.378 -26.410  41.222  1.00  0.00     0.041 C 
ATOM      3  O   UNL     1       2.822 -25.280  41.218  1.00  0.00    -0.550 OA
ATOM      4  O   UNL     1       4.256 -26.742  42.245  1.00  0.00    -0.550 OA
ENDBRANCH   1   2
BRANCH   1   5
ATOM      5  C   UNL     1       1.920 -28.254  40.408  1.00  0.00     0.006 C 
BRANCH   5   6
ATOM      6  C   UNL     1       1.957 -29.592  39.653  1.00  0.00    -0.003 C 
ATOM      7  C   UNL     1       1.169 -29.554  38.343  1.00  0.00     0.004 C 
ENDBRANCH   5   6
ENDBRANCH   1   5
TORSDOF 3
ENDMDL
MODEL 7
REMARK VINA RESULT:    -2.872     14.841     15.498
REMARK INTER + INTRA:          -3.433
REMARK INTER:                  -3.402
REMARK INTRA:                  -0.030
REMARK UNBOUND:                -0.057
REMARK SMILES CCCCC(=O)[O-]
REMARK SMILES IDX 4 1 5 2 6 3 7 4 3 5 2 6 1 7
REMARK H PARENT
REMARK Flexibility Score: inf
ROOT
ATOM      1  C   UNL     1      11.840 -22.533  42.804  1.00  0.00     0.053 C 
ENDROOT
BRANCH   1   2
ATOM      2  C   UNL     1      13.075 -22.069  43.509  1.00  0.00     0.041 C 
ATOM      3  O   UNL     1      14.055 -21.633  42.847  1.00  0.00    -0.550 OA
ATOM      4  O   UNL     1      13.164 -22.161  44.891  1.00  0.00    -0.550 OA
ENDBRANCH   1   2
BRANCH   1   5
ATOM      5  C   UNL     1      11.676 -21.796  41.469  1.00  0.00     0.006 C 
BRANCH   5   6
ATOM      6  C   UNL     1      10.987 -22.659  40.401  1.00  0.00    -0.003 C 
ATOM      7  C   UNL     1       9.505 -22.891  40.694  1.00  0.00     0.004 C 
ENDBRANCH   5   6
ENDBRANCH   1   5
TORSDOF 3
ENDMDL
MODEL 8
REMARK VINA RESULT:    -2.787     21.328     22.441
REMARK INTER + INTRA:          -3.333
REMARK INTER:                  -3.250
REMARK INTRA:                  -0.083
REMARK UNBOUND:                -0.057
REMARK SMILES CCCCC(=O)[O-]
REMARK SMILES IDX 4 1 5 2 6 3 7 4 3 5 2 6 1 7
REMARK H PARENT
REMARK Flexibility Score: inf
ROOT
ATOM      1  C   UNL     1      13.883 -19.965  36.777  1.00  0.00     0.053 C 
ENDROOT
BRANCH   1   2
ATOM      2  C   UNL     1      14.530 -21.212  36.264  1.00  0.00     0.041 C 
ATOM      3  O   UNL     1      13.843 -22.254  36.087  1.00  0.00    -0.550 OA
ATOM      4  O   UNL     1      15.897 -21.241  36.027  1.00  0.00    -0.550 OA
ENDBRANCH   1   2
BRANCH   1   5
ATOM      5  C   UNL     1      14.623 -18.726  36.256  1.00  0.00     0.006 C 
BRANCH   5   6
ATOM      6  C   UNL     1      14.233 -18.371  34.813  1.00  0.00    -0.003 C 
ATOM      7  C   UNL     1      12.749 -18.037  34.666  1.00  0.00     0.004 C 
ENDBRANCH   5   6
ENDBRANCH   1   5
TORSDOF 3
ENDMDL
MODEL 9
REMARK VINA RESULT:    -2.785     12.914     13.674
REMARK INTER + INTRA:          -3.331
REMARK INTER:                  -3.289
REMARK INTRA:                  -0.041
REMARK UNBOUND:                -0.057
REMARK SMILES CCCCC(=O)[O-]
REMARK SMILES IDX 4 1 5 2 6 3 7 4 3 5 2 6 1 7
REMARK H PARENT
REMARK Flexibility Score: inf
ROOT
ATOM      1  C   UNL     1       2.160 -29.962  39.487  1.00  0.00     0.053 C 
ENDROOT
BRANCH   1   2
ATOM      2  C   UNL     1       1.160 -30.637  38.602  1.00  0.00     0.041 C 
ATOM      3  O   UNL     1       0.479 -29.960  37.785  1.00  0.00    -0.550 OA
ATOM      4  O   UNL     1       0.945 -32.004  38.711  1.00  0.00    -0.550 OA
ENDBRANCH   1   2
BRANCH   1   5
ATOM      5  C   UNL     1       2.138 -28.445  39.260  1.00  0.00     0.006 C 
BRANCH   5   6
ATOM      6  C   UNL     1       1.846 -27.660  40.548  1.00  0.00    -0.003 C 
ATOM      7  C   UNL     1       2.908 -26.602  40.849  1.00  0.00     0.004 C 
ENDBRANCH   5   6
ENDBRANCH   1   5
TORSDOF 3
ENDMDL
