MODEL 1
REMARK VINA RESULT:    -3.557      0.000      0.000
REMARK INTER + INTRA:          -5.342
REMARK INTER:                  -5.013
REMARK INTRA:                  -0.329
REMARK UNBOUND:                -0.329
REMARK SMILES CCCCCCCCC(=O)[O-]
REMARK SMILES IDX 6 1 7 2 8 3 9 4 10 5 11 6 5 7 4 8 3 9 2 10 1 11
REMARK H PARENT
REMARK Flexibility Score: inf
ROOT
ATOM      1  C   UNL     1     -33.353  -1.862   0.727  1.00  0.00     0.000 C 
ENDROOT
BRANCH   1   2
ATOM      2  C   UNL     1     -32.447  -2.739   1.608  1.00  0.00     0.006 C 
BRANCH   2   3
ATOM      3  C   UNL     1     -31.100  -2.074   1.923  1.00  0.00     0.053 C 
BRANCH   3   4
ATOM      4  C   UNL     1     -30.521  -2.641   3.181  1.00  0.00     0.041 C 
ATOM      5  O   UNL     1     -31.240  -2.776   4.204  1.00  0.00    -0.550 OA
ATOM      6  O   UNL     1     -29.198  -3.065   3.207  1.00  0.00    -0.550 OA
ENDBRANCH   3   4
ENDBRANCH   2   3
ENDBRANCH   1   2
BRANCH   1   7
ATOM      7  C   UNL     1     -34.671  -2.526   0.279  1.00  0.00     0.000 C 
BRANCH   7   8
ATOM      8  C   UNL     1     -34.667  -3.087  -1.155  1.00  0.00    -0.000 C 
BRANCH   8   9
ATOM      9  C   UNL     1     -34.799  -4.616  -1.197  1.00  0.00    -0.000 C 
BRANCH   9  10
ATOM     10  C   UNL     1     -34.090  -5.193  -2.428  1.00  0.00    -0.003 C 
ATOM     11  C   UNL     1     -33.165  -4.161  -3.065  1.00  0.00     0.004 C 
ENDBRANCH   9  10
ENDBRANCH   8   9
ENDBRANCH   7   8
ENDBRANCH   1   7
TORSDOF 7
ENDMDL
MODEL 2
REMARK VINA RESULT:    -3.440     11.590     12.776
REMARK INTER + INTRA:          -5.176
REMARK INTER:                  -4.443
REMARK INTRA:                  -0.733
REMARK UNBOUND:                -0.329
REMARK SMILES CCCCCCCCC(=O)[O-]
REMARK SMILES IDX 6 1 7 2 8 3 9 4 10 5 11 6 5 7 4 8 3 9 2 10 1 11
REMARK H PARENT
REMARK Flexibility Score: inf
ROOT
ATOM      1  C   UNL     1     -36.320   6.448  -3.352  1.00  0.00     0.000 C 
ENDROOT
BRANCH   1   2
ATOM      2  C   UNL     1     -35.681   7.644  -4.079  1.00  0.00     0.006 C 
BRANCH   2   3
ATOM      3  C   UNL     1     -35.824   8.959  -3.301  1.00  0.00     0.053 C 
BRANCH   3   4
ATOM      4  C   UNL     1     -36.136  10.085  -4.235  1.00  0.00     0.041 C 
ATOM      5  O   UNL     1     -36.816  11.067  -3.838  1.00  0.00    -0.550 OA
ATOM      6  O   UNL     1     -35.633  10.074  -5.530  1.00  0.00    -0.550 OA
ENDBRANCH   3   4
ENDBRANCH   2   3
ENDBRANCH   1   2
BRANCH   1   7
ATOM      7  C   UNL     1     -36.359   6.562  -1.814  1.00  0.00     0.000 C 
BRANCH   7   8
ATOM      8  C   UNL     1     -35.523   5.513  -1.060  1.00  0.00    -0.000 C 
BRANCH   8   9
ATOM      9  C   UNL     1     -34.035   5.551  -1.438  1.00  0.00    -0.000 C 
BRANCH   9  10
ATOM     10  C   UNL     1     -33.386   6.860  -0.974  1.00  0.00    -0.003 C 
ATOM     11  C   UNL     1     -32.501   7.454  -2.067  1.00  0.00     0.004 C 
ENDBRANCH   9  10
ENDBRANCH   8   9
ENDBRANCH   7   8
ENDBRANCH   1   7
TORSDOF 7
ENDMDL
MODEL 3
REMARK VINA RESULT:    -3.415     11.670     12.848
REMARK INTER + INTRA:          -5.141
REMARK INTER:                  -4.426
REMARK INTRA:                  -0.715
REMARK UNBOUND:                -0.329
REMARK SMILES CCCCCCCCC(=O)[O-]
REMARK SMILES IDX 6 1 7 2 8 3 9 4 10 5 11 6 5 7 4 8 3 9 2 10 1 11
REMARK H PARENT
REMARK Flexibility Score: inf
ROOT
ATOM      1  C   UNL     1     -33.504   7.621  -3.543  1.00  0.00     0.000 C 
ENDROOT
BRANCH   1   2
ATOM      2  C   UNL     1     -34.181   8.957  -3.192  1.00  0.00     0.006 C 
BRANCH   2   3
ATOM      3  C   UNL     1     -35.690   8.951  -3.469  1.00  0.00     0.053 C 
BRANCH   3   4
ATOM      4  C   UNL     1     -36.065  10.110  -4.337  1.00  0.00     0.041 C 
ATOM      5  O   UNL     1     -35.680  10.157  -5.534  1.00  0.00    -0.550 OA
ATOM      6  O   UNL     1     -36.882  11.117  -3.837  1.00  0.00    -0.550 OA
ENDBRANCH   3   4
ENDBRANCH   2   3
ENDBRANCH   1   2
BRANCH   1   7
ATOM      7  C   UNL     1     -32.824   6.901  -2.360  1.00  0.00     0.000 C 
BRANCH   7   8
ATOM      8  C   UNL     1     -33.681   6.782  -1.087  1.00  0.00    -0.000 C 
BRANCH   8   9
ATOM      9  C   UNL     1     -34.576   5.535  -1.086  1.00  0.00    -0.000 C 
BRANCH   9  10
ATOM     10  C   UNL     1     -36.050   5.917  -1.266  1.00  0.00    -0.003 C 
ATOM     11  C   UNL     1     -36.618   5.331  -2.555  1.00  0.00     0.004 C 
ENDBRANCH   9  10
ENDBRANCH   8   9
ENDBRANCH   7   8
ENDBRANCH   1   7
TORSDOF 7
ENDMDL
MODEL 4
REMARK VINA RESULT:    -3.402     13.640     14.488
REMARK INTER + INTRA:          -5.122
REMARK INTER:                  -4.668
REMARK INTRA:                  -0.454
REMARK UNBOUND:                -0.329
REMARK SMILES CCCCCCCCC(=O)[O-]
REMARK SMILES IDX 6 1 7 2 8 3 9 4 10 5 11 6 5 7 4 8 3 9 2 10 1 11
REMARK H PARENT
REMARK Flexibility Score: inf
ROOT
ATOM      1  C   UNL     1     -23.991   2.356  -8.542  1.00  0.00     0.000 C 
ENDROOT
BRANCH   1   2
ATOM      2  C   UNL     1     -23.953   3.717  -9.258  1.00  0.00     0.006 C 
BRANCH   2   3
ATOM      3  C   UNL     1     -25.347   4.223  -9.651  1.00  0.00     0.053 C 
BRANCH   3   4
ATOM      4  C   UNL     1     -26.208   4.374  -8.437  1.00  0.00     0.041 C 
ATOM      5  O   UNL     1     -25.891   5.192  -7.534  1.00  0.00    -0.550 OA
ATOM      6  O   UNL     1     -27.386   3.647  -8.325  1.00  0.00    -0.550 OA
ENDBRANCH   3   4
ENDBRANCH   2   3
ENDBRANCH   1   2
BRANCH   1   7
ATOM      7  C   UNL     1     -24.387   1.160  -9.432  1.00  0.00     0.000 C 
BRANCH   7   8
ATOM      8  C   UNL     1     -23.717   1.126 -10.818  1.00  0.00    -0.000 C 
BRANCH   8   9
ATOM      9  C   UNL     1     -22.805  -0.094 -11.010  1.00  0.00    -0.000 C 
BRANCH   9  10
ATOM     10  C   UNL     1     -22.776  -0.960  -9.745  1.00  0.00    -0.003 C 
ATOM     11  C   UNL     1     -22.784  -2.446 -10.094  1.00  0.00     0.004 C 
ENDBRANCH   9  10
ENDBRANCH   8   9
ENDBRANCH   7   8
ENDBRANCH   1   7
TORSDOF 7
ENDMDL
MODEL 5
REMARK VINA RESULT:    -3.400      3.300      3.854
REMARK INTER + INTRA:          -5.120
REMARK INTER:                  -4.656
REMARK INTRA:                  -0.464
REMARK UNBOUND:                -0.329
REMARK SMILES CCCCCCCCC(=O)[O-]
REMARK SMILES IDX 6 1 7 2 8 3 9 4 10 5 11 6 5 7 4 8 3 9 2 10 1 11
REMARK H PARENT
REMARK Flexibility Score: inf
ROOT
ATOM      1  C   UNL     1     -34.194  -2.570   1.329  1.00  0.00     0.000 C 
ENDROOT
BRANCH   1   2
ATOM      2  C   UNL     1     -34.189  -1.450   0.273  1.00  0.00     0.006 C 
BRANCH   2   3
ATOM      3  C   UNL     1     -34.188  -0.047   0.895  1.00  0.00     0.053 C 
BRANCH   3   4
ATOM      4  C   UNL     1     -33.832   0.978  -0.134  1.00  0.00     0.041 C 
ATOM      5  O   UNL     1     -34.669   1.312  -1.012  1.00  0.00    -0.550 OA
ATOM      6  O   UNL     1     -32.591   1.602  -0.094  1.00  0.00    -0.550 OA
ENDBRANCH   3   4
ENDBRANCH   2   3
ENDBRANCH   1   2
BRANCH   1   7
ATOM      7  C   UNL     1     -35.033  -3.811   0.961  1.00  0.00     0.000 C 
BRANCH   7   8
ATOM      8  C   UNL     1     -35.680  -3.773  -0.435  1.00  0.00    -0.000 C 
BRANCH   8   9
ATOM      9  C   UNL     1     -35.223  -4.930  -1.335  1.00  0.00    -0.000 C 
BRANCH   9  10
ATOM     10  C   UNL     1     -33.699  -4.922  -1.505  1.00  0.00    -0.003 C 
ATOM     11  C   UNL     1     -33.297  -4.310  -2.844  1.00  0.00     0.004 C 
ENDBRANCH   9  10
ENDBRANCH   8   9
ENDBRANCH   7   8
ENDBRANCH   1   7
TORSDOF 7
ENDMDL
MODEL 6
REMARK VINA RESULT:    -3.400      3.138      3.458
REMARK INTER + INTRA:          -5.120
REMARK INTER:                  -4.704
REMARK INTRA:                  -0.416
REMARK UNBOUND:                -0.329
REMARK SMILES CCCCCCCCC(=O)[O-]
REMARK SMILES IDX 6 1 7 2 8 3 9 4 10 5 11 6 5 7 4 8 3 9 2 10 1 11
REMARK H PARENT
REMARK Flexibility Score: inf
ROOT
ATOM      1  C   UNL     1     -34.046  -3.362   0.640  1.00  0.00     0.000 C 
ENDROOT
BRANCH   1   2
ATOM      2  C   UNL     1     -33.914  -2.280   1.725  1.00  0.00     0.006 C 
BRANCH   2   3
ATOM      3  C   UNL     1     -34.315  -2.782   3.118  1.00  0.00     0.053 C 
BRANCH   3   4
ATOM      4  C   UNL     1     -35.733  -2.412   3.418  1.00  0.00     0.041 C 
ATOM      5  O   UNL     1     -36.592  -3.308   3.623  1.00  0.00    -0.550 OA
ATOM      6  O   UNL     1     -36.096  -1.074   3.518  1.00  0.00    -0.550 OA
ENDBRANCH   3   4
ENDBRANCH   2   3
ENDBRANCH   1   2
BRANCH   1   7
ATOM      7  C   UNL     1     -35.424  -3.430  -0.052  1.00  0.00     0.000 C 
BRANCH   7   8
ATOM      8  C   UNL     1     -35.643  -4.660  -0.952  1.00  0.00    -0.000 C 
BRANCH   8   9
ATOM      9  C   UNL     1     -34.329  -5.342  -1.360  1.00  0.00    -0.000 C 
BRANCH   9  10
ATOM     10  C   UNL     1     -34.089  -5.209  -2.868  1.00  0.00    -0.003 C 
ATOM     11  C   UNL     1     -33.045  -4.136  -3.167  1.00  0.00     0.004 C 
ENDBRANCH   9  10
ENDBRANCH   8   9
ENDBRANCH   7   8
ENDBRANCH   1   7
TORSDOF 7
ENDMDL
MODEL 7
REMARK VINA RESULT:    -3.377      8.980      9.843
REMARK INTER + INTRA:          -5.087
REMARK INTER:                  -4.759
REMARK INTRA:                  -0.329
REMARK UNBOUND:                -0.329
REMARK SMILES CCCCCCCCC(=O)[O-]
REMARK SMILES IDX 6 1 7 2 8 3 9 4 10 5 11 6 5 7 4 8 3 9 2 10 1 11
REMARK H PARENT
REMARK Flexibility Score: inf
ROOT
ATOM      1  C   UNL     1     -27.325   3.172   0.690  1.00  0.00     0.000 C 
ENDROOT
BRANCH   1   2
ATOM      2  C   UNL     1     -26.073   4.019   0.975  1.00  0.00     0.006 C 
BRANCH   2   3
ATOM      3  C   UNL     1     -25.978   4.466   2.440  1.00  0.00     0.053 C 
BRANCH   3   4
ATOM      4  C   UNL     1     -24.675   5.156   2.691  1.00  0.00     0.041 C 
ATOM      5  O   UNL     1     -23.589   4.552   2.490  1.00  0.00    -0.550 OA
ATOM      6  O   UNL     1     -24.659   6.483   3.102  1.00  0.00    -0.550 OA
ENDBRANCH   3   4
ENDBRANCH   2   3
ENDBRANCH   1   2
BRANCH   1   7
ATOM      7  C   UNL     1     -28.136   3.600  -0.551  1.00  0.00     0.000 C 
BRANCH   7   8
ATOM      8  C   UNL     1     -27.714   4.941  -1.177  1.00  0.00    -0.000 C 
BRANCH   8   9
ATOM      9  C   UNL     1     -28.239   5.122  -2.608  1.00  0.00    -0.000 C 
BRANCH   9  10
ATOM     10  C   UNL     1     -28.869   3.825  -3.129  1.00  0.00    -0.003 C 
ATOM     11  C   UNL     1     -28.237   3.397  -4.450  1.00  0.00     0.004 C 
ENDBRANCH   9  10
ENDBRANCH   8   9
ENDBRANCH   7   8
ENDBRANCH   1   7
TORSDOF 7
ENDMDL
MODEL 8
REMARK VINA RESULT:    -3.352      3.280      3.825
REMARK INTER + INTRA:          -5.052
REMARK INTER:                  -4.596
REMARK INTRA:                  -0.456
REMARK UNBOUND:                -0.329
REMARK SMILES CCCCCCCCC(=O)[O-]
REMARK SMILES IDX 6 1 7 2 8 3 9 4 10 5 11 6 5 7 4 8 3 9 2 10 1 11
REMARK H PARENT
REMARK Flexibility Score: inf
ROOT
ATOM      1  C   UNL     1     -32.938  -2.142   0.881  1.00  0.00     0.000 C 
ENDROOT
BRANCH   1   2
ATOM      2  C   UNL     1     -33.305  -1.073   1.924  1.00  0.00     0.006 C 
BRANCH   2   3
ATOM      3  C   UNL     1     -34.786  -1.112   2.321  1.00  0.00     0.053 C 
BRANCH   3   4
ATOM      4  C   UNL     1     -35.511   0.063   1.746  1.00  0.00     0.041 C 
ATOM      5  O   UNL     1     -35.572   0.221   0.499  1.00  0.00    -0.550 OA
ATOM      6  O   UNL     1     -36.164   0.957   2.586  1.00  0.00    -0.550 OA
ENDBRANCH   3   4
ENDBRANCH   2   3
ENDBRANCH   1   2
BRANCH   1   7
ATOM      7  C   UNL     1     -34.001  -3.239   0.667  1.00  0.00     0.000 C 
BRANCH   7   8
ATOM      8  C   UNL     1     -34.647  -3.260  -0.730  1.00  0.00    -0.000 C 
BRANCH   8   9
ATOM      9  C   UNL     1     -34.986  -4.679  -1.209  1.00  0.00    -0.000 C 
BRANCH   9  10
ATOM     10  C   UNL     1     -33.878  -5.232  -2.112  1.00  0.00    -0.003 C 
ATOM     11  C   UNL     1     -33.265  -4.129  -2.971  1.00  0.00     0.004 C 
ENDBRANCH   9  10
ENDBRANCH   8   9
ENDBRANCH   7   8
ENDBRANCH   1   7
TORSDOF 7
ENDMDL
MODEL 9
REMARK VINA RESULT:    -3.286      9.952     11.291
REMARK INTER + INTRA:          -4.960
REMARK INTER:                  -4.236
REMARK INTRA:                  -0.724
REMARK UNBOUND:                -0.329
REMARK SMILES CCCCCCCCC(=O)[O-]
REMARK SMILES IDX 6 1 7 2 8 3 9 4 10 5 11 6 5 7 4 8 3 9 2 10 1 11
REMARK H PARENT
REMARK Flexibility Score: inf
ROOT
ATOM      1  C   UNL     1     -36.015   5.538  -1.416  1.00  0.00     0.000 C 
ENDROOT
BRANCH   1   2
ATOM      2  C   UNL     1     -35.936   7.072  -1.331  1.00  0.00     0.006 C 
BRANCH   2   3
ATOM      3  C   UNL     1     -34.975   7.677  -2.363  1.00  0.00     0.053 C 
BRANCH   3   4
ATOM      4  C   UNL     1     -35.734   8.183  -3.548  1.00  0.00     0.041 C 
ATOM      5  O   UNL     1     -36.038   7.402  -4.487  1.00  0.00    -0.550 OA
ATOM      6  O   UNL     1     -36.149   9.508  -3.593  1.00  0.00    -0.550 OA
ENDBRANCH   3   4
ENDBRANCH   2   3
ENDBRANCH   1   2
BRANCH   1   7
ATOM      7  C   UNL     1     -34.698   4.836  -1.803  1.00  0.00     0.000 C 
BRANCH   7   8
ATOM      8  C   UNL     1     -34.115   3.899  -0.729  1.00  0.00    -0.000 C 
BRANCH   8   9
ATOM      9  C   UNL     1     -32.873   4.482  -0.041  1.00  0.00    -0.000 C 
BRANCH   9  10
ATOM     10  C   UNL     1     -32.178   5.509  -0.942  1.00  0.00    -0.003 C 
ATOM     11  C   UNL     1     -31.859   6.789  -0.175  1.00  0.00     0.004 C 
ENDBRANCH   9  10
ENDBRANCH   8   9
ENDBRANCH   7   8
ENDBRANCH   1   7
TORSDOF 7
ENDMDL
