MODEL 1
REMARK VINA RESULT:    -4.975      0.000      0.000
REMARK INTER + INTRA:         -10.086
REMARK INTER:                  -8.466
REMARK INTRA:                  -1.620
REMARK UNBOUND:                -1.620
REMARK SMILES CCCCCCCCCCCCCC(=O)[O-]
REMARK SMILES IDX 8 1 9 2 10 3 11 4 12 5 13 6 14 7 15 8 16 9 7 10 6 11 5 12
REMARK SMILES IDX 4 13 3 14 2 15 1 16
REMARK H PARENT
REMARK Flexibility Score: inf
ROOT
ATOM      1  C   UNL     1       4.319  44.360  10.730  1.00  0.00     0.000 C 
ENDROOT
BRANCH   1   2
ATOM      2  C   UNL     1       3.716  43.594   9.538  1.00  0.00     0.000 C 
BRANCH   2   3
ATOM      3  C   UNL     1       2.615  42.582   9.910  1.00  0.00     0.000 C 
BRANCH   3   4
ATOM      4  C   UNL     1       2.227  42.642  11.399  1.00  0.00     0.000 C 
BRANCH   4   5
ATOM      5  C   UNL     1       2.420  41.295  12.113  1.00  0.00     0.006 C 
BRANCH   5   6
ATOM      6  C   UNL     1       3.877  40.815  12.077  1.00  0.00     0.053 C 
BRANCH   6   7
ATOM      7  C   UNL     1       3.999  39.469  12.719  1.00  0.00     0.041 C 
ATOM      8  O   UNL     1       3.191  38.549  12.423  1.00  0.00    -0.550 OA
ATOM      9  O   UNL     1       5.036  39.216  13.608  1.00  0.00    -0.550 OA
ENDBRANCH   6   7
ENDBRANCH   5   6
ENDBRANCH   4   5
ENDBRANCH   3   4
ENDBRANCH   2   3
ENDBRANCH   1   2
BRANCH   1  10
ATOM     10  C   UNL     1       4.074  45.877  10.657  1.00  0.00     0.000 C 
BRANCH  10  11
ATOM     11  C   UNL     1       4.662  46.500   9.372  1.00  0.00    -0.000 C 
BRANCH  11  12
ATOM     12  C   UNL     1       3.668  47.390   8.605  1.00  0.00    -0.000 C 
BRANCH  12  13
ATOM     13  C   UNL     1       2.226  47.252   9.118  1.00  0.00    -0.000 C 
BRANCH  13  14
ATOM     14  C   UNL     1       1.285  46.625   8.076  1.00  0.00    -0.000 C 
BRANCH  14  15
ATOM     15  C   UNL     1       0.320  45.601   8.692  1.00  0.00    -0.003 C 
ATOM     16  C   UNL     1       0.411  45.607  10.215  1.00  0.00     0.004 C 
ENDBRANCH  14  15
ENDBRANCH  13  14
ENDBRANCH  12  13
ENDBRANCH  11  12
ENDBRANCH  10  11
ENDBRANCH   1  10
TORSDOF 12
ENDMDL
MODEL 2
REMARK VINA RESULT:    -4.920      3.736      6.605
REMARK INTER + INTRA:          -9.992
REMARK INTER:                  -8.757
REMARK INTRA:                  -1.235
REMARK UNBOUND:                -1.620
REMARK SMILES CCCCCCCCCCCCCC(=O)[O-]
REMARK SMILES IDX 8 1 9 2 10 3 11 4 12 5 13 6 14 7 15 8 16 9 7 10 6 11 5 12
REMARK SMILES IDX 4 13 3 14 2 15 1 16
REMARK H PARENT
REMARK Flexibility Score: inf
ROOT
ATOM      1  C   UNL     1       1.386  44.305   9.670  1.00  0.00     0.000 C 
ENDROOT
BRANCH   1   2
ATOM      2  C   UNL     1       0.723  45.289   8.688  1.00  0.00     0.000 C 
BRANCH   2   3
ATOM      3  C   UNL     1       1.397  46.671   8.605  1.00  0.00     0.000 C 
BRANCH   3   4
ATOM      4  C   UNL     1       2.611  46.801   9.541  1.00  0.00     0.000 C 
BRANCH   4   5
ATOM      5  C   UNL     1       3.899  47.170   8.789  1.00  0.00     0.006 C 
BRANCH   5   6
ATOM      6  C   UNL     1       5.164  46.806   9.578  1.00  0.00     0.053 C 
BRANCH   6   7
ATOM      7  C   UNL     1       6.281  47.740   9.234  1.00  0.00     0.041 C 
ATOM      8  O   UNL     1       6.031  48.897   8.803  1.00  0.00    -0.550 OA
ATOM      9  O   UNL     1       7.599  47.350   9.434  1.00  0.00    -0.550 OA
ENDBRANCH   6   7
ENDBRANCH   5   6
ENDBRANCH   4   5
ENDBRANCH   3   4
ENDBRANCH   2   3
ENDBRANCH   1   2
BRANCH   1  10
ATOM     10  C   UNL     1       2.239  43.235   8.966  1.00  0.00     0.000 C 
BRANCH  10  11
ATOM     11  C   UNL     1       3.709  43.261   9.436  1.00  0.00    -0.000 C 
BRANCH  11  12
ATOM     12  C   UNL     1       3.873  43.533  10.942  1.00  0.00    -0.000 C 
BRANCH  12  13
ATOM     13  C   UNL     1       4.180  42.261  11.748  1.00  0.00    -0.000 C 
BRANCH  13  14
ATOM     14  C   UNL     1       2.965  41.326  11.862  1.00  0.00    -0.000 C 
BRANCH  14  15
ATOM     15  C   UNL     1       3.359  39.883  12.209  1.00  0.00    -0.003 C 
ATOM     16  C   UNL     1       4.694  39.841  12.947  1.00  0.00     0.004 C 
ENDBRANCH  14  15
ENDBRANCH  13  14
ENDBRANCH  12  13
ENDBRANCH  11  12
ENDBRANCH  10  11
ENDBRANCH   1  10
TORSDOF 12
ENDMDL
MODEL 3
REMARK VINA RESULT:    -4.905      1.220      3.170
REMARK INTER + INTRA:          -9.965
REMARK INTER:                  -9.083
REMARK INTRA:                  -0.882
REMARK UNBOUND:                -1.620
REMARK SMILES CCCCCCCCCCCCCC(=O)[O-]
REMARK SMILES IDX 8 1 9 2 10 3 11 4 12 5 13 6 14 7 15 8 16 9 7 10 6 11 5 12
REMARK SMILES IDX 4 13 3 14 2 15 1 16
REMARK H PARENT
REMARK Flexibility Score: inf
ROOT
ATOM      1  C   UNL     1       1.401  44.464   9.534  1.00  0.00     0.000 C 
ENDROOT
BRANCH   1   2
ATOM      2  C   UNL     1       0.975  44.334  11.009  1.00  0.00     0.000 C 
BRANCH   2   3
ATOM      3  C   UNL     1       1.756  43.280  11.816  1.00  0.00     0.000 C 
BRANCH   3   4
ATOM      4  C   UNL     1       3.282  43.458  11.713  1.00  0.00     0.000 C 
BRANCH   4   5
ATOM      5  C   UNL     1       4.022  42.122  11.556  1.00  0.00     0.006 C 
BRANCH   5   6
ATOM      6  C   UNL     1       3.128  40.915  11.867  1.00  0.00     0.053 C 
BRANCH   6   7
ATOM      7  C   UNL     1       3.928  39.821  12.500  1.00  0.00     0.041 C 
ATOM      8  O   UNL     1       4.984  40.090  13.131  1.00  0.00    -0.550 OA
ATOM      9  O   UNL     1       3.482  38.507  12.434  1.00  0.00    -0.550 OA
ENDBRANCH   6   7
ENDBRANCH   5   6
ENDBRANCH   4   5
ENDBRANCH   3   4
ENDBRANCH   2   3
ENDBRANCH   1   2
BRANCH   1  10
ATOM     10  C   UNL     1       0.840  45.726   8.856  1.00  0.00     0.000 C 
BRANCH  10  11
ATOM     11  C   UNL     1       1.664  46.986   9.198  1.00  0.00    -0.000 C 
BRANCH  11  12
ATOM     12  C   UNL     1       2.314  47.653   7.973  1.00  0.00    -0.000 C 
BRANCH  12  13
ATOM     13  C   UNL     1       3.840  47.777   8.101  1.00  0.00    -0.000 C 
BRANCH  13  14
ATOM     14  C   UNL     1       4.415  46.880   9.209  1.00  0.00    -0.000 C 
BRANCH  14  15
ATOM     15  C   UNL     1       5.909  47.132   9.458  1.00  0.00    -0.003 C 
ATOM     16  C   UNL     1       6.295  48.560   9.085  1.00  0.00     0.004 C 
ENDBRANCH  14  15
ENDBRANCH  13  14
ENDBRANCH  12  13
ENDBRANCH  11  12
ENDBRANCH  10  11
ENDBRANCH   1  10
TORSDOF 12
ENDMDL
MODEL 4
REMARK VINA RESULT:    -4.748      1.008      1.995
REMARK INTER + INTRA:          -9.699
REMARK INTER:                  -8.131
REMARK INTRA:                  -1.568
REMARK UNBOUND:                -1.620
REMARK SMILES CCCCCCCCCCCCCC(=O)[O-]
REMARK SMILES IDX 8 1 9 2 10 3 11 4 12 5 13 6 14 7 15 8 16 9 7 10 6 11 5 12
REMARK SMILES IDX 4 13 3 14 2 15 1 16
REMARK H PARENT
REMARK Flexibility Score: inf
ROOT
ATOM      1  C   UNL     1       4.333  45.851   9.362  1.00  0.00     0.000 C 
ENDROOT
BRANCH   1   2
ATOM      2  C   UNL     1       4.351  45.648  10.888  1.00  0.00     0.000 C 
BRANCH   2   3
ATOM      3  C   UNL     1       4.072  44.207  11.353  1.00  0.00     0.000 C 
BRANCH   3   4
ATOM      4  C   UNL     1       4.009  43.204  10.186  1.00  0.00     0.000 C 
BRANCH   4   5
ATOM      5  C   UNL     1       2.885  42.171  10.355  1.00  0.00     0.006 C 
BRANCH   5   6
ATOM      6  C   UNL     1       2.573  41.879  11.829  1.00  0.00     0.053 C 
BRANCH   6   7
ATOM      7  C   UNL     1       3.231  40.607  12.260  1.00  0.00     0.041 C 
ATOM      8  O   UNL     1       4.484  40.488  12.199  1.00  0.00    -0.550 OA
ATOM      9  O   UNL     1       2.466  39.568  12.775  1.00  0.00    -0.550 OA
ENDBRANCH   6   7
ENDBRANCH   5   6
ENDBRANCH   4   5
ENDBRANCH   3   4
ENDBRANCH   2   3
ENDBRANCH   1   2
BRANCH   1  10
ATOM     10  C   UNL     1       4.681  47.289   8.941  1.00  0.00     0.000 C 
BRANCH  10  11
ATOM     11  C   UNL     1       3.646  47.875   7.957  1.00  0.00    -0.000 C 
BRANCH  11  12
ATOM     12  C   UNL     1       2.262  47.209   8.045  1.00  0.00    -0.000 C 
BRANCH  12  13
ATOM     13  C   UNL     1       1.413  47.751   9.206  1.00  0.00    -0.000 C 
BRANCH  13  14
ATOM     14  C   UNL     1       0.242  46.823   9.565  1.00  0.00    -0.000 C 
BRANCH  14  15
ATOM     15  C   UNL     1       0.668  45.352   9.685  1.00  0.00    -0.003 C 
ATOM     16  C   UNL     1       0.361  44.802  11.075  1.00  0.00     0.004 C 
ENDBRANCH  14  15
ENDBRANCH  13  14
ENDBRANCH  12  13
ENDBRANCH  11  12
ENDBRANCH  10  11
ENDBRANCH   1  10
TORSDOF 12
ENDMDL
MODEL 5
REMARK VINA RESULT:    -4.655      3.983      5.960
REMARK INTER + INTRA:          -9.540
REMARK INTER:                  -8.142
REMARK INTRA:                  -1.398
REMARK UNBOUND:                -1.620
REMARK SMILES CCCCCCCCCCCCCC(=O)[O-]
REMARK SMILES IDX 8 1 9 2 10 3 11 4 12 5 13 6 14 7 15 8 16 9 7 10 6 11 5 12
REMARK SMILES IDX 4 13 3 14 2 15 1 16
REMARK H PARENT
REMARK Flexibility Score: inf
ROOT
ATOM      1  C   UNL     1       2.665  42.622  10.142  1.00  0.00     0.000 C 
ENDROOT
BRANCH   1   2
ATOM      2  C   UNL     1       1.996  42.886  11.504  1.00  0.00     0.000 C 
BRANCH   2   3
ATOM      3  C   UNL     1       0.922  43.990  11.493  1.00  0.00     0.000 C 
BRANCH   3   4
ATOM      4  C   UNL     1       0.749  44.643  10.110  1.00  0.00     0.000 C 
BRANCH   4   5
ATOM      5  C   UNL     1       0.659  46.174  10.186  1.00  0.00     0.006 C 
BRANCH   5   6
ATOM      6  C   UNL     1      -0.302  46.758   9.143  1.00  0.00     0.053 C 
BRANCH   6   7
ATOM      7  C   UNL     1       0.313  46.707   7.780  1.00  0.00     0.041 C 
ATOM      8  O   UNL     1       1.383  47.326   7.543  1.00  0.00    -0.550 OA
ATOM      9  O   UNL     1      -0.271  45.935   6.784  1.00  0.00    -0.550 OA
ENDBRANCH   6   7
ENDBRANCH   5   6
ENDBRANCH   4   5
ENDBRANCH   3   4
ENDBRANCH   2   3
ENDBRANCH   1   2
BRANCH   1  10
ATOM     10  C   UNL     1       4.088  43.200  10.048  1.00  0.00     0.000 C 
BRANCH  10  11
ATOM     11  C   UNL     1       4.420  44.128  11.237  1.00  0.00    -0.000 C 
BRANCH  11  12
ATOM     12  C   UNL     1       4.311  45.626  10.903  1.00  0.00    -0.000 C 
BRANCH  12  13
ATOM     13  C   UNL     1       4.168  45.892   9.396  1.00  0.00    -0.000 C 
BRANCH  13  14
ATOM     14  C   UNL     1       4.714  47.268   8.985  1.00  0.00    -0.000 C 
BRANCH  14  15
ATOM     15  C   UNL     1       6.188  47.459   9.370  1.00  0.00    -0.003 C 
ATOM     16  C   UNL     1       6.639  48.896   9.123  1.00  0.00     0.004 C 
ENDBRANCH  14  15
ENDBRANCH  13  14
ENDBRANCH  12  13
ENDBRANCH  11  12
ENDBRANCH  10  11
ENDBRANCH   1  10
TORSDOF 12
ENDMDL
MODEL 6
REMARK VINA RESULT:    -4.583      4.023      6.556
REMARK INTER + INTRA:          -9.418
REMARK INTER:                  -8.146
REMARK INTRA:                  -1.273
REMARK UNBOUND:                -1.620
REMARK SMILES CCCCCCCCCCCCCC(=O)[O-]
REMARK SMILES IDX 8 1 9 2 10 3 11 4 12 5 13 6 14 7 15 8 16 9 7 10 6 11 5 12
REMARK SMILES IDX 4 13 3 14 2 15 1 16
REMARK H PARENT
REMARK Flexibility Score: inf
ROOT
ATOM      1  C   UNL     1       0.210  46.385   9.407  1.00  0.00     0.000 C 
ENDROOT
BRANCH   1   2
ATOM      2  C   UNL     1       0.864  47.753   9.139  1.00  0.00     0.000 C 
BRANCH   2   3
ATOM      3  C   UNL     1       1.922  47.756   8.020  1.00  0.00     0.000 C 
BRANCH   3   4
ATOM      4  C   UNL     1       3.174  46.936   8.378  1.00  0.00     0.000 C 
BRANCH   4   5
ATOM      5  C   UNL     1       4.453  47.786   8.392  1.00  0.00     0.006 C 
BRANCH   5   6
ATOM      6  C   UNL     1       5.466  47.307   9.439  1.00  0.00     0.053 C 
BRANCH   6   7
ATOM      7  C   UNL     1       6.763  48.035   9.283  1.00  0.00     0.041 C 
ATOM      8  O   UNL     1       6.772  49.264   9.010  1.00  0.00    -0.550 OA
ATOM      9  O   UNL     1       7.964  47.366   9.487  1.00  0.00    -0.550 OA
ENDBRANCH   6   7
ENDBRANCH   5   6
ENDBRANCH   4   5
ENDBRANCH   3   4
ENDBRANCH   2   3
ENDBRANCH   1   2
BRANCH   1  10
ATOM     10  C   UNL     1      -0.016  45.564   8.125  1.00  0.00     0.000 C 
BRANCH  10  11
ATOM     11  C   UNL     1       0.744  44.221   8.152  1.00  0.00    -0.000 C 
BRANCH  11  12
ATOM     12  C   UNL     1       1.523  43.975   9.456  1.00  0.00    -0.000 C 
BRANCH  12  13
ATOM     13  C   UNL     1       2.651  42.945   9.291  1.00  0.00    -0.000 C 
BRANCH  13  14
ATOM     14  C   UNL     1       3.968  43.403   9.938  1.00  0.00    -0.000 C 
BRANCH  14  15
ATOM     15  C   UNL     1       3.752  44.442  11.049  1.00  0.00    -0.003 C 
ATOM     16  C   UNL     1       4.482  44.041  12.327  1.00  0.00     0.004 C 
ENDBRANCH  14  15
ENDBRANCH  13  14
ENDBRANCH  12  13
ENDBRANCH  11  12
ENDBRANCH  10  11
ENDBRANCH   1  10
TORSDOF 12
ENDMDL
MODEL 7
REMARK VINA RESULT:    -4.577      3.849      5.686
REMARK INTER + INTRA:          -9.408
REMARK INTER:                  -8.177
REMARK INTRA:                  -1.231
REMARK UNBOUND:                -1.620
REMARK SMILES CCCCCCCCCCCCCC(=O)[O-]
REMARK SMILES IDX 8 1 9 2 10 3 11 4 12 5 13 6 14 7 15 8 16 9 7 10 6 11 5 12
REMARK SMILES IDX 4 13 3 14 2 15 1 16
REMARK H PARENT
REMARK Flexibility Score: inf
ROOT
ATOM      1  C   UNL     1       2.596  42.639  11.078  1.00  0.00     0.000 C 
ENDROOT
BRANCH   1   2
ATOM      2  C   UNL     1       4.082  42.873  11.406  1.00  0.00     0.000 C 
BRANCH   2   3
ATOM      3  C   UNL     1       4.491  44.353  11.534  1.00  0.00     0.000 C 
BRANCH   3   4
ATOM      4  C   UNL     1       4.564  45.072  10.175  1.00  0.00     0.000 C 
BRANCH   4   5
ATOM      5  C   UNL     1       4.654  46.599  10.320  1.00  0.00     0.006 C 
BRANCH   5   6
ATOM      6  C   UNL     1       5.084  47.288   9.019  1.00  0.00     0.053 C 
BRANCH   6   7
ATOM      7  C   UNL     1       6.402  47.973   9.201  1.00  0.00     0.041 C 
ATOM      8  O   UNL     1       7.417  47.314   9.549  1.00  0.00    -0.550 OA
ATOM      9  O   UNL     1       6.519  49.332   8.939  1.00  0.00    -0.550 OA
ENDBRANCH   6   7
ENDBRANCH   5   6
ENDBRANCH   4   5
ENDBRANCH   3   4
ENDBRANCH   2   3
ENDBRANCH   1   2
BRANCH   1  10
ATOM     10  C   UNL     1       1.664  43.673  11.734  1.00  0.00     0.000 C 
BRANCH  10  11
ATOM     11  C   UNL     1       0.828  44.447  10.692  1.00  0.00    -0.000 C 
BRANCH  11  12
ATOM     12  C   UNL     1       1.276  44.211   9.239  1.00  0.00    -0.000 C 
BRANCH  12  13
ATOM     13  C   UNL     1       0.518  45.090   8.232  1.00  0.00    -0.000 C 
BRANCH  13  14
ATOM     14  C   UNL     1      -0.068  46.356   8.876  1.00  0.00    -0.000 C 
BRANCH  14  15
ATOM     15  C   UNL     1       0.239  47.627   8.069  1.00  0.00    -0.003 C 
ATOM     16  C   UNL     1       1.744  47.832   7.918  1.00  0.00     0.004 C 
ENDBRANCH  14  15
ENDBRANCH  13  14
ENDBRANCH  12  13
ENDBRANCH  11  12
ENDBRANCH  10  11
ENDBRANCH   1  10
TORSDOF 12
ENDMDL
MODEL 8
REMARK VINA RESULT:    -4.520      2.021      4.173
REMARK INTER + INTRA:          -9.312
REMARK INTER:                  -8.067
REMARK INTRA:                  -1.244
REMARK UNBOUND:                -1.620
REMARK SMILES CCCCCCCCCCCCCC(=O)[O-]
REMARK SMILES IDX 8 1 9 2 10 3 11 4 12 5 13 6 14 7 15 8 16 9 7 10 6 11 5 12
REMARK SMILES IDX 4 13 3 14 2 15 1 16
REMARK H PARENT
REMARK Flexibility Score: inf
ROOT
ATOM      1  C   UNL     1       0.100  47.254   8.767  1.00  0.00     0.000 C 
ENDROOT
BRANCH   1   2
ATOM      2  C   UNL     1       0.032  45.951   9.585  1.00  0.00     0.000 C 
BRANCH   2   3
ATOM      3  C   UNL     1       0.755  44.749   8.949  1.00  0.00     0.000 C 
BRANCH   3   4
ATOM      4  C   UNL     1       1.552  43.921   9.972  1.00  0.00     0.000 C 
BRANCH   4   5
ATOM      5  C   UNL     1       2.576  42.989   9.306  1.00  0.00     0.006 C 
BRANCH   5   6
ATOM      6  C   UNL     1       4.005  43.231   9.810  1.00  0.00     0.053 C 
BRANCH   6   7
ATOM      7  C   UNL     1       4.086  42.991  11.285  1.00  0.00     0.041 C 
ATOM      8  O   UNL     1       4.352  43.940  12.068  1.00  0.00    -0.550 OA
ATOM      9  O   UNL     1       3.820  41.728  11.798  1.00  0.00    -0.550 OA
ENDBRANCH   6   7
ENDBRANCH   5   6
ENDBRANCH   4   5
ENDBRANCH   3   4
ENDBRANCH   2   3
ENDBRANCH   1   2
BRANCH   1  10
ATOM     10  C   UNL     1       1.408  48.034   8.986  1.00  0.00     0.000 C 
BRANCH  10  11
ATOM     11  C   UNL     1       2.299  48.042   7.726  1.00  0.00    -0.000 C 
BRANCH  11  12
ATOM     12  C   UNL     1       3.773  47.699   8.007  1.00  0.00    -0.000 C 
BRANCH  12  13
ATOM     13  C   UNL     1       3.938  46.648   9.116  1.00  0.00    -0.000 C 
BRANCH  13  14
ATOM     14  C   UNL     1       5.197  46.881   9.967  1.00  0.00    -0.000 C 
BRANCH  14  15
ATOM     15  C   UNL     1       6.359  47.473   9.155  1.00  0.00    -0.003 C 
ATOM     16  C   UNL     1       6.654  48.907   9.584  1.00  0.00     0.004 C 
ENDBRANCH  14  15
ENDBRANCH  13  14
ENDBRANCH  12  13
ENDBRANCH  11  12
ENDBRANCH  10  11
ENDBRANCH   1  10
TORSDOF 12
ENDMDL
MODEL 9
REMARK VINA RESULT:    -4.511      3.253      6.691
REMARK INTER + INTRA:          -9.295
REMARK INTER:                  -8.206
REMARK INTRA:                  -1.089
REMARK UNBOUND:                -1.620
REMARK SMILES CCCCCCCCCCCCCC(=O)[O-]
REMARK SMILES IDX 8 1 9 2 10 3 11 4 12 5 13 6 14 7 15 8 16 9 7 10 6 11 5 12
REMARK SMILES IDX 4 13 3 14 2 15 1 16
REMARK H PARENT
REMARK Flexibility Score: inf
ROOT
ATOM      1  C   UNL     1       3.920  43.904   9.550  1.00  0.00     0.000 C 
ENDROOT
BRANCH   1   2
ATOM      2  C   UNL     1       4.055  45.222  10.335  1.00  0.00     0.000 C 
BRANCH   2   3
ATOM      3  C   UNL     1       4.667  46.389   9.538  1.00  0.00     0.000 C 
BRANCH   3   4
ATOM      4  C   UNL     1       3.636  47.118   8.659  1.00  0.00     0.000 C 
BRANCH   4   5
ATOM      5  C   UNL     1       2.237  47.148   9.292  1.00  0.00     0.006 C 
BRANCH   5   6
ATOM      6  C   UNL     1       1.120  47.236   8.244  1.00  0.00     0.053 C 
BRANCH   6   7
ATOM      7  C   UNL     1       0.155  46.105   8.414  1.00  0.00     0.041 C 
ATOM      8  O   UNL     1      -0.844  46.231   9.170  1.00  0.00    -0.550 OA
ATOM      9  O   UNL     1       0.332  44.928   7.697  1.00  0.00    -0.550 OA
ENDBRANCH   6   7
ENDBRANCH   5   6
ENDBRANCH   4   5
ENDBRANCH   3   4
ENDBRANCH   2   3
ENDBRANCH   1   2
BRANCH   1  10
ATOM     10  C   UNL     1       2.546  43.236   9.727  1.00  0.00     0.000 C 
BRANCH  10  11
ATOM     11  C   UNL     1       1.945  43.499  11.124  1.00  0.00    -0.000 C 
BRANCH  11  12
ATOM     12  C   UNL     1       2.134  42.331  12.109  1.00  0.00    -0.000 C 
BRANCH  12  13
ATOM     13  C   UNL     1       2.942  41.170  11.508  1.00  0.00    -0.000 C 
BRANCH  13  14
ATOM     14  C   UNL     1       4.315  40.996  12.179  1.00  0.00    -0.000 C 
BRANCH  14  15
ATOM     15  C   UNL     1       4.413  39.700  12.998  1.00  0.00    -0.003 C 
ATOM     16  C   UNL     1       3.504  38.618  12.423  1.00  0.00     0.004 C 
ENDBRANCH  14  15
ENDBRANCH  13  14
ENDBRANCH  12  13
ENDBRANCH  11  12
ENDBRANCH  10  11
ENDBRANCH   1  10
TORSDOF 12
ENDMDL
