MODEL 1
REMARK VINA RESULT:    -3.457      0.000      0.000
REMARK INTER + INTRA:          -5.266
REMARK INTER:                  -4.669
REMARK INTRA:                  -0.597
REMARK UNBOUND:                -0.597
REMARK SMILES C[C@@H](O)[C@@H](O)[C@H](O)[C@@H](O)C=O
REMARK SMILES IDX 4 1 2 2 1 3 3 4 6 6 8 7 10 8 11 9 9 10 7 12 5 14
REMARK H PARENT 3 5 9 11 7 13 5 15
REMARK Flexibility Score: inf
ROOT
ATOM      1  C   UNL     1      46.181  28.163  -4.576  1.00  0.00     0.174 C 
ENDROOT
BRANCH   1   2
ATOM      2  C   UNL     1      46.846  27.737  -3.236  1.00  0.00     0.142 C 
ATOM      3  C   UNL     1      46.192  28.318  -1.973  1.00  0.00     0.041 C 
BRANCH   2   4
ATOM      4  O   UNL     1      46.900  26.335  -3.147  1.00  0.00    -0.391 OA
ATOM      5  H   UNL     1      47.567  26.103  -2.450  1.00  0.00     0.211 HD
ENDBRANCH   2   4
ENDBRANCH   1   2
BRANCH   1   6
ATOM      6  C   UNL     1      44.681  27.760  -4.694  1.00  0.00     0.181 C 
BRANCH   6   7
ATOM      7  C   UNL     1      44.097  28.113  -6.086  1.00  0.00     0.209 C 
BRANCH   7   8
ATOM      8  C   UNL     1      42.683  28.626  -5.985  1.00  0.00     0.258 C 
ATOM      9  O   UNL     1      41.889  28.105  -5.217  1.00  0.00    -0.300 OA
ENDBRANCH   7   8
BRANCH   7  10
ATOM     10  O   UNL     1      44.128  26.996  -6.939  1.00  0.00    -0.383 OA
ATOM     11  H   UNL     1      45.061  26.893  -7.265  1.00  0.00     0.211 HD
ENDBRANCH   7  10
ENDBRANCH   6   7
BRANCH   6  12
ATOM     12  O   UNL     1      44.537  26.379  -4.473  1.00  0.00    -0.387 OA
ATOM     13  H   UNL     1      44.590  26.230  -3.493  1.00  0.00     0.211 HD
ENDBRANCH   6  12
ENDBRANCH   1   6
BRANCH   1  14
ATOM     14  O   UNL     1      46.931  27.741  -5.692  1.00  0.00    -0.388 OA
ATOM     15  H   UNL     1      47.697  27.204  -5.366  1.00  0.00     0.211 HD
ENDBRANCH   1  14
TORSDOF 8
ENDMDL
MODEL 2
REMARK VINA RESULT:    -3.277      7.083      7.614
REMARK INTER + INTRA:          -5.023
REMARK INTER:                  -4.326
REMARK INTRA:                  -0.697
REMARK UNBOUND:                -0.597
REMARK SMILES C[C@@H](O)[C@@H](O)[C@H](O)[C@@H](O)C=O
REMARK SMILES IDX 4 1 2 2 1 3 3 4 6 6 8 7 10 8 11 9 9 10 7 12 5 14
REMARK H PARENT 3 5 9 11 7 13 5 15
REMARK Flexibility Score: inf
ROOT
ATOM      1  C   UNL     1      45.747  27.264   2.815  1.00  0.00     0.174 C 
ENDROOT
BRANCH   1   2
ATOM      2  C   UNL     1      46.175  26.110   3.766  1.00  0.00     0.142 C 
ATOM      3  C   UNL     1      46.319  26.505   5.244  1.00  0.00     0.041 C 
BRANCH   2   4
ATOM      4  O   UNL     1      45.287  25.027   3.642  1.00  0.00    -0.391 OA
ATOM      5  H   UNL     1      44.369  25.398   3.570  1.00  0.00     0.211 HD
ENDBRANCH   2   4
ENDBRANCH   1   2
BRANCH   1   6
ATOM      6  C   UNL     1      44.204  27.412   2.654  1.00  0.00     0.181 C 
BRANCH   6   7
ATOM      7  C   UNL     1      43.784  28.892   2.469  1.00  0.00     0.209 C 
BRANCH   7   8
ATOM      8  C   UNL     1      42.286  29.042   2.389  1.00  0.00     0.258 C 
ATOM      9  O   UNL     1      41.557  28.085   2.597  1.00  0.00    -0.300 OA
ENDBRANCH   7   8
BRANCH   7  10
ATOM     10  O   UNL     1      44.370  29.437   1.313  1.00  0.00    -0.383 OA
ATOM     11  H   UNL     1      44.125  30.399   1.277  1.00  0.00     0.211 HD
ENDBRANCH   7  10
ENDBRANCH   6   7
BRANCH   6  12
ATOM     12  O   UNL     1      43.766  26.668   1.545  1.00  0.00    -0.387 OA
ATOM     13  H   UNL     1      43.012  26.099   1.851  1.00  0.00     0.211 HD
ENDBRANCH   6  12
ENDBRANCH   1   6
BRANCH   1  14
ATOM     14  O   UNL     1      46.404  27.191   1.572  1.00  0.00    -0.388 OA
ATOM     15  H   UNL     1      46.707  26.258   1.435  1.00  0.00     0.211 HD
ENDBRANCH   1  14
TORSDOF 8
ENDMDL
MODEL 3
REMARK VINA RESULT:    -3.141      6.913      8.740
REMARK INTER + INTRA:          -4.840
REMARK INTER:                  -4.242
REMARK INTRA:                  -0.598
REMARK UNBOUND:                -0.597
REMARK SMILES C[C@@H](O)[C@@H](O)[C@H](O)[C@@H](O)C=O
REMARK SMILES IDX 4 1 2 2 1 3 3 4 6 6 8 7 10 8 11 9 9 10 7 12 5 14
REMARK H PARENT 3 5 9 11 7 13 5 15
REMARK Flexibility Score: inf
ROOT
ATOM      1  C   UNL     1      44.576  28.407   2.412  1.00  0.00     0.174 C 
ENDROOT
BRANCH   1   2
ATOM      2  C   UNL     1      43.378  27.417   2.357  1.00  0.00     0.142 C 
ATOM      3  C   UNL     1      41.990  28.072   2.438  1.00  0.00     0.041 C 
BRANCH   2   4
ATOM      4  O   UNL     1      43.464  26.618   1.204  1.00  0.00    -0.391 OA
ATOM      5  H   UNL     1      42.635  26.074   1.152  1.00  0.00     0.211 HD
ENDBRANCH   2   4
ENDBRANCH   1   2
BRANCH   1   6
ATOM      6  C   UNL     1      45.946  27.726   2.702  1.00  0.00     0.181 C 
BRANCH   6   7
ATOM      7  C   UNL     1      45.824  26.628   3.790  1.00  0.00     0.209 C 
BRANCH   7   8
ATOM      8  C   UNL     1      46.385  27.086   5.112  1.00  0.00     0.258 C 
ATOM      9  O   UNL     1      46.068  28.170   5.575  1.00  0.00    -0.300 OA
ENDBRANCH   7   8
BRANCH   7  10
ATOM     10  O   UNL     1      46.481  25.451   3.388  1.00  0.00    -0.383 OA
ATOM     11  H   UNL     1      46.927  25.637   2.520  1.00  0.00     0.211 HD
ENDBRANCH   7  10
ENDBRANCH   6   7
BRANCH   6  12
ATOM     12  O   UNL     1      46.454  27.151   1.524  1.00  0.00    -0.387 OA
ATOM     13  H   UNL     1      47.444  27.207   1.572  1.00  0.00     0.211 HD
ENDBRANCH   6  12
ENDBRANCH   1   6
BRANCH   1  14
ATOM     14  O   UNL     1      44.326  29.485   3.284  1.00  0.00    -0.388 OA
ATOM     15  H   UNL     1      44.589  30.323   2.826  1.00  0.00     0.211 HD
ENDBRANCH   1  14
TORSDOF 8
ENDMDL
MODEL 4
REMARK VINA RESULT:    -3.098      6.802      8.604
REMARK INTER + INTRA:          -4.782
REMARK INTER:                  -4.186
REMARK INTRA:                  -0.596
REMARK UNBOUND:                -0.597
REMARK SMILES C[C@@H](O)[C@@H](O)[C@H](O)[C@@H](O)C=O
REMARK SMILES IDX 4 1 2 2 1 3 3 4 6 6 8 7 10 8 11 9 9 10 7 12 5 14
REMARK H PARENT 3 5 9 11 7 13 5 15
REMARK Flexibility Score: inf
ROOT
ATOM      1  C   UNL     1      43.917  27.516   2.287  1.00  0.00     0.174 C 
ENDROOT
BRANCH   1   2
ATOM      2  C   UNL     1      42.948  28.730   2.223  1.00  0.00     0.142 C 
ATOM      3  C   UNL     1      41.507  28.436   2.670  1.00  0.00     0.041 C 
BRANCH   2   4
ATOM      4  O   UNL     1      43.470  29.805   2.964  1.00  0.00    -0.391 OA
ATOM      5  H   UNL     1      43.894  29.430   3.780  1.00  0.00     0.211 HD
ENDBRANCH   2   4
ENDBRANCH   1   2
BRANCH   1   6
ATOM      6  C   UNL     1      45.423  27.910   2.335  1.00  0.00     0.181 C 
BRANCH   6   7
ATOM      7  C   UNL     1      46.060  27.587   3.711  1.00  0.00     0.209 C 
BRANCH   7   8
ATOM      8  C   UNL     1      45.634  26.233   4.220  1.00  0.00     0.258 C 
ATOM      9  O   UNL     1      46.064  25.215   3.702  1.00  0.00    -0.300 OA
ENDBRANCH   7   8
BRANCH   7  10
ATOM     10  O   UNL     1      45.723  28.569   4.660  1.00  0.00    -0.383 OA
ATOM     11  H   UNL     1      46.103  28.287   5.533  1.00  0.00     0.211 HD
ENDBRANCH   7  10
ENDBRANCH   6   7
BRANCH   6  12
ATOM     12  O   UNL     1      46.130  27.225   1.331  1.00  0.00    -0.387 OA
ATOM     13  H   UNL     1      45.601  27.302   0.494  1.00  0.00     0.211 HD
ENDBRANCH   6  12
ENDBRANCH   1   6
BRANCH   1  14
ATOM     14  O   UNL     1      43.648  26.576   1.272  1.00  0.00    -0.388 OA
ATOM     15  H   UNL     1      44.259  25.806   1.392  1.00  0.00     0.211 HD
ENDBRANCH   1  14
TORSDOF 8
ENDMDL
MODEL 5
REMARK VINA RESULT:    -2.983      1.740      4.210
REMARK INTER + INTRA:          -4.627
REMARK INTER:                  -4.210
REMARK INTRA:                  -0.418
REMARK UNBOUND:                -0.597
REMARK SMILES C[C@@H](O)[C@@H](O)[C@H](O)[C@@H](O)C=O
REMARK SMILES IDX 4 1 2 2 1 3 3 4 6 6 8 7 10 8 11 9 9 10 7 12 5 14
REMARK H PARENT 3 5 9 11 7 13 5 15
REMARK Flexibility Score: inf
ROOT
ATOM      1  C   UNL     1      45.523  27.488  -4.519  1.00  0.00     0.174 C 
ENDROOT
BRANCH   1   2
ATOM      2  C   UNL     1      45.626  27.820  -6.035  1.00  0.00     0.142 C 
ATOM      3  C   UNL     1      47.008  28.305  -6.501  1.00  0.00     0.041 C 
BRANCH   2   4
ATOM      4  O   UNL     1      45.222  26.714  -6.801  1.00  0.00    -0.391 OA
ATOM      5  H   UNL     1      45.959  26.049  -6.782  1.00  0.00     0.211 HD
ENDBRANCH   2   4
ENDBRANCH   1   2
BRANCH   1   6
ATOM      6  C   UNL     1      46.891  27.499  -3.774  1.00  0.00     0.181 C 
BRANCH   6   7
ATOM      7  C   UNL     1      46.996  28.684  -2.781  1.00  0.00     0.209 C 
BRANCH   7   8
ATOM      8  C   UNL     1      46.226  28.420  -1.512  1.00  0.00     0.258 C 
ATOM      9  O   UNL     1      46.766  27.876  -0.562  1.00  0.00    -0.300 OA
ENDBRANCH   7   8
BRANCH   7  10
ATOM     10  O   UNL     1      46.532  29.873  -3.370  1.00  0.00    -0.383 OA
ATOM     11  H   UNL     1      45.615  30.041  -3.026  1.00  0.00     0.211 HD
ENDBRANCH   7  10
ENDBRANCH   6   7
BRANCH   6  12
ATOM     12  O   UNL     1      47.063  26.294  -3.071  1.00  0.00    -0.387 OA
ATOM     13  H   UNL     1      48.030  26.209  -2.864  1.00  0.00     0.211 HD
ENDBRANCH   6  12
ENDBRANCH   1   6
BRANCH   1  14
ATOM     14  O   UNL     1      44.805  26.298  -4.290  1.00  0.00    -0.388 OA
ATOM     15  H   UNL     1      45.391  25.672  -3.795  1.00  0.00     0.211 HD
ENDBRANCH   1  14
TORSDOF 8
ENDMDL
MODEL 6
REMARK VINA RESULT:    -2.963      1.305      2.205
REMARK INTER + INTRA:          -4.600
REMARK INTER:                  -4.205
REMARK INTRA:                  -0.395
REMARK UNBOUND:                -0.597
REMARK SMILES C[C@@H](O)[C@@H](O)[C@H](O)[C@@H](O)C=O
REMARK SMILES IDX 4 1 2 2 1 3 3 4 6 6 8 7 10 8 11 9 9 10 7 12 5 14
REMARK H PARENT 3 5 9 11 7 13 5 15
REMARK Flexibility Score: inf
ROOT
ATOM      1  C   UNL     1      46.721  27.567  -3.302  1.00  0.00     0.174 C 
ENDROOT
BRANCH   1   2
ATOM      2  C   UNL     1      46.612  28.456  -2.031  1.00  0.00     0.142 C 
ATOM      3  C   UNL     1      45.941  29.821  -2.248  1.00  0.00     0.041 C 
BRANCH   2   4
ATOM      4  O   UNL     1      45.955  27.756  -1.005  1.00  0.00    -0.391 OA
ATOM      5  H   UNL     1      46.625  27.174  -0.560  1.00  0.00     0.211 HD
ENDBRANCH   2   4
ENDBRANCH   1   2
BRANCH   1   6
ATOM      6  C   UNL     1      45.450  27.594  -4.203  1.00  0.00     0.181 C 
BRANCH   6   7
ATOM      7  C   UNL     1      45.743  28.217  -5.592  1.00  0.00     0.209 C 
BRANCH   7   8
ATOM      8  C   UNL     1      45.042  27.470  -6.698  1.00  0.00     0.258 C 
ATOM      9  O   UNL     1      43.825  27.488  -6.783  1.00  0.00    -0.300 OA
ENDBRANCH   7   8
BRANCH   7  10
ATOM     10  O   UNL     1      47.125  28.241  -5.848  1.00  0.00    -0.383 OA
ATOM     11  H   UNL     1      47.531  27.465  -5.380  1.00  0.00     0.211 HD
ENDBRANCH   7  10
ENDBRANCH   6   7
BRANCH   6  12
ATOM     12  O   UNL     1      44.960  26.288  -4.380  1.00  0.00    -0.387 OA
ATOM     13  H   UNL     1      45.400  25.915  -5.188  1.00  0.00     0.211 HD
ENDBRANCH   6  12
ENDBRANCH   1   6
BRANCH   1  14
ATOM     14  O   UNL     1      47.120  26.252  -2.990  1.00  0.00    -0.388 OA
ATOM     15  H   UNL     1      46.768  26.025  -2.093  1.00  0.00     0.211 HD
ENDBRANCH   1  14
TORSDOF 8
ENDMDL
MODEL 7
REMARK VINA RESULT:    -2.882      5.815      8.459
REMARK INTER + INTRA:          -4.490
REMARK INTER:                  -3.976
REMARK INTRA:                  -0.514
REMARK UNBOUND:                -0.597
REMARK SMILES C[C@@H](O)[C@@H](O)[C@H](O)[C@@H](O)C=O
REMARK SMILES IDX 4 1 2 2 1 3 3 4 6 6 8 7 10 8 11 9 9 10 7 12 5 14
REMARK H PARENT 3 5 9 11 7 13 5 15
REMARK Flexibility Score: inf
ROOT
ATOM      1  C   UNL     1      44.813  27.831   1.996  1.00  0.00     0.174 C 
ENDROOT
BRANCH   1   2
ATOM      2  C   UNL     1      45.227  28.658   0.745  1.00  0.00     0.142 C 
ATOM      3  C   UNL     1      46.075  29.904   1.042  1.00  0.00     0.041 C 
BRANCH   2   4
ATOM      4  O   UNL     1      45.890  27.834  -0.181  1.00  0.00    -0.391 OA
ATOM      5  H   UNL     1      45.199  27.395  -0.742  1.00  0.00     0.211 HD
ENDBRANCH   2   4
ENDBRANCH   1   2
BRANCH   1   6
ATOM      6  C   UNL     1      46.011  27.403   2.895  1.00  0.00     0.181 C 
BRANCH   6   7
ATOM      7  C   UNL     1      45.551  26.525   4.088  1.00  0.00     0.209 C 
BRANCH   7   8
ATOM      8  C   UNL     1      46.503  26.623   5.253  1.00  0.00     0.258 C 
ATOM      9  O   UNL     1      46.096  26.490   6.396  1.00  0.00    -0.300 OA
ENDBRANCH   7   8
BRANCH   7  10
ATOM     10  O   UNL     1      45.425  25.180   3.699  1.00  0.00    -0.383 OA
ATOM     11  H   UNL     1      44.484  25.034   3.419  1.00  0.00     0.211 HD
ENDBRANCH   7  10
ENDBRANCH   6   7
BRANCH   6  12
ATOM     12  O   UNL     1      46.949  26.686   2.133  1.00  0.00    -0.387 OA
ATOM     13  H   UNL     1      46.569  25.783   1.971  1.00  0.00     0.211 HD
ENDBRANCH   6  12
ENDBRANCH   1   6
BRANCH   1  14
ATOM     14  O   UNL     1      43.990  26.740   1.655  1.00  0.00    -0.388 OA
ATOM     15  H   UNL     1      43.670  26.870   0.727  1.00  0.00     0.211 HD
ENDBRANCH   1  14
TORSDOF 8
ENDMDL
MODEL 8
REMARK VINA RESULT:    -2.846      6.114      7.762
REMARK INTER + INTRA:          -4.442
REMARK INTER:                  -3.519
REMARK INTRA:                  -0.923
REMARK UNBOUND:                -0.597
REMARK SMILES C[C@@H](O)[C@@H](O)[C@H](O)[C@@H](O)C=O
REMARK SMILES IDX 4 1 2 2 1 3 3 4 6 6 8 7 10 8 11 9 9 10 7 12 5 14
REMARK H PARENT 3 5 9 11 7 13 5 15
REMARK Flexibility Score: inf
ROOT
ATOM      1  C   UNL     1      46.354  27.289   3.082  1.00  0.00     0.174 C 
ENDROOT
BRANCH   1   2
ATOM      2  C   UNL     1      46.384  26.033   3.999  1.00  0.00     0.142 C 
ATOM      3  C   UNL     1      46.353  26.329   5.507  1.00  0.00     0.041 C 
BRANCH   2   4
ATOM      4  O   UNL     1      45.334  25.162   3.660  1.00  0.00    -0.391 OA
ATOM      5  H   UNL     1      45.703  24.240   3.639  1.00  0.00     0.211 HD
ENDBRANCH   2   4
ENDBRANCH   1   2
BRANCH   1   6
ATOM      6  C   UNL     1      44.920  27.804   2.760  1.00  0.00     0.181 C 
BRANCH   6   7
ATOM      7  C   UNL     1      44.906  29.327   2.472  1.00  0.00     0.209 C 
BRANCH   7   8
ATOM      8  C   UNL     1      44.811  29.615   0.995  1.00  0.00     0.258 C 
ATOM      9  O   UNL     1      45.670  29.209   0.229  1.00  0.00    -0.300 OA
ENDBRANCH   7   8
BRANCH   7  10
ATOM     10  O   UNL     1      46.055  29.945   2.995  1.00  0.00    -0.383 OA
ATOM     11  H   UNL     1      46.088  30.871   2.637  1.00  0.00     0.211 HD
ENDBRANCH   7  10
ENDBRANCH   6   7
BRANCH   6  12
ATOM     12  O   UNL     1      44.405  27.121   1.645  1.00  0.00    -0.387 OA
ATOM     13  H   UNL     1      43.881  26.350   1.986  1.00  0.00     0.211 HD
ENDBRANCH   6  12
ENDBRANCH   1   6
BRANCH   1  14
ATOM     14  O   UNL     1      47.125  27.106   1.917  1.00  0.00    -0.388 OA
ATOM     15  H   UNL     1      47.921  27.692   1.976  1.00  0.00     0.211 HD
ENDBRANCH   1  14
TORSDOF 8
ENDMDL
MODEL 9
REMARK VINA RESULT:    -2.844      4.502      6.533
REMARK INTER + INTRA:          -4.438
REMARK INTER:                  -3.748
REMARK INTRA:                  -0.691
REMARK UNBOUND:                -0.597
REMARK SMILES C[C@@H](O)[C@@H](O)[C@H](O)[C@@H](O)C=O
REMARK SMILES IDX 4 1 2 2 1 3 3 4 6 6 8 7 10 8 11 9 9 10 7 12 5 14
REMARK H PARENT 3 5 9 11 7 13 5 15
REMARK Flexibility Score: inf
ROOT
ATOM      1  C   UNL     1      44.563  28.813   1.789  1.00  0.00     0.174 C 
ENDROOT
BRANCH   1   2
ATOM      2  C   UNL     1      43.678  27.793   2.559  1.00  0.00     0.142 C 
ATOM      3  C   UNL     1      42.163  27.979   2.376  1.00  0.00     0.041 C 
BRANCH   2   4
ATOM      4  O   UNL     1      44.045  26.480   2.219  1.00  0.00    -0.391 OA
ATOM      5  H   UNL     1      44.840  26.533   1.627  1.00  0.00     0.211 HD
ENDBRANCH   2   4
ENDBRANCH   1   2
BRANCH   1   6
ATOM      6  C   UNL     1      45.435  28.174   0.667  1.00  0.00     0.181 C 
BRANCH   6   7
ATOM      7  C   UNL     1      45.926  29.232  -0.353  1.00  0.00     0.209 C 
BRANCH   7   8
ATOM      8  C   UNL     1      46.325  28.602  -1.664  1.00  0.00     0.258 C 
ATOM      9  O   UNL     1      46.137  27.412  -1.860  1.00  0.00    -0.300 OA
ENDBRANCH   7   8
BRANCH   7  10
ATOM     10  O   UNL     1      47.013  29.959   0.165  1.00  0.00    -0.383 OA
ATOM     11  H   UNL     1      47.809  29.364   0.147  1.00  0.00     0.211 HD
ENDBRANCH   7  10
ENDBRANCH   6   7
BRANCH   6  12
ATOM     12  O   UNL     1      46.549  27.531   1.234  1.00  0.00    -0.387 OA
ATOM     13  H   UNL     1      46.247  27.109   2.080  1.00  0.00     0.211 HD
ENDBRANCH   6  12
ENDBRANCH   1   6
BRANCH   1  14
ATOM     14  O   UNL     1      45.328  29.610   2.664  1.00  0.00    -0.388 OA
ATOM     15  H   UNL     1      45.715  29.022   3.360  1.00  0.00     0.211 HD
ENDBRANCH   1  14
TORSDOF 8
ENDMDL
