MODEL 1
REMARK VINA RESULT:    -4.885      0.000      0.000
REMARK INTER + INTRA:         -10.808
REMARK INTER:                  -9.169
REMARK INTRA:                  -1.640
REMARK UNBOUND:                -1.640
REMARK SMILES O=C([O-])CCCCCCCCCCCCCCC(=O)[O-]
REMARK SMILES IDX 10 1 9 2 8 3 7 4 6 5 5 6 4 7 2 8 1 9 3 10 11 11 12 12 13 13
REMARK SMILES IDX 14 14 15 15 16 16 17 17 18 18 19 19 20 20
REMARK H PARENT
REMARK Flexibility Score: inf
ROOT
ATOM      1  C   UNL     1       3.443 -11.576   3.463  1.00  0.00     0.000 C 
ENDROOT
BRANCH   1   2
ATOM      2  C   UNL     1       3.006 -11.286   2.011  1.00  0.00     0.000 C 
BRANCH   2   3
ATOM      3  C   UNL     1       4.170 -11.299   1.004  1.00  0.00     0.000 C 
BRANCH   3   4
ATOM      4  C   UNL     1       4.703 -12.713   0.730  1.00  0.00     0.000 C 
BRANCH   4   5
ATOM      5  C   UNL     1       6.046 -12.984   1.426  1.00  0.00     0.000 C 
BRANCH   5   6
ATOM      6  C   UNL     1       7.255 -12.706   0.516  1.00  0.00     0.006 C 
BRANCH   6   7
ATOM      7  C   UNL     1       8.370 -13.744   0.702  1.00  0.00     0.053 C 
BRANCH   7   8
ATOM      8  C   UNL     1       8.140 -14.962  -0.137  1.00  0.00     0.041 C 
ATOM      9  O   UNL     1       7.726 -14.845  -1.321  1.00  0.00    -0.550 OA
ATOM     10  O   UNL     1       8.417 -16.223   0.373  1.00  0.00    -0.550 OA
ENDBRANCH   7   8
ENDBRANCH   6   7
ENDBRANCH   5   6
ENDBRANCH   4   5
ENDBRANCH   3   4
ENDBRANCH   2   3
ENDBRANCH   1   2
BRANCH   1  11
ATOM     11  C   UNL     1       2.680 -12.767   4.069  1.00  0.00     0.000 C 
BRANCH  11  12
ATOM     12  C   UNL     1       3.562 -14.015   4.229  1.00  0.00     0.000 C 
BRANCH  12  13
ATOM     13  C   UNL     1       4.921 -13.698   4.877  1.00  0.00     0.000 C 
BRANCH  13  14
ATOM     14  C   UNL     1       4.812 -13.444   6.390  1.00  0.00     0.000 C 
BRANCH  14  15
ATOM     15  C   UNL     1       5.950 -12.556   6.921  1.00  0.00     0.000 C 
BRANCH  15  16
ATOM     16  C   UNL     1       5.540 -11.080   7.042  1.00  0.00     0.006 C 
BRANCH  16  17
ATOM     17  C   UNL     1       4.019 -10.882   7.019  1.00  0.00     0.053 C 
BRANCH  17  18
ATOM     18  C   UNL     1       3.680  -9.476   6.635  1.00  0.00     0.041 C 
ATOM     19  O   UNL     1       2.682  -8.902   7.147  1.00  0.00    -0.550 OA
ATOM     20  O   UNL     1       4.491  -8.784   5.744  1.00  0.00    -0.550 OA
ENDBRANCH  17  18
ENDBRANCH  16  17
ENDBRANCH  15  16
ENDBRANCH  14  15
ENDBRANCH  13  14
ENDBRANCH  12  13
ENDBRANCH  11  12
ENDBRANCH   1  11
TORSDOF 15
ENDMDL
MODEL 2
REMARK VINA RESULT:    -4.715      1.245      2.430
REMARK INTER + INTRA:         -10.490
REMARK INTER:                  -8.902
REMARK INTRA:                  -1.588
REMARK UNBOUND:                -1.640
REMARK SMILES O=C([O-])CCCCCCCCCCCCCCC(=O)[O-]
REMARK SMILES IDX 10 1 9 2 8 3 7 4 6 5 5 6 4 7 2 8 1 9 3 10 11 11 12 12 13 13
REMARK SMILES IDX 14 14 15 15 16 16 17 17 18 18 19 19 20 20
REMARK H PARENT
REMARK Flexibility Score: inf
ROOT
ATOM      1  C   UNL     1       3.209 -14.014   4.613  1.00  0.00     0.000 C 
ENDROOT
BRANCH   1   2
ATOM      2  C   UNL     1       2.765 -12.859   3.690  1.00  0.00     0.000 C 
BRANCH   2   3
ATOM      3  C   UNL     1       3.931 -11.993   3.182  1.00  0.00     0.000 C 
BRANCH   3   4
ATOM      4  C   UNL     1       3.528 -11.078   2.016  1.00  0.00     0.000 C 
BRANCH   4   5
ATOM      5  C   UNL     1       4.242 -11.443   0.704  1.00  0.00     0.000 C 
BRANCH   5   6
ATOM      6  C   UNL     1       5.174 -12.658   0.852  1.00  0.00     0.006 C 
BRANCH   6   7
ATOM      7  C   UNL     1       6.353 -12.605  -0.129  1.00  0.00     0.053 C 
BRANCH   7   8
ATOM      8  C   UNL     1       7.424 -13.585   0.239  1.00  0.00     0.041 C 
ATOM      9  O   UNL     1       8.485 -13.187   0.788  1.00  0.00    -0.550 OA
ATOM     10  O   UNL     1       7.236 -14.942   0.009  1.00  0.00    -0.550 OA
ENDBRANCH   7   8
ENDBRANCH   6   7
ENDBRANCH   5   6
ENDBRANCH   4   5
ENDBRANCH   3   4
ENDBRANCH   2   3
ENDBRANCH   1   2
BRANCH   1  11
ATOM     11  C   UNL     1       4.706 -13.933   4.961  1.00  0.00     0.000 C 
BRANCH  11  12
ATOM     12  C   UNL     1       4.953 -13.503   6.415  1.00  0.00     0.000 C 
BRANCH  12  13
ATOM     13  C   UNL     1       5.963 -12.347   6.525  1.00  0.00     0.000 C 
BRANCH  13  14
ATOM     14  C   UNL     1       5.408 -11.147   7.310  1.00  0.00     0.000 C 
BRANCH  14  15
ATOM     15  C   UNL     1       3.981 -10.769   6.875  1.00  0.00     0.000 C 
BRANCH  15  16
ATOM     16  C   UNL     1       3.964  -9.694   5.778  1.00  0.00     0.006 C 
BRANCH  16  17
ATOM     17  C   UNL     1       4.586  -8.367   6.235  1.00  0.00     0.053 C 
BRANCH  17  18
ATOM     18  C   UNL     1       3.528  -7.444   6.752  1.00  0.00     0.041 C 
ATOM     19  O   UNL     1       3.843  -6.456   7.467  1.00  0.00    -0.550 OA
ATOM     20  O   UNL     1       2.197  -7.649   6.409  1.00  0.00    -0.550 OA
ENDBRANCH  17  18
ENDBRANCH  16  17
ENDBRANCH  15  16
ENDBRANCH  14  15
ENDBRANCH  13  14
ENDBRANCH  12  13
ENDBRANCH  11  12
ENDBRANCH   1  11
TORSDOF 15
ENDMDL
MODEL 3
REMARK VINA RESULT:    -4.709      0.807      7.297
REMARK INTER + INTRA:         -10.477
REMARK INTER:                  -8.883
REMARK INTRA:                  -1.595
REMARK UNBOUND:                -1.640
REMARK SMILES O=C([O-])CCCCCCCCCCCCCCC(=O)[O-]
REMARK SMILES IDX 10 1 9 2 8 3 7 4 6 5 5 6 4 7 2 8 1 9 3 10 11 11 12 12 13 13
REMARK SMILES IDX 14 14 15 15 16 16 17 17 18 18 19 19 20 20
REMARK H PARENT
REMARK Flexibility Score: inf
ROOT
ATOM      1  C   UNL     1       2.607 -13.181   4.254  1.00  0.00     0.000 C 
ENDROOT
BRANCH   1   2
ATOM      2  C   UNL     1       3.664 -14.299   4.131  1.00  0.00     0.000 C 
BRANCH   2   3
ATOM      3  C   UNL     1       5.008 -13.951   4.795  1.00  0.00     0.000 C 
BRANCH   3   4
ATOM      4  C   UNL     1       4.845 -13.450   6.238  1.00  0.00     0.000 C 
BRANCH   4   5
ATOM      5  C   UNL     1       5.950 -12.464   6.650  1.00  0.00     0.000 C 
BRANCH   5   6
ATOM      6  C   UNL     1       5.394 -11.182   7.294  1.00  0.00     0.006 C 
BRANCH   6   7
ATOM      7  C   UNL     1       3.923 -10.942   6.926  1.00  0.00     0.053 C 
BRANCH   7   8
ATOM      8  C   UNL     1       3.631  -9.487   6.727  1.00  0.00     0.041 C 
ATOM      9  O   UNL     1       2.692  -8.938   7.360  1.00  0.00    -0.550 OA
ATOM     10  O   UNL     1       4.419  -8.729   5.871  1.00  0.00    -0.550 OA
ENDBRANCH   7   8
ENDBRANCH   6   7
ENDBRANCH   5   6
ENDBRANCH   4   5
ENDBRANCH   3   4
ENDBRANCH   2   3
ENDBRANCH   1   2
BRANCH   1  11
ATOM     11  C   UNL     1       2.306 -12.518   2.898  1.00  0.00     0.000 C 
BRANCH  11  12
ATOM     12  C   UNL     1       3.072 -11.200   2.701  1.00  0.00     0.000 C 
BRANCH  12  13
ATOM     13  C   UNL     1       3.920 -11.197   1.417  1.00  0.00     0.000 C 
BRANCH  13  14
ATOM     14  C   UNL     1       4.283 -12.614   0.943  1.00  0.00     0.000 C 
BRANCH  14  15
ATOM     15  C   UNL     1       5.758 -12.964   1.211  1.00  0.00     0.000 C 
BRANCH  15  16
ATOM     16  C   UNL     1       6.684 -12.538   0.062  1.00  0.00     0.006 C 
BRANCH  16  17
ATOM     17  C   UNL     1       7.211 -13.729  -0.750  1.00  0.00     0.053 C 
BRANCH  17  18
ATOM     18  C   UNL     1       8.132 -14.564   0.083  1.00  0.00     0.041 C 
ATOM     19  O   UNL     1       7.968 -15.811   0.154  1.00  0.00    -0.550 OA
ATOM     20  O   UNL     1       9.199 -13.971   0.748  1.00  0.00    -0.550 OA
ENDBRANCH  17  18
ENDBRANCH  16  17
ENDBRANCH  15  16
ENDBRANCH  14  15
ENDBRANCH  13  14
ENDBRANCH  12  13
ENDBRANCH  11  12
ENDBRANCH   1  11
TORSDOF 15
ENDMDL
MODEL 4
REMARK VINA RESULT:    -4.636      1.479      8.042
REMARK INTER + INTRA:         -10.340
REMARK INTER:                  -9.191
REMARK INTRA:                  -1.149
REMARK UNBOUND:                -1.640
REMARK SMILES O=C([O-])CCCCCCCCCCCCCCC(=O)[O-]
REMARK SMILES IDX 10 1 9 2 8 3 7 4 6 5 5 6 4 7 2 8 1 9 3 10 11 11 12 12 13 13
REMARK SMILES IDX 14 14 15 15 16 16 17 17 18 18 19 19 20 20
REMARK H PARENT
REMARK Flexibility Score: inf
ROOT
ATOM      1  C   UNL     1       4.846 -13.305   6.385  1.00  0.00     0.000 C 
ENDROOT
BRANCH   1   2
ATOM      2  C   UNL     1       5.911 -12.269   6.805  1.00  0.00     0.000 C 
BRANCH   2   3
ATOM      3  C   UNL     1       5.317 -10.918   7.242  1.00  0.00     0.000 C 
BRANCH   3   4
ATOM      4  C   UNL     1       3.943 -10.642   6.612  1.00  0.00     0.000 C 
BRANCH   4   5
ATOM      5  C   UNL     1       3.984  -9.497   5.587  1.00  0.00     0.000 C 
BRANCH   5   6
ATOM      6  C   UNL     1       4.490  -8.175   6.191  1.00  0.00     0.006 C 
BRANCH   6   7
ATOM      7  C   UNL     1       3.432  -7.066   6.124  1.00  0.00     0.053 C 
BRANCH   7   8
ATOM      8  C   UNL     1       2.707  -6.912   7.425  1.00  0.00     0.041 C 
ATOM      9  O   UNL     1       2.924  -5.909   8.155  1.00  0.00    -0.550 OA
ATOM     10  O   UNL     1       1.765  -7.855   7.814  1.00  0.00    -0.550 OA
ENDBRANCH   7   8
ENDBRANCH   6   7
ENDBRANCH   5   6
ENDBRANCH   4   5
ENDBRANCH   3   4
ENDBRANCH   2   3
ENDBRANCH   1   2
BRANCH   1  11
ATOM     11  C   UNL     1       4.991 -13.717   4.909  1.00  0.00     0.000 C 
BRANCH  11  12
ATOM     12  C   UNL     1       3.639 -13.802   4.184  1.00  0.00     0.000 C 
BRANCH  12  13
ATOM     13  C   UNL     1       3.773 -13.613   2.662  1.00  0.00     0.000 C 
BRANCH  13  14
ATOM     14  C   UNL     1       5.150 -13.067   2.252  1.00  0.00     0.000 C 
BRANCH  14  15
ATOM     15  C   UNL     1       5.188 -12.611   0.782  1.00  0.00     0.000 C 
BRANCH  15  16
ATOM     16  C   UNL     1       6.618 -12.527   0.227  1.00  0.00     0.006 C 
BRANCH  16  17
ATOM     17  C   UNL     1       7.662 -13.123   1.181  1.00  0.00     0.053 C 
BRANCH  17  18
ATOM     18  C   UNL     1       8.382 -14.259   0.525  1.00  0.00     0.041 C 
ATOM     19  O   UNL     1       9.597 -14.145   0.214  1.00  0.00    -0.550 OA
ATOM     20  O   UNL     1       7.723 -15.460   0.296  1.00  0.00    -0.550 OA
ENDBRANCH  17  18
ENDBRANCH  16  17
ENDBRANCH  15  16
ENDBRANCH  14  15
ENDBRANCH  13  14
ENDBRANCH  12  13
ENDBRANCH  11  12
ENDBRANCH   1  11
TORSDOF 15
ENDMDL
MODEL 5
REMARK VINA RESULT:    -4.617      1.790      7.025
REMARK INTER + INTRA:         -10.306
REMARK INTER:                  -8.668
REMARK INTRA:                  -1.638
REMARK UNBOUND:                -1.640
REMARK SMILES O=C([O-])CCCCCCCCCCCCCCC(=O)[O-]
REMARK SMILES IDX 10 1 9 2 8 3 7 4 6 5 5 6 4 7 2 8 1 9 3 10 11 11 12 12 13 13
REMARK SMILES IDX 14 14 15 15 16 16 17 17 18 18 19 19 20 20
REMARK H PARENT
REMARK Flexibility Score: inf
ROOT
ATOM      1  C   UNL     1       4.854 -13.444   6.290  1.00  0.00     0.000 C 
ENDROOT
BRANCH   1   2
ATOM      2  C   UNL     1       5.896 -12.326   6.508  1.00  0.00     0.000 C 
BRANCH   2   3
ATOM      3  C   UNL     1       5.353 -11.123   7.299  1.00  0.00     0.000 C 
BRANCH   3   4
ATOM      4  C   UNL     1       3.880 -10.821   6.983  1.00  0.00     0.000 C 
BRANCH   4   5
ATOM      5  C   UNL     1       3.673  -9.400   6.433  1.00  0.00     0.000 C 
BRANCH   5   6
ATOM      6  C   UNL     1       3.661  -9.354   4.895  1.00  0.00     0.006 C 
BRANCH   6   7
ATOM      7  C   UNL     1       2.503 -10.168   4.301  1.00  0.00     0.053 C 
BRANCH   7   8
ATOM      8  C   UNL     1       1.983  -9.554   3.039  1.00  0.00     0.041 C 
ATOM      9  O   UNL     1       2.595  -9.729   1.952  1.00  0.00    -0.550 OA
ATOM     10  O   UNL     1       0.806  -8.818   3.054  1.00  0.00    -0.550 OA
ENDBRANCH   7   8
ENDBRANCH   6   7
ENDBRANCH   5   6
ENDBRANCH   4   5
ENDBRANCH   3   4
ENDBRANCH   2   3
ENDBRANCH   1   2
BRANCH   1  11
ATOM     11  C   UNL     1       4.840 -13.947   4.836  1.00  0.00     0.000 C 
BRANCH  11  12
ATOM     12  C   UNL     1       3.490 -13.713   4.142  1.00  0.00     0.000 C 
BRANCH  12  13
ATOM     13  C   UNL     1       3.628 -13.565   2.616  1.00  0.00     0.000 C 
BRANCH  13  14
ATOM     14  C   UNL     1       4.803 -12.660   2.212  1.00  0.00     0.000 C 
BRANCH  14  15
ATOM     15  C   UNL     1       4.854 -12.402   0.696  1.00  0.00     0.000 C 
BRANCH  15  16
ATOM     16  C   UNL     1       6.289 -12.369   0.150  1.00  0.00     0.006 C 
BRANCH  16  17
ATOM     17  C   UNL     1       7.302 -13.023   1.099  1.00  0.00     0.053 C 
BRANCH  17  18
ATOM     18  C   UNL     1       8.093 -14.070   0.380  1.00  0.00     0.041 C 
ATOM     19  O   UNL     1       9.318 -14.221   0.630  1.00  0.00    -0.550 OA
ATOM     20  O   UNL     1       7.468 -14.908  -0.535  1.00  0.00    -0.550 OA
ENDBRANCH  17  18
ENDBRANCH  16  17
ENDBRANCH  15  16
ENDBRANCH  14  15
ENDBRANCH  13  14
ENDBRANCH  12  13
ENDBRANCH  11  12
ENDBRANCH   1  11
TORSDOF 15
ENDMDL
MODEL 6
REMARK VINA RESULT:    -4.472      1.478      2.041
REMARK INTER + INTRA:         -10.033
REMARK INTER:                  -8.714
REMARK INTRA:                  -1.319
REMARK UNBOUND:                -1.640
REMARK SMILES O=C([O-])CCCCCCCCCCCCCCC(=O)[O-]
REMARK SMILES IDX 10 1 9 2 8 3 7 4 6 5 5 6 4 7 2 8 1 9 3 10 11 11 12 12 13 13
REMARK SMILES IDX 14 14 15 15 16 16 17 17 18 18 19 19 20 20
REMARK H PARENT
REMARK Flexibility Score: inf
ROOT
ATOM      1  C   UNL     1       4.100 -13.338   2.511  1.00  0.00     0.000 C 
ENDROOT
BRANCH   1   2
ATOM      2  C   UNL     1       4.817 -12.389   1.527  1.00  0.00     0.000 C 
BRANCH   2   3
ATOM      3  C   UNL     1       5.177 -13.051   0.185  1.00  0.00     0.000 C 
BRANCH   3   4
ATOM      4  C   UNL     1       6.594 -12.696  -0.291  1.00  0.00     0.000 C 
BRANCH   4   5
ATOM      5  C   UNL     1       7.640 -12.816   0.828  1.00  0.00     0.000 C 
BRANCH   5   6
ATOM      6  C   UNL     1       8.573 -14.025   0.643  1.00  0.00     0.006 C 
BRANCH   6   7
ATOM      7  C   UNL     1       8.322 -14.750  -0.687  1.00  0.00     0.053 C 
BRANCH   7   8
ATOM      8  C   UNL     1       8.028 -16.203  -0.479  1.00  0.00     0.041 C 
ATOM      9  O   UNL     1       7.597 -16.904  -1.433  1.00  0.00    -0.550 OA
ATOM     10  O   UNL     1       8.264 -16.793   0.755  1.00  0.00    -0.550 OA
ENDBRANCH   7   8
ENDBRANCH   6   7
ENDBRANCH   5   6
ENDBRANCH   4   5
ENDBRANCH   3   4
ENDBRANCH   2   3
ENDBRANCH   1   2
BRANCH   1  11
ATOM     11  C   UNL     1       4.994 -13.715   3.705  1.00  0.00     0.000 C 
BRANCH  11  12
ATOM     12  C   UNL     1       4.250 -13.636   5.048  1.00  0.00     0.000 C 
BRANCH  12  13
ATOM     13  C   UNL     1       5.209 -13.599   6.252  1.00  0.00     0.000 C 
BRANCH  13  14
ATOM     14  C   UNL     1       5.893 -12.233   6.422  1.00  0.00     0.000 C 
BRANCH  14  15
ATOM     15  C   UNL     1       5.069 -11.266   7.291  1.00  0.00     0.000 C 
BRANCH  15  16
ATOM     16  C   UNL     1       4.562 -10.049   6.503  1.00  0.00     0.006 C 
BRANCH  16  17
ATOM     17  C   UNL     1       3.032  -9.999   6.405  1.00  0.00     0.053 C 
BRANCH  17  18
ATOM     18  C   UNL     1       2.595 -10.107   4.978  1.00  0.00     0.041 C 
ATOM     19  O   UNL     1       3.446 -10.277   4.065  1.00  0.00    -0.550 OA
ATOM     20  O   UNL     1       1.243 -10.062   4.659  1.00  0.00    -0.550 OA
ENDBRANCH  17  18
ENDBRANCH  16  17
ENDBRANCH  15  16
ENDBRANCH  14  15
ENDBRANCH  13  14
ENDBRANCH  12  13
ENDBRANCH  11  12
ENDBRANCH   1  11
TORSDOF 15
ENDMDL
MODEL 7
REMARK VINA RESULT:    -4.470      1.976      3.409
REMARK INTER + INTRA:         -10.030
REMARK INTER:                  -8.383
REMARK INTRA:                  -1.647
REMARK UNBOUND:                -1.640
REMARK SMILES O=C([O-])CCCCCCCCCCCCCCC(=O)[O-]
REMARK SMILES IDX 10 1 9 2 8 3 7 4 6 5 5 6 4 7 2 8 1 9 3 10 11 11 12 12 13 13
REMARK SMILES IDX 14 14 15 15 16 16 17 17 18 18 19 19 20 20
REMARK H PARENT
REMARK Flexibility Score: inf
ROOT
ATOM      1  C   UNL     1       4.293 -13.244   5.562  1.00  0.00     0.000 C 
ENDROOT
BRANCH   1   2
ATOM      2  C   UNL     1       4.511 -14.110   4.302  1.00  0.00     0.000 C 
BRANCH   2   3
ATOM      3  C   UNL     1       5.329 -13.405   3.205  1.00  0.00     0.000 C 
BRANCH   3   4
ATOM      4  C   UNL     1       4.692 -13.536   1.813  1.00  0.00     0.000 C 
BRANCH   4   5
ATOM      5  C   UNL     1       5.105 -12.398   0.866  1.00  0.00     0.000 C 
BRANCH   5   6
ATOM      6  C   UNL     1       6.580 -12.486   0.437  1.00  0.00     0.006 C 
BRANCH   6   7
ATOM      7  C   UNL     1       6.885 -13.787  -0.319  1.00  0.00     0.053 C 
BRANCH   7   8
ATOM      8  C   UNL     1       8.059 -14.507   0.268  1.00  0.00     0.041 C 
ATOM      9  O   UNL     1       9.046 -13.857   0.704  1.00  0.00    -0.550 OA
ATOM     10  O   UNL     1       8.050 -15.892   0.367  1.00  0.00    -0.550 OA
ENDBRANCH   7   8
ENDBRANCH   6   7
ENDBRANCH   5   6
ENDBRANCH   4   5
ENDBRANCH   3   4
ENDBRANCH   2   3
ENDBRANCH   1   2
BRANCH   1  11
ATOM     11  C   UNL     1       5.592 -13.056   6.366  1.00  0.00     0.000 C 
BRANCH  11  12
ATOM     12  C   UNL     1       5.641 -11.709   7.103  1.00  0.00     0.000 C 
BRANCH  12  13
ATOM     13  C   UNL     1       4.372 -10.867   6.880  1.00  0.00     0.000 C 
BRANCH  13  14
ATOM     14  C   UNL     1       4.683  -9.392   6.583  1.00  0.00     0.000 C 
BRANCH  14  15
ATOM     15  C   UNL     1       3.966  -8.881   5.321  1.00  0.00     0.000 C 
BRANCH  15  16
ATOM     16  C   UNL     1       2.939  -9.887   4.778  1.00  0.00     0.006 C 
BRANCH  16  17
ATOM     17  C   UNL     1       3.287 -10.392   3.372  1.00  0.00     0.053 C 
BRANCH  17  18
ATOM     18  C   UNL     1       2.123 -10.214   2.449  1.00  0.00     0.041 C 
ATOM     19  O   UNL     1       1.662 -11.199   1.813  1.00  0.00    -0.550 OA
ATOM     20  O   UNL     1       1.520  -8.969   2.322  1.00  0.00    -0.550 OA
ENDBRANCH  17  18
ENDBRANCH  16  17
ENDBRANCH  15  16
ENDBRANCH  14  15
ENDBRANCH  13  14
ENDBRANCH  12  13
ENDBRANCH  11  12
ENDBRANCH   1  11
TORSDOF 15
ENDMDL
MODEL 8
REMARK VINA RESULT:    -4.409      1.730      2.446
REMARK INTER + INTRA:          -9.914
REMARK INTER:                  -8.101
REMARK INTRA:                  -1.813
REMARK UNBOUND:                -1.640
REMARK SMILES O=C([O-])CCCCCCCCCCCCCCC(=O)[O-]
REMARK SMILES IDX 10 1 9 2 8 3 7 4 6 5 5 6 4 7 2 8 1 9 3 10 11 11 12 12 13 13
REMARK SMILES IDX 14 14 15 15 16 16 17 17 18 18 19 19 20 20
REMARK H PARENT
REMARK Flexibility Score: inf
ROOT
ATOM      1  C   UNL     1       1.729 -11.804   2.298  1.00  0.00     0.000 C 
ENDROOT
BRANCH   1   2
ATOM      2  C   UNL     1       2.941 -11.543   1.378  1.00  0.00     0.000 C 
BRANCH   2   3
ATOM      3  C   UNL     1       2.984 -12.459   0.142  1.00  0.00     0.000 C 
BRANCH   3   4
ATOM      4  C   UNL     1       4.296 -13.252   0.035  1.00  0.00     0.000 C 
BRANCH   4   5
ATOM      5  C   UNL     1       5.530 -12.402   0.381  1.00  0.00     0.000 C 
BRANCH   5   6
ATOM      6  C   UNL     1       6.496 -13.120   1.340  1.00  0.00     0.006 C 
BRANCH   6   7
ATOM      7  C   UNL     1       7.955 -13.018   0.873  1.00  0.00     0.053 C 
BRANCH   7   8
ATOM      8  C   UNL     1       8.419 -14.285   0.225  1.00  0.00     0.041 C 
ATOM      9  O   UNL     1       7.583 -15.081  -0.278  1.00  0.00    -0.550 OA
ATOM     10  O   UNL     1       9.775 -14.570   0.142  1.00  0.00    -0.550 OA
ENDBRANCH   7   8
ENDBRANCH   6   7
ENDBRANCH   5   6
ENDBRANCH   4   5
ENDBRANCH   3   4
ENDBRANCH   2   3
ENDBRANCH   1   2
BRANCH   1  11
ATOM     11  C   UNL     1       0.942 -13.058   1.876  1.00  0.00     0.000 C 
BRANCH  11  12
ATOM     12  C   UNL     1       1.018 -14.182   2.920  1.00  0.00     0.000 C 
BRANCH  12  13
ATOM     13  C   UNL     1       2.392 -14.875   2.944  1.00  0.00     0.000 C 
BRANCH  13  14
ATOM     14  C   UNL     1       3.080 -14.781   4.316  1.00  0.00     0.000 C 
BRANCH  14  15
ATOM     15  C   UNL     1       4.541 -14.311   4.211  1.00  0.00     0.000 C 
BRANCH  15  16
ATOM     16  C   UNL     1       4.792 -12.990   4.955  1.00  0.00     0.006 C 
BRANCH  16  17
ATOM     17  C   UNL     1       5.141 -13.198   6.434  1.00  0.00     0.053 C 
BRANCH  17  18
ATOM     18  C   UNL     1       5.583 -11.910   7.054  1.00  0.00     0.041 C 
ATOM     19  O   UNL     1       4.734 -11.031   7.362  1.00  0.00    -0.550 OA
ATOM     20  O   UNL     1       6.927 -11.695   7.330  1.00  0.00    -0.550 OA
ENDBRANCH  17  18
ENDBRANCH  16  17
ENDBRANCH  15  16
ENDBRANCH  14  15
ENDBRANCH  13  14
ENDBRANCH  12  13
ENDBRANCH  11  12
ENDBRANCH   1  11
TORSDOF 15
ENDMDL
MODEL 9
REMARK VINA RESULT:    -4.405      1.715      6.781
REMARK INTER + INTRA:          -9.908
REMARK INTER:                  -8.033
REMARK INTRA:                  -1.875
REMARK UNBOUND:                -1.640
REMARK SMILES O=C([O-])CCCCCCCCCCCCCCC(=O)[O-]
REMARK SMILES IDX 10 1 9 2 8 3 7 4 6 5 5 6 4 7 2 8 1 9 3 10 11 11 12 12 13 13
REMARK SMILES IDX 14 14 15 15 16 16 17 17 18 18 19 19 20 20
REMARK H PARENT
REMARK Flexibility Score: inf
ROOT
ATOM      1  C   UNL     1       2.165 -15.388   2.442  1.00  0.00     0.000 C 
ENDROOT
BRANCH   1   2
ATOM      2  C   UNL     1       1.643 -14.556   3.633  1.00  0.00     0.000 C 
BRANCH   2   3
ATOM      3  C   UNL     1       2.706 -13.627   4.247  1.00  0.00     0.000 C 
BRANCH   3   4
ATOM      4  C   UNL     1       4.139 -14.041   3.880  1.00  0.00     0.000 C 
BRANCH   4   5
ATOM      5  C   UNL     1       5.201 -13.247   4.659  1.00  0.00     0.000 C 
BRANCH   5   6
ATOM      6  C   UNL     1       5.055 -13.397   6.183  1.00  0.00     0.006 C 
BRANCH   6   7
ATOM      7  C   UNL     1       5.695 -12.227   6.943  1.00  0.00     0.053 C 
BRANCH   7   8
ATOM      8  C   UNL     1       4.827 -11.007   6.915  1.00  0.00     0.041 C 
ATOM      9  O   UNL     1       5.348  -9.861   6.890  1.00  0.00    -0.550 OA
ATOM     10  O   UNL     1       3.445 -11.136   6.878  1.00  0.00    -0.550 OA
ENDBRANCH   7   8
ENDBRANCH   6   7
ENDBRANCH   5   6
ENDBRANCH   4   5
ENDBRANCH   3   4
ENDBRANCH   2   3
ENDBRANCH   1   2
BRANCH   1  11
ATOM     11  C   UNL     1       1.975 -14.660   1.100  1.00  0.00     0.000 C 
BRANCH  11  12
ATOM     12  C   UNL     1       3.065 -15.012   0.076  1.00  0.00     0.000 C 
BRANCH  12  13
ATOM     13  C   UNL     1       3.746 -13.764  -0.513  1.00  0.00     0.000 C 
BRANCH  13  14
ATOM     14  C   UNL     1       3.422 -12.484   0.274  1.00  0.00     0.000 C 
BRANCH  14  15
ATOM     15  C   UNL     1       4.674 -11.847   0.904  1.00  0.00     0.000 C 
BRANCH  15  16
ATOM     16  C   UNL     1       5.978 -12.374   0.285  1.00  0.00     0.006 C 
BRANCH  16  17
ATOM     17  C   UNL     1       6.856 -13.122   1.297  1.00  0.00     0.053 C 
BRANCH  17  18
ATOM     18  C   UNL     1       7.736 -14.109   0.597  1.00  0.00     0.041 C 
ATOM     19  O   UNL     1       7.228 -15.050  -0.068  1.00  0.00    -0.550 OA
ATOM     20  O   UNL     1       9.117 -13.965   0.643  1.00  0.00    -0.550 OA
ENDBRANCH  17  18
ENDBRANCH  16  17
ENDBRANCH  15  16
ENDBRANCH  14  15
ENDBRANCH  13  14
ENDBRANCH  12  13
ENDBRANCH  11  12
ENDBRANCH   1  11
TORSDOF 15
ENDMDL
