MODEL 1
REMARK VINA RESULT:    -4.094      0.000      0.000
REMARK INTER + INTRA:          -4.907
REMARK INTER:                  -4.812
REMARK INTRA:                  -0.095
REMARK UNBOUND:                -0.095
REMARK SMILES O=C([O-])CCC(=O)[O-]
REMARK SMILES IDX 4 1 2 2 1 3 3 4 5 5 6 6 7 7 8 8
REMARK H PARENT
REMARK Flexibility Score: inf
ROOT
ATOM      1  C   UNL     1      24.954 -19.280 -27.142  1.00  0.00     0.059 C 
ENDROOT
BRANCH   1   2
ATOM      2  C   UNL     1      26.421 -19.226 -27.441  1.00  0.00     0.042 C 
ATOM      3  O   UNL     1      26.977 -18.125 -27.694  1.00  0.00    -0.550 OA
ATOM      4  O   UNL     1      27.166 -20.398 -27.479  1.00  0.00    -0.550 OA
ENDBRANCH   1   2
BRANCH   1   5
ATOM      5  C   UNL     1      24.515 -20.687 -26.727  1.00  0.00     0.059 C 
BRANCH   5   6
ATOM      6  C   UNL     1      23.886 -21.427 -27.869  1.00  0.00     0.042 C 
ATOM      7  O   UNL     1      24.596 -22.124 -28.640  1.00  0.00    -0.550 OA
ATOM      8  O   UNL     1      22.523 -21.313 -28.103  1.00  0.00    -0.550 OA
ENDBRANCH   5   6
ENDBRANCH   1   5
TORSDOF 3
ENDMDL
MODEL 2
REMARK VINA RESULT:    -4.052      0.185      1.158
REMARK INTER + INTRA:          -4.858
REMARK INTER:                  -4.777
REMARK INTRA:                  -0.081
REMARK UNBOUND:                -0.095
REMARK SMILES O=C([O-])CCC(=O)[O-]
REMARK SMILES IDX 4 1 2 2 1 3 3 4 5 5 6 6 7 7 8 8
REMARK H PARENT
REMARK Flexibility Score: inf
ROOT
ATOM      1  C   UNL     1      24.912 -19.337 -27.200  1.00  0.00     0.059 C 
ENDROOT
BRANCH   1   2
ATOM      2  C   UNL     1      26.388 -19.244 -27.438  1.00  0.00     0.042 C 
ATOM      3  O   UNL     1      27.089 -20.288 -27.497  1.00  0.00    -0.550 OA
ATOM      4  O   UNL     1      26.996 -18.000 -27.554  1.00  0.00    -0.550 OA
ENDBRANCH   1   2
BRANCH   1   5
ATOM      5  C   UNL     1      24.511 -20.725 -26.691  1.00  0.00     0.059 C 
BRANCH   5   6
ATOM      6  C   UNL     1      23.902 -21.557 -27.779  1.00  0.00     0.042 C 
ATOM      7  O   UNL     1      24.638 -22.125 -28.628  1.00  0.00    -0.550 OA
ATOM      8  O   UNL     1      22.522 -21.670 -27.877  1.00  0.00    -0.550 OA
ENDBRANCH   5   6
ENDBRANCH   1   5
TORSDOF 3
ENDMDL
MODEL 3
REMARK VINA RESULT:    -4.038      0.139      3.787
REMARK INTER + INTRA:          -4.842
REMARK INTER:                  -4.787
REMARK INTRA:                  -0.055
REMARK UNBOUND:                -0.095
REMARK SMILES O=C([O-])CCC(=O)[O-]
REMARK SMILES IDX 4 1 2 2 1 3 3 4 5 5 6 6 7 7 8 8
REMARK H PARENT
REMARK Flexibility Score: inf
ROOT
ATOM      1  C   UNL     1      24.395 -20.572 -26.749  1.00  0.00     0.059 C 
ENDROOT
BRANCH   1   2
ATOM      2  C   UNL     1      23.863 -21.413 -27.869  1.00  0.00     0.042 C 
ATOM      3  O   UNL     1      24.642 -22.125 -28.555  1.00  0.00    -0.550 OA
ATOM      4  O   UNL     1      22.509 -21.378 -28.180  1.00  0.00    -0.550 OA
ENDBRANCH   1   2
BRANCH   1   5
ATOM      5  C   UNL     1      24.873 -19.205 -27.249  1.00  0.00     0.059 C 
BRANCH   5   6
ATOM      6  C   UNL     1      26.351 -19.195 -27.496  1.00  0.00     0.042 C 
ATOM      7  O   UNL     1      27.018 -20.258 -27.396  1.00  0.00    -0.550 OA
ATOM      8  O   UNL     1      26.997 -18.003 -27.798  1.00  0.00    -0.550 OA
ENDBRANCH   5   6
ENDBRANCH   1   5
TORSDOF 3
ENDMDL
MODEL 4
REMARK VINA RESULT:    -3.264      1.770      2.493
REMARK INTER + INTRA:          -3.932
REMARK INTER:                  -3.984
REMARK INTRA:                   0.052
REMARK UNBOUND:                -0.095
REMARK SMILES O=C([O-])CCC(=O)[O-]
REMARK SMILES IDX 4 1 2 2 1 3 3 4 5 5 6 6 7 7 8 8
REMARK H PARENT
REMARK Flexibility Score: inf
ROOT
ATOM      1  C   UNL     1      25.079 -19.902 -27.292  1.00  0.00     0.059 C 
ENDROOT
BRANCH   1   2
ATOM      2  C   UNL     1      25.256 -20.951 -26.238  1.00  0.00     0.042 C 
ATOM      3  O   UNL     1      26.172 -21.808 -26.344  1.00  0.00    -0.550 OA
ATOM      4  O   UNL     1      24.383 -21.006 -25.159  1.00  0.00    -0.550 OA
ENDBRANCH   1   2
BRANCH   1   5
ATOM      5  C   UNL     1      23.666 -19.931 -27.883  1.00  0.00     0.059 C 
BRANCH   5   6
ATOM      6  C   UNL     1      23.277 -21.312 -28.313  1.00  0.00     0.042 C 
ATOM      7  O   UNL     1      22.125 -21.754 -28.058  1.00  0.00    -0.550 OA
ATOM      8  O   UNL     1      24.198 -22.125 -28.958  1.00  0.00    -0.550 OA
ENDBRANCH   5   6
ENDBRANCH   1   5
TORSDOF 3
ENDMDL
MODEL 5
REMARK VINA RESULT:    -2.937     15.041     15.648
REMARK INTER + INTRA:          -3.547
REMARK INTER:                  -3.519
REMARK INTRA:                  -0.028
REMARK UNBOUND:                -0.095
REMARK SMILES O=C([O-])CCC(=O)[O-]
REMARK SMILES IDX 4 1 2 2 1 3 3 4 5 5 6 6 7 7 8 8
REMARK H PARENT
REMARK Flexibility Score: inf
ROOT
ATOM      1  C   UNL     1      18.065  -6.811 -32.485  1.00  0.00     0.059 C 
ENDROOT
BRANCH   1   2
ATOM      2  C   UNL     1      19.540  -7.028 -32.632  1.00  0.00     0.042 C 
ATOM      3  O   UNL     1      19.975  -7.952 -33.367  1.00  0.00    -0.550 OA
ATOM      4  O   UNL     1      20.433  -6.233 -31.924  1.00  0.00    -0.550 OA
ENDBRANCH   1   2
BRANCH   1   5
ATOM      5  C   UNL     1      17.585  -7.147 -31.070  1.00  0.00     0.059 C 
BRANCH   5   6
ATOM      6  C   UNL     1      16.139  -7.542 -31.057  1.00  0.00     0.042 C 
ATOM      7  O   UNL     1      15.289  -6.853 -31.682  1.00  0.00    -0.550 OA
ATOM      8  O   UNL     1      15.726  -8.646 -30.324  1.00  0.00    -0.550 OA
ENDBRANCH   5   6
ENDBRANCH   1   5
TORSDOF 3
ENDMDL
MODEL 6
REMARK VINA RESULT:    -2.921     15.041     15.996
REMARK INTER + INTRA:          -3.528
REMARK INTER:                  -3.500
REMARK INTRA:                  -0.029
REMARK UNBOUND:                -0.095
REMARK SMILES O=C([O-])CCC(=O)[O-]
REMARK SMILES IDX 4 1 2 2 1 3 3 4 5 5 6 6 7 7 8 8
REMARK H PARENT
REMARK Flexibility Score: inf
ROOT
ATOM      1  C   UNL     1      17.550  -7.080 -31.123  1.00  0.00     0.059 C 
ENDROOT
BRANCH   1   2
ATOM      2  C   UNL     1      16.112  -7.497 -31.133  1.00  0.00     0.042 C 
ATOM      3  O   UNL     1      15.276  -6.879 -31.843  1.00  0.00    -0.550 OA
ATOM      4  O   UNL     1      15.687  -8.546 -30.326  1.00  0.00    -0.550 OA
ENDBRANCH   1   2
BRANCH   1   5
ATOM      5  C   UNL     1      18.064  -6.797 -32.538  1.00  0.00     0.059 C 
BRANCH   5   6
ATOM      6  C   UNL     1      19.543  -7.015 -32.641  1.00  0.00     0.042 C 
ATOM      7  O   UNL     1      19.997  -7.959 -33.340  1.00  0.00    -0.550 OA
ATOM      8  O   UNL     1      20.417  -6.201 -31.932  1.00  0.00    -0.550 OA
ENDBRANCH   5   6
ENDBRANCH   1   5
TORSDOF 3
ENDMDL
MODEL 7
REMARK VINA RESULT:    -2.919     15.346     16.411
REMARK INTER + INTRA:          -3.525
REMARK INTER:                  -3.434
REMARK INTRA:                  -0.091
REMARK UNBOUND:                -0.095
REMARK SMILES O=C([O-])CCC(=O)[O-]
REMARK SMILES IDX 4 1 2 2 1 3 3 4 5 5 6 6 7 7 8 8
REMARK H PARENT
REMARK Flexibility Score: inf
ROOT
ATOM      1  C   UNL     1      15.154  -9.105 -30.147  1.00  0.00     0.059 C 
ENDROOT
BRANCH   1   2
ATOM      2  C   UNL     1      14.105  -8.944 -29.090  1.00  0.00     0.042 C 
ATOM      3  O   UNL     1      13.494  -7.851 -28.963  1.00  0.00    -0.550 OA
ATOM      4  O   UNL     1      13.830  -9.991 -28.219  1.00  0.00    -0.550 OA
ENDBRANCH   1   2
BRANCH   1   5
ATOM      5  C   UNL     1      15.131  -7.943 -31.145  1.00  0.00     0.059 C 
BRANCH   5   6
ATOM      6  C   UNL     1      16.282  -7.008 -30.929  1.00  0.00     0.042 C 
ATOM      7  O   UNL     1      17.465  -7.433 -30.996  1.00  0.00    -0.550 OA
ATOM      8  O   UNL     1      16.045  -5.677 -30.614  1.00  0.00    -0.550 OA
ENDBRANCH   5   6
ENDBRANCH   1   5
TORSDOF 3
ENDMDL
MODEL 8
REMARK VINA RESULT:    -2.853     15.278     16.176
REMARK INTER + INTRA:          -3.449
REMARK INTER:                  -3.326
REMARK INTRA:                  -0.123
REMARK UNBOUND:                -0.095
REMARK SMILES O=C([O-])CCC(=O)[O-]
REMARK SMILES IDX 4 1 2 2 1 3 3 4 5 5 6 6 7 7 8 8
REMARK H PARENT
REMARK Flexibility Score: inf
ROOT
ATOM      1  C   UNL     1      18.142  -6.792 -32.829  1.00  0.00     0.059 C 
ENDROOT
BRANCH   1   2
ATOM      2  C   UNL     1      17.661  -6.634 -31.420  1.00  0.00     0.042 C 
ATOM      3  O   UNL     1      17.061  -7.579 -30.844  1.00  0.00    -0.550 OA
ATOM      4  O   UNL     1      17.840  -5.426 -30.756  1.00  0.00    -0.550 OA
ENDBRANCH   1   2
BRANCH   1   5
ATOM      5  C   UNL     1      19.565  -7.358 -32.879  1.00  0.00     0.059 C 
BRANCH   5   6
ATOM      6  C   UNL     1      20.593  -6.270 -32.813  1.00  0.00     0.042 C 
ATOM      7  O   UNL     1      21.029  -5.745 -33.871  1.00  0.00    -0.550 OA
ATOM      8  O   UNL     1      21.097  -5.864 -31.585  1.00  0.00    -0.550 OA
ENDBRANCH   5   6
ENDBRANCH   1   5
TORSDOF 3
ENDMDL
