MODEL 1
REMARK VINA RESULT:    -4.666      0.000      0.000
REMARK INTER + INTRA:          -7.762
REMARK INTER:                  -6.303
REMARK INTRA:                  -1.458
REMARK UNBOUND:                -1.458
REMARK SMILES CC(=O)CCC=C(C)CCC=C(C)C
REMARK SMILES IDX 7 1 6 2 8 3 9 4 10 5 11 6 13 7 12 8 14 9 5 10 4 11 2 12 3 13
REMARK SMILES IDX 1 14
REMARK H PARENT
REMARK Flexibility Score: inf
ROOT
ATOM      1  C   UNL     1      17.854 -24.507 -25.576  1.00  0.00    -0.077 C 
ATOM      2  C   UNL     1      18.102 -23.521 -26.468  1.00  0.00    -0.028 C 
ATOM      3  C   UNL     1      16.502 -25.176 -25.481  1.00  0.00     0.039 C 
ENDROOT
BRANCH   1   4
ATOM      4  C   UNL     1      18.968 -24.968 -24.661  1.00  0.00     0.034 C 
BRANCH   4   5
ATOM      5  C   UNL     1      19.762 -23.770 -24.128  1.00  0.00     0.032 C 
BRANCH   5   6
ATOM      6  C   UNL     1      19.029 -23.108 -22.987  1.00  0.00    -0.028 C 
ATOM      7  C   UNL     1      18.934 -20.882 -24.130  1.00  0.00     0.039 C 
ATOM      8  C   UNL     1      18.629 -21.818 -22.984  1.00  0.00    -0.080 C 
ATOM      9  C   UNL     1      17.870 -21.303 -21.788  1.00  0.00     0.039 C 
ENDBRANCH   5   6
ENDBRANCH   4   5
ENDBRANCH   1   4
BRANCH   2  10
ATOM     10  C   UNL     1      17.072 -22.938 -27.402  1.00  0.00     0.035 C 
BRANCH  10  11
ATOM     11  C   UNL     1      16.573 -21.586 -26.882  1.00  0.00     0.079 C 
BRANCH  11  12
ATOM     12  C   UNL     1      15.346 -21.762 -26.030  1.00  0.00     0.130 C 
ATOM     13  O   UNL     1      14.379 -22.362 -26.475  1.00  0.00    -0.300 OA
ATOM     14  C   UNL     1      15.311 -21.229 -24.629  1.00  0.00     0.087 C 
ENDBRANCH  11  12
ENDBRANCH  10  11
ENDBRANCH   2  10
TORSDOF 6
ENDMDL
MODEL 2
REMARK VINA RESULT:    -4.568      2.000      3.105
REMARK INTER + INTRA:          -7.628
REMARK INTER:                  -6.397
REMARK INTRA:                  -1.231
REMARK UNBOUND:                -1.458
REMARK SMILES CC(=O)CCC=C(C)CCC=C(C)C
REMARK SMILES IDX 7 1 6 2 8 3 9 4 10 5 11 6 13 7 12 8 14 9 5 10 4 11 2 12 3 13
REMARK SMILES IDX 1 14
REMARK H PARENT
REMARK Flexibility Score: inf
ROOT
ATOM      1  C   UNL     1      19.149 -23.386 -25.237  1.00  0.00    -0.077 C 
ATOM      2  C   UNL     1      18.115 -23.934 -25.914  1.00  0.00    -0.028 C 
ATOM      3  C   UNL     1      19.809 -24.096 -24.078  1.00  0.00     0.039 C 
ENDROOT
BRANCH   1   4
ATOM      4  C   UNL     1      19.672 -22.032 -25.664  1.00  0.00     0.034 C 
BRANCH   4   5
ATOM      5  C   UNL     1      18.718 -20.917 -25.219  1.00  0.00     0.032 C 
BRANCH   5   6
ATOM      6  C   UNL     1      18.966 -20.546 -23.778  1.00  0.00    -0.028 C 
ATOM      7  C   UNL     1      16.860 -21.633 -22.969  1.00  0.00     0.039 C 
ATOM      8  C   UNL     1      18.153 -20.882 -22.753  1.00  0.00    -0.080 C 
ATOM      9  C   UNL     1      18.550 -20.474 -21.357  1.00  0.00     0.039 C 
ENDBRANCH   5   6
ENDBRANCH   4   5
ENDBRANCH   1   4
BRANCH   2  10
ATOM     10  C   UNL     1      17.469 -25.251 -25.564  1.00  0.00     0.035 C 
BRANCH  10  11
ATOM     11  C   UNL     1      15.951 -25.090 -25.428  1.00  0.00     0.079 C 
BRANCH  11  12
ATOM     12  C   UNL     1      15.505 -25.409 -24.028  1.00  0.00     0.130 C 
ATOM     13  O   UNL     1      14.340 -25.716 -23.817  1.00  0.00    -0.300 OA
ATOM     14  C   UNL     1      16.483 -25.378 -22.893  1.00  0.00     0.087 C 
ENDBRANCH  11  12
ENDBRANCH  10  11
ENDBRANCH   2  10
TORSDOF 6
ENDMDL
MODEL 3
REMARK VINA RESULT:    -4.401      1.354      1.739
REMARK INTER + INTRA:          -7.404
REMARK INTER:                  -6.081
REMARK INTRA:                  -1.323
REMARK UNBOUND:                -1.458
REMARK SMILES CC(=O)CCC=C(C)CCC=C(C)C
REMARK SMILES IDX 7 1 6 2 8 3 9 4 10 5 11 6 13 7 12 8 14 9 5 10 4 11 2 12 3 13
REMARK SMILES IDX 1 14
REMARK H PARENT
REMARK Flexibility Score: inf
ROOT
ATOM      1  C   UNL     1      18.787 -23.497 -25.581  1.00  0.00    -0.077 C 
ATOM      2  C   UNL     1      17.638 -23.641 -26.279  1.00  0.00    -0.028 C 
ATOM      3  C   UNL     1      19.723 -22.332 -25.814  1.00  0.00     0.039 C 
ENDROOT
BRANCH   1   4
ATOM      4  C   UNL     1      19.137 -24.520 -24.522  1.00  0.00     0.034 C 
BRANCH   4   5
ATOM      5  C   UNL     1      19.605 -23.831 -23.235  1.00  0.00     0.032 C 
BRANCH   5   6
ATOM      6  C   UNL     1      18.432 -23.524 -22.337  1.00  0.00    -0.028 C 
ATOM      7  C   UNL     1      18.602 -21.051 -22.693  1.00  0.00     0.039 C 
ATOM      8  C   UNL     1      17.954 -22.283 -22.103  1.00  0.00    -0.080 C 
ATOM      9  C   UNL     1      16.748 -22.132 -21.212  1.00  0.00     0.039 C 
ENDBRANCH   5   6
ENDBRANCH   4   5
ENDBRANCH   1   4
BRANCH   2  10
ATOM     10  C   UNL     1      17.195 -22.722 -27.390  1.00  0.00     0.035 C 
BRANCH  10  11
ATOM     11  C   UNL     1      15.896 -22.003 -27.012  1.00  0.00     0.079 C 
BRANCH  11  12
ATOM     12  C   UNL     1      16.131 -21.033 -25.887  1.00  0.00     0.130 C 
ATOM     13  O   UNL     1      16.940 -20.127 -26.026  1.00  0.00    -0.300 OA
ATOM     14  C   UNL     1      15.363 -21.155 -24.606  1.00  0.00     0.087 C 
ENDBRANCH  11  12
ENDBRANCH  10  11
ENDBRANCH   2  10
TORSDOF 6
ENDMDL
MODEL 4
REMARK VINA RESULT:    -4.362      3.122      4.827
REMARK INTER + INTRA:          -7.351
REMARK INTER:                  -6.022
REMARK INTRA:                  -1.328
REMARK UNBOUND:                -1.458
REMARK SMILES CC(=O)CCC=C(C)CCC=C(C)C
REMARK SMILES IDX 7 1 6 2 8 3 9 4 10 5 11 6 13 7 12 8 14 9 5 10 4 11 2 12 3 13
REMARK SMILES IDX 1 14
REMARK H PARENT
REMARK Flexibility Score: inf
ROOT
ATOM      1  C   UNL     1      19.311 -24.017 -24.803  1.00  0.00    -0.077 C 
ATOM      2  C   UNL     1      20.082 -24.278 -23.723  1.00  0.00    -0.028 C 
ATOM      3  C   UNL     1      18.195 -24.943 -25.229  1.00  0.00     0.039 C 
ENDROOT
BRANCH   1   4
ATOM      4  C   UNL     1      19.560 -22.753 -25.596  1.00  0.00     0.034 C 
BRANCH   4   5
ATOM      5  C   UNL     1      18.461 -21.718 -25.326  1.00  0.00     0.032 C 
BRANCH   5   6
ATOM      6  C   UNL     1      18.821 -20.853 -24.144  1.00  0.00    -0.028 C 
ATOM      7  C   UNL     1      17.241 -22.032 -22.598  1.00  0.00     0.039 C 
ATOM      8  C   UNL     1      18.300 -20.998 -22.906  1.00  0.00    -0.080 C 
ATOM      9  C   UNL     1      18.785 -20.084 -21.810  1.00  0.00     0.039 C 
ENDBRANCH   5   6
ENDBRANCH   4   5
ENDBRANCH   1   4
BRANCH   2  10
ATOM     10  C   UNL     1      19.972 -25.521 -22.876  1.00  0.00     0.035 C 
BRANCH  10  11
ATOM     11  C   UNL     1      19.254 -25.215 -21.558  1.00  0.00     0.079 C 
BRANCH  11  12
ATOM     12  C   UNL     1      20.151 -24.442 -20.629  1.00  0.00     0.130 C 
ATOM     13  O   UNL     1      21.299 -24.818 -20.442  1.00  0.00    -0.300 OA
ATOM     14  C   UNL     1      19.655 -23.200 -19.953  1.00  0.00     0.087 C 
ENDBRANCH  11  12
ENDBRANCH  10  11
ENDBRANCH   2  10
TORSDOF 6
ENDMDL
MODEL 5
REMARK VINA RESULT:    -4.353      1.936      2.452
REMARK INTER + INTRA:          -7.338
REMARK INTER:                  -6.256
REMARK INTRA:                  -1.081
REMARK UNBOUND:                -1.458
REMARK SMILES CC(=O)CCC=C(C)CCC=C(C)C
REMARK SMILES IDX 7 1 6 2 8 3 9 4 10 5 11 6 13 7 12 8 14 9 5 10 4 11 2 12 3 13
REMARK SMILES IDX 1 14
REMARK H PARENT
REMARK Flexibility Score: inf
ROOT
ATOM      1  C   UNL     1      18.975 -24.307 -24.815  1.00  0.00    -0.077 C 
ATOM      2  C   UNL     1      19.653 -23.148 -24.979  1.00  0.00    -0.028 C 
ATOM      3  C   UNL     1      17.743 -24.633 -25.628  1.00  0.00     0.039 C 
ENDROOT
BRANCH   1   4
ATOM      4  C   UNL     1      19.476 -25.315 -23.804  1.00  0.00     0.034 C 
BRANCH   4   5
ATOM      5  C   UNL     1      20.477 -24.666 -22.841  1.00  0.00     0.032 C 
BRANCH   5   6
ATOM      6  C   UNL     1      19.950 -24.690 -21.427  1.00  0.00    -0.028 C 
ATOM      7  C   UNL     1      18.905 -22.422 -21.608  1.00  0.00     0.039 C 
ATOM      8  C   UNL     1      19.221 -23.700 -20.867  1.00  0.00    -0.080 C 
ATOM      9  C   UNL     1      18.729 -23.881 -19.454  1.00  0.00     0.039 C 
ENDBRANCH   5   6
ENDBRANCH   4   5
ENDBRANCH   1   4
BRANCH   2  10
ATOM     10  C   UNL     1      19.236 -22.042 -25.915  1.00  0.00     0.035 C 
BRANCH  10  11
ATOM     11  C   UNL     1      18.637 -20.868 -25.134  1.00  0.00     0.079 C 
BRANCH  11  12
ATOM     12  C   UNL     1      17.134 -20.913 -25.173  1.00  0.00     0.130 C 
ATOM     13  O   UNL     1      16.513 -21.314 -24.200  1.00  0.00    -0.300 OA
ATOM     14  C   UNL     1      16.392 -20.445 -26.389  1.00  0.00     0.087 C 
ENDBRANCH  11  12
ENDBRANCH  10  11
ENDBRANCH   2  10
TORSDOF 6
ENDMDL
MODEL 6
REMARK VINA RESULT:    -4.345      2.712      5.390
REMARK INTER + INTRA:          -7.328
REMARK INTER:                  -6.393
REMARK INTRA:                  -0.935
REMARK UNBOUND:                -1.458
REMARK SMILES CC(=O)CCC=C(C)CCC=C(C)C
REMARK SMILES IDX 7 1 6 2 8 3 9 4 10 5 11 6 13 7 12 8 14 9 5 10 4 11 2 12 3 13
REMARK SMILES IDX 1 14
REMARK H PARENT
REMARK Flexibility Score: inf
ROOT
ATOM      1  C   UNL     1      17.986 -21.078 -23.478  1.00  0.00    -0.077 C 
ATOM      2  C   UNL     1      18.881 -20.925 -22.476  1.00  0.00    -0.028 C 
ATOM      3  C   UNL     1      16.595 -21.615 -23.230  1.00  0.00     0.039 C 
ENDROOT
BRANCH   1   4
ATOM      4  C   UNL     1      18.382 -20.683 -24.884  1.00  0.00     0.034 C 
BRANCH   4   5
ATOM      5  C   UNL     1      19.384 -21.686 -25.468  1.00  0.00     0.032 C 
BRANCH   5   6
ATOM      6  C   UNL     1      18.710 -23.002 -25.767  1.00  0.00    -0.028 C 
ATOM      7  C   UNL     1      19.878 -24.206 -23.907  1.00  0.00     0.039 C 
ATOM      8  C   UNL     1      18.903 -24.137 -25.060  1.00  0.00    -0.080 C 
ATOM      9  C   UNL     1      18.129 -25.369 -25.452  1.00  0.00     0.039 C 
ENDBRANCH   5   6
ENDBRANCH   4   5
ENDBRANCH   1   4
BRANCH   2  10
ATOM     10  C   UNL     1      18.633 -21.322 -21.043  1.00  0.00     0.035 C 
BRANCH  10  11
ATOM     11  C   UNL     1      18.499 -20.082 -20.153  1.00  0.00     0.079 C 
BRANCH  11  12
ATOM     12  C   UNL     1      17.467 -20.303 -19.081  1.00  0.00     0.130 C 
ATOM     13  O   UNL     1      16.410 -20.851 -19.360  1.00  0.00    -0.300 OA
ATOM     14  C   UNL     1      17.736 -19.880 -17.669  1.00  0.00     0.087 C 
ENDBRANCH  11  12
ENDBRANCH  10  11
ENDBRANCH   2  10
TORSDOF 6
ENDMDL
MODEL 7
REMARK VINA RESULT:    -4.344      1.626      4.286
REMARK INTER + INTRA:          -7.326
REMARK INTER:                  -5.932
REMARK INTRA:                  -1.394
REMARK UNBOUND:                -1.458
REMARK SMILES CC(=O)CCC=C(C)CCC=C(C)C
REMARK SMILES IDX 7 1 6 2 8 3 9 4 10 5 11 6 13 7 12 8 14 9 5 10 4 11 2 12 3 13
REMARK SMILES IDX 1 14
REMARK H PARENT
REMARK Flexibility Score: inf
ROOT
ATOM      1  C   UNL     1      18.913 -21.869 -24.749  1.00  0.00    -0.077 C 
ATOM      2  C   UNL     1      19.454 -23.067 -25.066  1.00  0.00    -0.028 C 
ATOM      3  C   UNL     1      18.600 -21.487 -23.320  1.00  0.00     0.039 C 
ENDROOT
BRANCH   1   4
ATOM      4  C   UNL     1      18.630 -20.875 -25.854  1.00  0.00     0.034 C 
BRANCH   4   5
ATOM      5  C   UNL     1      17.173 -20.400 -25.797  1.00  0.00     0.032 C 
BRANCH   5   6
ATOM      6  C   UNL     1      16.231 -21.530 -26.128  1.00  0.00    -0.028 C 
ATOM      7  C   UNL     1      14.917 -21.267 -24.012  1.00  0.00     0.039 C 
ATOM      8  C   UNL     1      15.197 -21.915 -25.348  1.00  0.00    -0.080 C 
ATOM      9  C   UNL     1      14.313 -23.038 -25.827  1.00  0.00     0.039 C 
ENDBRANCH   5   6
ENDBRANCH   4   5
ENDBRANCH   1   4
BRANCH   2  10
ATOM     10  C   UNL     1      19.741 -24.163 -24.071  1.00  0.00     0.035 C 
BRANCH  10  11
ATOM     11  C   UNL     1      18.981 -25.441 -24.439  1.00  0.00     0.079 C 
BRANCH  11  12
ATOM     12  C   UNL     1      17.505 -25.169 -24.554  1.00  0.00     0.130 C 
ATOM     13  O   UNL     1      16.944 -25.315 -25.630  1.00  0.00    -0.300 OA
ATOM     14  C   UNL     1      16.715 -24.745 -23.353  1.00  0.00     0.087 C 
ENDBRANCH  11  12
ENDBRANCH  10  11
ENDBRANCH   2  10
TORSDOF 6
ENDMDL
MODEL 8
REMARK VINA RESULT:    -4.324      3.559      5.506
REMARK INTER + INTRA:          -7.299
REMARK INTER:                  -6.375
REMARK INTRA:                  -0.923
REMARK UNBOUND:                -1.458
REMARK SMILES CC(=O)CCC=C(C)CCC=C(C)C
REMARK SMILES IDX 7 1 6 2 8 3 9 4 10 5 11 6 13 7 12 8 14 9 5 10 4 11 2 12 3 13
REMARK SMILES IDX 1 14
REMARK H PARENT
REMARK Flexibility Score: inf
ROOT
ATOM      1  C   UNL     1      19.284 -24.001 -24.772  1.00  0.00    -0.077 C 
ATOM      2  C   UNL     1      19.985 -24.272 -23.648  1.00  0.00    -0.028 C 
ATOM      3  C   UNL     1      18.175 -24.906 -25.259  1.00  0.00     0.039 C 
ENDROOT
BRANCH   1   4
ATOM      4  C   UNL     1      19.606 -22.747 -25.555  1.00  0.00     0.034 C 
BRANCH   4   5
ATOM      5  C   UNL     1      18.534 -21.675 -25.327  1.00  0.00     0.032 C 
BRANCH   5   6
ATOM      6  C   UNL     1      18.864 -20.839 -24.115  1.00  0.00    -0.028 C 
ATOM      7  C   UNL     1      17.107 -21.919 -22.694  1.00  0.00     0.039 C 
ATOM      8  C   UNL     1      18.249 -20.954 -22.918  1.00  0.00    -0.080 C 
ATOM      9  C   UNL     1      18.712 -20.077 -21.784  1.00  0.00     0.039 C 
ENDBRANCH   5   6
ENDBRANCH   4   5
ENDBRANCH   1   4
BRANCH   2  10
ATOM     10  C   UNL     1      19.798 -25.507 -22.803  1.00  0.00     0.035 C 
BRANCH  10  11
ATOM     11  C   UNL     1      21.085 -25.841 -22.042  1.00  0.00     0.079 C 
BRANCH  11  12
ATOM     12  C   UNL     1      21.211 -27.326 -21.834  1.00  0.00     0.130 C 
ATOM     13  O   UNL     1      21.695 -27.754 -20.796  1.00  0.00    -0.300 OA
ATOM     14  C   UNL     1      20.725 -28.283 -22.879  1.00  0.00     0.087 C 
ENDBRANCH  11  12
ENDBRANCH  10  11
ENDBRANCH   2  10
TORSDOF 6
ENDMDL
MODEL 9
REMARK VINA RESULT:    -4.301      1.547      3.583
REMARK INTER + INTRA:          -7.268
REMARK INTER:                  -6.059
REMARK INTRA:                  -1.209
REMARK UNBOUND:                -1.458
REMARK SMILES CC(=O)CCC=C(C)CCC=C(C)C
REMARK SMILES IDX 7 1 6 2 8 3 9 4 10 5 11 6 13 7 12 8 14 9 5 10 4 11 2 12 3 13
REMARK SMILES IDX 1 14
REMARK H PARENT
REMARK Flexibility Score: inf
ROOT
ATOM      1  C   UNL     1      17.360 -21.035 -25.057  1.00  0.00    -0.077 C 
ATOM      2  C   UNL     1      16.698 -21.507 -23.977  1.00  0.00    -0.028 C 
ATOM      3  C   UNL     1      16.631 -20.503 -26.270  1.00  0.00     0.039 C 
ENDROOT
BRANCH   1   4
ATOM      4  C   UNL     1      18.873 -21.021 -25.045  1.00  0.00     0.034 C 
BRANCH   4   5
ATOM      5  C   UNL     1      19.433 -22.269 -25.737  1.00  0.00     0.032 C 
BRANCH   5   6
ATOM      6  C   UNL     1      19.631 -23.387 -24.744  1.00  0.00    -0.028 C 
ATOM      7  C   UNL     1      17.759 -24.763 -25.680  1.00  0.00     0.039 C 
ATOM      8  C   UNL     1      18.903 -24.525 -24.721  1.00  0.00    -0.080 C 
ATOM      9  C   UNL     1      19.240 -25.574 -23.693  1.00  0.00     0.039 C 
ENDBRANCH   5   6
ENDBRANCH   4   5
ENDBRANCH   1   4
BRANCH   2  10
ATOM     10  C   UNL     1      15.198 -21.621 -23.878  1.00  0.00     0.035 C 
BRANCH  10  11
ATOM     11  C   UNL     1      14.769 -23.090 -23.816  1.00  0.00     0.079 C 
BRANCH  11  12
ATOM     12  C   UNL     1      14.128 -23.515 -25.109  1.00  0.00     0.130 C 
ATOM     13  O   UNL     1      13.719 -22.668 -25.889  1.00  0.00    -0.300 OA
ATOM     14  C   UNL     1      14.011 -24.967 -25.457  1.00  0.00     0.087 C 
ENDBRANCH  11  12
ENDBRANCH  10  11
ENDBRANCH   2  10
TORSDOF 6
ENDMDL
