MODEL 1
REMARK VINA RESULT:    -3.842      0.000      0.000
REMARK INTER + INTRA:          -6.407
REMARK INTER:                  -5.527
REMARK INTRA:                  -0.880
REMARK UNBOUND:                -0.880
REMARK SMILES O=C(CO)[C@@H](O)[C@H](O)[C@@H](O)CO
REMARK SMILES IDX 7 1 9 2 11 3 12 4 10 6 5 8 2 9 1 10 3 11 4 12 6 14 8 16
REMARK H PARENT 12 5 10 7 4 13 6 15 8 17
REMARK Flexibility Score: inf
ROOT
ATOM      1  C   UNL     1       8.004  -1.352  -5.288  1.00  0.00     0.181 C 
ENDROOT
BRANCH   1   2
ATOM      2  C   UNL     1       8.188  -1.015  -3.781  1.00  0.00     0.171 C 
BRANCH   2   3
ATOM      3  C   UNL     1       8.015  -2.232  -2.856  1.00  0.00     0.190 C 
BRANCH   3   4
ATOM      4  O   UNL     1       6.661  -2.571  -2.714  1.00  0.00    -0.394 OA
ATOM      5  H   UNL     1       6.134  -1.781  -3.003  1.00  0.00     0.210 HD
ENDBRANCH   3   4
ENDBRANCH   2   3
BRANCH   2   6
ATOM      6  O   UNL     1       7.253  -0.036  -3.402  1.00  0.00    -0.388 OA
ATOM      7  H   UNL     1       7.742   0.825  -3.332  1.00  0.00     0.211 HD
ENDBRANCH   2   6
ENDBRANCH   1   2
BRANCH   1   8
ATOM      8  C   UNL     1       8.983  -0.591  -6.217  1.00  0.00     0.214 C 
BRANCH   8   9
ATOM      9  C   UNL     1       8.556  -0.730  -7.663  1.00  0.00     0.189 C 
ATOM     10  O   UNL     1       8.582  -1.836  -8.184  1.00  0.00    -0.294 OA
BRANCH   9  11
ATOM     11  C   UNL     1       8.125   0.468  -8.474  1.00  0.00     0.234 C 
BRANCH  11  12
ATOM     12  O   UNL     1       6.793   0.814  -8.202  1.00  0.00    -0.388 OA
ATOM     13  H   UNL     1       6.577   1.591  -8.780  1.00  0.00     0.211 HD
ENDBRANCH  11  12
ENDBRANCH   9  11
ENDBRANCH   8   9
BRANCH   8  14
ATOM     14  O   UNL     1       9.046   0.763  -5.840  1.00  0.00    -0.382 OA
ATOM     15  H   UNL     1      10.005   1.021  -5.850  1.00  0.00     0.211 HD
ENDBRANCH   8  14
ENDBRANCH   1   8
BRANCH   1  16
ATOM     16  O   UNL     1       6.672  -1.114  -5.678  1.00  0.00    -0.387 OA
ATOM     17  H   UNL     1       6.102  -1.797  -5.238  1.00  0.00     0.211 HD
ENDBRANCH   1  16
TORSDOF 10
ENDMDL
MODEL 2
REMARK VINA RESULT:    -3.791      8.016      9.173
REMARK INTER + INTRA:          -6.333
REMARK INTER:                  -5.622
REMARK INTRA:                  -0.710
REMARK UNBOUND:                -0.880
REMARK SMILES O=C(CO)[C@@H](O)[C@H](O)[C@@H](O)CO
REMARK SMILES IDX 7 1 9 2 11 3 12 4 10 6 5 8 2 9 1 10 3 11 4 12 6 14 8 16
REMARK H PARENT 12 5 10 7 4 13 6 15 8 17
REMARK Flexibility Score: inf
ROOT
ATOM      1  C   UNL     1       2.660  -5.956  -8.927  1.00  0.00     0.181 C 
ENDROOT
BRANCH   1   2
ATOM      2  C   UNL     1       1.594  -5.242  -9.807  1.00  0.00     0.171 C 
BRANCH   2   3
ATOM      3  C   UNL     1       1.573  -3.716  -9.624  1.00  0.00     0.190 C 
BRANCH   3   4
ATOM      4  O   UNL     1       1.154  -3.368  -8.331  1.00  0.00    -0.394 OA
ATOM      5  H   UNL     1       0.385  -3.954  -8.108  1.00  0.00     0.210 HD
ENDBRANCH   3   4
ENDBRANCH   2   3
BRANCH   2   6
ATOM      6  O   UNL     1       0.318  -5.743  -9.497  1.00  0.00    -0.388 OA
ATOM      7  H   UNL     1      -0.097  -5.109  -8.854  1.00  0.00     0.211 HD
ENDBRANCH   2   6
ENDBRANCH   1   2
BRANCH   1   8
ATOM      8  C   UNL     1       3.003  -7.388  -9.410  1.00  0.00     0.214 C 
BRANCH   8   9
ATOM      9  C   UNL     1       4.122  -7.973  -8.573  1.00  0.00     0.189 C 
ATOM     10  O   UNL     1       3.843  -8.757  -7.677  1.00  0.00    -0.294 OA
BRANCH   9  11
ATOM     11  C   UNL     1       5.563  -7.589  -8.809  1.00  0.00     0.234 C 
BRANCH  11  12
ATOM     12  O   UNL     1       6.406  -8.155  -7.840  1.00  0.00    -0.388 OA
ATOM     13  H   UNL     1       5.995  -9.020  -7.576  1.00  0.00     0.211 HD
ENDBRANCH  11  12
ENDBRANCH   9  11
ENDBRANCH   8   9
BRANCH   8  14
ATOM     14  O   UNL     1       1.857  -8.200  -9.354  1.00  0.00    -0.382 OA
ATOM     15  H   UNL     1       1.653  -8.477 -10.286  1.00  0.00     0.211 HD
ENDBRANCH   8  14
ENDBRANCH   1   8
BRANCH   1  16
ATOM     16  O   UNL     1       2.241  -5.979  -7.583  1.00  0.00    -0.387 OA
ATOM     17  H   UNL     1       2.776  -5.305  -7.089  1.00  0.00     0.211 HD
ENDBRANCH   1  16
TORSDOF 10
ENDMDL
MODEL 3
REMARK VINA RESULT:    -3.658      1.308      2.083
REMARK INTER + INTRA:          -6.142
REMARK INTER:                  -5.776
REMARK INTRA:                  -0.366
REMARK UNBOUND:                -0.880
REMARK SMILES O=C(CO)[C@@H](O)[C@H](O)[C@@H](O)CO
REMARK SMILES IDX 7 1 9 2 11 3 12 4 10 6 5 8 2 9 1 10 3 11 4 12 6 14 8 16
REMARK H PARENT 12 5 10 7 4 13 6 15 8 17
REMARK Flexibility Score: inf
ROOT
ATOM      1  C   UNL     1       7.467  -1.509  -4.647  1.00  0.00     0.181 C 
ENDROOT
BRANCH   1   2
ATOM      2  C   UNL     1       7.890  -1.805  -3.180  1.00  0.00     0.171 C 
BRANCH   2   3
ATOM      3  C   UNL     1       9.229  -2.553  -3.069  1.00  0.00     0.190 C 
BRANCH   3   4
ATOM      4  O   UNL     1       9.145  -3.606  -2.146  1.00  0.00    -0.394 OA
ATOM      5  H   UNL     1       8.607  -4.323  -2.573  1.00  0.00     0.210 HD
ENDBRANCH   3   4
ENDBRANCH   2   3
BRANCH   2   6
ATOM      6  O   UNL     1       6.899  -2.579  -2.553  1.00  0.00    -0.388 OA
ATOM      7  H   UNL     1       7.223  -2.785  -1.638  1.00  0.00     0.211 HD
ENDBRANCH   2   6
ENDBRANCH   1   2
BRANCH   1   8
ATOM      8  C   UNL     1       8.625  -0.978  -5.531  1.00  0.00     0.214 C 
BRANCH   8   9
ATOM      9  C   UNL     1       8.294  -1.154  -6.998  1.00  0.00     0.189 C 
ATOM     10  O   UNL     1       7.406  -0.472  -7.490  1.00  0.00    -0.294 OA
BRANCH   9  11
ATOM     11  C   UNL     1       9.020  -2.166  -7.851  1.00  0.00     0.234 C 
BRANCH  11  12
ATOM     12  O   UNL     1       8.196  -3.262  -8.151  1.00  0.00    -0.388 OA
ATOM     13  H   UNL     1       7.968  -3.191  -9.114  1.00  0.00     0.211 HD
ENDBRANCH  11  12
ENDBRANCH   9  11
ENDBRANCH   8   9
BRANCH   8  14
ATOM     14  O   UNL     1       8.876   0.373  -5.231  1.00  0.00    -0.382 OA
ATOM     15  H   UNL     1       8.190   0.653  -4.569  1.00  0.00     0.211 HD
ENDBRANCH   8  14
ENDBRANCH   1   8
BRANCH   1  16
ATOM     16  O   UNL     1       6.384  -0.611  -4.668  1.00  0.00    -0.387 OA
ATOM     17  H   UNL     1       6.331  -0.182  -3.774  1.00  0.00     0.211 HD
ENDBRANCH   1  16
TORSDOF 10
ENDMDL
MODEL 4
REMARK VINA RESULT:    -3.572      0.770      4.654
REMARK INTER + INTRA:          -6.018
REMARK INTER:                  -4.814
REMARK INTRA:                  -1.204
REMARK UNBOUND:                -0.880
REMARK SMILES O=C(CO)[C@@H](O)[C@H](O)[C@@H](O)CO
REMARK SMILES IDX 7 1 9 2 11 3 12 4 10 6 5 8 2 9 1 10 3 11 4 12 6 14 8 16
REMARK H PARENT 12 5 10 7 4 13 6 15 8 17
REMARK Flexibility Score: inf
ROOT
ATOM      1  C   UNL     1       9.187  -0.652  -6.159  1.00  0.00     0.181 C 
ENDROOT
BRANCH   1   2
ATOM      2  C   UNL     1       8.969  -0.955  -7.669  1.00  0.00     0.171 C 
BRANCH   2   3
ATOM      3  C   UNL     1       8.384   0.232  -8.452  1.00  0.00     0.190 C 
BRANCH   3   4
ATOM      4  O   UNL     1       7.073   0.514  -8.037  1.00  0.00    -0.394 OA
ATOM      5  H   UNL     1       6.492  -0.198  -8.412  1.00  0.00     0.210 HD
ENDBRANCH   3   4
ENDBRANCH   2   3
BRANCH   2   6
ATOM      6  O   UNL     1       8.097  -2.048  -7.806  1.00  0.00    -0.388 OA
ATOM      7  H   UNL     1       8.067  -2.512  -6.929  1.00  0.00     0.211 HD
ENDBRANCH   2   6
ENDBRANCH   1   2
BRANCH   1   8
ATOM      8  C   UNL     1       8.213  -1.417  -5.227  1.00  0.00     0.214 C 
BRANCH   8   9
ATOM      9  C   UNL     1       8.708  -1.376  -3.796  1.00  0.00     0.189 C 
ATOM     10  O   UNL     1       9.482  -0.490  -3.463  1.00  0.00    -0.294 OA
BRANCH   9  11
ATOM     11  C   UNL     1       8.285  -2.419  -2.789  1.00  0.00     0.234 C 
BRANCH  11  12
ATOM     12  O   UNL     1       6.895  -2.408  -2.599  1.00  0.00    -0.388 OA
ATOM     13  H   UNL     1       6.741  -2.242  -1.633  1.00  0.00     0.211 HD
ENDBRANCH  11  12
ENDBRANCH   9  11
ENDBRANCH   8   9
BRANCH   8  14
ATOM     14  O   UNL     1       6.923  -0.865  -5.327  1.00  0.00    -0.382 OA
ATOM     15  H   UNL     1       6.995   0.088  -5.058  1.00  0.00     0.211 HD
ENDBRANCH   8  14
ENDBRANCH   1   8
BRANCH   1  16
ATOM     16  O   UNL     1       9.103   0.734  -5.926  1.00  0.00    -0.387 OA
ATOM     17  H   UNL     1      10.029   1.090  -5.887  1.00  0.00     0.211 HD
ENDBRANCH   1  16
TORSDOF 10
ENDMDL
MODEL 5
REMARK VINA RESULT:    -3.468      1.763      2.658
REMARK INTER + INTRA:          -5.868
REMARK INTER:                  -5.256
REMARK INTRA:                  -0.612
REMARK UNBOUND:                -0.880
REMARK SMILES O=C(CO)[C@@H](O)[C@H](O)[C@@H](O)CO
REMARK SMILES IDX 7 1 9 2 11 3 12 4 10 6 5 8 2 9 1 10 3 11 4 12 6 14 8 16
REMARK H PARENT 12 5 10 7 4 13 6 15 8 17
REMARK Flexibility Score: inf
ROOT
ATOM      1  C   UNL     1       7.611  -1.408  -4.722  1.00  0.00     0.181 C 
ENDROOT
BRANCH   1   2
ATOM      2  C   UNL     1       8.361  -1.027  -3.414  1.00  0.00     0.171 C 
BRANCH   2   3
ATOM      3  C   UNL     1       8.755   0.458  -3.346  1.00  0.00     0.190 C 
BRANCH   3   4
ATOM      4  O   UNL     1       7.649   1.261  -3.025  1.00  0.00    -0.394 OA
ATOM      5  H   UNL     1       7.981   2.194  -2.954  1.00  0.00     0.210 HD
ENDBRANCH   3   4
ENDBRANCH   2   3
BRANCH   2   6
ATOM      6  O   UNL     1       9.529  -1.799  -3.301  1.00  0.00    -0.388 OA
ATOM      7  H   UNL     1       9.822  -2.025  -4.222  1.00  0.00     0.211 HD
ENDBRANCH   2   6
ENDBRANCH   1   2
BRANCH   1   8
ATOM      8  C   UNL     1       8.366  -0.994  -6.011  1.00  0.00     0.214 C 
BRANCH   8   9
ATOM      9  C   UNL     1       9.042  -2.197  -6.636  1.00  0.00     0.189 C 
ATOM     10  O   UNL     1       9.836  -2.843  -5.968  1.00  0.00    -0.294 OA
BRANCH   9  11
ATOM     11  C   UNL     1       8.772  -2.594  -8.068  1.00  0.00     0.234 C 
BRANCH  11  12
ATOM     12  O   UNL     1       8.284  -3.907  -8.148  1.00  0.00    -0.388 OA
ATOM     13  H   UNL     1       8.986  -4.444  -8.600  1.00  0.00     0.211 HD
ENDBRANCH  11  12
ENDBRANCH   9  11
ENDBRANCH   8   9
BRANCH   8  14
ATOM     14  O   UNL     1       7.474  -0.393  -6.917  1.00  0.00    -0.382 OA
ATOM     15  H   UNL     1       6.746   0.015  -6.378  1.00  0.00     0.211 HD
ENDBRANCH   8  14
ENDBRANCH   1   8
BRANCH   1  16
ATOM     16  O   UNL     1       6.315  -0.857  -4.715  1.00  0.00    -0.387 OA
ATOM     17  H   UNL     1       6.406   0.128  -4.796  1.00  0.00     0.211 HD
ENDBRANCH   1  16
TORSDOF 10
ENDMDL
MODEL 6
REMARK VINA RESULT:    -3.457     13.129     14.301
REMARK INTER + INTRA:          -5.852
REMARK INTER:                  -5.256
REMARK INTRA:                  -0.596
REMARK UNBOUND:                -0.880
REMARK SMILES O=C(CO)[C@@H](O)[C@H](O)[C@@H](O)CO
REMARK SMILES IDX 7 1 9 2 11 3 12 4 10 6 5 8 2 9 1 10 3 11 4 12 6 14 8 16
REMARK H PARENT 12 5 10 7 4 13 6 15 8 17
REMARK Flexibility Score: inf
ROOT
ATOM      1  C   UNL     1      -2.180   5.733  -0.978  1.00  0.00     0.181 C 
ENDROOT
BRANCH   1   2
ATOM      2  C   UNL     1      -1.177   6.879  -1.292  1.00  0.00     0.171 C 
BRANCH   2   3
ATOM      3  C   UNL     1      -0.949   7.097  -2.797  1.00  0.00     0.190 C 
BRANCH   3   4
ATOM      4  O   UNL     1      -2.064   6.681  -3.542  1.00  0.00    -0.394 OA
ATOM      5  H   UNL     1      -2.020   5.691  -3.600  1.00  0.00     0.210 HD
ENDBRANCH   3   4
ENDBRANCH   2   3
BRANCH   2   6
ATOM      6  O   UNL     1       0.063   6.595  -0.694  1.00  0.00    -0.388 OA
ATOM      7  H   UNL     1      -0.090   5.873  -0.030  1.00  0.00     0.211 HD
ENDBRANCH   2   6
ENDBRANCH   1   2
BRANCH   1   8
ATOM      8  C   UNL     1      -3.434   6.203  -0.199  1.00  0.00     0.214 C 
BRANCH   8   9
ATOM      9  C   UNL     1      -4.694   5.853  -0.964  1.00  0.00     0.189 C 
ATOM     10  O   UNL     1      -4.592   5.300  -2.049  1.00  0.00    -0.294 OA
BRANCH   9  11
ATOM     11  C   UNL     1      -6.061   6.194  -0.423  1.00  0.00     0.234 C 
BRANCH  11  12
ATOM     12  O   UNL     1      -6.390   5.386   0.676  1.00  0.00    -0.388 OA
ATOM     13  H   UNL     1      -5.688   4.687   0.735  1.00  0.00     0.211 HD
ENDBRANCH  11  12
ENDBRANCH   9  11
ENDBRANCH   8   9
BRANCH   8  14
ATOM     14  O   UNL     1      -3.448   5.624   1.083  1.00  0.00    -0.382 OA
ATOM     15  H   UNL     1      -4.252   5.044   1.129  1.00  0.00     0.211 HD
ENDBRANCH   8  14
ENDBRANCH   1   8
BRANCH   1  16
ATOM     16  O   UNL     1      -1.529   4.698  -0.280  1.00  0.00    -0.387 OA
ATOM     17  H   UNL     1      -1.949   3.840  -0.551  1.00  0.00     0.211 HD
ENDBRANCH   1  16
TORSDOF 10
ENDMDL
MODEL 7
REMARK VINA RESULT:    -3.403     10.278     10.900
REMARK INTER + INTRA:          -5.775
REMARK INTER:                  -5.108
REMARK INTRA:                  -0.667
REMARK UNBOUND:                -0.880
REMARK SMILES O=C(CO)[C@@H](O)[C@H](O)[C@@H](O)CO
REMARK SMILES IDX 7 1 9 2 11 3 12 4 10 6 5 8 2 9 1 10 3 11 4 12 6 14 8 16
REMARK H PARENT 12 5 10 7 4 13 6 15 8 17
REMARK Flexibility Score: inf
ROOT
ATOM      1  C   UNL     1       8.221   1.237   4.830  1.00  0.00     0.181 C 
ENDROOT
BRANCH   1   2
ATOM      2  C   UNL     1       7.886  -0.275   4.973  1.00  0.00     0.171 C 
BRANCH   2   3
ATOM      3  C   UNL     1       8.818  -1.018   5.945  1.00  0.00     0.190 C 
BRANCH   3   4
ATOM      4  O   UNL     1       8.599  -2.403   5.896  1.00  0.00    -0.394 OA
ATOM      5  H   UNL     1       9.197  -2.814   6.573  1.00  0.00     0.210 HD
ENDBRANCH   3   4
ENDBRANCH   2   3
BRANCH   2   6
ATOM      6  O   UNL     1       7.975  -0.895   3.715  1.00  0.00    -0.388 OA
ATOM      7  H   UNL     1       7.951  -0.176   3.030  1.00  0.00     0.211 HD
ENDBRANCH   2   6
ENDBRANCH   1   2
BRANCH   1   8
ATOM      8  C   UNL     1       6.973   2.129   4.608  1.00  0.00     0.214 C 
BRANCH   8   9
ATOM      9  C   UNL     1       7.357   3.594   4.639  1.00  0.00     0.189 C 
ATOM     10  O   UNL     1       8.511   3.897   4.908  1.00  0.00    -0.294 OA
BRANCH   9  11
ATOM     11  C   UNL     1       6.342   4.678   4.368  1.00  0.00     0.234 C 
BRANCH  11  12
ATOM     12  O   UNL     1       5.638   4.431   3.180  1.00  0.00    -0.388 OA
ATOM     13  H   UNL     1       5.797   3.479   2.948  1.00  0.00     0.211 HD
ENDBRANCH  11  12
ENDBRANCH   9  11
ENDBRANCH   8   9
BRANCH   8  14
ATOM     14  O   UNL     1       6.358   1.797   3.387  1.00  0.00    -0.382 OA
ATOM     15  H   UNL     1       6.862   2.268   2.673  1.00  0.00     0.211 HD
ENDBRANCH   8  14
ENDBRANCH   1   8
BRANCH   1  16
ATOM     16  O   UNL     1       9.153   1.431   3.793  1.00  0.00    -0.387 OA
ATOM     17  H   UNL     1       9.797   2.125   4.093  1.00  0.00     0.211 HD
ENDBRANCH   1  16
TORSDOF 10
ENDMDL
MODEL 8
REMARK VINA RESULT:    -3.336     10.132     11.269
REMARK INTER + INTRA:          -5.678
REMARK INTER:                  -4.526
REMARK INTRA:                  -1.151
REMARK UNBOUND:                -0.880
REMARK SMILES O=C(CO)[C@@H](O)[C@H](O)[C@@H](O)CO
REMARK SMILES IDX 7 1 9 2 11 3 12 4 10 6 5 8 2 9 1 10 3 11 4 12 6 14 8 16
REMARK H PARENT 12 5 10 7 4 13 6 15 8 17
REMARK Flexibility Score: inf
ROOT
ATOM      1  C   UNL     1       8.526   1.825   4.348  1.00  0.00     0.181 C 
ENDROOT
BRANCH   1   2
ATOM      2  C   UNL     1       8.958   0.663   5.287  1.00  0.00     0.171 C 
BRANCH   2   3
ATOM      3  C   UNL     1       9.286  -0.639   4.538  1.00  0.00     0.190 C 
BRANCH   3   4
ATOM      4  O   UNL     1       8.188  -1.077   3.781  1.00  0.00    -0.394 OA
ATOM      5  H   UNL     1       7.384  -0.980   4.355  1.00  0.00     0.210 HD
ENDBRANCH   3   4
ENDBRANCH   2   3
BRANCH   2   6
ATOM      6  O   UNL     1       7.929   0.396   6.207  1.00  0.00    -0.388 OA
ATOM      7  H   UNL     1       7.556  -0.496   5.979  1.00  0.00     0.211 HD
ENDBRANCH   2   6
ENDBRANCH   1   2
BRANCH   1   8
ATOM      8  C   UNL     1       8.400   3.191   5.071  1.00  0.00     0.214 C 
BRANCH   8   9
ATOM      9  C   UNL     1       6.945   3.592   5.193  1.00  0.00     0.189 C 
ATOM     10  O   UNL     1       6.220   2.964   5.951  1.00  0.00    -0.294 OA
BRANCH   9  11
ATOM     11  C   UNL     1       6.373   4.730   4.383  1.00  0.00     0.234 C 
BRANCH  11  12
ATOM     12  O   UNL     1       5.711   4.258   3.240  1.00  0.00    -0.388 OA
ATOM     13  H   UNL     1       6.209   4.611   2.457  1.00  0.00     0.211 HD
ENDBRANCH  11  12
ENDBRANCH   9  11
ENDBRANCH   8   9
BRANCH   8  14
ATOM     14  O   UNL     1       9.010   3.122   6.336  1.00  0.00    -0.382 OA
ATOM     15  H   UNL     1       9.649   3.881   6.391  1.00  0.00     0.211 HD
ENDBRANCH   8  14
ENDBRANCH   1   8
BRANCH   1  16
ATOM     16  O   UNL     1       7.319   1.501   3.700  1.00  0.00    -0.387 OA
ATOM     17  H   UNL     1       7.416   0.589   3.320  1.00  0.00     0.211 HD
ENDBRANCH   1  16
TORSDOF 10
ENDMDL
MODEL 9
REMARK VINA RESULT:    -3.319     10.202     11.779
REMARK INTER + INTRA:          -5.653
REMARK INTER:                  -5.006
REMARK INTRA:                  -0.647
REMARK UNBOUND:                -0.880
REMARK SMILES O=C(CO)[C@@H](O)[C@H](O)[C@@H](O)CO
REMARK SMILES IDX 7 1 9 2 11 3 12 4 10 6 5 8 2 9 1 10 3 11 4 12 6 14 8 16
REMARK H PARENT 12 5 10 7 4 13 6 15 8 17
REMARK Flexibility Score: inf
ROOT
ATOM      1  C   UNL     1       6.531   3.734   4.002  1.00  0.00     0.181 C 
ENDROOT
BRANCH   1   2
ATOM      2  C   UNL     1       5.965   2.294   4.159  1.00  0.00     0.171 C 
BRANCH   2   3
ATOM      3  C   UNL     1       7.031   1.259   4.559  1.00  0.00     0.190 C 
BRANCH   3   4
ATOM      4  O   UNL     1       8.174   1.373   3.754  1.00  0.00    -0.394 OA
ATOM      5  H   UNL     1       8.048   0.759   2.984  1.00  0.00     0.210 HD
ENDBRANCH   3   4
ENDBRANCH   2   3
BRANCH   2   6
ATOM      6  O   UNL     1       5.384   1.883   2.947  1.00  0.00    -0.388 OA
ATOM      7  H   UNL     1       4.975   0.992   3.105  1.00  0.00     0.211 HD
ENDBRANCH   2   6
ENDBRANCH   1   2
BRANCH   1   8
ATOM      8  C   UNL     1       6.861   4.420   5.353  1.00  0.00     0.214 C 
BRANCH   8   9
ATOM      9  C   UNL     1       8.322   4.816   5.401  1.00  0.00     0.189 C 
ATOM     10  O   UNL     1       9.174   3.952   5.253  1.00  0.00    -0.294 OA
BRANCH   9  11
ATOM     11  C   UNL     1       8.741   6.244   5.652  1.00  0.00     0.234 C 
BRANCH  11  12
ATOM     12  O   UNL     1       8.104   7.125   4.764  1.00  0.00    -0.388 OA
ATOM     13  H   UNL     1       7.357   7.543   5.266  1.00  0.00     0.211 HD
ENDBRANCH  11  12
ENDBRANCH   9  11
ENDBRANCH   8   9
BRANCH   8  14
ATOM     14  O   UNL     1       6.031   5.540   5.536  1.00  0.00    -0.382 OA
ATOM     15  H   UNL     1       6.286   6.205   4.844  1.00  0.00     0.211 HD
ENDBRANCH   8  14
ENDBRANCH   1   8
BRANCH   1  16
ATOM     16  O   UNL     1       5.638   4.526   3.256  1.00  0.00    -0.387 OA
ATOM     17  H   UNL     1       4.716   4.243   3.489  1.00  0.00     0.211 HD
ENDBRANCH   1  16
TORSDOF 10
ENDMDL
