MODEL 1
REMARK VINA RESULT:    -3.676      0.000      0.000
REMARK INTER + INTRA:          -6.993
REMARK INTER:                  -5.718
REMARK INTRA:                  -1.275
REMARK UNBOUND:                -1.275
REMARK SMILES C[C@]12C[C@]3(O)O[C@H](O1)[C@@]1(COC(=O)c4ccccc4)[C@@H]3C[C@]12O[C@H]1O[C@@H](CO)[C@@H](O)[C@@H](O)[C@H]1O
REMARK SMILES IDX 1 1 2 2 3 3 4 4 20 5 21 6 22 7 9 8 7 9 8 10 6 11 23 12 24 13
REMARK SMILES IDX 33 14 25 15 31 16 26 17 29 18 34 19 32 21 27 23 28 24 30 26
REMARK SMILES IDX 5 28 10 30 11 31 12 32 13 33 14 34 15 35 19 36 16 37 18 38
REMARK SMILES IDX 17 39
REMARK H PARENT 34 20 32 22 28 25 30 27 5 29
REMARK Flexibility Score: inf
ROOT
ATOM      1  C   UNL     1    -121.759  37.058  14.381  1.00  0.00     0.046 C 
ATOM      2  C   UNL     1    -122.804  37.158  15.494  1.00  0.00     0.104 C 
ATOM      3  C   UNL     1    -122.253  36.512  16.819  1.00  0.00     0.104 C 
ATOM      4  C   UNL     1    -123.399  36.762  17.861  1.00  0.00     0.175 C 
ATOM      5  C   UNL     1    -123.855  38.258  17.828  1.00  0.00     0.070 C 
ATOM      6  C   UNL     1    -122.836  39.186  17.147  1.00  0.00     0.050 C 
ATOM      7  C   UNL     1    -123.340  38.612  15.806  1.00  0.00     0.115 C 
ATOM      8  C   UNL     1    -124.633  38.213  16.523  1.00  0.00     0.096 C 
ATOM      9  C   UNL     1    -124.874  36.747  16.203  1.00  0.00     0.267 C 
ATOM     10  O   UNL     1    -123.963  36.419  15.165  1.00  0.00    -0.342 OA
ATOM     11  O   UNL     1    -124.515  36.041  17.380  1.00  0.00    -0.320 OA
ENDROOT
BRANCH   7  12
ATOM     12  O   UNL     1    -123.597  39.502  14.728  1.00  0.00    -0.339 OA
BRANCH  12  13
ATOM     13  C   UNL     1    -122.661  40.564  14.635  1.00  0.00     0.282 C 
ATOM     14  C   UNL     1    -123.361  41.944  14.611  1.00  0.00     0.202 C 
ATOM     15  O   UNL     1    -121.833  40.391  13.492  1.00  0.00    -0.341 OA
ATOM     16  C   UNL     1    -124.190  42.115  13.337  1.00  0.00     0.179 C 
ATOM     17  C   UNL     1    -122.495  40.546  12.238  1.00  0.00     0.178 C 
ATOM     18  C   UNL     1    -123.286  41.878  12.124  1.00  0.00     0.177 C 
BRANCH  14  19
ATOM     19  O   UNL     1    -124.181  42.117  15.737  1.00  0.00    -0.385 OA
ATOM     20  H   UNL     1    -124.245  43.094  15.903  1.00  0.00     0.211 HD
ENDBRANCH  14  19
BRANCH  16  21
ATOM     21  O   UNL     1    -125.282  41.229  13.326  1.00  0.00    -0.387 OA
ATOM     22  H   UNL     1    -126.104  41.767  13.466  1.00  0.00     0.211 HD
ENDBRANCH  16  21
BRANCH  17  23
ATOM     23  C   UNL     1    -123.301  39.294  11.811  1.00  0.00     0.191 C 
BRANCH  23  24
ATOM     24  O   UNL     1    -123.239  39.093  10.428  1.00  0.00    -0.394 OA
ATOM     25  H   UNL     1    -123.797  39.804  10.008  1.00  0.00     0.210 HD
ENDBRANCH  23  24
ENDBRANCH  17  23
BRANCH  18  26
ATOM     26  O   UNL     1    -124.059  41.912  10.952  1.00  0.00    -0.387 OA
ATOM     27  H   UNL     1    -124.283  42.863  10.776  1.00  0.00     0.211 HD
ENDBRANCH  18  26
ENDBRANCH  12  13
ENDBRANCH   7  12
BRANCH   4  28
ATOM     28  O   UNL     1    -123.055  36.334  19.151  1.00  0.00    -0.365 OA
ATOM     29  H   UNL     1    -122.418  35.581  19.038  1.00  0.00     0.214 HD
ENDBRANCH   4  28
BRANCH   8  30
ATOM     30  C   UNL     1    -125.835  39.180  16.418  1.00  0.00     0.249 C 
BRANCH  30  31
ATOM     31  O   UNL     1    -127.072  38.471  16.464  1.00  0.00    -0.461 OA
BRANCH  31  32
ATOM     32  C   UNL     1    -127.943  38.464  17.560  1.00  0.00     0.338 C 
ATOM     33  O   UNL     1    -127.738  37.685  18.531  1.00  0.00    -0.246 OA
BRANCH  32  34
ATOM     34  C   UNL     1    -129.113  39.371  17.570  1.00  0.00     0.060 A 
ATOM     35  C   UNL     1    -129.097  40.560  16.815  1.00  0.00     0.015 A 
ATOM     36  C   UNL     1    -130.259  39.056  18.324  1.00  0.00     0.015 A 
ATOM     37  C   UNL     1    -130.208  41.410  16.810  1.00  0.00     0.001 A 
ATOM     38  C   UNL     1    -131.360  39.919  18.329  1.00  0.00     0.001 A 
ATOM     39  C   UNL     1    -131.335  41.093  17.570  1.00  0.00     0.000 A 
ENDBRANCH  32  34
ENDBRANCH  31  32
ENDBRANCH  30  31
ENDBRANCH   8  30
TORSDOF 12
ENDMDL
MODEL 2
REMARK VINA RESULT:    -3.663      2.775      6.973
REMARK INTER + INTRA:          -6.972
REMARK INTER:                  -5.067
REMARK INTRA:                  -1.906
REMARK UNBOUND:                -1.275
REMARK SMILES C[C@]12C[C@]3(O)O[C@H](O1)[C@@]1(COC(=O)c4ccccc4)[C@@H]3C[C@]12O[C@H]1O[C@@H](CO)[C@@H](O)[C@@H](O)[C@H]1O
REMARK SMILES IDX 1 1 2 2 3 3 4 4 20 5 21 6 22 7 9 8 7 9 8 10 6 11 23 12 24 13
REMARK SMILES IDX 33 14 25 15 31 16 26 17 29 18 34 19 32 21 27 23 28 24 30 26
REMARK SMILES IDX 5 28 10 30 11 31 12 32 13 33 14 34 15 35 19 36 16 37 18 38
REMARK SMILES IDX 17 39
REMARK H PARENT 34 20 32 22 28 25 30 27 5 29
REMARK Flexibility Score: inf
ROOT
ATOM      1  C   UNL     1    -129.121  38.933  12.528  1.00  0.00     0.046 C 
ATOM      2  C   UNL     1    -127.907  38.705  13.429  1.00  0.00     0.104 C 
ATOM      3  C   UNL     1    -126.589  39.151  12.694  1.00  0.00     0.104 C 
ATOM      4  C   UNL     1    -125.467  38.925  13.767  1.00  0.00     0.175 C 
ATOM      5  C   UNL     1    -125.877  39.565  15.134  1.00  0.00     0.070 C 
ATOM      6  C   UNL     1    -127.012  40.594  15.003  1.00  0.00     0.050 C 
ATOM      7  C   UNL     1    -127.967  39.392  14.852  1.00  0.00     0.115 C 
ATOM      8  C   UNL     1    -126.911  38.531  15.549  1.00  0.00     0.096 C 
ATOM      9  C   UNL     1    -126.692  37.311  14.670  1.00  0.00     0.267 C 
ATOM     10  O   UNL     1    -127.738  37.330  13.710  1.00  0.00    -0.342 OA
ATOM     11  O   UNL     1    -125.454  37.534  14.017  1.00  0.00    -0.320 OA
ENDROOT
BRANCH   7  12
ATOM     12  O   UNL     1    -129.194  39.392  15.570  1.00  0.00    -0.339 OA
BRANCH  12  13
ATOM     13  C   UNL     1    -129.826  40.662  15.613  1.00  0.00     0.282 C 
ATOM     14  C   UNL     1    -130.123  41.105  17.065  1.00  0.00     0.202 C 
ATOM     15  O   UNL     1    -131.012  40.647  14.828  1.00  0.00    -0.341 OA
ATOM     16  C   UNL     1    -131.164  40.190  17.714  1.00  0.00     0.179 C 
ATOM     17  C   UNL     1    -132.068  39.838  15.347  1.00  0.00     0.178 C 
ATOM     18  C   UNL     1    -132.412  40.156  16.827  1.00  0.00     0.177 C 
BRANCH  14  19
ATOM     19  O   UNL     1    -128.954  41.118  17.841  1.00  0.00    -0.385 OA
ATOM     20  H   UNL     1    -129.088  41.792  18.558  1.00  0.00     0.211 HD
ENDBRANCH  14  19
BRANCH  16  21
ATOM     21  O   UNL     1    -130.648  38.896  17.899  1.00  0.00    -0.387 OA
ATOM     22  H   UNL     1    -130.208  38.875  18.788  1.00  0.00     0.211 HD
ENDBRANCH  16  21
BRANCH  17  23
ATOM     23  C   UNL     1    -131.885  38.329  15.051  1.00  0.00     0.191 C 
BRANCH  23  24
ATOM     24  O   UNL     1    -133.117  37.685  14.897  1.00  0.00    -0.394 OA
ATOM     25  H   UNL     1    -133.583  38.131  14.137  1.00  0.00     0.210 HD
ENDBRANCH  23  24
ENDBRANCH  17  23
BRANCH  18  26
ATOM     26  O   UNL     1    -133.329  39.227  17.347  1.00  0.00    -0.387 OA
ATOM     27  H   UNL     1    -133.106  39.102  18.307  1.00  0.00     0.211 HD
ENDBRANCH  18  26
ENDBRANCH  12  13
ENDBRANCH   7  12
BRANCH   4  28
ATOM     28  O   UNL     1    -124.208  39.358  13.327  1.00  0.00    -0.365 OA
ATOM     29  H   UNL     1    -123.627  38.554  13.299  1.00  0.00     0.214 HD
ENDBRANCH   4  28
BRANCH   8  30
ATOM     30  C   UNL     1    -127.066  38.304  17.071  1.00  0.00     0.249 C 
BRANCH  30  31
ATOM     31  O   UNL     1    -126.442  37.086  17.476  1.00  0.00    -0.461 OA
BRANCH  31  32
ATOM     32  C   UNL     1    -125.185  37.002  18.085  1.00  0.00     0.338 C 
ATOM     33  O   UNL     1    -125.073  36.541  19.255  1.00  0.00    -0.246 OA
BRANCH  32  34
ATOM     34  C   UNL     1    -123.985  37.466  17.353  1.00  0.00     0.060 A 
ATOM     35  C   UNL     1    -123.506  38.778  17.532  1.00  0.00     0.015 A 
ATOM     36  C   UNL     1    -123.301  36.603  16.476  1.00  0.00     0.015 A 
ATOM     37  C   UNL     1    -122.362  39.213  16.854  1.00  0.00     0.001 A 
ATOM     38  C   UNL     1    -122.168  37.049  15.788  1.00  0.00     0.001 A 
ATOM     39  C   UNL     1    -121.698  38.352  15.979  1.00  0.00     0.000 A 
ENDBRANCH  32  34
ENDBRANCH  31  32
ENDBRANCH  30  31
ENDBRANCH   8  30
TORSDOF 12
ENDMDL
MODEL 3
REMARK VINA RESULT:    -3.660      1.705      2.378
REMARK INTER + INTRA:          -6.967
REMARK INTER:                  -5.236
REMARK INTRA:                  -1.731
REMARK UNBOUND:                -1.275
REMARK SMILES C[C@]12C[C@]3(O)O[C@H](O1)[C@@]1(COC(=O)c4ccccc4)[C@@H]3C[C@]12O[C@H]1O[C@@H](CO)[C@@H](O)[C@@H](O)[C@H]1O
REMARK SMILES IDX 1 1 2 2 3 3 4 4 20 5 21 6 22 7 9 8 7 9 8 10 6 11 23 12 24 13
REMARK SMILES IDX 33 14 25 15 31 16 26 17 29 18 34 19 32 21 27 23 28 24 30 26
REMARK SMILES IDX 5 28 10 30 11 31 12 32 13 33 14 34 15 35 19 36 16 37 18 38
REMARK SMILES IDX 17 39
REMARK H PARENT 34 20 32 22 28 25 30 27 5 29
REMARK Flexibility Score: inf
ROOT
ATOM      1  C   UNL     1    -123.188  36.681  12.842  1.00  0.00     0.046 C 
ATOM      2  C   UNL     1    -123.101  36.562  14.364  1.00  0.00     0.104 C 
ATOM      3  C   UNL     1    -121.775  35.824  14.779  1.00  0.00     0.104 C 
ATOM      4  C   UNL     1    -121.807  35.853  16.347  1.00  0.00     0.175 C 
ATOM      5  C   UNL     1    -122.116  37.296  16.865  1.00  0.00     0.070 C 
ATOM      6  C   UNL     1    -121.888  38.381  15.800  1.00  0.00     0.050 C 
ATOM      7  C   UNL     1    -123.216  37.918  15.169  1.00  0.00     0.115 C 
ATOM      8  C   UNL     1    -123.598  37.328  16.528  1.00  0.00     0.096 C 
ATOM      9  C   UNL     1    -124.024  35.891  16.276  1.00  0.00     0.267 C 
ATOM     10  O   UNL     1    -124.154  35.764  14.868  1.00  0.00    -0.342 OA
ATOM     11  O   UNL     1    -122.939  35.093  16.719  1.00  0.00    -0.320 OA
ENDROOT
BRANCH   7  12
ATOM     12  O   UNL     1    -124.157  38.897  14.745  1.00  0.00    -0.339 OA
BRANCH  12  13
ATOM     13  C   UNL     1    -123.571  39.972  14.027  1.00  0.00     0.282 C 
ATOM     14  C   UNL     1    -123.905  41.339  14.669  1.00  0.00     0.202 C 
ATOM     15  O   UNL     1    -123.979  39.933  12.665  1.00  0.00    -0.341 OA
ATOM     16  C   UNL     1    -125.401  41.642  14.566  1.00  0.00     0.179 C 
ATOM     17  C   UNL     1    -125.359  40.220  12.440  1.00  0.00     0.178 C 
ATOM     18  C   UNL     1    -125.823  41.548  13.097  1.00  0.00     0.177 C 
BRANCH  14  19
ATOM     19  O   UNL     1    -123.506  41.379  16.015  1.00  0.00    -0.385 OA
ATOM     20  H   UNL     1    -122.729  41.995  16.069  1.00  0.00     0.211 HD
ENDBRANCH  14  19
BRANCH  16  21
ATOM     21  O   UNL     1    -126.149  40.752  15.357  1.00  0.00    -0.387 OA
ATOM     22  H   UNL     1    -126.985  40.545  14.864  1.00  0.00     0.211 HD
ENDBRANCH  16  21
BRANCH  17  23
ATOM     23  C   UNL     1    -126.289  39.015  12.726  1.00  0.00     0.191 C 
BRANCH  23  24
ATOM     24  O   UNL     1    -127.424  39.040  11.909  1.00  0.00    -0.394 OA
ATOM     25  H   UNL     1    -128.046  39.715  12.299  1.00  0.00     0.210 HD
ENDBRANCH  23  24
ENDBRANCH  17  23
BRANCH  18  26
ATOM     26  O   UNL     1    -127.216  41.704  13.000  1.00  0.00    -0.387 OA
ATOM     27  H   UNL     1    -127.545  41.960  13.901  1.00  0.00     0.211 HD
ENDBRANCH  18  26
ENDBRANCH  12  13
ENDBRANCH   7  12
BRANCH   4  28
ATOM     28  O   UNL     1    -120.644  35.315  16.918  1.00  0.00    -0.365 OA
ATOM     29  H   UNL     1    -120.336  35.967  17.600  1.00  0.00     0.214 HD
ENDBRANCH   4  28
BRANCH   8  30
ATOM     30  C   UNL     1    -124.484  38.190  17.458  1.00  0.00     0.249 C 
BRANCH  30  31
ATOM     31  O   UNL     1    -125.727  37.543  17.729  1.00  0.00    -0.461 OA
BRANCH  31  32
ATOM     32  C   UNL     1    -126.944  37.877  17.124  1.00  0.00     0.338 C 
ATOM     33  O   UNL     1    -127.070  37.814  15.870  1.00  0.00    -0.246 OA
BRANCH  32  34
ATOM     34  C   UNL     1    -128.083  38.313  17.963  1.00  0.00     0.060 A 
ATOM     35  C   UNL     1    -128.360  37.659  19.179  1.00  0.00     0.015 A 
ATOM     36  C   UNL     1    -128.897  39.390  17.565  1.00  0.00     0.015 A 
ATOM     37  C   UNL     1    -129.425  38.080  19.983  1.00  0.00     0.001 A 
ATOM     38  C   UNL     1    -129.971  39.795  18.365  1.00  0.00     0.001 A 
ATOM     39  C   UNL     1    -130.233  39.142  19.573  1.00  0.00     0.000 A 
ENDBRANCH  32  34
ENDBRANCH  31  32
ENDBRANCH  30  31
ENDBRANCH   8  30
TORSDOF 12
ENDMDL
MODEL 4
REMARK VINA RESULT:    -3.613      8.491     12.625
REMARK INTER + INTRA:          -6.895
REMARK INTER:                  -5.161
REMARK INTRA:                  -1.733
REMARK UNBOUND:                -1.275
REMARK SMILES C[C@]12C[C@]3(O)O[C@H](O1)[C@@]1(COC(=O)c4ccccc4)[C@@H]3C[C@]12O[C@H]1O[C@@H](CO)[C@@H](O)[C@@H](O)[C@H]1O
REMARK SMILES IDX 1 1 2 2 3 3 4 4 20 5 21 6 22 7 9 8 7 9 8 10 6 11 23 12 24 13
REMARK SMILES IDX 33 14 25 15 31 16 26 17 29 18 34 19 32 21 27 23 28 24 30 26
REMARK SMILES IDX 5 28 10 30 11 31 12 32 13 33 14 34 15 35 19 36 16 37 18 38
REMARK SMILES IDX 17 39
REMARK H PARENT 34 20 32 22 28 25 30 27 5 29
REMARK Flexibility Score: inf
ROOT
ATOM      1  C   UNL     1    -126.632  36.452   7.746  1.00  0.00     0.046 C 
ATOM      2  C   UNL     1    -126.697  36.262   6.230  1.00  0.00     0.104 C 
ATOM      3  C   UNL     1    -127.861  35.273   5.853  1.00  0.00     0.104 C 
ATOM      4  C   UNL     1    -127.837  35.248   4.284  1.00  0.00     0.175 C 
ATOM      5  C   UNL     1    -127.804  36.703   3.712  1.00  0.00     0.070 C 
ATOM      6  C   UNL     1    -128.231  37.766   4.737  1.00  0.00     0.050 C 
ATOM      7  C   UNL     1    -126.838  37.584   5.375  1.00  0.00     0.115 C 
ATOM      8  C   UNL     1    -126.354  37.025   4.035  1.00  0.00     0.096 C 
ATOM      9  C   UNL     1    -125.666  35.703   4.336  1.00  0.00     0.267 C 
ATOM     10  O   UNL     1    -125.514  35.656   5.747  1.00  0.00    -0.342 OA
ATOM     11  O   UNL     1    -126.583  34.700   3.931  1.00  0.00    -0.320 OA
ENDROOT
BRANCH   7  12
ATOM     12  O   UNL     1    -126.097  38.737   5.754  1.00  0.00    -0.339 OA
BRANCH  12  13
ATOM     13  C   UNL     1    -126.877  39.716   6.422  1.00  0.00     0.282 C 
ATOM     14  C   UNL     1    -126.789  41.093   5.722  1.00  0.00     0.202 C 
ATOM     15  O   UNL     1    -126.485  39.810   7.787  1.00  0.00    -0.341 OA
ATOM     16  C   UNL     1    -125.375  41.667   5.818  1.00  0.00     0.179 C 
ATOM     17  C   UNL     1    -125.183  40.352   8.004  1.00  0.00     0.178 C 
ATOM     18  C   UNL     1    -124.960  41.714   7.292  1.00  0.00     0.177 C 
BRANCH  14  19
ATOM     19  O   UNL     1    -127.173  41.003   4.375  1.00  0.00    -0.385 OA
ATOM     20  H   UNL     1    -128.157  41.133   4.343  1.00  0.00     0.211 HD
ENDBRANCH  14  19
BRANCH  16  21
ATOM     21  O   UNL     1    -124.468  40.896   5.070  1.00  0.00    -0.387 OA
ATOM     22  H   UNL     1    -124.076  40.220   5.682  1.00  0.00     0.211 HD
ENDBRANCH  16  21
BRANCH  17  23
ATOM     23  C   UNL     1    -124.046  39.326   7.775  1.00  0.00     0.191 C 
BRANCH  23  24
ATOM     24  O   UNL     1    -122.938  39.602   8.582  1.00  0.00    -0.394 OA
ATOM     25  H   UNL     1    -122.171  39.087   8.207  1.00  0.00     0.210 HD
ENDBRANCH  23  24
ENDBRANCH  17  23
BRANCH  18  26
ATOM     26  O   UNL     1    -123.620  42.125   7.387  1.00  0.00    -0.387 OA
ATOM     27  H   UNL     1    -123.261  41.756   8.236  1.00  0.00     0.211 HD
ENDBRANCH  18  26
ENDBRANCH  12  13
ENDBRANCH   7  12
BRANCH   4  28
ATOM     28  O   UNL     1    -128.878  34.481   3.744  1.00  0.00    -0.365 OA
ATOM     29  H   UNL     1    -128.957  33.671   4.312  1.00  0.00     0.214 HD
ENDBRANCH   4  28
BRANCH   8  30
ATOM     30  C   UNL     1    -125.646  38.001   3.067  1.00  0.00     0.249 C 
BRANCH  30  31
ATOM     31  O   UNL     1    -124.302  37.593   2.815  1.00  0.00    -0.461 OA
BRANCH  31  32
ATOM     32  C   UNL     1    -123.174  38.157   3.420  1.00  0.00     0.338 C 
ATOM     33  O   UNL     1    -123.065  38.169   4.678  1.00  0.00    -0.246 OA
BRANCH  32  34
ATOM     34  C   UNL     1    -122.110  38.748   2.578  1.00  0.00     0.060 A 
ATOM     35  C   UNL     1    -121.553  39.998   2.911  1.00  0.00     0.015 A 
ATOM     36  C   UNL     1    -121.633  38.069   1.441  1.00  0.00     0.015 A 
ATOM     37  C   UNL     1    -120.536  40.552   2.126  1.00  0.00     0.001 A 
ATOM     38  C   UNL     1    -120.628  38.635   0.651  1.00  0.00     0.001 A 
ATOM     39  C   UNL     1    -120.078  39.874   0.995  1.00  0.00     0.000 A 
ENDBRANCH  32  34
ENDBRANCH  31  32
ENDBRANCH  30  31
ENDBRANCH   8  30
TORSDOF 12
ENDMDL
MODEL 5
REMARK VINA RESULT:    -3.532      3.066      7.355
REMARK INTER + INTRA:          -6.768
REMARK INTER:                  -5.206
REMARK INTRA:                  -1.562
REMARK UNBOUND:                -1.275
REMARK SMILES C[C@]12C[C@]3(O)O[C@H](O1)[C@@]1(COC(=O)c4ccccc4)[C@@H]3C[C@]12O[C@H]1O[C@@H](CO)[C@@H](O)[C@@H](O)[C@H]1O
REMARK SMILES IDX 1 1 2 2 3 3 4 4 20 5 21 6 22 7 9 8 7 9 8 10 6 11 23 12 24 13
REMARK SMILES IDX 33 14 25 15 31 16 26 17 29 18 34 19 32 21 27 23 28 24 30 26
REMARK SMILES IDX 5 28 10 30 11 31 12 32 13 33 14 34 15 35 19 36 16 37 18 38
REMARK SMILES IDX 17 39
REMARK H PARENT 34 20 32 22 28 25 30 27 5 29
REMARK Flexibility Score: inf
ROOT
ATOM      1  C   UNL     1    -129.692  36.307  14.309  1.00  0.00     0.046 C 
ATOM      2  C   UNL     1    -128.905  37.369  13.541  1.00  0.00     0.104 C 
ATOM      3  C   UNL     1    -129.181  37.244  11.997  1.00  0.00     0.104 C 
ATOM      4  C   UNL     1    -128.371  38.435  11.375  1.00  0.00     0.175 C 
ATOM      5  C   UNL     1    -128.675  39.766  12.138  1.00  0.00     0.070 C 
ATOM      6  C   UNL     1    -129.958  39.698  12.982  1.00  0.00     0.050 C 
ATOM      7  C   UNL     1    -129.144  38.865  13.994  1.00  0.00     0.115 C 
ATOM      8  C   UNL     1    -127.874  39.475  13.397  1.00  0.00     0.096 C 
ATOM      9  C   UNL     1    -126.946  38.317  13.071  1.00  0.00     0.267 C 
ATOM     10  O   UNL     1    -127.513  37.174  13.694  1.00  0.00    -0.342 OA
ATOM     11  O   UNL     1    -127.014  38.164  11.663  1.00  0.00    -0.320 OA
ENDROOT
BRANCH   7  12
ATOM     12  O   UNL     1    -129.259  39.159  15.381  1.00  0.00    -0.339 OA
BRANCH  12  13
ATOM     13  C   UNL     1    -130.602  39.222  15.836  1.00  0.00     0.282 C 
ATOM     14  C   UNL     1    -130.907  40.570  16.532  1.00  0.00     0.202 C 
ATOM     15  O   UNL     1    -130.879  38.126  16.700  1.00  0.00    -0.341 OA
ATOM     16  C   UNL     1    -130.105  40.712  17.827  1.00  0.00     0.179 C 
ATOM     17  C   UNL     1    -130.200  38.159  17.954  1.00  0.00     0.178 C 
ATOM     18  C   UNL     1    -130.387  39.498  18.718  1.00  0.00     0.177 C 
BRANCH  14  19
ATOM     19  O   UNL     1    -130.631  41.653  15.683  1.00  0.00    -0.385 OA
ATOM     20  H   UNL     1    -131.443  41.806  15.133  1.00  0.00     0.211 HD
ENDBRANCH  14  19
BRANCH  16  21
ATOM     21  O   UNL     1    -128.730  40.823  17.556  1.00  0.00    -0.387 OA
ATOM     22  H   UNL     1    -128.314  39.946  17.763  1.00  0.00     0.211 HD
ENDBRANCH  16  21
BRANCH  17  23
ATOM     23  C   UNL     1    -128.728  37.682  17.866  1.00  0.00     0.191 C 
BRANCH  23  24
ATOM     24  O   UNL     1    -128.317  37.071  19.055  1.00  0.00    -0.394 OA
ATOM     25  H   UNL     1    -129.092  36.544  19.392  1.00  0.00     0.210 HD
ENDBRANCH  23  24
ENDBRANCH  17  23
BRANCH  18  26
ATOM     26  O   UNL     1    -129.566  39.553  19.856  1.00  0.00    -0.387 OA
ATOM     27  H   UNL     1    -129.903  38.870  20.493  1.00  0.00     0.211 HD
ENDBRANCH  18  26
ENDBRANCH  12  13
ENDBRANCH   7  12
BRANCH   4  28
ATOM     28  O   UNL     1    -128.566  38.552   9.991  1.00  0.00    -0.365 OA
ATOM     29  H   UNL     1    -127.668  38.680   9.589  1.00  0.00     0.214 HD
ENDBRANCH   4  28
BRANCH   8  30
ATOM     30  C   UNL     1    -127.268  40.705  14.112  1.00  0.00     0.249 C 
BRANCH  30  31
ATOM     31  O   UNL     1    -125.842  40.687  14.048  1.00  0.00    -0.461 OA
BRANCH  31  32
ATOM     32  C   UNL     1    -124.995  40.951  15.131  1.00  0.00     0.338 C 
ATOM     33  O   UNL     1    -124.579  42.124  15.342  1.00  0.00    -0.246 OA
BRANCH  32  34
ATOM     34  C   UNL     1    -124.583  39.845  16.023  1.00  0.00     0.060 A 
ATOM     35  C   UNL     1    -123.234  39.703  16.402  1.00  0.00     0.015 A 
ATOM     36  C   UNL     1    -125.530  38.927  16.514  1.00  0.00     0.015 A 
ATOM     37  C   UNL     1    -122.844  38.668  17.259  1.00  0.00     0.001 A 
ATOM     38  C   UNL     1    -125.132  37.885  17.357  1.00  0.00     0.001 A 
ATOM     39  C   UNL     1    -123.791  37.758  17.731  1.00  0.00     0.000 A 
ENDBRANCH  32  34
ENDBRANCH  31  32
ENDBRANCH  30  31
ENDBRANCH   8  30
TORSDOF 12
ENDMDL
MODEL 6
REMARK VINA RESULT:    -3.529      2.750      6.775
REMARK INTER + INTRA:          -6.763
REMARK INTER:                  -5.149
REMARK INTRA:                  -1.614
REMARK UNBOUND:                -1.275
REMARK SMILES C[C@]12C[C@]3(O)O[C@H](O1)[C@@]1(COC(=O)c4ccccc4)[C@@H]3C[C@]12O[C@H]1O[C@@H](CO)[C@@H](O)[C@@H](O)[C@H]1O
REMARK SMILES IDX 1 1 2 2 3 3 4 4 20 5 21 6 22 7 9 8 7 9 8 10 6 11 23 12 24 13
REMARK SMILES IDX 33 14 25 15 31 16 26 17 29 18 34 19 32 21 27 23 28 24 30 26
REMARK SMILES IDX 5 28 10 30 11 31 12 32 13 33 14 34 15 35 19 36 16 37 18 38
REMARK SMILES IDX 17 39
REMARK H PARENT 34 20 32 22 28 25 30 27 5 29
REMARK Flexibility Score: inf
ROOT
ATOM      1  C   UNL     1    -130.637  41.892  15.962  1.00  0.00     0.046 C 
ATOM      2  C   UNL     1    -130.572  40.677  16.889  1.00  0.00     0.104 C 
ATOM      3  C   UNL     1    -131.857  40.610  17.793  1.00  0.00     0.104 C 
ATOM      4  C   UNL     1    -131.668  39.287  18.614  1.00  0.00     0.175 C 
ATOM      5  C   UNL     1    -131.291  38.101  17.667  1.00  0.00     0.070 C 
ATOM      6  C   UNL     1    -131.613  38.381  16.190  1.00  0.00     0.050 C 
ATOM      7  C   UNL     1    -130.360  39.280  16.178  1.00  0.00     0.115 C 
ATOM      8  C   UNL     1    -129.851  38.499  17.392  1.00  0.00     0.096 C 
ATOM      9  C   UNL     1    -129.469  39.527  18.444  1.00  0.00     0.267 C 
ATOM     10  O   UNL     1    -129.483  40.784  17.784  1.00  0.00    -0.342 OA
ATOM     11  O   UNL     1    -130.513  39.490  19.403  1.00  0.00    -0.320 OA
ENDROOT
BRANCH   7  12
ATOM     12  O   UNL     1    -129.455  39.189  15.085  1.00  0.00    -0.339 OA
BRANCH  12  13
ATOM     13  C   UNL     1    -130.098  39.153  13.820  1.00  0.00     0.282 C 
ATOM     14  C   UNL     1    -129.680  37.910  13.001  1.00  0.00     0.202 C 
ATOM     15  O   UNL     1    -129.836  40.353  13.102  1.00  0.00    -0.341 OA
ATOM     16  C   UNL     1    -128.199  37.976  12.623  1.00  0.00     0.179 C 
ATOM     17  C   UNL     1    -128.483  40.518  12.677  1.00  0.00     0.178 C 
ATOM     18  C   UNL     1    -127.934  39.296  11.892  1.00  0.00     0.177 C 
BRANCH  14  19
ATOM     19  O   UNL     1    -129.935  36.725  13.709  1.00  0.00    -0.385 OA
ATOM     20  H   UNL     1    -129.756  35.971  13.089  1.00  0.00     0.211 HD
ENDBRANCH  14  19
BRANCH  16  21
ATOM     21  O   UNL     1    -127.385  37.867  13.764  1.00  0.00    -0.387 OA
ATOM     22  H   UNL     1    -127.390  36.914  14.043  1.00  0.00     0.211 HD
ENDBRANCH  16  21
BRANCH  17  23
ATOM     23  C   UNL     1    -127.545  41.019  13.804  1.00  0.00     0.191 C 
BRANCH  23  24
ATOM     24  O   UNL     1    -126.495  41.787  13.290  1.00  0.00    -0.394 OA
ATOM     25  H   UNL     1    -125.674  41.225  13.342  1.00  0.00     0.210 HD
ENDBRANCH  23  24
ENDBRANCH  17  23
BRANCH  18  26
ATOM     26  O   UNL     1    -126.557  39.426  11.646  1.00  0.00    -0.387 OA
ATOM     27  H   UNL     1    -126.245  38.563  11.266  1.00  0.00     0.211 HD
ENDBRANCH  18  26
ENDBRANCH  12  13
ENDBRANCH   7  12
BRANCH   4  28
ATOM     28  O   UNL     1    -132.773  38.996  19.427  1.00  0.00    -0.365 OA
ATOM     29  H   UNL     1    -132.412  38.745  20.316  1.00  0.00     0.214 HD
ENDBRANCH   4  28
BRANCH   8  30
ATOM     30  C   UNL     1    -128.865  37.336  17.130  1.00  0.00     0.249 C 
BRANCH  30  31
ATOM     31  O   UNL     1    -127.702  37.453  17.948  1.00  0.00    -0.461 OA
BRANCH  31  32
ATOM     32  C   UNL     1    -126.435  36.969  17.601  1.00  0.00     0.338 C 
ATOM     33  O   UNL     1    -126.197  35.729  17.631  1.00  0.00    -0.246 OA
BRANCH  32  34
ATOM     34  C   UNL     1    -125.372  37.919  17.205  1.00  0.00     0.060 A 
ATOM     35  C   UNL     1    -124.055  37.746  17.673  1.00  0.00     0.015 A 
ATOM     36  C   UNL     1    -125.657  39.000  16.350  1.00  0.00     0.015 A 
ATOM     37  C   UNL     1    -123.044  38.633  17.287  1.00  0.00     0.001 A 
ATOM     38  C   UNL     1    -124.645  39.894  15.981  1.00  0.00     0.001 A 
ATOM     39  C   UNL     1    -123.341  39.708  16.447  1.00  0.00     0.000 A 
ENDBRANCH  32  34
ENDBRANCH  31  32
ENDBRANCH  30  31
ENDBRANCH   8  30
TORSDOF 12
ENDMDL
MODEL 7
REMARK VINA RESULT:    -3.497      9.984     11.715
REMARK INTER + INTRA:          -6.714
REMARK INTER:                  -4.938
REMARK INTRA:                  -1.776
REMARK UNBOUND:                -1.275
REMARK SMILES C[C@]12C[C@]3(O)O[C@H](O1)[C@@]1(COC(=O)c4ccccc4)[C@@H]3C[C@]12O[C@H]1O[C@@H](CO)[C@@H](O)[C@@H](O)[C@H]1O
REMARK SMILES IDX 1 1 2 2 3 3 4 4 20 5 21 6 22 7 9 8 7 9 8 10 6 11 23 12 24 13
REMARK SMILES IDX 33 14 25 15 31 16 26 17 29 18 34 19 32 21 27 23 28 24 30 26
REMARK SMILES IDX 5 28 10 30 11 31 12 32 13 33 14 34 15 35 19 36 16 37 18 38
REMARK SMILES IDX 17 39
REMARK H PARENT 34 20 32 22 28 25 30 27 5 29
REMARK Flexibility Score: inf
ROOT
ATOM      1  C   UNL     1    -123.466  36.190   2.352  1.00  0.00     0.046 C 
ATOM      2  C   UNL     1    -124.512  36.888   3.223  1.00  0.00     0.104 C 
ATOM      3  C   UNL     1    -125.366  35.825   4.009  1.00  0.00     0.104 C 
ATOM      4  C   UNL     1    -126.323  36.696   4.895  1.00  0.00     0.175 C 
ATOM      5  C   UNL     1    -125.517  37.798   5.657  1.00  0.00     0.070 C 
ATOM      6  C   UNL     1    -124.007  37.512   5.713  1.00  0.00     0.050 C 
ATOM      7  C   UNL     1    -123.956  37.964   4.239  1.00  0.00     0.115 C 
ATOM      8  C   UNL     1    -125.262  38.725   4.480  1.00  0.00     0.096 C 
ATOM      9  C   UNL     1    -126.220  38.309   3.376  1.00  0.00     0.267 C 
ATOM     10  O   UNL     1    -125.436  37.602   2.426  1.00  0.00    -0.342 OA
ATOM     11  O   UNL     1    -127.134  37.414   3.987  1.00  0.00    -0.320 OA
ENDROOT
BRANCH   7  12
ATOM     12  O   UNL     1    -122.915  38.838   3.821  1.00  0.00    -0.339 OA
BRANCH  12  13
ATOM     13  C   UNL     1    -121.682  38.609   4.485  1.00  0.00     0.282 C 
ATOM     14  C   UNL     1    -121.073  39.922   5.030  1.00  0.00     0.202 C 
ATOM     15  O   UNL     1    -120.772  37.944   3.617  1.00  0.00    -0.341 OA
ATOM     16  C   UNL     1    -120.670  40.855   3.887  1.00  0.00     0.179 C 
ATOM     17  C   UNL     1    -120.308  38.725   2.517  1.00  0.00     0.178 C 
ATOM     18  C   UNL     1    -119.728  40.101   2.944  1.00  0.00     0.177 C 
BRANCH  14  19
ATOM     19  O   UNL     1    -121.970  40.581   5.885  1.00  0.00    -0.385 OA
ATOM     20  H   UNL     1    -121.763  40.284   6.810  1.00  0.00     0.211 HD
ENDBRANCH  14  19
BRANCH  16  21
ATOM     21  O   UNL     1    -121.802  41.319   3.195  1.00  0.00    -0.387 OA
ATOM     22  H   UNL     1    -121.724  42.305   3.123  1.00  0.00     0.211 HD
ENDBRANCH  16  21
BRANCH  17  23
ATOM     23  C   UNL     1    -121.324  38.803   1.350  1.00  0.00     0.191 C 
BRANCH  23  24
ATOM     24  O   UNL     1    -120.695  39.140   0.147  1.00  0.00    -0.394 OA
ATOM     25  H   UNL     1    -121.408  39.465  -0.470  1.00  0.00     0.210 HD
ENDBRANCH  23  24
ENDBRANCH  17  23
BRANCH  18  26
ATOM     26  O   UNL     1    -119.446  40.903   1.826  1.00  0.00    -0.387 OA
ATOM     27  H   UNL     1    -118.514  40.700   1.548  1.00  0.00     0.211 HD
ENDBRANCH  18  26
ENDBRANCH  12  13
ENDBRANCH   7  12
BRANCH   4  28
ATOM     28  O   UNL     1    -127.115  35.919   5.753  1.00  0.00    -0.365 OA
ATOM     29  H   UNL     1    -127.150  35.009   5.359  1.00  0.00     0.214 HD
ENDBRANCH   4  28
BRANCH   8  30
ATOM     30  C   UNL     1    -125.159  40.231   4.815  1.00  0.00     0.249 C 
BRANCH  30  31
ATOM     31  O   UNL     1    -126.409  40.890   4.615  1.00  0.00    -0.461 OA
BRANCH  31  32
ATOM     32  C   UNL     1    -127.371  41.087   5.612  1.00  0.00     0.338 C 
ATOM     33  O   UNL     1    -127.342  42.125   6.329  1.00  0.00    -0.246 OA
BRANCH  32  34
ATOM     34  C   UNL     1    -128.421  40.066   5.826  1.00  0.00     0.060 A 
ATOM     35  C   UNL     1    -128.458  39.325   7.024  1.00  0.00     0.015 A 
ATOM     36  C   UNL     1    -129.402  39.827   4.846  1.00  0.00     0.015 A 
ATOM     37  C   UNL     1    -129.459  38.372   7.237  1.00  0.00     0.001 A 
ATOM     38  C   UNL     1    -130.391  38.860   5.057  1.00  0.00     0.001 A 
ATOM     39  C   UNL     1    -130.420  38.136   6.253  1.00  0.00     0.000 A 
ENDBRANCH  32  34
ENDBRANCH  31  32
ENDBRANCH  30  31
ENDBRANCH   8  30
TORSDOF 12
ENDMDL
MODEL 8
REMARK VINA RESULT:    -3.494      8.595     11.422
REMARK INTER + INTRA:          -6.709
REMARK INTER:                  -5.478
REMARK INTRA:                  -1.231
REMARK UNBOUND:                -1.275
REMARK SMILES C[C@]12C[C@]3(O)O[C@H](O1)[C@@]1(COC(=O)c4ccccc4)[C@@H]3C[C@]12O[C@H]1O[C@@H](CO)[C@@H](O)[C@@H](O)[C@H]1O
REMARK SMILES IDX 1 1 2 2 3 3 4 4 20 5 21 6 22 7 9 8 7 9 8 10 6 11 23 12 24 13
REMARK SMILES IDX 33 14 25 15 31 16 26 17 29 18 34 19 32 21 27 23 28 24 30 26
REMARK SMILES IDX 5 28 10 30 11 31 12 32 13 33 14 34 15 35 19 36 16 37 18 38
REMARK SMILES IDX 17 39
REMARK H PARENT 34 20 32 22 28 25 30 27 5 29
REMARK Flexibility Score: inf
ROOT
ATOM      1  C   UNL     1    -120.240  38.080   7.020  1.00  0.00     0.046 C 
ATOM      2  C   UNL     1    -121.606  38.763   6.932  1.00  0.00     0.104 C 
ATOM      3  C   UNL     1    -121.911  39.548   8.261  1.00  0.00     0.104 C 
ATOM      4  C   UNL     1    -123.291  40.239   7.978  1.00  0.00     0.175 C 
ATOM      5  C   UNL     1    -123.264  40.978   6.600  1.00  0.00     0.070 C 
ATOM      6  C   UNL     1    -121.840  41.223   6.074  1.00  0.00     0.050 C 
ATOM      7  C   UNL     1    -121.815  39.728   5.697  1.00  0.00     0.115 C 
ATOM      8  C   UNL     1    -123.346  39.753   5.703  1.00  0.00     0.096 C 
ATOM      9  C   UNL     1    -123.798  38.596   6.577  1.00  0.00     0.267 C 
ATOM     10  O   UNL     1    -122.640  37.807   6.810  1.00  0.00    -0.342 OA
ATOM     11  O   UNL     1    -124.215  39.186   7.797  1.00  0.00    -0.320 OA
ENDROOT
BRANCH   7  12
ATOM     12  O   UNL     1    -121.307  39.345   4.425  1.00  0.00    -0.339 OA
BRANCH  12  13
ATOM     13  C   UNL     1    -120.215  40.139   3.990  1.00  0.00     0.282 C 
ATOM     14  C   UNL     1    -120.470  40.745   2.589  1.00  0.00     0.202 C 
ATOM     15  O   UNL     1    -119.015  39.375   4.006  1.00  0.00    -0.341 OA
ATOM     16  C   UNL     1    -120.535  39.651   1.522  1.00  0.00     0.179 C 
ATOM     17  C   UNL     1    -118.951  38.331   3.036  1.00  0.00     0.178 C 
ATOM     18  C   UNL     1    -119.253  38.816   1.592  1.00  0.00     0.177 C 
BRANCH  14  19
ATOM     19  O   UNL     1    -121.655  41.497   2.570  1.00  0.00    -0.385 OA
ATOM     20  H   UNL     1    -122.352  40.931   2.147  1.00  0.00     0.211 HD
ENDBRANCH  14  19
BRANCH  16  21
ATOM     21  O   UNL     1    -121.669  38.840   1.705  1.00  0.00    -0.387 OA
ATOM     22  H   UNL     1    -121.637  38.488   2.633  1.00  0.00     0.211 HD
ENDBRANCH  16  21
BRANCH  17  23
ATOM     23  C   UNL     1    -119.734  37.060   3.453  1.00  0.00     0.191 C 
BRANCH  23  24
ATOM     24  O   UNL     1    -119.277  35.930   2.767  1.00  0.00    -0.394 OA
ATOM     25  H   UNL     1    -119.411  35.151   3.374  1.00  0.00     0.210 HD
ENDBRANCH  23  24
ENDBRANCH  17  23
BRANCH  18  26
ATOM     26  O   UNL     1    -119.352  37.734   0.702  1.00  0.00    -0.387 OA
ATOM     27  H   UNL     1    -120.203  37.843   0.202  1.00  0.00     0.211 HD
ENDBRANCH  18  26
ENDBRANCH  12  13
ENDBRANCH   7  12
BRANCH   4  28
ATOM     28  O   UNL     1    -123.697  41.075   9.028  1.00  0.00    -0.365 OA
ATOM     29  H   UNL     1    -122.872  41.350   9.506  1.00  0.00     0.214 HD
ENDBRANCH   4  28
BRANCH   8  30
ATOM     30  C   UNL     1    -124.062  39.955   4.347  1.00  0.00     0.249 C 
BRANCH  30  31
ATOM     31  O   UNL     1    -125.379  39.406   4.373  1.00  0.00    -0.461 OA
BRANCH  31  32
ATOM     32  C   UNL     1    -126.535  40.132   4.681  1.00  0.00     0.338 C 
ATOM     33  O   UNL     1    -126.466  41.371   4.911  1.00  0.00    -0.246 OA
BRANCH  32  34
ATOM     34  C   UNL     1    -127.840  39.437   4.744  1.00  0.00     0.060 A 
ATOM     35  C   UNL     1    -127.911  38.042   4.564  1.00  0.00     0.015 A 
ATOM     36  C   UNL     1    -129.025  40.155   4.994  1.00  0.00     0.015 A 
ATOM     37  C   UNL     1    -129.142  37.380   4.640  1.00  0.00     0.001 A 
ATOM     38  C   UNL     1    -130.254  39.490   5.052  1.00  0.00     0.001 A 
ATOM     39  C   UNL     1    -130.311  38.104   4.878  1.00  0.00     0.000 A 
ENDBRANCH  32  34
ENDBRANCH  31  32
ENDBRANCH  30  31
ENDBRANCH   8  30
TORSDOF 12
ENDMDL
MODEL 9
REMARK VINA RESULT:    -3.470      2.620      7.677
REMARK INTER + INTRA:          -6.672
REMARK INTER:                  -5.140
REMARK INTRA:                  -1.532
REMARK UNBOUND:                -1.275
REMARK SMILES C[C@]12C[C@]3(O)O[C@H](O1)[C@@]1(COC(=O)c4ccccc4)[C@@H]3C[C@]12O[C@H]1O[C@@H](CO)[C@@H](O)[C@@H](O)[C@H]1O
REMARK SMILES IDX 1 1 2 2 3 3 4 4 20 5 21 6 22 7 9 8 7 9 8 10 6 11 23 12 24 13
REMARK SMILES IDX 33 14 25 15 31 16 26 17 29 18 34 19 32 21 27 23 28 24 30 26
REMARK SMILES IDX 5 28 10 30 11 31 12 32 13 33 14 34 15 35 19 36 16 37 18 38
REMARK SMILES IDX 17 39
REMARK H PARENT 34 20 32 22 28 25 30 27 5 29
REMARK Flexibility Score: inf
ROOT
ATOM      1  C   UNL     1    -129.869  37.599  13.284  1.00  0.00     0.046 C 
ATOM      2  C   UNL     1    -128.654  38.527  13.340  1.00  0.00     0.104 C 
ATOM      3  C   UNL     1    -128.564  39.389  12.027  1.00  0.00     0.104 C 
ATOM      4  C   UNL     1    -127.328  40.322  12.276  1.00  0.00     0.175 C 
ATOM      5  C   UNL     1    -127.430  41.006  13.679  1.00  0.00     0.070 C 
ATOM      6  C   UNL     1    -128.848  40.964  14.271  1.00  0.00     0.050 C 
ATOM      7  C   UNL     1    -128.573  39.482  14.597  1.00  0.00     0.115 C 
ATOM      8  C   UNL     1    -127.077  39.797  14.530  1.00  0.00     0.096 C 
ATOM      9  C   UNL     1    -126.456  38.769  13.599  1.00  0.00     0.267 C 
ATOM     10  O   UNL     1    -127.453  37.781  13.387  1.00  0.00    -0.342 OA
ATOM     11  O   UNL     1    -126.214  39.459  12.384  1.00  0.00    -0.320 OA
ENDROOT
BRANCH   7  12
ATOM     12  O   UNL     1    -128.941  38.977  15.875  1.00  0.00    -0.339 OA
BRANCH  12  13
ATOM     13  C   UNL     1    -130.157  39.517  16.368  1.00  0.00     0.282 C 
ATOM     14  C   UNL     1    -129.985  40.117  17.783  1.00  0.00     0.202 C 
ATOM     15  O   UNL     1    -131.176  38.524  16.353  1.00  0.00    -0.341 OA
ATOM     16  C   UNL     1    -129.663  39.025  18.806  1.00  0.00     0.179 C 
ATOM     17  C   UNL     1    -130.994  37.458  17.284  1.00  0.00     0.178 C 
ATOM     18  C   UNL     1    -130.749  37.948  18.737  1.00  0.00     0.177 C 
BRANCH  14  19
ATOM     19  O   UNL     1    -128.978  41.094  17.801  1.00  0.00    -0.385 OA
ATOM     20  H   UNL     1    -129.287  41.841  17.225  1.00  0.00     0.211 HD
ENDBRANCH  14  19
BRANCH  16  21
ATOM     21  O   UNL     1    -128.394  38.469  18.563  1.00  0.00    -0.387 OA
ATOM     22  H   UNL     1    -127.828  39.181  18.166  1.00  0.00     0.211 HD
ENDBRANCH  16  21
BRANCH  17  23
ATOM     23  C   UNL     1    -129.983  36.389  16.799  1.00  0.00     0.191 C 
BRANCH  23  24
ATOM     24  O   UNL     1    -130.273  35.131  17.337  1.00  0.00    -0.394 OA
ATOM     25  H   UNL     1    -131.199  34.900  17.049  1.00  0.00     0.210 HD
ENDBRANCH  23  24
ENDBRANCH  17  23
BRANCH  18  26
ATOM     26  O   UNL     1    -130.404  36.881  19.583  1.00  0.00    -0.387 OA
ATOM     27  H   UNL     1    -130.410  37.231  20.512  1.00  0.00     0.211 HD
ENDBRANCH  18  26
ENDBRANCH  12  13
ENDBRANCH   7  12
BRANCH   4  28
ATOM     28  O   UNL     1    -127.135  41.247  11.240  1.00  0.00    -0.365 OA
ATOM     29  H   UNL     1    -126.229  41.075  10.873  1.00  0.00     0.214 HD
ENDBRANCH   4  28
BRANCH   8  30
ATOM     30  C   UNL     1    -126.350  40.096  15.862  1.00  0.00     0.249 C 
BRANCH  30  31
ATOM     31  O   UNL     1    -125.081  39.445  15.914  1.00  0.00    -0.461 OA
BRANCH  31  32
ATOM     32  C   UNL     1    -124.770  38.380  16.768  1.00  0.00     0.338 C 
ATOM     33  O   UNL     1    -125.627  37.950  17.588  1.00  0.00    -0.246 OA
BRANCH  32  34
ATOM     34  C   UNL     1    -123.425  37.767  16.711  1.00  0.00     0.060 A 
ATOM     35  C   UNL     1    -123.187  36.519  17.319  1.00  0.00     0.015 A 
ATOM     36  C   UNL     1    -122.368  38.412  16.042  1.00  0.00     0.015 A 
ATOM     37  C   UNL     1    -121.920  35.928  17.252  1.00  0.00     0.001 A 
ATOM     38  C   UNL     1    -121.099  37.824  15.993  1.00  0.00     0.001 A 
ATOM     39  C   UNL     1    -120.877  36.583  16.595  1.00  0.00     0.000 A 
ENDBRANCH  32  34
ENDBRANCH  31  32
ENDBRANCH  30  31
ENDBRANCH   8  30
TORSDOF 12
ENDMDL
