MODEL 1
REMARK VINA RESULT:    -6.875      0.000      0.000
REMARK INTER + INTRA:          -8.347
REMARK INTER:                  -8.080
REMARK INTRA:                  -0.266
REMARK UNBOUND:                -0.266
REMARK SMILES O=c1cc(-c2ccc(O)c(O)c2)oc2cc(O)cc(O)c12
REMARK SMILES IDX 4 1 3 2 2 3 1 4 21 5 19 6 18 7 16 8 15 9 14 10 13 11 5 12
REMARK SMILES IDX 6 13 7 14 8 15 12 16 10 17 9 18 11 20 20 22 17 24
REMARK H PARENT 9 19 11 21 20 23 17 25
REMARK Flexibility Score: inf
ROOT
ATOM      1  C   UNL     1     -29.581 -11.966 -35.536  1.00  0.00     0.138 A 
ATOM      2  C   UNL     1     -28.212 -11.899 -35.823  1.00  0.00     0.100 A 
ATOM      3  C   UNL     1     -27.758 -12.215 -37.105  1.00  0.00     0.197 A 
ATOM      4  O   UNL     1     -26.530 -12.092 -37.346  1.00  0.00    -0.289 OA
ATOM      5  C   UNL     1     -28.680 -12.638 -38.093  1.00  0.00     0.107 A 
ATOM      6  C   UNL     1     -28.329 -13.019 -39.424  1.00  0.00     0.134 A 
ATOM      7  C   UNL     1     -29.341 -13.324 -40.343  1.00  0.00     0.093 A 
ATOM      8  C   UNL     1     -30.686 -13.318 -39.964  1.00  0.00     0.123 A 
ATOM      9  C   UNL     1     -31.034 -12.995 -38.655  1.00  0.00     0.094 A 
ATOM     10  C   UNL     1     -30.052 -12.652 -37.723  1.00  0.00     0.146 A 
ATOM     11  O   UNL     1     -30.430 -12.334 -36.490  1.00  0.00    -0.456 OA
ENDROOT
BRANCH   1  12
ATOM     12  C   UNL     1     -30.118 -11.642 -34.189  1.00  0.00     0.021 A 
ATOM     13  C   UNL     1     -30.663 -10.369 -33.951  1.00  0.00     0.016 A 
ATOM     14  C   UNL     1     -31.169 -10.036 -32.692  1.00  0.00     0.051 A 
ATOM     15  C   UNL     1     -31.128 -10.966 -31.646  1.00  0.00     0.157 A 
ATOM     16  C   UNL     1     -30.068 -12.568 -33.129  1.00  0.00     0.062 A 
ATOM     17  C   UNL     1     -30.571 -12.236 -31.866  1.00  0.00     0.158 A 
BRANCH  15  18
ATOM     18  O   UNL     1     -31.634 -10.632 -30.391  1.00  0.00    -0.504 OA
ATOM     19  H   UNL     1     -32.020 -11.334 -29.770  1.00  0.00     0.293 HD
ENDBRANCH  15  18
BRANCH  17  20
ATOM     20  O   UNL     1     -30.506 -13.181 -30.841  1.00  0.00    -0.504 OA
ATOM     21  H   UNL     1     -31.310 -13.412 -30.271  1.00  0.00     0.293 HD
ENDBRANCH  17  20
ENDBRANCH   1  12
BRANCH   6  22
ATOM     22  O   UNL     1     -27.015 -13.136 -39.884  1.00  0.00    -0.507 OA
ATOM     23  H   UNL     1     -26.670 -13.878 -40.474  1.00  0.00     0.293 HD
ENDBRANCH   6  22
BRANCH   8  24
ATOM     24  O   UNL     1     -31.684 -13.638 -40.882  1.00  0.00    -0.508 OA
ATOM     25  H   UNL     1     -32.652 -13.733 -40.600  1.00  0.00     0.293 HD
ENDBRANCH   8  24
TORSDOF 5
ENDMDL
MODEL 2
REMARK VINA RESULT:    -6.406      7.183      8.832
REMARK INTER + INTRA:          -7.796
REMARK INTER:                  -7.532
REMARK INTRA:                  -0.263
REMARK UNBOUND:                -0.266
REMARK SMILES O=c1cc(-c2ccc(O)c(O)c2)oc2cc(O)cc(O)c12
REMARK SMILES IDX 4 1 3 2 2 3 1 4 21 5 19 6 18 7 16 8 15 9 14 10 13 11 5 12
REMARK SMILES IDX 6 13 7 14 8 15 12 16 10 17 9 18 11 20 20 22 17 24
REMARK H PARENT 9 19 11 21 20 23 17 25
REMARK Flexibility Score: inf
ROOT
ATOM      1  C   UNL     1     -22.252 -11.043 -33.596  1.00  0.00     0.138 A 
ATOM      2  C   UNL     1     -23.279 -11.289 -34.517  1.00  0.00     0.100 A 
ATOM      3  C   UNL     1     -22.970 -11.462 -35.867  1.00  0.00     0.197 A 
ATOM      4  O   UNL     1     -23.908 -11.735 -36.659  1.00  0.00    -0.289 OA
ATOM      5  C   UNL     1     -21.627 -11.351 -36.300  1.00  0.00     0.107 A 
ATOM      6  C   UNL     1     -21.197 -11.474 -37.657  1.00  0.00     0.134 A 
ATOM      7  C   UNL     1     -19.828 -11.444 -37.952  1.00  0.00     0.093 A 
ATOM      8  C   UNL     1     -18.879 -11.237 -36.949  1.00  0.00     0.123 A 
ATOM      9  C   UNL     1     -19.292 -11.066 -35.629  1.00  0.00     0.094 A 
ATOM     10  C   UNL     1     -20.647 -11.126 -35.297  1.00  0.00     0.146 A 
ATOM     11  O   UNL     1     -20.995 -10.976 -34.025  1.00  0.00    -0.456 OA
ENDROOT
BRANCH   1  12
ATOM     12  C   UNL     1     -22.524 -10.849 -32.149  1.00  0.00     0.021 A 
ATOM     13  C   UNL     1     -22.247 -11.892 -31.248  1.00  0.00     0.016 A 
ATOM     14  C   UNL     1     -22.500 -11.739 -29.883  1.00  0.00     0.051 A 
ATOM     15  C   UNL     1     -23.044 -10.544 -29.396  1.00  0.00     0.157 A 
ATOM     16  C   UNL     1     -23.084  -9.655 -31.653  1.00  0.00     0.062 A 
ATOM     17  C   UNL     1     -23.340  -9.500 -30.286  1.00  0.00     0.158 A 
BRANCH  15  18
ATOM     18  O   UNL     1     -23.294 -10.393 -28.032  1.00  0.00    -0.504 OA
ATOM     19  H   UNL     1     -24.228 -10.490 -27.650  1.00  0.00     0.293 HD
ENDBRANCH  15  18
BRANCH  17  20
ATOM     20  O   UNL     1     -23.893  -8.302 -29.833  1.00  0.00    -0.504 OA
ATOM     21  H   UNL     1     -24.203  -7.577 -30.469  1.00  0.00     0.293 HD
ENDBRANCH  17  20
ENDBRANCH   1  12
BRANCH   6  22
ATOM     22  O   UNL     1     -22.065 -11.603 -38.745  1.00  0.00    -0.507 OA
ATOM     23  H   UNL     1     -22.437 -12.474 -39.091  1.00  0.00     0.293 HD
ENDBRANCH   6  22
BRANCH   8  24
ATOM     24  O   UNL     1     -17.520 -11.193 -37.254  1.00  0.00    -0.508 OA
ATOM     25  H   UNL     1     -16.812 -11.285 -36.536  1.00  0.00     0.293 HD
ENDBRANCH   8  24
TORSDOF 5
ENDMDL
MODEL 3
REMARK VINA RESULT:    -6.296      8.943     13.006
REMARK INTER + INTRA:          -7.667
REMARK INTER:                  -7.403
REMARK INTRA:                  -0.263
REMARK UNBOUND:                -0.266
REMARK SMILES O=c1cc(-c2ccc(O)c(O)c2)oc2cc(O)cc(O)c12
REMARK SMILES IDX 4 1 3 2 2 3 1 4 21 5 19 6 18 7 16 8 15 9 14 10 13 11 5 12
REMARK SMILES IDX 6 13 7 14 8 15 12 16 10 17 9 18 11 20 20 22 17 24
REMARK H PARENT 9 19 11 21 20 23 17 25
REMARK Flexibility Score: inf
ROOT
ATOM      1  C   UNL     1     -23.740  -9.442 -28.204  1.00  0.00     0.138 A 
ATOM      2  C   UNL     1     -25.109  -9.466 -27.908  1.00  0.00     0.100 A 
ATOM      3  C   UNL     1     -25.539  -9.222 -26.603  1.00  0.00     0.197 A 
ATOM      4  O   UNL     1     -26.777  -9.196 -26.381  1.00  0.00    -0.289 OA
ATOM      5  C   UNL     1     -24.586  -8.991 -25.581  1.00  0.00     0.107 A 
ATOM      6  C   UNL     1     -24.906  -8.765 -24.207  1.00  0.00     0.134 A 
ATOM      7  C   UNL     1     -23.883  -8.450 -23.304  1.00  0.00     0.093 A 
ATOM      8  C   UNL     1     -22.547  -8.409 -23.713  1.00  0.00     0.123 A 
ATOM      9  C   UNL     1     -22.222  -8.676 -25.041  1.00  0.00     0.094 A 
ATOM     10  C   UNL     1     -23.222  -8.960 -25.973  1.00  0.00     0.146 A 
ATOM     11  O   UNL     1     -22.868  -9.191 -27.232  1.00  0.00    -0.456 OA
ENDROOT
BRANCH   1  12
ATOM     12  C   UNL     1     -23.227  -9.697 -29.574  1.00  0.00     0.021 A 
ATOM     13  C   UNL     1     -22.975  -8.611 -30.430  1.00  0.00     0.016 A 
ATOM     14  C   UNL     1     -22.499  -8.822 -31.726  1.00  0.00     0.051 A 
ATOM     15  C   UNL     1     -22.278 -10.123 -32.194  1.00  0.00     0.157 A 
ATOM     16  C   UNL     1     -23.016 -11.004 -30.056  1.00  0.00     0.062 A 
ATOM     17  C   UNL     1     -22.542 -11.218 -31.355  1.00  0.00     0.158 A 
BRANCH  15  18
ATOM     18  O   UNL     1     -21.802 -10.331 -33.488  1.00  0.00    -0.504 OA
ATOM     19  H   UNL     1     -20.812 -10.291 -33.702  1.00  0.00     0.293 HD
ENDBRANCH  15  18
BRANCH  17  20
ATOM     20  O   UNL     1     -22.342 -12.526 -31.796  1.00  0.00    -0.504 OA
ATOM     21  H   UNL     1     -22.033 -13.263 -31.173  1.00  0.00     0.293 HD
ENDBRANCH  17  20
ENDBRANCH   1  12
BRANCH   6  22
ATOM     22  O   UNL     1     -26.196  -8.861 -23.677  1.00  0.00    -0.507 OA
ATOM     23  H   UNL     1     -27.015  -8.417 -24.060  1.00  0.00     0.293 HD
ENDBRANCH   6  22
BRANCH   8  24
ATOM     24  O   UNL     1     -21.535  -8.108 -22.804  1.00  0.00    -0.508 OA
ATOM     25  H   UNL     1     -20.943  -8.831 -22.413  1.00  0.00     0.293 HD
ENDBRANCH   8  24
TORSDOF 5
ENDMDL
MODEL 4
REMARK VINA RESULT:    -5.970      3.107      8.844
REMARK INTER + INTRA:          -7.283
REMARK INTER:                  -7.018
REMARK INTRA:                  -0.265
REMARK UNBOUND:                -0.266
REMARK SMILES O=c1cc(-c2ccc(O)c(O)c2)oc2cc(O)cc(O)c12
REMARK SMILES IDX 4 1 3 2 2 3 1 4 21 5 19 6 18 7 16 8 15 9 14 10 13 11 5 12
REMARK SMILES IDX 6 13 7 14 8 15 12 16 10 17 9 18 11 20 20 22 17 24
REMARK H PARENT 9 19 11 21 20 23 17 25
REMARK Flexibility Score: inf
ROOT
ATOM      1  C   UNL     1     -30.971 -11.310 -30.959  1.00  0.00     0.138 A 
ATOM      2  C   UNL     1     -29.980 -10.891 -30.061  1.00  0.00     0.100 A 
ATOM      3  C   UNL     1     -30.283 -10.773 -28.704  1.00  0.00     0.197 A 
ATOM      4  O   UNL     1     -29.358 -10.447 -27.916  1.00  0.00    -0.289 OA
ATOM      5  C   UNL     1     -31.597 -11.041 -28.250  1.00  0.00     0.107 A 
ATOM      6  C   UNL     1     -32.030 -10.921 -26.894  1.00  0.00     0.134 A 
ATOM      7  C   UNL     1     -33.331 -11.310 -26.550  1.00  0.00     0.093 A 
ATOM      8  C   UNL     1     -34.231 -11.758 -27.520  1.00  0.00     0.123 A 
ATOM      9  C   UNL     1     -33.832 -11.832 -28.853  1.00  0.00     0.094 A 
ATOM     10  C   UNL     1     -32.532 -11.485 -29.224  1.00  0.00     0.146 A 
ATOM     11  O   UNL     1     -32.188 -11.587 -30.503  1.00  0.00    -0.456 OA
ENDROOT
BRANCH   1  12
ATOM     12  C   UNL     1     -30.705 -11.450 -32.413  1.00  0.00     0.021 A 
ATOM     13  C   UNL     1     -30.801 -10.321 -33.245  1.00  0.00     0.016 A 
ATOM     14  C   UNL     1     -30.563 -10.426 -34.617  1.00  0.00     0.051 A 
ATOM     15  C   UNL     1     -30.234 -11.663 -35.184  1.00  0.00     0.157 A 
ATOM     16  C   UNL     1     -30.388 -12.694 -32.993  1.00  0.00     0.062 A 
ATOM     17  C   UNL     1     -30.151 -12.802 -34.367  1.00  0.00     0.158 A 
BRANCH  15  18
ATOM     18  O   UNL     1     -29.996 -11.765 -36.554  1.00  0.00    -0.504 OA
ATOM     19  H   UNL     1     -30.261 -12.591 -37.079  1.00  0.00     0.293 HD
ENDBRANCH  15  18
BRANCH  17  20
ATOM     20  O   UNL     1     -29.837 -14.051 -34.904  1.00  0.00    -0.504 OA
ATOM     21  H   UNL     1     -29.779 -14.884 -34.331  1.00  0.00     0.293 HD
ENDBRANCH  17  20
ENDBRANCH   1  12
BRANCH   6  22
ATOM     22  O   UNL     1     -31.240 -10.409 -25.862  1.00  0.00    -0.507 OA
ATOM     23  H   UNL     1     -31.099 -10.850 -24.966  1.00  0.00     0.293 HD
ENDBRANCH   6  22
BRANCH   8  24
ATOM     24  O   UNL     1     -35.528 -12.129 -27.169  1.00  0.00    -0.508 OA
ATOM     25  H   UNL     1     -36.319 -11.524 -27.354  1.00  0.00     0.293 HD
ENDBRANCH   8  24
TORSDOF 5
ENDMDL
MODEL 5
REMARK VINA RESULT:    -5.936      3.860      9.775
REMARK INTER + INTRA:          -7.243
REMARK INTER:                  -6.980
REMARK INTRA:                  -0.263
REMARK UNBOUND:                -0.266
REMARK SMILES O=c1cc(-c2ccc(O)c(O)c2)oc2cc(O)cc(O)c12
REMARK SMILES IDX 4 1 3 2 2 3 1 4 21 5 19 6 18 7 16 8 15 9 14 10 13 11 5 12
REMARK SMILES IDX 6 13 7 14 8 15 12 16 10 17 9 18 11 20 20 22 17 24
REMARK H PARENT 9 19 11 21 20 23 17 25
REMARK Flexibility Score: inf
ROOT
ATOM      1  C   UNL     1     -31.305 -11.090 -29.824  1.00  0.00     0.138 A 
ATOM      2  C   UNL     1     -30.274 -10.820 -28.915  1.00  0.00     0.100 A 
ATOM      3  C   UNL     1     -30.585 -10.468 -27.601  1.00  0.00     0.197 A 
ATOM      4  O   UNL     1     -29.637 -10.286 -26.795  1.00  0.00    -0.289 OA
ATOM      5  C   UNL     1     -31.940 -10.350 -27.207  1.00  0.00     0.107 A 
ATOM      6  C   UNL     1     -32.378  -9.965 -25.903  1.00  0.00     0.134 A 
ATOM      7  C   UNL     1     -33.746  -9.980 -25.603  1.00  0.00     0.093 A 
ATOM      8  C   UNL     1     -34.694 -10.309 -26.575  1.00  0.00     0.123 A 
ATOM      9  C   UNL     1     -34.279 -10.638 -27.863  1.00  0.00     0.094 A 
ATOM     10  C   UNL     1     -32.921 -10.667 -28.185  1.00  0.00     0.146 A 
ATOM     11  O   UNL     1     -32.568 -11.004 -29.420  1.00  0.00    -0.456 OA
ENDROOT
BRANCH   1  12
ATOM     12  C   UNL     1     -31.030 -11.466 -31.235  1.00  0.00     0.021 A 
ATOM     13  C   UNL     1     -31.008 -12.824 -31.595  1.00  0.00     0.016 A 
ATOM     14  C   UNL     1     -30.746 -13.206 -32.913  1.00  0.00     0.051 A 
ATOM     15  C   UNL     1     -30.490 -12.237 -33.891  1.00  0.00     0.157 A 
ATOM     16  C   UNL     1     -30.759 -10.497 -32.221  1.00  0.00     0.062 A 
ATOM     17  C   UNL     1     -30.493 -10.878 -33.541  1.00  0.00     0.158 A 
BRANCH  15  18
ATOM     18  O   UNL     1     -30.229 -12.621 -35.206  1.00  0.00    -0.504 OA
ATOM     19  H   UNL     1     -29.407 -12.294 -35.701  1.00  0.00     0.293 HD
ENDBRANCH  15  18
BRANCH  17  20
ATOM     20  O   UNL     1     -30.230  -9.889 -34.490  1.00  0.00    -0.504 OA
ATOM     21  H   UNL     1     -29.368  -9.869 -35.022  1.00  0.00     0.293 HD
ENDBRANCH  17  20
ENDBRANCH   1  12
BRANCH   6  22
ATOM     22  O   UNL     1     -31.522  -9.541 -24.883  1.00  0.00    -0.507 OA
ATOM     23  H   UNL     1     -30.575  -9.221 -25.015  1.00  0.00     0.293 HD
ENDBRANCH   6  22
BRANCH   8  24
ATOM     24  O   UNL     1     -36.054 -10.306 -26.270  1.00  0.00    -0.508 OA
ATOM     25  H   UNL     1     -36.499 -11.101 -25.828  1.00  0.00     0.293 HD
ENDBRANCH   8  24
TORSDOF 5
ENDMDL
MODEL 6
REMARK VINA RESULT:    -5.663      1.489      7.373
REMARK INTER + INTRA:          -6.922
REMARK INTER:                  -6.645
REMARK INTRA:                  -0.278
REMARK UNBOUND:                -0.266
REMARK SMILES O=c1cc(-c2ccc(O)c(O)c2)oc2cc(O)cc(O)c12
REMARK SMILES IDX 4 1 3 2 2 3 1 4 21 5 19 6 18 7 16 8 15 9 14 10 13 11 5 12
REMARK SMILES IDX 6 13 7 14 8 15 12 16 10 17 9 18 11 20 20 22 17 24
REMARK H PARENT 9 19 11 21 20 23 17 25
REMARK Flexibility Score: inf
ROOT
ATOM      1  C   UNL     1     -30.038 -11.709 -35.054  1.00  0.00     0.138 A 
ATOM      2  C   UNL     1     -30.523 -10.398 -34.954  1.00  0.00     0.100 A 
ATOM      3  C   UNL     1     -30.926  -9.903 -33.713  1.00  0.00     0.197 A 
ATOM      4  O   UNL     1     -31.305  -8.705 -33.646  1.00  0.00    -0.289 OA
ATOM      5  C   UNL     1     -30.876 -10.741 -32.572  1.00  0.00     0.107 A 
ATOM      6  C   UNL     1     -31.293 -10.356 -31.261  1.00  0.00     0.134 A 
ATOM      7  C   UNL     1     -31.104 -11.239 -30.190  1.00  0.00     0.093 A 
ATOM      8  C   UNL     1     -30.568 -12.513 -30.392  1.00  0.00     0.123 A 
ATOM      9  C   UNL     1     -30.204 -12.915 -31.675  1.00  0.00     0.094 A 
ATOM     10  C   UNL     1     -30.347 -12.046 -32.758  1.00  0.00     0.146 A 
ATOM     11  O   UNL     1     -29.971 -12.464 -33.962  1.00  0.00    -0.456 OA
ENDROOT
BRANCH   1  12
ATOM     12  C   UNL     1     -29.599 -12.287 -36.349  1.00  0.00     0.021 A 
ATOM     13  C   UNL     1     -28.395 -13.010 -36.410  1.00  0.00     0.016 A 
ATOM     14  C   UNL     1     -27.955 -13.559 -37.617  1.00  0.00     0.051 A 
ATOM     15  C   UNL     1     -28.705 -13.385 -38.786  1.00  0.00     0.157 A 
ATOM     16  C   UNL     1     -30.341 -12.104 -37.533  1.00  0.00     0.062 A 
ATOM     17  C   UNL     1     -29.901 -12.651 -38.743  1.00  0.00     0.158 A 
BRANCH  15  18
ATOM     18  O   UNL     1     -28.264 -13.934 -39.990  1.00  0.00    -0.504 OA
ATOM     19  H   UNL     1     -28.889 -14.452 -40.598  1.00  0.00     0.293 HD
ENDBRANCH  15  18
BRANCH  17  20
ATOM     20  O   UNL     1     -30.664 -12.450 -39.894  1.00  0.00    -0.504 OA
ATOM     21  H   UNL     1     -31.650 -12.678 -39.932  1.00  0.00     0.293 HD
ENDBRANCH  17  20
ENDBRANCH   1  12
BRANCH   6  22
ATOM     22  O   UNL     1     -31.914  -9.140 -30.962  1.00  0.00    -0.507 OA
ATOM     23  H   UNL     1     -31.703  -8.257 -31.402  1.00  0.00     0.293 HD
ENDBRANCH   6  22
BRANCH   8  24
ATOM     24  O   UNL     1     -30.397 -13.390 -29.323  1.00  0.00    -0.508 OA
ATOM     25  H   UNL     1     -30.960 -14.227 -29.230  1.00  0.00     0.293 HD
ENDBRANCH   8  24
TORSDOF 5
ENDMDL
MODEL 7
REMARK VINA RESULT:    -5.323      3.149      5.532
REMARK INTER + INTRA:          -6.523
REMARK INTER:                  -6.237
REMARK INTRA:                  -0.285
REMARK UNBOUND:                -0.266
REMARK SMILES O=c1cc(-c2ccc(O)c(O)c2)oc2cc(O)cc(O)c12
REMARK SMILES IDX 4 1 3 2 2 3 1 4 21 5 19 6 18 7 16 8 15 9 14 10 13 11 5 12
REMARK SMILES IDX 6 13 7 14 8 15 12 16 10 17 9 18 11 20 20 22 17 24
REMARK H PARENT 9 19 11 21 20 23 17 25
REMARK Flexibility Score: inf
ROOT
ATOM      1  C   UNL     1     -31.120 -11.396 -30.679  1.00  0.00     0.138 A 
ATOM      2  C   UNL     1     -31.174 -12.780 -30.893  1.00  0.00     0.100 A 
ATOM      3  C   UNL     1     -30.829 -13.300 -32.141  1.00  0.00     0.197 A 
ATOM      4  O   UNL     1     -30.835 -14.550 -32.284  1.00  0.00    -0.289 OA
ATOM      5  C   UNL     1     -30.463 -12.424 -33.191  1.00  0.00     0.107 A 
ATOM      6  C   UNL     1     -30.124 -12.838 -34.515  1.00  0.00     0.134 A 
ATOM      7  C   UNL     1     -29.682 -11.887 -35.443  1.00  0.00     0.093 A 
ATOM      8  C   UNL     1     -29.623 -10.531 -35.113  1.00  0.00     0.123 A 
ATOM      9  C   UNL     1     -29.998 -10.112 -33.839  1.00  0.00     0.094 A 
ATOM     10  C   UNL     1     -30.410 -11.039 -32.880  1.00  0.00     0.146 A 
ATOM     11  O   UNL     1     -30.742 -10.598 -31.672  1.00  0.00    -0.456 OA
ENDROOT
BRANCH   1  12
ATOM     12  C   UNL     1     -31.479 -10.788 -29.372  1.00  0.00     0.021 A 
ATOM     13  C   UNL     1     -30.791  -9.645 -28.930  1.00  0.00     0.016 A 
ATOM     14  C   UNL     1     -31.104  -9.058 -27.702  1.00  0.00     0.051 A 
ATOM     15  C   UNL     1     -32.102  -9.609 -26.889  1.00  0.00     0.157 A 
ATOM     16  C   UNL     1     -32.472 -11.346 -28.543  1.00  0.00     0.062 A 
ATOM     17  C   UNL     1     -32.785 -10.761 -27.311  1.00  0.00     0.158 A 
BRANCH  15  18
ATOM     18  O   UNL     1     -32.412  -9.020 -25.664  1.00  0.00    -0.504 OA
ATOM     19  H   UNL     1     -32.170  -8.057 -25.461  1.00  0.00     0.293 HD
ENDBRANCH  15  18
BRANCH  17  20
ATOM     20  O   UNL     1     -33.776 -11.340 -26.518  1.00  0.00    -0.504 OA
ATOM     21  H   UNL     1     -34.521 -11.902 -26.913  1.00  0.00     0.293 HD
ENDBRANCH  17  20
ENDBRANCH   1  12
BRANCH   6  22
ATOM     22  O   UNL     1     -30.226 -14.155 -34.975  1.00  0.00    -0.507 OA
ATOM     23  H   UNL     1     -30.762 -14.450 -35.776  1.00  0.00     0.293 HD
ENDBRANCH   6  22
BRANCH   8  24
ATOM     24  O   UNL     1     -29.196  -9.590 -36.049  1.00  0.00    -0.508 OA
ATOM     25  H   UNL     1     -29.429  -8.609 -35.957  1.00  0.00     0.293 HD
ENDBRANCH   8  24
TORSDOF 5
ENDMDL
MODEL 8
REMARK VINA RESULT:    -5.023      7.855     10.893
REMARK INTER + INTRA:          -6.170
REMARK INTER:                  -5.883
REMARK INTRA:                  -0.287
REMARK UNBOUND:                -0.266
REMARK SMILES O=c1cc(-c2ccc(O)c(O)c2)oc2cc(O)cc(O)c12
REMARK SMILES IDX 4 1 3 2 2 3 1 4 21 5 19 6 18 7 16 8 15 9 14 10 13 11 5 12
REMARK SMILES IDX 6 13 7 14 8 15 12 16 10 17 9 18 11 20 20 22 17 24
REMARK H PARENT 9 19 11 21 20 23 17 25
REMARK Flexibility Score: inf
ROOT
ATOM      1  C   UNL     1     -22.269 -10.897 -32.789  1.00  0.00     0.138 A 
ATOM      2  C   UNL     1     -21.967 -11.995 -31.973  1.00  0.00     0.100 A 
ATOM      3  C   UNL     1     -22.271 -11.949 -30.612  1.00  0.00     0.197 A 
ATOM      4  O   UNL     1     -22.038 -12.972 -29.917  1.00  0.00    -0.289 OA
ATOM      5  C   UNL     1     -22.848 -10.780 -30.060  1.00  0.00     0.107 A 
ATOM      6  C   UNL     1     -23.170 -10.606 -28.679  1.00  0.00     0.134 A 
ATOM      7  C   UNL     1     -23.829  -9.441 -28.266  1.00  0.00     0.093 A 
ATOM      8  C   UNL     1     -24.125  -8.420 -29.173  1.00  0.00     0.123 A 
ATOM      9  C   UNL     1     -23.771  -8.560 -30.513  1.00  0.00     0.094 A 
ATOM     10  C   UNL     1     -23.144  -9.724 -30.963  1.00  0.00     0.146 A 
ATOM     11  O   UNL     1     -22.840  -9.824 -32.252  1.00  0.00    -0.456 OA
ENDROOT
BRANCH   1  12
ATOM     12  C   UNL     1     -21.964 -10.891 -34.243  1.00  0.00     0.021 A 
ATOM     13  C   UNL     1     -22.794 -10.170 -35.119  1.00  0.00     0.016 A 
ATOM     14  C   UNL     1     -22.534 -10.154 -36.492  1.00  0.00     0.051 A 
ATOM     15  C   UNL     1     -21.448 -10.866 -37.014  1.00  0.00     0.157 A 
ATOM     16  C   UNL     1     -20.881 -11.617 -34.777  1.00  0.00     0.062 A 
ATOM     17  C   UNL     1     -20.621 -11.604 -36.152  1.00  0.00     0.158 A 
BRANCH  15  18
ATOM     18  O   UNL     1     -21.191 -10.847 -38.384  1.00  0.00    -0.504 OA
ATOM     19  H   UNL     1     -21.899 -10.567 -39.053  1.00  0.00     0.293 HD
ENDBRANCH  15  18
BRANCH  17  20
ATOM     20  O   UNL     1     -19.538 -12.333 -36.643  1.00  0.00    -0.504 OA
ATOM     21  H   UNL     1     -19.178 -13.150 -36.164  1.00  0.00     0.293 HD
ENDBRANCH  17  20
ENDBRANCH   1  12
BRANCH   6  22
ATOM     22  O   UNL     1     -22.847 -11.525 -27.677  1.00  0.00    -0.507 OA
ATOM     23  H   UNL     1     -23.468 -12.232 -27.316  1.00  0.00     0.293 HD
ENDBRANCH   6  22
BRANCH   8  24
ATOM     24  O   UNL     1     -24.768  -7.258 -28.750  1.00  0.00    -0.508 OA
ATOM     25  H   UNL     1     -25.420  -6.766 -29.349  1.00  0.00     0.293 HD
ENDBRANCH   8  24
TORSDOF 5
ENDMDL
MODEL 9
REMARK VINA RESULT:    -4.150     10.085     14.071
REMARK INTER + INTRA:          -5.144
REMARK INTER:                  -4.878
REMARK INTRA:                  -0.266
REMARK UNBOUND:                -0.266
REMARK SMILES O=c1cc(-c2ccc(O)c(O)c2)oc2cc(O)cc(O)c12
REMARK SMILES IDX 4 1 3 2 2 3 1 4 21 5 19 6 18 7 16 8 15 9 14 10 13 11 5 12
REMARK SMILES IDX 6 13 7 14 8 15 12 16 10 17 9 18 11 20 20 22 17 24
REMARK H PARENT 9 19 11 21 20 23 17 25
REMARK Flexibility Score: inf
ROOT
ATOM      1  C   UNL     1     -23.344  -9.228 -27.043  1.00  0.00     0.138 A 
ATOM      2  C   UNL     1     -24.577  -8.775 -26.555  1.00  0.00     0.100 A 
ATOM      3  C   UNL     1     -24.704  -8.435 -25.207  1.00  0.00     0.197 A 
ATOM      4  O   UNL     1     -25.808  -7.979 -24.812  1.00  0.00    -0.289 OA
ATOM      5  C   UNL     1     -23.598  -8.586 -24.337  1.00  0.00     0.107 A 
ATOM      6  C   UNL     1     -23.620  -8.303 -22.937  1.00  0.00     0.134 A 
ATOM      7  C   UNL     1     -22.434  -8.397 -22.196  1.00  0.00     0.093 A 
ATOM      8  C   UNL     1     -21.243  -8.818 -22.792  1.00  0.00     0.123 A 
ATOM      9  C   UNL     1     -21.224  -9.143 -24.146  1.00  0.00     0.094 A 
ATOM     10  C   UNL     1     -22.380  -9.027 -24.920  1.00  0.00     0.146 A 
ATOM     11  O   UNL     1     -22.313  -9.330 -26.211  1.00  0.00    -0.456 OA
ENDROOT
BRANCH   1  12
ATOM     12  C   UNL     1     -23.154  -9.606 -28.467  1.00  0.00     0.021 A 
ATOM     13  C   UNL     1     -23.176 -10.964 -28.829  1.00  0.00     0.016 A 
ATOM     14  C   UNL     1     -22.993 -11.347 -30.160  1.00  0.00     0.051 A 
ATOM     15  C   UNL     1     -22.773 -10.381 -31.150  1.00  0.00     0.157 A 
ATOM     16  C   UNL     1     -22.918  -8.640 -29.465  1.00  0.00     0.062 A 
ATOM     17  C   UNL     1     -22.732  -9.022 -30.798  1.00  0.00     0.158 A 
BRANCH  15  18
ATOM     18  O   UNL     1     -22.591 -10.766 -32.477  1.00  0.00    -0.504 OA
ATOM     19  H   UNL     1     -22.581 -11.743 -32.750  1.00  0.00     0.293 HD
ENDBRANCH  15  18
BRANCH  17  20
ATOM     20  O   UNL     1     -22.503  -8.037 -31.759  1.00  0.00    -0.504 OA
ATOM     21  H   UNL     1     -22.751  -7.067 -31.605  1.00  0.00     0.293 HD
ENDBRANCH  17  20
ENDBRANCH   1  12
BRANCH   6  22
ATOM     22  O   UNL     1     -24.771  -7.953 -22.226  1.00  0.00    -0.507 OA
ATOM     23  H   UNL     1     -25.596  -8.526 -22.139  1.00  0.00     0.293 HD
ENDBRANCH   6  22
BRANCH   8  24
ATOM     24  O   UNL     1     -20.072  -8.922 -22.043  1.00  0.00    -0.508 OA
ATOM     25  H   UNL     1     -19.885  -8.302 -21.264  1.00  0.00     0.293 HD
ENDBRANCH   8  24
TORSDOF 5
ENDMDL
