MODEL 1
REMARK VINA RESULT:    -3.199      0.000      0.000
REMARK INTER + INTRA:          -3.776
REMARK INTER:                  -3.760
REMARK INTRA:                  -0.016
REMARK UNBOUND:                -0.016
REMARK SMILES CCCCC(=O)[O-]
REMARK SMILES IDX 4 1 5 2 6 3 7 4 3 5 2 6 1 7
REMARK H PARENT
REMARK Flexibility Score: inf
ROOT
ATOM      1  C   UNL     1      22.958 -21.338  32.425  1.00  0.00     0.053 C 
ENDROOT
BRANCH   1   2
ATOM      2  C   UNL     1      23.801 -20.661  31.388  1.00  0.00     0.041 C 
ATOM      3  O   UNL     1      23.867 -19.404  31.347  1.00  0.00    -0.550 OA
ATOM      4  O   UNL     1      24.539 -21.419  30.488  1.00  0.00    -0.550 OA
ENDBRANCH   1   2
BRANCH   1   5
ATOM      5  C   UNL     1      21.809 -22.135  31.792  1.00  0.00     0.006 C 
BRANCH   5   6
ATOM      6  C   UNL     1      20.714 -22.483  32.811  1.00  0.00    -0.003 C 
ATOM      7  C   UNL     1      19.506 -23.114  32.126  1.00  0.00     0.004 C 
ENDBRANCH   5   6
ENDBRANCH   1   5
TORSDOF 3
ENDMDL
MODEL 2
REMARK VINA RESULT:    -2.905      3.295      4.532
REMARK INTER + INTRA:          -3.430
REMARK INTER:                  -3.413
REMARK INTRA:                  -0.017
REMARK UNBOUND:                -0.016
REMARK SMILES CCCCC(=O)[O-]
REMARK SMILES IDX 4 1 5 2 6 3 7 4 3 5 2 6 1 7
REMARK H PARENT
REMARK Flexibility Score: inf
ROOT
ATOM      1  C   UNL     1      20.726 -22.229  32.752  1.00  0.00     0.053 C 
ENDROOT
BRANCH   1   2
ATOM      2  C   UNL     1      19.878 -23.414  32.402  1.00  0.00     0.041 C 
ATOM      3  O   UNL     1      20.196 -24.563  32.805  1.00  0.00    -0.550 OA
ATOM      4  O   UNL     1      18.717 -23.242  31.658  1.00  0.00    -0.550 OA
ENDBRANCH   1   2
BRANCH   1   5
ATOM      5  C   UNL     1      22.045 -22.224  31.968  1.00  0.00     0.006 C 
BRANCH   5   6
ATOM      6  C   UNL     1      22.993 -21.110  32.435  1.00  0.00    -0.003 C 
ATOM      7  C   UNL     1      23.812 -20.560  31.272  1.00  0.00     0.004 C 
ENDBRANCH   5   6
ENDBRANCH   1   5
TORSDOF 3
ENDMDL
MODEL 3
REMARK VINA RESULT:    -2.797     16.403     16.981
REMARK INTER + INTRA:          -3.303
REMARK INTER:                  -3.271
REMARK INTRA:                  -0.033
REMARK UNBOUND:                -0.016
REMARK SMILES CCCCC(=O)[O-]
REMARK SMILES IDX 4 1 5 2 6 3 7 4 3 5 2 6 1 7
REMARK H PARENT
REMARK Flexibility Score: inf
ROOT
ATOM      1  C   UNL     1      19.377 -19.595  15.903  1.00  0.00     0.053 C 
ENDROOT
BRANCH   1   2
ATOM      2  C   UNL     1      19.521 -20.948  15.278  1.00  0.00     0.041 C 
ATOM      3  O   UNL     1      18.533 -21.501  14.726  1.00  0.00    -0.550 OA
ATOM      4  O   UNL     1      20.756 -21.584  15.276  1.00  0.00    -0.550 OA
ENDBRANCH   1   2
BRANCH   1   5
ATOM      5  C   UNL     1      19.544 -18.471  14.871  1.00  0.00     0.006 C 
BRANCH   5   6
ATOM      6  C   UNL     1      19.557 -17.081  15.523  1.00  0.00    -0.003 C 
ATOM      7  C   UNL     1      19.486 -17.185  17.043  1.00  0.00     0.004 C 
ENDBRANCH   5   6
ENDBRANCH   1   5
TORSDOF 3
ENDMDL
MODEL 4
REMARK VINA RESULT:    -2.745     21.450     22.793
REMARK INTER + INTRA:          -3.242
REMARK INTER:                  -3.138
REMARK INTRA:                  -0.104
REMARK UNBOUND:                -0.016
REMARK SMILES CCCCC(=O)[O-]
REMARK SMILES IDX 4 1 5 2 6 3 7 4 3 5 2 6 1 7
REMARK H PARENT
REMARK Flexibility Score: inf
ROOT
ATOM      1  C   UNL     1       8.517 -32.604  17.262  1.00  0.00     0.053 C 
ENDROOT
BRANCH   1   2
ATOM      2  C   UNL     1       9.253 -31.578  18.068  1.00  0.00     0.041 C 
ATOM      3  O   UNL     1       9.076 -31.501  19.312  1.00  0.00    -0.550 OA
ATOM      4  O   UNL     1      10.161 -30.728  17.448  1.00  0.00    -0.550 OA
ENDBRANCH   1   2
BRANCH   1   5
ATOM      5  C   UNL     1       8.377 -32.180  15.794  1.00  0.00     0.006 C 
BRANCH   5   6
ATOM      6  C   UNL     1       9.257 -33.024  14.860  1.00  0.00    -0.003 C 
ATOM      7  C   UNL     1      10.331 -32.169  14.195  1.00  0.00     0.004 C 
ENDBRANCH   5   6
ENDBRANCH   1   5
TORSDOF 3
ENDMDL
MODEL 5
REMARK VINA RESULT:    -2.737     21.760     23.164
REMARK INTER + INTRA:          -3.232
REMARK INTER:                  -3.214
REMARK INTRA:                  -0.019
REMARK UNBOUND:                -0.016
REMARK SMILES CCCCC(=O)[O-]
REMARK SMILES IDX 4 1 5 2 6 3 7 4 3 5 2 6 1 7
REMARK H PARENT
REMARK Flexibility Score: inf
ROOT
ATOM      1  C   UNL     1       8.519 -32.518  17.323  1.00  0.00     0.053 C 
ENDROOT
BRANCH   1   2
ATOM      2  C   UNL     1       9.281 -31.434  18.021  1.00  0.00     0.041 C 
ATOM      3  O   UNL     1       9.048 -31.172  19.230  1.00  0.00    -0.550 OA
ATOM      4  O   UNL     1      10.273 -30.735  17.343  1.00  0.00    -0.550 OA
ENDBRANCH   1   2
BRANCH   1   5
ATOM      5  C   UNL     1       8.377 -32.237  15.821  1.00  0.00     0.006 C 
BRANCH   5   6
ATOM      6  C   UNL     1       6.995 -32.634  15.283  1.00  0.00    -0.003 C 
ATOM      7  C   UNL     1       6.972 -32.619  13.758  1.00  0.00     0.004 C 
ENDBRANCH   5   6
ENDBRANCH   1   5
TORSDOF 3
ENDMDL
MODEL 6
REMARK VINA RESULT:    -2.671     22.126     23.354
REMARK INTER + INTRA:          -3.155
REMARK INTER:                  -3.134
REMARK INTRA:                  -0.021
REMARK UNBOUND:                -0.016
REMARK SMILES CCCCC(=O)[O-]
REMARK SMILES IDX 4 1 5 2 6 3 7 4 3 5 2 6 1 7
REMARK H PARENT
REMARK Flexibility Score: inf
ROOT
ATOM      1  C   UNL     1       9.306 -32.270  14.703  1.00  0.00     0.053 C 
ENDROOT
BRANCH   1   2
ATOM      2  C   UNL     1      10.612 -32.175  13.977  1.00  0.00     0.041 C 
ATOM      3  O   UNL     1      11.502 -31.377  14.374  1.00  0.00    -0.550 OA
ATOM      4  O   UNL     1      10.861 -32.994  12.882  1.00  0.00    -0.550 OA
ENDBRANCH   1   2
BRANCH   1   5
ATOM      5  C   UNL     1       9.420 -31.768  16.148  1.00  0.00     0.006 C 
BRANCH   5   6
ATOM      6  C   UNL     1       8.399 -32.438  17.079  1.00  0.00    -0.003 C 
ATOM      7  C   UNL     1       8.527 -31.914  18.506  1.00  0.00     0.004 C 
ENDBRANCH   5   6
ENDBRANCH   1   5
TORSDOF 3
ENDMDL
MODEL 7
REMARK VINA RESULT:    -2.636     14.608     15.372
REMARK INTER + INTRA:          -3.114
REMARK INTER:                  -3.018
REMARK INTRA:                  -0.095
REMARK UNBOUND:                -0.016
REMARK SMILES CCCCC(=O)[O-]
REMARK SMILES IDX 4 1 5 2 6 3 7 4 3 5 2 6 1 7
REMARK H PARENT
REMARK Flexibility Score: inf
ROOT
ATOM      1  C   UNL     1      14.865 -35.340  32.060  1.00  0.00     0.053 C 
ENDROOT
BRANCH   1   2
ATOM      2  C   UNL     1      14.445 -33.905  31.982  1.00  0.00     0.041 C 
ATOM      3  O   UNL     1      15.017 -33.119  31.181  1.00  0.00    -0.550 OA
ATOM      4  O   UNL     1      13.399 -33.443  32.771  1.00  0.00    -0.550 OA
ENDBRANCH   1   2
BRANCH   1   5
ATOM      5  C   UNL     1      16.367 -35.509  31.793  1.00  0.00     0.006 C 
BRANCH   5   6
ATOM      6  C   UNL     1      16.643 -36.359  30.544  1.00  0.00    -0.003 C 
ATOM      7  C   UNL     1      17.344 -35.540  29.465  1.00  0.00     0.004 C 
ENDBRANCH   5   6
ENDBRANCH   1   5
TORSDOF 3
ENDMDL
MODEL 8
REMARK VINA RESULT:    -2.598     22.978     23.853
REMARK INTER + INTRA:          -3.070
REMARK INTER:                  -3.037
REMARK INTRA:                  -0.033
REMARK UNBOUND:                -0.016
REMARK SMILES CCCCC(=O)[O-]
REMARK SMILES IDX 4 1 5 2 6 3 7 4 3 5 2 6 1 7
REMARK H PARENT
REMARK Flexibility Score: inf
ROOT
ATOM      1  C   UNL     1       9.490 -31.867  15.638  1.00  0.00     0.053 C 
ENDROOT
BRANCH   1   2
ATOM      2  C   UNL     1       8.294 -32.240  16.459  1.00  0.00     0.041 C 
ATOM      3  O   UNL     1       8.421 -32.488  17.687  1.00  0.00    -0.550 OA
ATOM      4  O   UNL     1       7.034 -32.281  15.875  1.00  0.00    -0.550 OA
ENDBRANCH   1   2
BRANCH   1   5
ATOM      5  C   UNL     1       9.629 -32.760  14.398  1.00  0.00     0.006 C 
BRANCH   5   6
ATOM      6  C   UNL     1      10.866 -32.403  13.561  1.00  0.00    -0.003 C 
ATOM      7  C   UNL     1      11.737 -31.376  14.276  1.00  0.00     0.004 C 
ENDBRANCH   5   6
ENDBRANCH   1   5
TORSDOF 3
ENDMDL
MODEL 9
REMARK VINA RESULT:    -2.460     23.065     24.502
REMARK INTER + INTRA:          -2.907
REMARK INTER:                  -2.865
REMARK INTRA:                  -0.042
REMARK UNBOUND:                -0.016
REMARK SMILES CCCCC(=O)[O-]
REMARK SMILES IDX 4 1 5 2 6 3 7 4 3 5 2 6 1 7
REMARK H PARENT
REMARK Flexibility Score: inf
ROOT
ATOM      1  C   UNL     1       8.321 -32.250  15.727  1.00  0.00     0.053 C 
ENDROOT
BRANCH   1   2
ATOM      2  C   UNL     1       8.475 -32.818  17.105  1.00  0.00     0.041 C 
ATOM      3  O   UNL     1       8.533 -34.064  17.274  1.00  0.00    -0.550 OA
ATOM      4  O   UNL     1       8.588 -31.968  18.198  1.00  0.00    -0.550 OA
ENDBRANCH   1   2
BRANCH   1   5
ATOM      5  C   UNL     1       6.970 -32.627  15.105  1.00  0.00     0.006 C 
BRANCH   5   6
ATOM      6  C   UNL     1       7.006 -32.587  13.570  1.00  0.00    -0.003 C 
ATOM      7  C   UNL     1       8.401 -32.236  13.061  1.00  0.00     0.004 C 
ENDBRANCH   5   6
ENDBRANCH   1   5
TORSDOF 3
ENDMDL
