MODEL 1
REMARK VINA RESULT:    -2.292      0.000      0.000
REMARK INTER + INTRA:          -3.119
REMARK INTER:                  -2.760
REMARK INTRA:                  -0.359
REMARK UNBOUND:                -0.359
REMARK SMILES Oc1cc(O)c2c(c1)O[C@@H](c1ccc(O)c(O)c1)[C@H](O)C2
REMARK SMILES IDX 21 1 19 2 10 3 9 4 7 5 8 6 2 7 3 8 4 9 6 10 20 11 11 13
REMARK SMILES IDX 18 14 12 15 16 16 13 17 14 18 17 19 15 21 5 23 1 25
REMARK H PARENT 20 12 17 20 15 22 5 24 1 26
REMARK Flexibility Score: inf
ROOT
ATOM      1  C   UNL     1      16.824  41.597  12.937  1.00  0.00     0.079 C 
ATOM      2  C   UNL     1      17.022  40.089  12.699  1.00  0.00     0.164 C 
ATOM      3  C   UNL     1      15.819  39.539  11.894  1.00  0.00     0.232 C 
ATOM      4  O   UNL     1      15.710  40.242  10.651  1.00  0.00    -0.482 OA
ATOM      5  C   UNL     1      15.908  41.623  10.567  1.00  0.00     0.131 A 
ATOM      6  C   UNL     1      15.556  42.286   9.383  1.00  0.00     0.093 A 
ATOM      7  C   UNL     1      15.742  43.666   9.263  1.00  0.00     0.122 A 
ATOM      8  C   UNL     1      16.279  44.388  10.338  1.00  0.00     0.092 A 
ATOM      9  C   UNL     1      16.635  43.742  11.535  1.00  0.00     0.126 A 
ATOM     10  C   UNL     1      16.476  42.338  11.650  1.00  0.00     0.039 A 
ENDROOT
BRANCH   2  11
ATOM     11  O   UNL     1      17.125  39.414  13.931  1.00  0.00    -0.389 OA
ATOM     12  H   UNL     1      16.459  38.677  13.906  1.00  0.00     0.211 HD
ENDBRANCH   2  11
BRANCH   3  13
ATOM     13  C   UNL     1      15.907  38.049  11.625  1.00  0.00    -0.001 A 
ATOM     14  C   UNL     1      15.022  37.140  12.238  1.00  0.00     0.057 A 
ATOM     15  C   UNL     1      16.966  37.547  10.844  1.00  0.00     0.012 A 
ATOM     16  C   UNL     1      15.129  35.766  11.995  1.00  0.00     0.157 A 
ATOM     17  C   UNL     1      17.085  36.175  10.608  1.00  0.00     0.050 A 
ATOM     18  C   UNL     1      16.169  35.280  11.180  1.00  0.00     0.157 A 
BRANCH  16  19
ATOM     19  O   UNL     1      14.203  34.903  12.582  1.00  0.00    -0.504 OA
ATOM     20  H   UNL     1      14.052  34.883  13.590  1.00  0.00     0.293 HD
ENDBRANCH  16  19
BRANCH  18  21
ATOM     21  O   UNL     1      16.288  33.909  10.948  1.00  0.00    -0.504 OA
ATOM     22  H   UNL     1      16.036  33.498  10.055  1.00  0.00     0.293 HD
ENDBRANCH  18  21
ENDBRANCH   3  13
BRANCH   9  23
ATOM     23  O   UNL     1      17.125  44.528  12.584  1.00  0.00    -0.507 OA
ATOM     24  H   UNL     1      17.294  44.167  13.518  1.00  0.00     0.293 HD
ENDBRANCH   9  23
BRANCH   7  25
ATOM     25  O   UNL     1      15.385  44.315   8.076  1.00  0.00    -0.508 OA
ATOM     26  H   UNL     1      15.761  45.226   7.837  1.00  0.00     0.293 HD
ENDBRANCH   7  25
TORSDOF 6
ENDMDL
MODEL 2
REMARK VINA RESULT:    -2.137      1.986      3.737
REMARK INTER + INTRA:          -2.934
REMARK INTER:                  -3.007
REMARK INTRA:                   0.073
REMARK UNBOUND:                -0.359
REMARK SMILES Oc1cc(O)c2c(c1)O[C@@H](c1ccc(O)c(O)c1)[C@H](O)C2
REMARK SMILES IDX 21 1 19 2 10 3 9 4 7 5 8 6 2 7 3 8 4 9 6 10 20 11 11 13
REMARK SMILES IDX 18 14 12 15 16 16 13 17 14 18 17 19 15 21 5 23 1 25
REMARK H PARENT 20 12 17 20 15 22 5 24 1 26
REMARK Flexibility Score: inf
ROOT
ATOM      1  C   UNL     1      17.105  43.760   9.642  1.00  0.00     0.079 C 
ATOM      2  C   UNL     1      16.583  42.321   9.811  1.00  0.00     0.164 C 
ATOM      3  C   UNL     1      17.040  41.773  11.186  1.00  0.00     0.232 C 
ATOM      4  O   UNL     1      16.547  42.621  12.229  1.00  0.00    -0.482 OA
ATOM      5  C   UNL     1      16.548  44.014  12.108  1.00  0.00     0.131 A 
ATOM      6  C   UNL     1      16.281  44.791  13.243  1.00  0.00     0.093 A 
ATOM      7  C   UNL     1      16.270  46.187  13.158  1.00  0.00     0.122 A 
ATOM      8  C   UNL     1      16.534  46.807  11.929  1.00  0.00     0.092 A 
ATOM      9  C   UNL     1      16.808  46.044  10.780  1.00  0.00     0.126 A 
ATOM     10  C   UNL     1      16.789  44.628  10.855  1.00  0.00     0.039 A 
ENDROOT
BRANCH   2  11
ATOM     11  O   UNL     1      17.078  41.502   8.778  1.00  0.00    -0.389 OA
ATOM     12  H   UNL     1      16.727  40.588   8.949  1.00  0.00     0.211 HD
ENDBRANCH   2  11
BRANCH   3  13
ATOM     13  C   UNL     1      16.593  40.346  11.442  1.00  0.00    -0.001 A 
ATOM     14  C   UNL     1      17.048  39.281  10.640  1.00  0.00     0.057 A 
ATOM     15  C   UNL     1      15.613  40.092  12.421  1.00  0.00     0.012 A 
ATOM     16  C   UNL     1      16.611  37.973  10.876  1.00  0.00     0.157 A 
ATOM     17  C   UNL     1      15.164  38.789  12.652  1.00  0.00     0.050 A 
ATOM     18  C   UNL     1      15.661  37.726  11.884  1.00  0.00     0.157 A 
BRANCH  16  19
ATOM     19  O   UNL     1      17.123  36.939  10.092  1.00  0.00    -0.504 OA
ATOM     20  H   UNL     1      16.548  36.447   9.410  1.00  0.00     0.293 HD
ENDBRANCH  16  19
BRANCH  18  21
ATOM     21  O   UNL     1      15.211  36.424  12.113  1.00  0.00    -0.504 OA
ATOM     22  H   UNL     1      14.279  36.129  11.841  1.00  0.00     0.293 HD
ENDBRANCH  18  21
ENDBRANCH   3  13
BRANCH   9  23
ATOM     23  O   UNL     1      17.106  46.727   9.595  1.00  0.00    -0.507 OA
ATOM     24  H   UNL     1      16.734  47.644   9.371  1.00  0.00     0.293 HD
ENDBRANCH   9  23
BRANCH   7  25
ATOM     25  O   UNL     1      16.004  46.951  14.299  1.00  0.00    -0.508 OA
ATOM     26  H   UNL     1      15.527  46.556  15.101  1.00  0.00     0.293 HD
ENDBRANCH   7  25
TORSDOF 6
ENDMDL
MODEL 3
REMARK VINA RESULT:    -1.952     20.826     22.761
REMARK INTER + INTRA:          -2.710
REMARK INTER:                  -3.039
REMARK INTRA:                   0.328
REMARK UNBOUND:                -0.359
REMARK SMILES Oc1cc(O)c2c(c1)O[C@@H](c1ccc(O)c(O)c1)[C@H](O)C2
REMARK SMILES IDX 21 1 19 2 10 3 9 4 7 5 8 6 2 7 3 8 4 9 6 10 20 11 11 13
REMARK SMILES IDX 18 14 12 15 16 16 13 17 14 18 17 19 15 21 5 23 1 25
REMARK H PARENT 20 12 17 20 15 22 5 24 1 26
REMARK Flexibility Score: inf
ROOT
ATOM      1  C   UNL     1      -2.608  39.461  25.108  1.00  0.00     0.079 C 
ATOM      2  C   UNL     1      -2.665  40.984  24.890  1.00  0.00     0.164 C 
ATOM      3  C   UNL     1      -1.361  41.447  24.194  1.00  0.00     0.232 C 
ATOM      4  O   UNL     1      -1.210  40.758  22.948  1.00  0.00    -0.482 OA
ATOM      5  C   UNL     1      -1.511  39.399  22.817  1.00  0.00     0.131 A 
ATOM      6  C   UNL     1      -1.120  38.730  21.650  1.00  0.00     0.093 A 
ATOM      7  C   UNL     1      -1.406  37.371  21.483  1.00  0.00     0.122 A 
ATOM      8  C   UNL     1      -2.083  36.678  22.496  1.00  0.00     0.092 A 
ATOM      9  C   UNL     1      -2.480  37.331  23.676  1.00  0.00     0.126 A 
ATOM     10  C   UNL     1      -2.219  38.716  23.835  1.00  0.00     0.039 A 
ENDROOT
BRANCH   2  11
ATOM     11  O   UNL     1      -2.811  41.645  26.125  1.00  0.00    -0.389 OA
ATOM     12  H   UNL     1      -3.750  41.969  26.162  1.00  0.00     0.211 HD
ENDBRANCH   2  11
BRANCH   3  13
ATOM     13  C   UNL     1      -1.308  42.944  23.953  1.00  0.00    -0.001 A 
ATOM     14  C   UNL     1      -2.082  43.837  24.719  1.00  0.00     0.057 A 
ATOM     15  C   UNL     1      -0.566  43.445  22.866  1.00  0.00     0.012 A 
ATOM     16  C   UNL     1      -2.037  45.213  24.471  1.00  0.00     0.157 A 
ATOM     17  C   UNL     1      -0.527  44.817  22.606  1.00  0.00     0.050 A 
ATOM     18  C   UNL     1      -1.260  45.706  23.406  1.00  0.00     0.157 A 
BRANCH  16  19
ATOM     19  O   UNL     1      -2.780  46.070  25.285  1.00  0.00    -0.504 OA
ATOM     20  H   UNL     1      -3.099  45.788  26.210  1.00  0.00     0.293 HD
ENDBRANCH  16  19
BRANCH  18  21
ATOM     21  O   UNL     1      -1.224  47.077  23.146  1.00  0.00    -0.504 OA
ATOM     22  H   UNL     1      -0.759  47.449  22.325  1.00  0.00     0.293 HD
ENDBRANCH  18  21
ENDBRANCH   3  13
BRANCH   9  23
ATOM     23  O   UNL     1      -3.114  36.570  24.666  1.00  0.00    -0.507 OA
ATOM     24  H   UNL     1      -4.110  36.620  24.854  1.00  0.00     0.293 HD
ENDBRANCH   9  23
BRANCH   7  25
ATOM     25  O   UNL     1      -1.008  36.715  20.314  1.00  0.00    -0.508 OA
ATOM     26  H   UNL     1      -1.160  37.124  19.399  1.00  0.00     0.293 HD
ENDBRANCH   7  25
TORSDOF 6
ENDMDL
MODEL 4
REMARK VINA RESULT:    -1.857      1.411      6.800
REMARK INTER + INTRA:          -2.596
REMARK INTER:                  -2.797
REMARK INTRA:                   0.201
REMARK UNBOUND:                -0.359
REMARK SMILES Oc1cc(O)c2c(c1)O[C@@H](c1ccc(O)c(O)c1)[C@H](O)C2
REMARK SMILES IDX 21 1 19 2 10 3 9 4 7 5 8 6 2 7 3 8 4 9 6 10 20 11 11 13
REMARK SMILES IDX 18 14 12 15 16 16 13 17 14 18 17 19 15 21 5 23 1 25
REMARK H PARENT 20 12 17 20 15 22 5 24 1 26
REMARK Flexibility Score: inf
ROOT
ATOM      1  C   UNL     1      16.779  38.351  13.109  1.00  0.00     0.079 C 
ATOM      2  C   UNL     1      16.499  39.761  12.560  1.00  0.00     0.164 C 
ATOM      3  C   UNL     1      17.037  39.858  11.111  1.00  0.00     0.232 C 
ATOM      4  O   UNL     1      16.411  38.859  10.297  1.00  0.00    -0.482 OA
ATOM      5  C   UNL     1      16.185  37.563  10.768  1.00  0.00     0.131 A 
ATOM      6  C   UNL     1      15.793  36.572   9.858  1.00  0.00     0.093 A 
ATOM      7  C   UNL     1      15.555  35.265  10.294  1.00  0.00     0.122 A 
ATOM      8  C   UNL     1      15.717  34.948  11.649  1.00  0.00     0.092 A 
ATOM      9  C   UNL     1      16.113  35.927  12.577  1.00  0.00     0.126 A 
ATOM     10  C   UNL     1      16.325  37.261  12.145  1.00  0.00     0.039 A 
ENDROOT
BRANCH   2  11
ATOM     11  O   UNL     1      17.123  40.730  13.370  1.00  0.00    -0.389 OA
ATOM     12  H   UNL     1      18.066  40.790  13.063  1.00  0.00     0.211 HD
ENDBRANCH   2  11
BRANCH   3  13
ATOM     13  C   UNL     1      16.829  41.223  10.483  1.00  0.00    -0.001 A 
ATOM     14  C   UNL     1      16.232  42.277  11.202  1.00  0.00     0.057 A 
ATOM     15  C   UNL     1      17.125  41.411   9.119  1.00  0.00     0.012 A 
ATOM     16  C   UNL     1      16.029  43.525  10.602  1.00  0.00     0.157 A 
ATOM     17  C   UNL     1      16.912  42.652   8.511  1.00  0.00     0.050 A 
ATOM     18  C   UNL     1      16.366  43.712   9.249  1.00  0.00     0.157 A 
BRANCH  16  19
ATOM     19  O   UNL     1      15.481  44.558  11.363  1.00  0.00    -0.504 OA
ATOM     20  H   UNL     1      14.593  44.993  11.117  1.00  0.00     0.293 HD
ENDBRANCH  16  19
BRANCH  18  21
ATOM     21  O   UNL     1      16.150  44.951   8.642  1.00  0.00    -0.504 OA
ATOM     22  H   UNL     1      15.926  45.027   7.656  1.00  0.00     0.293 HD
ENDBRANCH  18  21
ENDBRANCH   3  13
BRANCH   9  23
ATOM     23  O   UNL     1      16.297  35.534  13.908  1.00  0.00    -0.507 OA
ATOM     24  H   UNL     1      15.884  36.023  14.696  1.00  0.00     0.293 HD
ENDBRANCH   9  23
BRANCH   7  25
ATOM     25  O   UNL     1      15.167  34.285   9.374  1.00  0.00    -0.508 OA
ATOM     26  H   UNL     1      14.641  33.468   9.662  1.00  0.00     0.293 HD
ENDBRANCH   7  25
TORSDOF 6
ENDMDL
MODEL 5
REMARK VINA RESULT:    -1.545      4.263      7.606
REMARK INTER + INTRA:          -2.220
REMARK INTER:                  -1.961
REMARK INTRA:                  -0.259
REMARK UNBOUND:                -0.359
REMARK SMILES Oc1cc(O)c2c(c1)O[C@@H](c1ccc(O)c(O)c1)[C@H](O)C2
REMARK SMILES IDX 21 1 19 2 10 3 9 4 7 5 8 6 2 7 3 8 4 9 6 10 20 11 11 13
REMARK SMILES IDX 18 14 12 15 16 16 13 17 14 18 17 19 15 21 5 23 1 25
REMARK H PARENT 20 12 17 20 15 22 5 24 1 26
REMARK Flexibility Score: inf
ROOT
ATOM      1  C   UNL     1      13.991  33.800  12.091  1.00  0.00     0.079 C 
ATOM      2  C   UNL     1      12.558  33.997  12.618  1.00  0.00     0.164 C 
ATOM      3  C   UNL     1      12.591  34.956  13.834  1.00  0.00     0.232 C 
ATOM      4  O   UNL     1      13.168  36.207  13.443  1.00  0.00    -0.482 OA
ATOM      5  C   UNL     1      14.278  36.274  12.595  1.00  0.00     0.131 A 
ATOM      6  C   UNL     1      14.939  37.499  12.442  1.00  0.00     0.093 A 
ATOM      7  C   UNL     1      16.051  37.603  11.601  1.00  0.00     0.122 A 
ATOM      8  C   UNL     1      16.506  36.470  10.912  1.00  0.00     0.092 A 
ATOM      9  C   UNL     1      15.858  35.231  11.056  1.00  0.00     0.126 A 
ATOM     10  C   UNL     1      14.712  35.128  11.884  1.00  0.00     0.039 A 
ENDROOT
BRANCH   2  11
ATOM     11  O   UNL     1      12.008  32.757  12.999  1.00  0.00    -0.389 OA
ATOM     12  H   UNL     1      12.524  32.450  13.791  1.00  0.00     0.211 HD
ENDBRANCH   2  11
BRANCH   3  13
ATOM     13  C   UNL     1      11.224  35.199  14.444  1.00  0.00    -0.001 A 
ATOM     14  C   UNL     1      11.022  35.136  15.837  1.00  0.00     0.057 A 
ATOM     15  C   UNL     1      10.109  35.371  13.601  1.00  0.00     0.012 A 
ATOM     16  C   UNL     1       9.751  35.343  16.383  1.00  0.00     0.157 A 
ATOM     17  C   UNL     1       8.835  35.565  14.141  1.00  0.00     0.050 A 
ATOM     18  C   UNL     1       8.651  35.554  15.532  1.00  0.00     0.157 A 
BRANCH  16  19
ATOM     19  O   UNL     1       9.602  35.322  17.771  1.00  0.00    -0.504 OA
ATOM     20  H   UNL     1       8.940  34.698  18.230  1.00  0.00     0.293 HD
ENDBRANCH  16  19
BRANCH  18  21
ATOM     21  O   UNL     1       7.378  35.745  16.072  1.00  0.00    -0.504 OA
ATOM     22  H   UNL     1       7.180  36.513  16.706  1.00  0.00     0.293 HD
ENDBRANCH  18  21
ENDBRANCH   3  13
BRANCH   9  23
ATOM     23  O   UNL     1      16.389  34.129  10.374  1.00  0.00    -0.507 OA
ATOM     24  H   UNL     1      17.322  33.767  10.543  1.00  0.00     0.293 HD
ENDBRANCH   9  23
BRANCH   7  25
ATOM     25  O   UNL     1      16.703  38.832  11.458  1.00  0.00    -0.508 OA
ATOM     26  H   UNL     1      16.434  39.494  10.739  1.00  0.00     0.293 HD
ENDBRANCH   7  25
TORSDOF 6
ENDMDL
MODEL 6
REMARK VINA RESULT:    -1.523      1.554      6.885
REMARK INTER + INTRA:          -2.193
REMARK INTER:                  -2.595
REMARK INTRA:                   0.402
REMARK UNBOUND:                -0.359
REMARK SMILES Oc1cc(O)c2c(c1)O[C@@H](c1ccc(O)c(O)c1)[C@H](O)C2
REMARK SMILES IDX 21 1 19 2 10 3 9 4 7 5 8 6 2 7 3 8 4 9 6 10 20 11 11 13
REMARK SMILES IDX 18 14 12 15 16 16 13 17 14 18 17 19 15 21 5 23 1 25
REMARK H PARENT 20 12 17 20 15 22 5 24 1 26
REMARK Flexibility Score: inf
ROOT
ATOM      1  C   UNL     1      16.769  38.439  13.063  1.00  0.00     0.079 C 
ATOM      2  C   UNL     1      16.526  39.846  12.485  1.00  0.00     0.164 C 
ATOM      3  C   UNL     1      17.125  39.921  11.059  1.00  0.00     0.232 C 
ATOM      4  O   UNL     1      16.524  38.918  10.232  1.00  0.00    -0.482 OA
ATOM      5  C   UNL     1      16.265  37.629  10.707  1.00  0.00     0.131 A 
ATOM      6  C   UNL     1      15.902  36.632   9.793  1.00  0.00     0.093 A 
ATOM      7  C   UNL     1      15.633  35.332  10.233  1.00  0.00     0.122 A 
ATOM      8  C   UNL     1      15.735  35.029  11.598  1.00  0.00     0.092 A 
ATOM      9  C   UNL     1      16.101  36.016  12.530  1.00  0.00     0.126 A 
ATOM     10  C   UNL     1      16.345  37.342  12.092  1.00  0.00     0.039 A 
ENDROOT
BRANCH   2  11
ATOM     11  O   UNL     1      17.125  40.818  13.310  1.00  0.00    -0.389 OA
ATOM     12  H   UNL     1      16.406  41.172  13.897  1.00  0.00     0.211 HD
ENDBRANCH   2  11
BRANCH   3  13
ATOM     13  C   UNL     1      16.957  41.280  10.408  1.00  0.00    -0.001 A 
ATOM     14  C   UNL     1      17.108  41.450   9.018  1.00  0.00     0.057 A 
ATOM     15  C   UNL     1      16.766  42.417  11.217  1.00  0.00     0.012 A 
ATOM     16  C   UNL     1      16.970  42.715   8.435  1.00  0.00     0.157 A 
ATOM     17  C   UNL     1      16.640  43.684  10.641  1.00  0.00     0.050 A 
ATOM     18  C   UNL     1      16.739  43.838   9.250  1.00  0.00     0.157 A 
BRANCH  16  19
ATOM     19  O   UNL     1      17.077  42.834   7.049  1.00  0.00    -0.504 OA
ATOM     20  H   UNL     1      17.398  43.694   6.607  1.00  0.00     0.293 HD
ENDBRANCH  16  19
BRANCH  18  21
ATOM     21  O   UNL     1      16.616  45.104   8.674  1.00  0.00    -0.504 OA
ATOM     22  H   UNL     1      16.967  45.935   9.139  1.00  0.00     0.293 HD
ENDBRANCH  18  21
ENDBRANCH   3  13
BRANCH   9  23
ATOM     23  O   UNL     1      16.226  35.637  13.872  1.00  0.00    -0.507 OA
ATOM     24  H   UNL     1      15.500  35.142  14.381  1.00  0.00     0.293 HD
ENDBRANCH   9  23
BRANCH   7  25
ATOM     25  O   UNL     1      15.274  34.345   9.309  1.00  0.00    -0.508 OA
ATOM     26  H   UNL     1      15.525  34.420   8.331  1.00  0.00     0.293 HD
ENDBRANCH   7  25
TORSDOF 6
ENDMDL
MODEL 7
REMARK VINA RESULT:    -0.778     21.230     22.886
REMARK INTER + INTRA:          -1.296
REMARK INTER:                  -1.457
REMARK INTRA:                   0.161
REMARK UNBOUND:                -0.359
REMARK SMILES Oc1cc(O)c2c(c1)O[C@@H](c1ccc(O)c(O)c1)[C@H](O)C2
REMARK SMILES IDX 21 1 19 2 10 3 9 4 7 5 8 6 2 7 3 8 4 9 6 10 20 11 11 13
REMARK SMILES IDX 18 14 12 15 16 16 13 17 14 18 17 19 15 21 5 23 1 25
REMARK H PARENT 20 12 17 20 15 22 5 24 1 26
REMARK Flexibility Score: inf
ROOT
ATOM      1  C   UNL     1      -2.568  39.342  22.522  1.00  0.00     0.079 C 
ATOM      2  C   UNL     1      -2.072  40.789  22.704  1.00  0.00     0.164 C 
ATOM      3  C   UNL     1      -2.077  41.141  24.212  1.00  0.00     0.232 C 
ATOM      4  O   UNL     1      -1.241  40.221  24.924  1.00  0.00    -0.482 OA
ATOM      5  C   UNL     1      -1.231  38.855  24.627  1.00  0.00     0.131 A 
ATOM      6  C   UNL     1      -0.582  37.978  25.505  1.00  0.00     0.093 A 
ATOM      7  C   UNL     1      -0.550  36.605  25.239  1.00  0.00     0.122 A 
ATOM      8  C   UNL     1      -1.176  36.109  24.087  1.00  0.00     0.092 A 
ATOM      9  C   UNL     1      -1.836  36.974  23.196  1.00  0.00     0.126 A 
ATOM     10  C   UNL     1      -1.845  38.369  23.446  1.00  0.00     0.039 A 
ENDROOT
BRANCH   2  11
ATOM     11  O   UNL     1      -2.905  41.679  22.000  1.00  0.00    -0.389 OA
ATOM     12  H   UNL     1      -3.482  42.122  22.677  1.00  0.00     0.211 HD
ENDBRANCH   2  11
BRANCH   3  13
ATOM     13  C   UNL     1      -1.623  42.560  24.498  1.00  0.00    -0.001 A 
ATOM     14  C   UNL     1      -1.195  43.416  23.464  1.00  0.00     0.057 A 
ATOM     15  C   UNL     1      -1.510  42.996  25.833  1.00  0.00     0.012 A 
ATOM     16  C   UNL     1      -0.761  44.715  23.747  1.00  0.00     0.157 A 
ATOM     17  C   UNL     1      -1.064  44.288  26.122  1.00  0.00     0.050 A 
ATOM     18  C   UNL     1      -0.690  45.153  25.083  1.00  0.00     0.157 A 
BRANCH  16  19
ATOM     19  O   UNL     1      -0.393  45.548  22.690  1.00  0.00    -0.504 OA
ATOM     20  H   UNL     1       0.472  46.087  22.708  1.00  0.00     0.293 HD
ENDBRANCH  16  19
BRANCH  18  21
ATOM     21  O   UNL     1      -0.243  46.444  25.370  1.00  0.00    -0.504 OA
ATOM     22  H   UNL     1      -0.623  46.976  26.146  1.00  0.00     0.293 HD
ENDBRANCH  18  21
ENDBRANCH   3  13
BRANCH   9  23
ATOM     23  O   UNL     1      -2.478  36.409  22.088  1.00  0.00    -0.507 OA
ATOM     24  H   UNL     1      -2.154  35.565  21.626  1.00  0.00     0.293 HD
ENDBRANCH   9  23
BRANCH   7  25
ATOM     25  O   UNL     1       0.100  35.740  26.125  1.00  0.00    -0.508 OA
ATOM     26  H   UNL     1       1.028  35.943  26.478  1.00  0.00     0.293 HD
ENDBRANCH   7  25
TORSDOF 6
ENDMDL
MODEL 8
REMARK VINA RESULT:    -0.713     20.909     21.843
REMARK INTER + INTRA:          -1.218
REMARK INTER:                  -1.417
REMARK INTRA:                   0.199
REMARK UNBOUND:                -0.359
REMARK SMILES Oc1cc(O)c2c(c1)O[C@@H](c1ccc(O)c(O)c1)[C@H](O)C2
REMARK SMILES IDX 21 1 19 2 10 3 9 4 7 5 8 6 2 7 3 8 4 9 6 10 20 11 11 13
REMARK SMILES IDX 18 14 12 15 16 16 13 17 14 18 17 19 15 21 5 23 1 25
REMARK H PARENT 20 12 17 20 15 22 5 24 1 26
REMARK Flexibility Score: inf
ROOT
ATOM      1  C   UNL     1      -2.830  42.957  25.610  1.00  0.00     0.079 C 
ATOM      2  C   UNL     1      -2.303  41.527  25.393  1.00  0.00     0.164 C 
ATOM      3  C   UNL     1      -2.285  41.216  23.876  1.00  0.00     0.232 C 
ATOM      4  O   UNL     1      -1.462  42.172  23.199  1.00  0.00    -0.482 OA
ATOM      5  C   UNL     1      -1.483  43.529  23.533  1.00  0.00     0.131 A 
ATOM      6  C   UNL     1      -0.843  44.444  22.686  1.00  0.00     0.093 A 
ATOM      7  C   UNL     1      -0.842  45.808  22.990  1.00  0.00     0.122 A 
ATOM      8  C   UNL     1      -1.490  46.260  24.148  1.00  0.00     0.092 A 
ATOM      9  C   UNL     1      -2.140  45.358  25.008  1.00  0.00     0.126 A 
ATOM     10  C   UNL     1      -2.118  43.970  24.720  1.00  0.00     0.039 A 
ENDROOT
BRANCH   2  11
ATOM     11  O   UNL     1      -3.125  40.601  26.065  1.00  0.00    -0.389 OA
ATOM     12  H   UNL     1      -2.516  39.958  26.515  1.00  0.00     0.211 HD
ENDBRANCH   2  11
BRANCH   3  13
ATOM     13  C   UNL     1      -1.800  39.815  23.556  1.00  0.00    -0.001 A 
ATOM     14  C   UNL     1      -1.900  39.284  22.255  1.00  0.00     0.057 A 
ATOM     15  C   UNL     1      -1.351  38.982  24.600  1.00  0.00     0.012 A 
ATOM     16  C   UNL     1      -1.466  37.983  21.981  1.00  0.00     0.157 A 
ATOM     17  C   UNL     1      -0.929  37.676  24.333  1.00  0.00     0.050 A 
ATOM     18  C   UNL     1      -0.982  37.173  23.025  1.00  0.00     0.157 A 
BRANCH  16  19
ATOM     19  O   UNL     1      -1.536  37.511  20.669  1.00  0.00    -0.504 OA
ATOM     20  H   UNL     1      -2.426  37.393  20.188  1.00  0.00     0.293 HD
ENDBRANCH  16  19
BRANCH  18  21
ATOM     21  O   UNL     1      -0.563  35.868  22.758  1.00  0.00    -0.504 OA
ATOM     22  H   UNL     1      -0.096  35.628  21.889  1.00  0.00     0.293 HD
ENDBRANCH  18  21
ENDBRANCH   3  13
BRANCH   9  23
ATOM     23  O   UNL     1      -2.805  45.879  26.125  1.00  0.00    -0.507 OA
ATOM     24  H   UNL     1      -2.779  45.444  27.042  1.00  0.00     0.293 HD
ENDBRANCH   9  23
BRANCH   7  25
ATOM     25  O   UNL     1      -0.201  46.711  22.135  1.00  0.00    -0.508 OA
ATOM     26  H   UNL     1      -0.703  47.187  21.394  1.00  0.00     0.293 HD
ENDBRANCH   7  25
TORSDOF 6
ENDMDL
MODEL 9
REMARK VINA RESULT:    -0.025     18.978     19.792
REMARK INTER + INTRA:          -0.389
REMARK INTER:                  -0.573
REMARK INTRA:                   0.183
REMARK UNBOUND:                -0.359
REMARK SMILES Oc1cc(O)c2c(c1)O[C@@H](c1ccc(O)c(O)c1)[C@H](O)C2
REMARK SMILES IDX 21 1 19 2 10 3 9 4 7 5 8 6 2 7 3 8 4 9 6 10 20 11 11 13
REMARK SMILES IDX 18 14 12 15 16 16 13 17 14 18 17 19 15 21 5 23 1 25
REMARK H PARENT 20 12 17 20 15 22 5 24 1 26
REMARK Flexibility Score: inf
ROOT
ATOM      1  C   UNL     1      -0.681  31.850  16.304  1.00  0.00     0.079 C 
ATOM      2  C   UNL     1      -0.893  32.134  14.805  1.00  0.00     0.164 C 
ATOM      3  C   UNL     1      -2.101  33.087  14.635  1.00  0.00     0.232 C 
ATOM      4  O   UNL     1      -1.861  34.301  15.355  1.00  0.00    -0.482 OA
ATOM      5  C   UNL     1      -1.271  34.301  16.623  1.00  0.00     0.131 A 
ATOM      6  C   UNL     1      -1.280  35.484  17.373  1.00  0.00     0.093 A 
ATOM      7  C   UNL     1      -0.697  35.520  18.643  1.00  0.00     0.122 A 
ATOM      8  C   UNL     1      -0.105  34.363  19.167  1.00  0.00     0.092 A 
ATOM      9  C   UNL     1      -0.089  33.165  18.430  1.00  0.00     0.126 A 
ATOM     10  C   UNL     1      -0.652  33.132  17.129  1.00  0.00     0.039 A 
ENDROOT
BRANCH   2  11
ATOM     11  O   UNL     1      -1.129  30.930  14.113  1.00  0.00    -0.389 OA
ATOM     12  H   UNL     1      -2.012  30.594  14.423  1.00  0.00     0.211 HD
ENDBRANCH   2  11
BRANCH   3  13
ATOM     13  C   UNL     1      -2.410  33.413  13.186  1.00  0.00    -0.001 A 
ATOM     14  C   UNL     1      -2.614  32.395  12.233  1.00  0.00     0.057 A 
ATOM     15  C   UNL     1      -2.372  34.753  12.753  1.00  0.00     0.012 A 
ATOM     16  C   UNL     1      -2.878  32.712  10.897  1.00  0.00     0.157 A 
ATOM     17  C   UNL     1      -2.622  35.074  11.416  1.00  0.00     0.050 A 
ATOM     18  C   UNL     1      -2.877  34.058  10.484  1.00  0.00     0.157 A 
BRANCH  16  19
ATOM     19  O   UNL     1      -3.125  31.677   9.994  1.00  0.00    -0.504 OA
ATOM     20  H   UNL     1      -2.897  31.762   9.005  1.00  0.00     0.293 HD
ENDBRANCH  16  19
BRANCH  18  21
ATOM     21  O   UNL     1      -3.125  34.377   9.148  1.00  0.00    -0.504 OA
ATOM     22  H   UNL     1      -3.085  35.335   8.815  1.00  0.00     0.293 HD
ENDBRANCH  18  21
ENDBRANCH   3  13
BRANCH   9  23
ATOM     23  O   UNL     1       0.479  32.034  19.028  1.00  0.00    -0.507 OA
ATOM     24  H   UNL     1      -0.007  31.461  19.711  1.00  0.00     0.293 HD
ENDBRANCH   9  23
BRANCH   7  25
ATOM     25  O   UNL     1      -0.715  36.708  19.383  1.00  0.00    -0.508 OA
ATOM     26  H   UNL     1      -0.783  36.701  20.394  1.00  0.00     0.293 HD
ENDBRANCH   7  25
TORSDOF 6
ENDMDL
