MODEL 1
REMARK VINA RESULT:    66.981      0.000      0.000
REMARK INTER + INTRA:         100.625
REMARK INTER:                  98.306
REMARK INTRA:                   2.318
REMARK UNBOUND:                 2.318
REMARK SMILES CC(C)(O)CC[C@@H](O)[C@](C)(O)[C@@H]1CC[C@]2(O)C3=CC(=O)[C@H]4C[C@H](O)[C@H](O)C[C@@]4(C)[C@@H]3CC[C@@]12C
REMARK SMILES IDX 6 1 7 2 9 3 10 4 12 5 34 6 33 7 32 8 15 9 31 10 17 11 14 12
REMARK SMILES IDX 13 13 30 14 18 15 28 16 19 17 21 18 27 19 29 20 20 21 22 22
REMARK SMILES IDX 25 23 23 24 16 25 26 27 24 29 11 31 8 33 5 35 2 36 1 37 3 38
REMARK SMILES IDX 4 39
REMARK H PARENT 16 26 26 28 24 30 11 32 8 34 4 40
REMARK Flexibility Score: inf
ROOT
ATOM      1  C   UNL     1      79.419  21.136 102.784  1.00  0.00     0.038 C 
ENDROOT
BRANCH   1   2
ATOM      2  C   UNL     1      80.635  20.522 102.027  1.00  0.00     0.146 C 
BRANCH   2   3
ATOM      3  C   UNL     1      80.778  18.937 102.012  1.00  0.00     0.091 C 
ATOM      4  C   UNL     1      82.100  18.526 101.312  1.00  0.00     0.045 C 
BRANCH   3   5
ATOM      5  C   UNL     1      80.595  18.334 103.480  1.00  0.00     0.032 C 
ATOM      6  C   UNL     1      83.099  18.281 104.077  1.00  0.00     0.015 C 
ATOM      7  C   UNL     1      81.746  17.506 104.150  1.00  0.00     0.006 C 
ATOM      8  C   UNL     1      81.975  16.064 103.605  1.00  0.00     0.011 C 
ATOM      9  C   UNL     1      81.205  17.385 105.603  1.00  0.00     0.092 C 
ATOM     10  C   UNL     1      82.942  15.241 104.505  1.00  0.00     0.009 C 
ATOM     11  C   UNL     1      82.254  16.675 106.448  1.00  0.00    -0.031 C 
ATOM     12  C   UNL     1      80.766  18.818 105.920  1.00  0.00     0.041 C 
ATOM     13  C   UNL     1      80.133  19.310 104.605  1.00  0.00     0.010 C 
ATOM     14  C   UNL     1      82.527  15.239 106.008  1.00  0.00     0.025 C 
ATOM     15  C   UNL     1      83.071  17.328 107.286  1.00  0.00     0.050 C 
ATOM     16  C   UNL     1      83.474  14.445 106.997  1.00  0.00    -0.013 C 
ATOM     17  C   UNL     1      84.316  16.728 107.773  1.00  0.00     0.159 C 
ATOM     18  C   UNL     1      84.714  15.315 107.390  1.00  0.00     0.070 C 
ATOM     19  C   UNL     1      82.644  14.087 108.277  1.00  0.00     0.042 C 
ATOM     20  C   UNL     1      83.943  13.133 106.308  1.00  0.00     0.013 C 
ATOM     21  O   UNL     1      85.113  17.449 108.429  1.00  0.00    -0.295 OA
ATOM     22  C   UNL     1      85.539  14.654 108.522  1.00  0.00     0.047 C 
ATOM     23  C   UNL     1      83.457  13.522 109.467  1.00  0.00     0.143 C 
ATOM     24  C   UNL     1      84.682  14.400 109.778  1.00  0.00     0.143 C 
BRANCH   9  25
ATOM     25  O   UNL     1      80.036  16.589 105.612  1.00  0.00    -0.385 OA
ATOM     26  H   UNL     1      79.511  16.813 104.797  1.00  0.00     0.211 HD
ENDBRANCH   9  25
BRANCH  23  27
ATOM     27  O   UNL     1      83.850  12.194 109.229  1.00  0.00    -0.390 OA
ATOM     28  H   UNL     1      83.023  11.645 109.214  1.00  0.00     0.211 HD
ENDBRANCH  23  27
BRANCH  24  29
ATOM     29  O   UNL     1      85.455  13.839 110.812  1.00  0.00    -0.390 OA
ATOM     30  H   UNL     1      86.142  13.255 110.400  1.00  0.00     0.211 HD
ENDBRANCH  24  29
ENDBRANCH   3   5
BRANCH   3  31
ATOM     31  O   UNL     1      79.741  18.427 101.205  1.00  0.00    -0.387 OA
ATOM     32  H   UNL     1      79.117  19.171 100.998  1.00  0.00     0.211 HD
ENDBRANCH   3  31
ENDBRANCH   2   3
BRANCH   2  33
ATOM     33  O   UNL     1      81.833  21.166 102.399  1.00  0.00    -0.390 OA
ATOM     34  H   UNL     1      81.829  22.084 102.023  1.00  0.00     0.211 HD
ENDBRANCH   2  33
ENDBRANCH   1   2
BRANCH   1  35
ATOM     35  C   UNL     1      79.751  22.236 103.821  1.00  0.00     0.037 C 
BRANCH  35  36
ATOM     36  C   UNL     1      78.828  22.211 105.070  1.00  0.00     0.059 C 
ATOM     37  C   UNL     1      77.876  23.428 105.093  1.00  0.00     0.042 C 
ATOM     38  C   UNL     1      77.992  20.915 105.038  1.00  0.00     0.042 C 
BRANCH  36  39
ATOM     39  O   UNL     1      79.634  22.213 106.226  1.00  0.00    -0.390 OA
ATOM     40  H   UNL     1      79.818  21.269 106.480  1.00  0.00     0.211 HD
ENDBRANCH  36  39
ENDBRANCH  35  36
ENDBRANCH   1  35
TORSDOF 11
ENDMDL
MODEL 2
REMARK VINA RESULT:    68.194      1.691      2.197
REMARK INTER + INTRA:         102.405
REMARK INTER:                 102.745
REMARK INTRA:                  -0.341
REMARK UNBOUND:                 2.318
REMARK SMILES CC(C)(O)CC[C@@H](O)[C@](C)(O)[C@@H]1CC[C@]2(O)C3=CC(=O)[C@H]4C[C@H](O)[C@H](O)C[C@@]4(C)[C@@H]3CC[C@@]12C
REMARK SMILES IDX 6 1 7 2 9 3 10 4 12 5 34 6 33 7 32 8 15 9 31 10 17 11 14 12
REMARK SMILES IDX 13 13 30 14 18 15 28 16 19 17 21 18 27 19 29 20 20 21 22 22
REMARK SMILES IDX 25 23 23 24 16 25 26 27 24 29 11 31 8 33 5 35 2 36 1 37 3 38
REMARK SMILES IDX 4 39
REMARK H PARENT 16 26 26 28 24 30 11 32 8 34 4 40
REMARK Flexibility Score: inf
ROOT
ATOM      1  C   UNL     1      81.521  22.275 102.512  1.00  0.00     0.038 C 
ENDROOT
BRANCH   1   2
ATOM      2  C   UNL     1      80.231  21.403 102.573  1.00  0.00     0.146 C 
BRANCH   2   3
ATOM      3  C   UNL     1      80.389  19.830 102.393  1.00  0.00     0.091 C 
ATOM      4  C   UNL     1      81.699  19.508 101.628  1.00  0.00     0.045 C 
BRANCH   3   5
ATOM      5  C   UNL     1      80.243  19.077 103.795  1.00  0.00     0.032 C 
ATOM      6  C   UNL     1      82.762  18.948 104.309  1.00  0.00     0.015 C 
ATOM      7  C   UNL     1      81.406  18.177 104.340  1.00  0.00     0.006 C 
ATOM      8  C   UNL     1      81.606  16.799 103.641  1.00  0.00     0.011 C 
ATOM      9  C   UNL     1      80.906  17.908 105.788  1.00  0.00     0.092 C 
ATOM     10  C   UNL     1      82.591  15.881 104.421  1.00  0.00     0.009 C 
ATOM     11  C   UNL     1      81.972  17.107 106.522  1.00  0.00    -0.031 C 
ATOM     12  C   UNL     1      80.488  19.303 106.266  1.00  0.00     0.041 C 
ATOM     13  C   UNL     1      79.822  19.932 105.028  1.00  0.00     0.010 C 
ATOM     14  C   UNL     1      82.220  15.724 105.927  1.00  0.00     0.025 C 
ATOM     15  C   UNL     1      82.819  17.664 107.400  1.00  0.00     0.050 C 
ATOM     16  C   UNL     1      83.189  14.825 106.799  1.00  0.00    -0.013 C 
ATOM     17  C   UNL     1      84.072  17.009 107.784  1.00  0.00     0.159 C 
ATOM     18  C   UNL     1      84.446  15.643 107.244  1.00  0.00     0.070 C 
ATOM     19  C   UNL     1      82.393  14.340 108.059  1.00  0.00     0.042 C 
ATOM     20  C   UNL     1      83.626  13.590 105.963  1.00  0.00     0.013 C 
ATOM     21  O   UNL     1      84.894  17.653 108.488  1.00  0.00    -0.295 OA
ATOM     22  C   UNL     1      85.298  14.862 108.276  1.00  0.00     0.047 C 
ATOM     23  C   UNL     1      83.235  13.648 109.158  1.00  0.00     0.143 C 
ATOM     24  C   UNL     1      84.476  14.482 109.524  1.00  0.00     0.143 C 
BRANCH   9  25
ATOM     25  O   UNL     1      79.730  17.122 105.748  1.00  0.00    -0.385 OA
ATOM     26  H   UNL     1      79.555  16.887 104.798  1.00  0.00     0.211 HD
ENDBRANCH   9  25
BRANCH  23  27
ATOM     27  O   UNL     1      83.609  12.351 108.771  1.00  0.00    -0.390 OA
ATOM     28  H   UNL     1      83.286  12.220 107.842  1.00  0.00     0.211 HD
ENDBRANCH  23  27
BRANCH  24  29
ATOM     29  O   UNL     1      85.273  13.812 110.469  1.00  0.00    -0.390 OA
ATOM     30  H   UNL     1      84.916  14.015 111.372  1.00  0.00     0.211 HD
ENDBRANCH  24  29
ENDBRANCH   3   5
BRANCH   3  31
ATOM     31  O   UNL     1      79.340  19.393 101.559  1.00  0.00    -0.387 OA
ATOM     32  H   UNL     1      78.953  20.188 101.107  1.00  0.00     0.211 HD
ENDBRANCH   3  31
ENDBRANCH   2   3
BRANCH   2  33
ATOM     33  O   UNL     1      79.224  21.940 101.746  1.00  0.00    -0.390 OA
ATOM     34  H   UNL     1      78.515  21.257 101.626  1.00  0.00     0.211 HD
ENDBRANCH   2  33
ENDBRANCH   1   2
BRANCH   1  35
ATOM     35  C   UNL     1      81.744  23.241 103.701  1.00  0.00     0.037 C 
BRANCH  35  36
ATOM     36  C   UNL     1      83.000  24.141 103.543  1.00  0.00     0.059 C 
ATOM     37  C   UNL     1      82.850  25.462 104.333  1.00  0.00     0.042 C 
ATOM     38  C   UNL     1      84.227  23.370 104.075  1.00  0.00     0.042 C 
BRANCH  36  39
ATOM     39  O   UNL     1      83.186  24.420 102.175  1.00  0.00    -0.390 OA
ATOM     40  H   UNL     1      83.691  23.665 101.769  1.00  0.00     0.211 HD
ENDBRANCH  36  39
ENDBRANCH  35  36
ENDBRANCH   1  35
TORSDOF 11
ENDMDL
