MODEL 1
REMARK VINA RESULT:    -5.787      0.000      0.000
REMARK INTER + INTRA:          -5.787
REMARK INTER:                  -5.787
REMARK INTRA:                   0.000
REMARK UNBOUND:                 0.000
REMARK SMILES O=c1ccc2ccccc2o1
REMARK SMILES IDX 7 1 8 2 9 3 10 4 5 5 6 6 4 7 3 8 2 9 1 10 11 11
REMARK H PARENT
REMARK Flexibility Score: inf
ROOT
ATOM      1  C   UNL     1       6.264   5.916  10.103  1.00  0.00     0.001 A 
ATOM      2  C   UNL     1       7.239   6.119  11.085  1.00  0.00     0.004 A 
ATOM      3  C   UNL     1       8.014   5.047  11.540  1.00  0.00     0.048 A 
ATOM      4  C   UNL     1       7.815   3.766  11.012  1.00  0.00     0.138 A 
ATOM      5  C   UNL     1       6.830   3.561  10.020  1.00  0.00     0.018 A 
ATOM      6  C   UNL     1       6.058   4.640   9.568  1.00  0.00     0.012 A 
ATOM      7  C   UNL     1       6.655   2.270   9.512  1.00  0.00     0.019 A 
ATOM      8  C   UNL     1       7.450   1.231   9.995  1.00  0.00     0.094 A 
ATOM      9  C   UNL     1       8.405   1.508  10.979  1.00  0.00     0.336 A 
ATOM     10  O   UNL     1       9.132   0.583  11.427  1.00  0.00    -0.246 OA
ATOM     11  O   UNL     1       8.552   2.746  11.446  1.00  0.00    -0.423 OA
ENDROOT
TORSDOF 0
ENDMDL
MODEL 2
REMARK VINA RESULT:    -5.453      1.394      2.220
REMARK INTER + INTRA:          -5.453
REMARK INTER:                  -5.453
REMARK INTRA:                   0.000
REMARK UNBOUND:                 0.000
REMARK SMILES O=c1ccc2ccccc2o1
REMARK SMILES IDX 7 1 8 2 9 3 10 4 5 5 6 6 4 7 3 8 2 9 1 10 11 11
REMARK H PARENT
REMARK Flexibility Score: inf
ROOT
ATOM      1  C   UNL     1       7.301   6.371  11.116  1.00  0.00     0.001 A 
ATOM      2  C   UNL     1       6.272   6.254  10.176  1.00  0.00     0.004 A 
ATOM      3  C   UNL     1       5.963   5.008   9.622  1.00  0.00     0.048 A 
ATOM      4  C   UNL     1       6.684   3.872  10.007  1.00  0.00     0.138 A 
ATOM      5  C   UNL     1       7.724   3.990  10.957  1.00  0.00     0.018 A 
ATOM      6  C   UNL     1       8.028   5.242  11.509  1.00  0.00     0.012 A 
ATOM      7  C   UNL     1       8.426   2.837  11.322  1.00  0.00     0.019 A 
ATOM      8  C   UNL     1       8.084   1.615  10.744  1.00  0.00     0.094 A 
ATOM      9  C   UNL     1       7.043   1.574   9.810  1.00  0.00     0.336 A 
ATOM     10  O   UNL     1       6.720   0.481   9.277  1.00  0.00    -0.246 OA
ATOM     11  O   UNL     1       6.390   2.686   9.479  1.00  0.00    -0.423 OA
ENDROOT
TORSDOF 0
ENDMDL
MODEL 3
REMARK VINA RESULT:    -5.095     17.546     18.900
REMARK INTER + INTRA:          -5.095
REMARK INTER:                  -5.095
REMARK INTRA:                   0.000
REMARK UNBOUND:                 0.000
REMARK SMILES O=c1ccc2ccccc2o1
REMARK SMILES IDX 7 1 8 2 9 3 10 4 5 5 6 6 4 7 3 8 2 9 1 10 11 11
REMARK H PARENT
REMARK Flexibility Score: inf
ROOT
ATOM      1  C   UNL     1      18.123  -7.049  20.125  1.00  0.00     0.001 A 
ATOM      2  C   UNL     1      18.745  -6.301  19.119  1.00  0.00     0.004 A 
ATOM      3  C   UNL     1      19.466  -6.945  18.107  1.00  0.00     0.048 A 
ATOM      4  C   UNL     1      19.566  -8.341  18.098  1.00  0.00     0.138 A 
ATOM      5  C   UNL     1      18.938  -9.095  19.114  1.00  0.00     0.018 A 
ATOM      6  C   UNL     1      18.217  -8.444  20.125  1.00  0.00     0.012 A 
ATOM      7  C   UNL     1      19.056 -10.489  19.079  1.00  0.00     0.019 A 
ATOM      8  C   UNL     1      19.784 -11.088  18.052  1.00  0.00     0.094 A 
ATOM      9  C   UNL     1      20.380 -10.277  17.079  1.00  0.00     0.336 A 
ATOM     10  O   UNL     1      21.041 -10.799  16.145  1.00  0.00    -0.246 OA
ATOM     11  O   UNL     1      20.252  -8.953  17.136  1.00  0.00    -0.423 OA
ENDROOT
TORSDOF 0
ENDMDL
MODEL 4
REMARK VINA RESULT:    -5.038      1.551      3.814
REMARK INTER + INTRA:          -5.038
REMARK INTER:                  -5.038
REMARK INTRA:                   0.000
REMARK UNBOUND:                 0.000
REMARK SMILES O=c1ccc2ccccc2o1
REMARK SMILES IDX 7 1 8 2 9 3 10 4 5 5 6 6 4 7 3 8 2 9 1 10 11 11
REMARK H PARENT
REMARK Flexibility Score: inf
ROOT
ATOM      1  C   UNL     1       7.420   0.990  10.068  1.00  0.00     0.001 A 
ATOM      2  C   UNL     1       8.400   1.265  11.029  1.00  0.00     0.004 A 
ATOM      3  C   UNL     1       8.600   2.576  11.474  1.00  0.00     0.048 A 
ATOM      4  C   UNL     1       7.820   3.618  10.959  1.00  0.00     0.138 A 
ATOM      5  C   UNL     1       6.831   3.339   9.989  1.00  0.00     0.018 A 
ATOM      6  C   UNL     1       6.635   2.023   9.548  1.00  0.00     0.012 A 
ATOM      7  C   UNL     1       6.067   4.401   9.493  1.00  0.00     0.019 A 
ATOM      8  C   UNL     1       6.301   5.691   9.966  1.00  0.00     0.094 A 
ATOM      9  C   UNL     1       7.297   5.892  10.927  1.00  0.00     0.336 A 
ATOM     10  O   UNL     1       7.524   7.050  11.365  1.00  0.00    -0.246 OA
ATOM     11  O   UNL     1       8.011   4.865  11.383  1.00  0.00    -0.423 OA
ENDROOT
TORSDOF 0
ENDMDL
MODEL 5
REMARK VINA RESULT:    -5.001     17.375     19.023
REMARK INTER + INTRA:          -5.001
REMARK INTER:                  -5.001
REMARK INTRA:                   0.000
REMARK UNBOUND:                 0.000
REMARK SMILES O=c1ccc2ccccc2o1
REMARK SMILES IDX 7 1 8 2 9 3 10 4 5 5 6 6 4 7 3 8 2 9 1 10 11 11
REMARK H PARENT
REMARK Flexibility Score: inf
ROOT
ATOM      1  C   UNL     1      19.786 -11.125  18.230  1.00  0.00     0.001 A 
ATOM      2  C   UNL     1      20.583 -10.444  17.303  1.00  0.00     0.004 A 
ATOM      3  C   UNL     1      20.610  -9.046  17.291  1.00  0.00     0.048 A 
ATOM      4  C   UNL     1      19.840  -8.322  18.209  1.00  0.00     0.138 A 
ATOM      5  C   UNL     1      19.036  -9.010  19.146  1.00  0.00     0.018 A 
ATOM      6  C   UNL     1      19.013 -10.412  19.152  1.00  0.00     0.012 A 
ATOM      7  C   UNL     1      18.277  -8.260  20.050  1.00  0.00     0.019 A 
ATOM      8  C   UNL     1      18.336  -6.868  20.002  1.00  0.00     0.094 A 
ATOM      9  C   UNL     1      19.154  -6.255  19.048  1.00  0.00     0.336 A 
ATOM     10  O   UNL     1      19.220  -5.000  18.989  1.00  0.00    -0.246 OA
ATOM     11  O   UNL     1      19.866  -6.992  18.198  1.00  0.00    -0.423 OA
ENDROOT
TORSDOF 0
ENDMDL
MODEL 6
REMARK VINA RESULT:    -4.627      7.409      9.157
REMARK INTER + INTRA:          -4.627
REMARK INTER:                  -4.627
REMARK INTRA:                   0.000
REMARK UNBOUND:                 0.000
REMARK SMILES O=c1ccc2ccccc2o1
REMARK SMILES IDX 7 1 8 2 9 3 10 4 5 5 6 6 4 7 3 8 2 9 1 10 11 11
REMARK H PARENT
REMARK Flexibility Score: inf
ROOT
ATOM      1  C   UNL     1       9.337  -2.592  19.623  1.00  0.00     0.001 A 
ATOM      2  C   UNL     1      10.436  -1.765  19.365  1.00  0.00     0.004 A 
ATOM      3  C   UNL     1      10.782  -1.445  18.048  1.00  0.00     0.048 A 
ATOM      4  C   UNL     1      10.028  -1.951  16.983  1.00  0.00     0.138 A 
ATOM      5  C   UNL     1       8.918  -2.787  17.244  1.00  0.00     0.018 A 
ATOM      6  C   UNL     1       8.577  -3.103  18.566  1.00  0.00     0.012 A 
ATOM      7  C   UNL     1       8.184  -3.277  16.159  1.00  0.00     0.019 A 
ATOM      8  C   UNL     1       8.565  -2.932  14.863  1.00  0.00     0.094 A 
ATOM      9  C   UNL     1       9.676  -2.101  14.680  1.00  0.00     0.336 A 
ATOM     10  O   UNL     1      10.035  -1.778  13.518  1.00  0.00    -0.246 OA
ATOM     11  O   UNL     1      10.357  -1.647  15.730  1.00  0.00    -0.423 OA
ENDROOT
TORSDOF 0
ENDMDL
MODEL 7
REMARK VINA RESULT:    -4.512      8.007      9.598
REMARK INTER + INTRA:          -4.512
REMARK INTER:                  -4.512
REMARK INTRA:                   0.000
REMARK UNBOUND:                 0.000
REMARK SMILES O=c1ccc2ccccc2o1
REMARK SMILES IDX 7 1 8 2 9 3 10 4 5 5 6 6 4 7 3 8 2 9 1 10 11 11
REMARK H PARENT
REMARK Flexibility Score: inf
ROOT
ATOM      1  C   UNL     1       8.147  -3.145  15.921  1.00  0.00     0.001 A 
ATOM      2  C   UNL     1       8.992  -2.544  14.981  1.00  0.00     0.004 A 
ATOM      3  C   UNL     1      10.146  -1.874  15.399  1.00  0.00     0.048 A 
ATOM      4  C   UNL     1      10.460  -1.803  16.762  1.00  0.00     0.138 A 
ATOM      5  C   UNL     1       9.607  -2.410  17.711  1.00  0.00     0.018 A 
ATOM      6  C   UNL     1       8.452  -3.080  17.285  1.00  0.00     0.012 A 
ATOM      7  C   UNL     1       9.947  -2.322  19.064  1.00  0.00     0.019 A 
ATOM      8  C   UNL     1      11.107  -1.644  19.436  1.00  0.00     0.094 A 
ATOM      9  C   UNL     1      11.904  -1.066  18.441  1.00  0.00     0.336 A 
ATOM     10  O   UNL     1      12.954  -0.450  18.757  1.00  0.00    -0.246 OA
ATOM     11  O   UNL     1      11.558  -1.164  17.159  1.00  0.00    -0.423 OA
ENDROOT
TORSDOF 0
ENDMDL
MODEL 8
REMARK VINA RESULT:    -4.363     16.286     17.057
REMARK INTER + INTRA:          -4.363
REMARK INTER:                  -4.363
REMARK INTRA:                   0.000
REMARK UNBOUND:                 0.000
REMARK SMILES O=c1ccc2ccccc2o1
REMARK SMILES IDX 7 1 8 2 9 3 10 4 5 5 6 6 4 7 3 8 2 9 1 10 11 11
REMARK H PARENT
REMARK Flexibility Score: inf
ROOT
ATOM      1  C   UNL     1      19.447  -3.314  19.435  1.00  0.00     0.001 A 
ATOM      2  C   UNL     1      19.856  -3.437  18.102  1.00  0.00     0.004 A 
ATOM      3  C   UNL     1      19.763  -4.671  17.449  1.00  0.00     0.048 A 
ATOM      4  C   UNL     1      19.259  -5.787  18.128  1.00  0.00     0.138 A 
ATOM      5  C   UNL     1      18.846  -5.661  19.473  1.00  0.00     0.018 A 
ATOM      6  C   UNL     1      18.942  -4.422  20.122  1.00  0.00     0.012 A 
ATOM      7  C   UNL     1      18.347  -6.794  20.125  1.00  0.00     0.019 A 
ATOM      8  C   UNL     1      18.272  -8.003  19.435  1.00  0.00     0.094 A 
ATOM      9  C   UNL     1      18.700  -8.053  18.104  1.00  0.00     0.336 A 
ATOM     10  O   UNL     1      18.641  -9.135  17.464  1.00  0.00    -0.246 OA
ATOM     11  O   UNL     1      19.171  -6.960  17.506  1.00  0.00    -0.423 OA
ENDROOT
TORSDOF 0
ENDMDL
