MODEL 1
REMARK VINA RESULT:    -3.377      0.000      0.000
REMARK INTER + INTRA:          -7.956
REMARK INTER:                  -5.845
REMARK INTRA:                  -2.112
REMARK UNBOUND:                -2.112
REMARK SMILES CCCCCCCCCCCCCCO
REMARK SMILES IDX 8 1 7 2 6 3 5 4 4 5 3 6 2 7 1 8 9 9 10 10 11 11 12 12 13 13
REMARK SMILES IDX 14 14 15 15
REMARK H PARENT 15 16
REMARK Flexibility Score: inf
ROOT
ATOM      1  C   UNL     1     172.021 173.025 163.412  1.00  0.00     0.000 C 
ENDROOT
BRANCH   1   2
ATOM      2  C   UNL     1     172.195 171.496 163.403  1.00  0.00    -0.000 C 
BRANCH   2   3
ATOM      3  C   UNL     1     171.673 170.833 164.688  1.00  0.00    -0.000 C 
BRANCH   3   4
ATOM      4  C   UNL     1     170.138 170.853 164.782  1.00  0.00    -0.000 C 
BRANCH   4   5
ATOM      5  C   UNL     1     169.477 169.806 163.870  1.00  0.00    -0.000 C 
BRANCH   5   6
ATOM      6  C   UNL     1     168.179 170.317 163.222  1.00  0.00    -0.000 C 
BRANCH   6   7
ATOM      7  C   UNL     1     168.341 170.592 161.719  1.00  0.00    -0.003 C 
ATOM      8  C   UNL     1     169.629 170.004 161.147  1.00  0.00     0.004 C 
ENDBRANCH   6   7
ENDBRANCH   5   6
ENDBRANCH   4   5
ENDBRANCH   3   4
ENDBRANCH   2   3
ENDBRANCH   1   2
BRANCH   1   9
ATOM      9  C   UNL     1     171.435 173.557 162.095  1.00  0.00     0.000 C 
BRANCH   9  10
ATOM     10  C   UNL     1     169.925 173.834 162.192  1.00  0.00     0.000 C 
BRANCH  10  11
ATOM     11  C   UNL     1     169.480 174.201 163.617  1.00  0.00     0.000 C 
BRANCH  11  12
ATOM     12  C   UNL     1     167.973 173.983 163.839  1.00  0.00     0.002 C 
BRANCH  12  13
ATOM     13  C   UNL     1     167.165 174.090 162.535  1.00  0.00     0.028 C 
BRANCH  13  14
ATOM     14  C   UNL     1     165.887 173.243 162.557  1.00  0.00     0.156 C 
BRANCH  14  15
ATOM     15  O   UNL     1     164.760 174.064 162.410  1.00  0.00    -0.396 OA
ATOM     16  H   UNL     1     164.991 174.939 162.821  1.00  0.00     0.210 HD
ENDBRANCH  14  15
ENDBRANCH  13  14
ENDBRANCH  12  13
ENDBRANCH  11  12
ENDBRANCH  10  11
ENDBRANCH   9  10
ENDBRANCH   1   9
TORSDOF 13
ENDMDL
MODEL 2
REMARK VINA RESULT:    -3.267      3.188      5.409
REMARK INTER + INTRA:          -7.767
REMARK INTER:                  -6.165
REMARK INTRA:                  -1.602
REMARK UNBOUND:                -2.112
REMARK SMILES CCCCCCCCCCCCCCO
REMARK SMILES IDX 8 1 7 2 6 3 5 4 4 5 3 6 2 7 1 8 9 9 10 10 11 11 12 12 13 13
REMARK SMILES IDX 14 14 15 15
REMARK H PARENT 15 16
REMARK Flexibility Score: inf
ROOT
ATOM      1  C   UNL     1     170.272 169.267 163.941  1.00  0.00     0.000 C 
ENDROOT
BRANCH   1   2
ATOM      2  C   UNL     1     168.998 169.423 163.092  1.00  0.00    -0.000 C 
BRANCH   2   3
ATOM      3  C   UNL     1     169.250 170.183 161.780  1.00  0.00    -0.000 C 
BRANCH   3   4
ATOM      4  C   UNL     1     168.489 171.517 161.714  1.00  0.00    -0.000 C 
BRANCH   4   5
ATOM      5  C   UNL     1     167.631 171.770 162.964  1.00  0.00    -0.000 C 
BRANCH   5   6
ATOM      6  C   UNL     1     167.465 173.267 163.278  1.00  0.00    -0.000 C 
BRANCH   6   7
ATOM      7  C   UNL     1     168.751 173.899 163.831  1.00  0.00    -0.003 C 
ATOM      8  C   UNL     1     169.382 174.898 162.862  1.00  0.00     0.004 C 
ENDBRANCH   6   7
ENDBRANCH   5   6
ENDBRANCH   4   5
ENDBRANCH   3   4
ENDBRANCH   2   3
ENDBRANCH   1   2
BRANCH   1   9
ATOM      9  C   UNL     1     170.631 170.552 164.704  1.00  0.00     0.000 C 
BRANCH   9  10
ATOM     10  C   UNL     1     172.029 171.083 164.337  1.00  0.00     0.000 C 
BRANCH  10  11
ATOM     11  C   UNL     1     171.980 172.468 163.670  1.00  0.00     0.000 C 
BRANCH  11  12
ATOM     12  C   UNL     1     172.432 172.429 162.199  1.00  0.00     0.002 C 
BRANCH  12  13
ATOM     13  C   UNL     1     173.921 172.772 162.031  1.00  0.00     0.028 C 
BRANCH  13  14
ATOM     14  C   UNL     1     174.648 171.814 161.080  1.00  0.00     0.156 C 
BRANCH  14  15
ATOM     15  O   UNL     1     175.401 170.886 161.813  1.00  0.00    -0.396 OA
ATOM     16  H   UNL     1     175.526 170.095 161.226  1.00  0.00     0.210 HD
ENDBRANCH  14  15
ENDBRANCH  13  14
ENDBRANCH  12  13
ENDBRANCH  11  12
ENDBRANCH  10  11
ENDBRANCH   9  10
ENDBRANCH   1   9
TORSDOF 13
ENDMDL
MODEL 3
REMARK VINA RESULT:    -3.249      2.131      3.583
REMARK INTER + INTRA:          -7.735
REMARK INTER:                  -5.845
REMARK INTRA:                  -1.890
REMARK UNBOUND:                -2.112
REMARK SMILES CCCCCCCCCCCCCCO
REMARK SMILES IDX 8 1 7 2 6 3 5 4 4 5 3 6 2 7 1 8 9 9 10 10 11 11 12 12 13 13
REMARK SMILES IDX 14 14 15 15
REMARK H PARENT 15 16
REMARK Flexibility Score: inf
ROOT
ATOM      1  C   UNL     1     169.086 169.742 162.917  1.00  0.00     0.000 C 
ENDROOT
BRANCH   1   2
ATOM      2  C   UNL     1     170.163 169.392 163.959  1.00  0.00    -0.000 C 
BRANCH   2   3
ATOM      3  C   UNL     1     170.637 170.619 164.756  1.00  0.00    -0.000 C 
BRANCH   3   4
ATOM      4  C   UNL     1     172.013 171.128 164.294  1.00  0.00    -0.000 C 
BRANCH   4   5
ATOM      5  C   UNL     1     171.909 172.335 163.348  1.00  0.00    -0.000 C 
BRANCH   5   6
ATOM      6  C   UNL     1     172.338 172.000 161.909  1.00  0.00    -0.000 C 
BRANCH   6   7
ATOM      7  C   UNL     1     171.173 172.095 160.911  1.00  0.00    -0.003 C 
ATOM      8  C   UNL     1     171.058 170.861 160.019  1.00  0.00     0.004 C 
ENDBRANCH   6   7
ENDBRANCH   5   6
ENDBRANCH   4   5
ENDBRANCH   3   4
ENDBRANCH   2   3
ENDBRANCH   1   2
BRANCH   1   9
ATOM      9  C   UNL     1     168.052 170.745 163.454  1.00  0.00     0.000 C 
BRANCH   9  10
ATOM     10  C   UNL     1     167.840 171.936 162.503  1.00  0.00     0.000 C 
BRANCH  10  11
ATOM     11  C   UNL     1     167.571 173.252 163.252  1.00  0.00     0.000 C 
BRANCH  11  12
ATOM     12  C   UNL     1     168.840 174.103 163.422  1.00  0.00     0.002 C 
BRANCH  12  13
ATOM     13  C   UNL     1     168.942 175.225 162.376  1.00  0.00     0.028 C 
BRANCH  13  14
ATOM     14  C   UNL     1     170.380 175.467 161.901  1.00  0.00     0.156 C 
BRANCH  14  15
ATOM     15  O   UNL     1     171.180 175.878 162.975  1.00  0.00    -0.396 OA
ATOM     16  H   UNL     1     170.684 175.647 163.804  1.00  0.00     0.210 HD
ENDBRANCH  14  15
ENDBRANCH  13  14
ENDBRANCH  12  13
ENDBRANCH  11  12
ENDBRANCH  10  11
ENDBRANCH   9  10
ENDBRANCH   1   9
TORSDOF 13
ENDMDL
MODEL 4
REMARK VINA RESULT:    -3.246      0.802      1.356
REMARK INTER + INTRA:          -7.730
REMARK INTER:                  -5.698
REMARK INTRA:                  -2.031
REMARK UNBOUND:                -2.112
REMARK SMILES CCCCCCCCCCCCCCO
REMARK SMILES IDX 8 1 7 2 6 3 5 4 4 5 3 6 2 7 1 8 9 9 10 10 11 11 12 12 13 13
REMARK SMILES IDX 14 14 15 15
REMARK H PARENT 15 16
REMARK Flexibility Score: inf
ROOT
ATOM      1  C   UNL     1     171.453 173.601 162.964  1.00  0.00     0.000 C 
ENDROOT
BRANCH   1   2
ATOM      2  C   UNL     1     171.908 172.140 162.796  1.00  0.00    -0.000 C 
BRANCH   2   3
ATOM      3  C   UNL     1     172.089 171.418 164.141  1.00  0.00    -0.000 C 
BRANCH   3   4
ATOM      4  C   UNL     1     171.092 170.263 164.331  1.00  0.00    -0.000 C 
BRANCH   4   5
ATOM      5  C   UNL     1     169.712 170.747 164.807  1.00  0.00    -0.000 C 
BRANCH   5   6
ATOM      6  C   UNL     1     168.597 170.458 163.787  1.00  0.00    -0.000 C 
BRANCH   6   7
ATOM      7  C   UNL     1     169.108 169.691 162.558  1.00  0.00    -0.003 C 
ATOM      8  C   UNL     1     168.950 170.482 161.260  1.00  0.00     0.004 C 
ENDBRANCH   6   7
ENDBRANCH   5   6
ENDBRANCH   4   5
ENDBRANCH   3   4
ENDBRANCH   2   3
ENDBRANCH   1   2
BRANCH   1   9
ATOM      9  C   UNL     1     169.960 173.791 162.653  1.00  0.00     0.000 C 
BRANCH   9  10
ATOM     10  C   UNL     1     169.144 174.174 163.900  1.00  0.00     0.000 C 
BRANCH  10  11
ATOM     11  C   UNL     1     167.629 174.016 163.688  1.00  0.00     0.000 C 
BRANCH  11  12
ATOM     12  C   UNL     1     167.273 173.646 162.238  1.00  0.00     0.002 C 
BRANCH  12  13
ATOM     13  C   UNL     1     166.050 172.718 162.150  1.00  0.00     0.028 C 
BRANCH  13  14
ATOM     14  C   UNL     1     164.799 173.431 161.621  1.00  0.00     0.156 C 
BRANCH  14  15
ATOM     15  O   UNL     1     164.438 174.476 162.483  1.00  0.00    -0.396 OA
ATOM     16  H   UNL     1     163.502 174.719 162.258  1.00  0.00     0.210 HD
ENDBRANCH  14  15
ENDBRANCH  13  14
ENDBRANCH  12  13
ENDBRANCH  11  12
ENDBRANCH  10  11
ENDBRANCH   9  10
ENDBRANCH   1   9
TORSDOF 13
ENDMDL
MODEL 5
REMARK VINA RESULT:    -3.227      2.729      5.024
REMARK INTER + INTRA:          -7.696
REMARK INTER:                  -5.744
REMARK INTRA:                  -1.953
REMARK UNBOUND:                -2.112
REMARK SMILES CCCCCCCCCCCCCCO
REMARK SMILES IDX 8 1 7 2 6 3 5 4 4 5 3 6 2 7 1 8 9 9 10 10 11 11 12 12 13 13
REMARK SMILES IDX 14 14 15 15
REMARK H PARENT 15 16
REMARK Flexibility Score: inf
ROOT
ATOM      1  C   UNL     1     171.422 171.021 164.534  1.00  0.00     0.000 C 
ENDROOT
BRANCH   1   2
ATOM      2  C   UNL     1     172.412 171.522 163.467  1.00  0.00    -0.000 C 
BRANCH   2   3
ATOM      3  C   UNL     1     172.123 172.964 163.021  1.00  0.00    -0.000 C 
BRANCH   3   4
ATOM      4  C   UNL     1     171.338 173.028 161.700  1.00  0.00    -0.000 C 
BRANCH   4   5
ATOM      5  C   UNL     1     169.914 173.576 161.886  1.00  0.00    -0.000 C 
BRANCH   5   6
ATOM      6  C   UNL     1     169.756 174.396 163.178  1.00  0.00    -0.000 C 
BRANCH   6   7
ATOM      7  C   UNL     1     168.651 173.845 164.093  1.00  0.00    -0.003 C 
ATOM      8  C   UNL     1     167.329 173.631 163.360  1.00  0.00     0.004 C 
ENDBRANCH   6   7
ENDBRANCH   5   6
ENDBRANCH   4   5
ENDBRANCH   3   4
ENDBRANCH   2   3
ENDBRANCH   1   2
BRANCH   1   9
ATOM      9  C   UNL     1     170.548 169.863 164.028  1.00  0.00     0.000 C 
BRANCH   9  10
ATOM     10  C   UNL     1     169.101 170.301 163.738  1.00  0.00     0.000 C 
BRANCH  10  11
ATOM     11  C   UNL     1     168.729 170.169 162.251  1.00  0.00     0.000 C 
BRANCH  11  12
ATOM     12  C   UNL     1     169.875 169.585 161.407  1.00  0.00     0.002 C 
BRANCH  12  13
ATOM     13  C   UNL     1     169.520 168.218 160.800  1.00  0.00     0.028 C 
BRANCH  13  14
ATOM     14  C   UNL     1     169.783 167.054 161.763  1.00  0.00     0.156 C 
BRANCH  14  15
ATOM     15  O   UNL     1     169.727 165.835 161.073  1.00  0.00    -0.396 OA
ATOM     16  H   UNL     1     170.090 166.006 160.164  1.00  0.00     0.210 HD
ENDBRANCH  14  15
ENDBRANCH  13  14
ENDBRANCH  12  13
ENDBRANCH  11  12
ENDBRANCH  10  11
ENDBRANCH   9  10
ENDBRANCH   1   9
TORSDOF 13
ENDMDL
MODEL 6
REMARK VINA RESULT:    -3.219      1.742      2.912
REMARK INTER + INTRA:          -7.683
REMARK INTER:                  -5.826
REMARK INTRA:                  -1.856
REMARK UNBOUND:                -2.112
REMARK SMILES CCCCCCCCCCCCCCO
REMARK SMILES IDX 8 1 7 2 6 3 5 4 4 5 3 6 2 7 1 8 9 9 10 10 11 11 12 12 13 13
REMARK SMILES IDX 14 14 15 15
REMARK H PARENT 15 16
REMARK Flexibility Score: inf
ROOT
ATOM      1  C   UNL     1     171.822 170.796 164.405  1.00  0.00     0.000 C 
ENDROOT
BRANCH   1   2
ATOM      2  C   UNL     1     170.309 170.628 164.634  1.00  0.00    -0.000 C 
BRANCH   2   3
ATOM      3  C   UNL     1     169.754 169.341 164.005  1.00  0.00    -0.000 C 
BRANCH   3   4
ATOM      4  C   UNL     1     169.430 169.505 162.511  1.00  0.00    -0.000 C 
BRANCH   4   5
ATOM      5  C   UNL     1     168.434 170.645 162.244  1.00  0.00    -0.000 C 
BRANCH   5   6
ATOM      6  C   UNL     1     168.405 171.076 160.768  1.00  0.00    -0.000 C 
BRANCH   6   7
ATOM      7  C   UNL     1     167.183 171.945 160.432  1.00  0.00    -0.003 C 
ATOM      8  C   UNL     1     165.954 171.580 161.263  1.00  0.00     0.004 C 
ENDBRANCH   6   7
ENDBRANCH   5   6
ENDBRANCH   4   5
ENDBRANCH   3   4
ENDBRANCH   2   3
ENDBRANCH   1   2
BRANCH   1   9
ATOM      9  C   UNL     1     172.175 172.156 163.782  1.00  0.00     0.000 C 
BRANCH   9  10
ATOM     10  C   UNL     1     172.133 172.127 162.244  1.00  0.00     0.000 C 
BRANCH  10  11
ATOM     11  C   UNL     1     171.202 173.201 161.656  1.00  0.00     0.000 C 
BRANCH  11  12
ATOM     12  C   UNL     1     170.671 174.170 162.726  1.00  0.00     0.002 C 
BRANCH  12  13
ATOM     13  C   UNL     1     169.149 174.369 162.638  1.00  0.00     0.028 C 
BRANCH  13  14
ATOM     14  C   UNL     1     168.417 173.924 163.910  1.00  0.00     0.156 C 
BRANCH  14  15
ATOM     15  O   UNL     1     169.315 173.853 164.984  1.00  0.00    -0.396 OA
ATOM     16  H   UNL     1     170.224 173.970 164.602  1.00  0.00     0.210 HD
ENDBRANCH  14  15
ENDBRANCH  13  14
ENDBRANCH  12  13
ENDBRANCH  11  12
ENDBRANCH  10  11
ENDBRANCH   9  10
ENDBRANCH   1   9
TORSDOF 13
ENDMDL
MODEL 7
REMARK VINA RESULT:    -3.213      2.148      4.954
REMARK INTER + INTRA:          -7.673
REMARK INTER:                  -5.736
REMARK INTRA:                  -1.937
REMARK UNBOUND:                -2.112
REMARK SMILES CCCCCCCCCCCCCCO
REMARK SMILES IDX 8 1 7 2 6 3 5 4 4 5 3 6 2 7 1 8 9 9 10 10 11 11 12 12 13 13
REMARK SMILES IDX 14 14 15 15
REMARK H PARENT 15 16
REMARK Flexibility Score: inf
ROOT
ATOM      1  C   UNL     1     169.813 170.953 161.100  1.00  0.00     0.000 C 
ENDROOT
BRANCH   1   2
ATOM      2  C   UNL     1     168.709 171.606 160.248  1.00  0.00    -0.000 C 
BRANCH   2   3
ATOM      3  C   UNL     1     167.406 170.791 160.241  1.00  0.00    -0.000 C 
BRANCH   3   4
ATOM      4  C   UNL     1     166.335 171.380 161.173  1.00  0.00    -0.000 C 
BRANCH   4   5
ATOM      5  C   UNL     1     166.631 172.837 161.565  1.00  0.00    -0.000 C 
BRANCH   5   6
ATOM      6  C   UNL     1     166.482 173.088 163.076  1.00  0.00    -0.000 C 
BRANCH   6   7
ATOM      7  C   UNL     1     167.547 174.052 163.620  1.00  0.00    -0.003 C 
ATOM      8  C   UNL     1     168.722 174.235 162.661  1.00  0.00     0.004 C 
ENDBRANCH   6   7
ENDBRANCH   5   6
ENDBRANCH   4   5
ENDBRANCH   3   4
ENDBRANCH   2   3
ENDBRANCH   1   2
BRANCH   1   9
ATOM      9  C   UNL     1     169.470 169.508 161.498  1.00  0.00     0.000 C 
BRANCH   9  10
ATOM     10  C   UNL     1     169.519 169.290 163.020  1.00  0.00     0.000 C 
BRANCH  10  11
ATOM     11  C   UNL     1     168.931 170.473 163.807  1.00  0.00     0.000 C 
BRANCH  11  12
ATOM     12  C   UNL     1     169.882 170.981 164.905  1.00  0.00     0.002 C 
BRANCH  12  13
ATOM     13  C   UNL     1     171.358 170.698 164.582  1.00  0.00     0.028 C 
BRANCH  13  14
ATOM     14  C   UNL     1     172.067 171.897 163.941  1.00  0.00     0.156 C 
BRANCH  14  15
ATOM     15  O   UNL     1     171.483 173.094 164.380  1.00  0.00    -0.396 OA
ATOM     16  H   UNL     1     170.665 172.843 164.884  1.00  0.00     0.210 HD
ENDBRANCH  14  15
ENDBRANCH  13  14
ENDBRANCH  12  13
ENDBRANCH  11  12
ENDBRANCH  10  11
ENDBRANCH   9  10
ENDBRANCH   1   9
TORSDOF 13
ENDMDL
MODEL 8
REMARK VINA RESULT:    -3.206      2.512      4.331
REMARK INTER + INTRA:          -7.660
REMARK INTER:                  -6.050
REMARK INTRA:                  -1.610
REMARK UNBOUND:                -2.112
REMARK SMILES CCCCCCCCCCCCCCO
REMARK SMILES IDX 8 1 7 2 6 3 5 4 4 5 3 6 2 7 1 8 9 9 10 10 11 11 12 12 13 13
REMARK SMILES IDX 14 14 15 15
REMARK H PARENT 15 16
REMARK Flexibility Score: inf
ROOT
ATOM      1  C   UNL     1     170.978 173.087 161.688  1.00  0.00     0.000 C 
ENDROOT
BRANCH   1   2
ATOM      2  C   UNL     1     170.860 174.619 161.596  1.00  0.00    -0.000 C 
BRANCH   2   3
ATOM      3  C   UNL     1     169.730 175.180 162.473  1.00  0.00    -0.000 C 
BRANCH   3   4
ATOM      4  C   UNL     1     169.168 174.135 163.452  1.00  0.00    -0.000 C 
BRANCH   4   5
ATOM      5  C   UNL     1     167.641 173.991 163.349  1.00  0.00    -0.000 C 
BRANCH   5   6
ATOM      6  C   UNL     1     167.194 172.533 163.143  1.00  0.00    -0.000 C 
BRANCH   6   7
ATOM      7  C   UNL     1     167.009 172.178 161.660  1.00  0.00    -0.003 C 
ATOM      8  C   UNL     1     167.953 171.070 161.196  1.00  0.00     0.004 C 
ENDBRANCH   6   7
ENDBRANCH   5   6
ENDBRANCH   4   5
ENDBRANCH   3   4
ENDBRANCH   2   3
ENDBRANCH   1   2
BRANCH   1   9
ATOM      9  C   UNL     1     172.429 172.599 161.545  1.00  0.00     0.000 C 
BRANCH   9  10
ATOM     10  C   UNL     1     172.918 171.834 162.787  1.00  0.00     0.000 C 
BRANCH  10  11
ATOM     11  C   UNL     1     172.006 172.042 164.008  1.00  0.00     0.000 C 
BRANCH  11  12
ATOM     12  C   UNL     1     171.494 170.714 164.593  1.00  0.00     0.002 C 
BRANCH  12  13
ATOM     13  C   UNL     1     170.038 170.420 164.200  1.00  0.00     0.028 C 
BRANCH  13  14
ATOM     14  C   UNL     1     169.801 168.944 163.855  1.00  0.00     0.156 C 
BRANCH  14  15
ATOM     15  O   UNL     1     170.879 168.166 164.301  1.00  0.00    -0.396 OA
ATOM     16  H   UNL     1     170.556 167.227 164.335  1.00  0.00     0.210 HD
ENDBRANCH  14  15
ENDBRANCH  13  14
ENDBRANCH  12  13
ENDBRANCH  11  12
ENDBRANCH  10  11
ENDBRANCH   9  10
ENDBRANCH   1   9
TORSDOF 13
ENDMDL
MODEL 9
REMARK VINA RESULT:    -3.161      1.772      3.849
REMARK INTER + INTRA:          -7.582
REMARK INTER:                  -5.660
REMARK INTRA:                  -1.922
REMARK UNBOUND:                -2.112
REMARK SMILES CCCCCCCCCCCCCCO
REMARK SMILES IDX 8 1 7 2 6 3 5 4 4 5 3 6 2 7 1 8 9 9 10 10 11 11 12 12 13 13
REMARK SMILES IDX 14 14 15 15
REMARK H PARENT 15 16
REMARK Flexibility Score: inf
ROOT
ATOM      1  C   UNL     1     166.899 171.389 161.687  1.00  0.00     0.000 C 
ENDROOT
BRANCH   1   2
ATOM      2  C   UNL     1     168.270 170.888 161.201  1.00  0.00    -0.000 C 
BRANCH   2   3
ATOM      3  C   UNL     1     168.992 170.028 162.251  1.00  0.00    -0.000 C 
BRANCH   3   4
ATOM      4  C   UNL     1     168.465 170.268 163.675  1.00  0.00    -0.000 C 
BRANCH   4   5
ATOM      5  C   UNL     1     169.569 170.719 164.645  1.00  0.00    -0.000 C 
BRANCH   5   6
ATOM      6  C   UNL     1     170.969 170.251 164.211  1.00  0.00    -0.000 C 
BRANCH   6   7
ATOM      7  C   UNL     1     172.019 171.369 164.305  1.00  0.00    -0.003 C 
ATOM      8  C   UNL     1     172.546 171.800 162.937  1.00  0.00     0.004 C 
ENDBRANCH   6   7
ENDBRANCH   5   6
ENDBRANCH   4   5
ENDBRANCH   3   4
ENDBRANCH   2   3
ENDBRANCH   1   2
BRANCH   1   9
ATOM      9  C   UNL     1     166.464 172.685 160.984  1.00  0.00     0.000 C 
BRANCH   9  10
ATOM     10  C   UNL     1     166.946 173.946 161.723  1.00  0.00     0.000 C 
BRANCH  10  11
ATOM     11  C   UNL     1     167.150 173.708 163.229  1.00  0.00     0.000 C 
BRANCH  11  12
ATOM     12  C   UNL     1     168.563 174.093 163.699  1.00  0.00     0.002 C 
BRANCH  12  13
ATOM     13  C   UNL     1     169.596 174.043 162.562  1.00  0.00     0.028 C 
BRANCH  13  14
ATOM     14  C   UNL     1     170.554 175.241 162.576  1.00  0.00     0.156 C 
BRANCH  14  15
ATOM     15  O   UNL     1     169.905 176.383 162.087  1.00  0.00    -0.396 OA
ATOM     16  H   UNL     1     170.405 176.669 161.278  1.00  0.00     0.210 HD
ENDBRANCH  14  15
ENDBRANCH  13  14
ENDBRANCH  12  13
ENDBRANCH  11  12
ENDBRANCH  10  11
ENDBRANCH   9  10
ENDBRANCH   1   9
TORSDOF 13
ENDMDL
