MODEL 1
REMARK VINA RESULT:    -3.645      0.000      0.000
REMARK INTER + INTRA:          -4.206
REMARK INTER:                  -3.965
REMARK INTRA:                  -0.242
REMARK UNBOUND:                -0.242
REMARK SMILES O=C([O-])c1ccccc1O
REMARK SMILES IDX 4 1 9 2 5 3 8 4 6 5 7 6 2 7 1 8 3 9 10 10
REMARK H PARENT 10 11
REMARK Flexibility Score: inf
ROOT
ATOM      1  C   UNL     1     -93.136 146.165 240.657  1.00  0.00     0.039 A 
ATOM      2  C   UNL     1     -93.675 145.908 241.940  1.00  0.00     0.124 A 
ATOM      3  C   UNL     1     -93.676 147.217 239.891  1.00  0.00     0.014 A 
ATOM      4  C   UNL     1     -94.730 146.697 242.425  1.00  0.00     0.047 A 
ATOM      5  C   UNL     1     -94.726 147.994 240.388  1.00  0.00     0.001 A 
ATOM      6  C   UNL     1     -95.252 147.734 241.653  1.00  0.00     0.004 A 
ENDROOT
BRANCH   1   7
ATOM      7  C   UNL     1     -92.020 145.355 240.102  1.00  0.00     0.075 C 
ATOM      8  O   UNL     1     -91.065 144.995 240.842  1.00  0.00    -0.545 OA
ATOM      9  O   UNL     1     -92.002 144.977 238.765  1.00  0.00    -0.545 OA
ENDBRANCH   1   7
BRANCH   2  10
ATOM     10  O   UNL     1     -93.172 144.877 242.733  1.00  0.00    -0.507 OA
ATOM     11  H   UNL     1     -93.737 144.427 243.444  1.00  0.00     0.293 HD
ENDBRANCH   2  10
TORSDOF 2
ENDMDL
MODEL 2
REMARK VINA RESULT:    -3.449      1.219      1.962
REMARK INTER + INTRA:          -3.994
REMARK INTER:                  -3.781
REMARK INTRA:                  -0.213
REMARK UNBOUND:                -0.242
REMARK SMILES O=C([O-])c1ccccc1O
REMARK SMILES IDX 4 1 9 2 5 3 8 4 6 5 7 6 2 7 1 8 3 9 10 10
REMARK H PARENT 10 11
REMARK Flexibility Score: inf
ROOT
ATOM      1  C   UNL     1     -93.315 146.237 239.461  1.00  0.00     0.039 A 
ATOM      2  C   UNL     1     -92.786 145.889 240.727  1.00  0.00     0.124 A 
ATOM      3  C   UNL     1     -94.273 147.268 239.385  1.00  0.00     0.014 A 
ATOM      4  C   UNL     1     -93.219 146.569 241.876  1.00  0.00     0.047 A 
ATOM      5  C   UNL     1     -94.694 147.935 240.537  1.00  0.00     0.001 A 
ATOM      6  C   UNL     1     -94.169 147.586 241.781  1.00  0.00     0.004 A 
ENDROOT
BRANCH   1   7
ATOM      7  C   UNL     1     -92.886 145.544 238.218  1.00  0.00     0.075 C 
ATOM      8  O   UNL     1     -93.627 145.548 237.199  1.00  0.00    -0.545 OA
ATOM      9  O   UNL     1     -91.667 144.881 238.150  1.00  0.00    -0.545 OA
ENDBRANCH   1   7
BRANCH   2  10
ATOM     10  O   UNL     1     -91.837 144.876 240.850  1.00  0.00    -0.507 OA
ATOM     11  H   UNL     1     -91.126 144.722 240.144  1.00  0.00     0.293 HD
ENDBRANCH   2  10
TORSDOF 2
ENDMDL
MODEL 3
REMARK VINA RESULT:    -3.424      1.177      2.726
REMARK INTER + INTRA:          -3.966
REMARK INTER:                  -3.711
REMARK INTRA:                  -0.255
REMARK UNBOUND:                -0.242
REMARK SMILES O=C([O-])c1ccccc1O
REMARK SMILES IDX 4 1 9 2 5 3 8 4 6 5 7 6 2 7 1 8 3 9 10 10
REMARK H PARENT 10 11
REMARK Flexibility Score: inf
ROOT
ATOM      1  C   UNL     1     -93.353 146.290 240.257  1.00  0.00     0.039 A 
ATOM      2  C   UNL     1     -93.371 145.986 238.875  1.00  0.00     0.124 A 
ATOM      3  C   UNL     1     -94.057 147.422 240.712  1.00  0.00     0.014 A 
ATOM      4  C   UNL     1     -94.081 146.809 237.987  1.00  0.00     0.047 A 
ATOM      5  C   UNL     1     -94.760 148.232 239.817  1.00  0.00     0.001 A 
ATOM      6  C   UNL     1     -94.772 147.926 238.456  1.00  0.00     0.004 A 
ENDROOT
BRANCH   1   7
ATOM      7  C   UNL     1     -92.614 145.447 241.233  1.00  0.00     0.075 C 
ATOM      8  O   UNL     1     -93.159 145.099 242.315  1.00  0.00    -0.545 OA
ATOM      9  O   UNL     1     -91.315 145.024 240.978  1.00  0.00    -0.545 OA
ENDBRANCH   1   7
BRANCH   2  10
ATOM     10  O   UNL     1     -92.688 144.876 238.379  1.00  0.00    -0.507 OA
ATOM     11  H   UNL     1     -92.785 144.576 237.416  1.00  0.00     0.293 HD
ENDBRANCH   2  10
TORSDOF 2
ENDMDL
MODEL 4
REMARK VINA RESULT:    -3.421      1.057      1.439
REMARK INTER + INTRA:          -3.963
REMARK INTER:                  -3.748
REMARK INTRA:                  -0.214
REMARK UNBOUND:                -0.242
REMARK SMILES O=C([O-])c1ccccc1O
REMARK SMILES IDX 4 1 9 2 5 3 8 4 6 5 7 6 2 7 1 8 3 9 10 10
REMARK H PARENT 10 11
REMARK Flexibility Score: inf
ROOT
ATOM      1  C   UNL     1     -93.245 146.109 239.622  1.00  0.00     0.039 A 
ATOM      2  C   UNL     1     -92.913 145.853 240.974  1.00  0.00     0.124 A 
ATOM      3  C   UNL     1     -94.199 147.105 239.335  1.00  0.00     0.014 A 
ATOM      4  C   UNL     1     -93.532 146.587 241.997  1.00  0.00     0.047 A 
ATOM      5  C   UNL     1     -94.806 147.829 240.364  1.00  0.00     0.001 A 
ATOM      6  C   UNL     1     -94.474 147.570 241.693  1.00  0.00     0.004 A 
ENDROOT
BRANCH   1   7
ATOM      7  C   UNL     1     -92.615 145.355 238.506  1.00  0.00     0.075 C 
ATOM      8  O   UNL     1     -91.456 144.877 238.635  1.00  0.00    -0.545 OA
ATOM      9  O   UNL     1     -93.284 145.160 237.304  1.00  0.00    -0.545 OA
ENDBRANCH   1   7
BRANCH   2  10
ATOM     10  O   UNL     1     -91.975 144.875 241.306  1.00  0.00    -0.507 OA
ATOM     11  H   UNL     1     -92.160 144.179 242.018  1.00  0.00     0.293 HD
ENDBRANCH   2  10
TORSDOF 2
ENDMDL
MODEL 5
REMARK VINA RESULT:    -3.344      1.984      3.994
REMARK INTER + INTRA:          -3.880
REMARK INTER:                  -3.629
REMARK INTRA:                  -0.251
REMARK UNBOUND:                -0.242
REMARK SMILES O=C([O-])c1ccccc1O
REMARK SMILES IDX 4 1 9 2 5 3 8 4 6 5 7 6 2 7 1 8 3 9 10 10
REMARK H PARENT 10 11
REMARK Flexibility Score: inf
ROOT
ATOM      1  C   UNL     1     -93.148 146.066 240.641  1.00  0.00     0.039 A 
ATOM      2  C   UNL     1     -93.656 146.096 239.321  1.00  0.00     0.124 A 
ATOM      3  C   UNL     1     -91.903 145.448 240.876  1.00  0.00     0.014 A 
ATOM      4  C   UNL     1     -92.921 145.516 238.275  1.00  0.00     0.047 A 
ATOM      5  C   UNL     1     -91.183 144.875 239.825  1.00  0.00     0.001 A 
ATOM      6  C   UNL     1     -91.691 144.909 238.527  1.00  0.00     0.004 A 
ENDROOT
BRANCH   1   7
ATOM      7  C   UNL     1     -93.892 146.667 241.779  1.00  0.00     0.075 C 
ATOM      8  O   UNL     1     -94.354 147.836 241.691  1.00  0.00    -0.545 OA
ATOM      9  O   UNL     1     -94.096 145.960 242.958  1.00  0.00    -0.545 OA
ENDBRANCH   1   7
BRANCH   2  10
ATOM     10  O   UNL     1     -94.884 146.696 239.042  1.00  0.00    -0.507 OA
ATOM     11  H   UNL     1     -95.274 146.702 238.106  1.00  0.00     0.293 HD
ENDBRANCH   2  10
TORSDOF 2
ENDMDL
MODEL 6
REMARK VINA RESULT:    -3.336     13.294     14.466
REMARK INTER + INTRA:          -3.871
REMARK INTER:                  -3.622
REMARK INTRA:                  -0.249
REMARK UNBOUND:                -0.242
REMARK SMILES O=C([O-])c1ccccc1O
REMARK SMILES IDX 4 1 9 2 5 3 8 4 6 5 7 6 2 7 1 8 3 9 10 10
REMARK H PARENT 10 11
REMARK Flexibility Score: inf
ROOT
ATOM      1  C   UNL     1     -92.676 159.303 235.541  1.00  0.00     0.039 A 
ATOM      2  C   UNL     1     -91.548 158.450 235.475  1.00  0.00     0.124 A 
ATOM      3  C   UNL     1     -92.472 160.686 235.715  1.00  0.00     0.014 A 
ATOM      4  C   UNL     1     -90.257 158.990 235.582  1.00  0.00     0.047 A 
ATOM      5  C   UNL     1     -91.181 161.209 235.820  1.00  0.00     0.001 A 
ATOM      6  C   UNL     1     -90.075 160.362 235.754  1.00  0.00     0.004 A 
ENDROOT
BRANCH   1   7
ATOM      7  C   UNL     1     -94.061 158.775 235.433  1.00  0.00     0.075 C 
ATOM      8  O   UNL     1     -94.401 157.742 236.069  1.00  0.00    -0.545 OA
ATOM      9  O   UNL     1     -95.009 159.404 234.634  1.00  0.00    -0.545 OA
ENDBRANCH   1   7
BRANCH   2  10
ATOM     10  O   UNL     1     -91.702 157.075 235.304  1.00  0.00    -0.507 OA
ATOM     11  H   UNL     1     -92.614 156.651 235.184  1.00  0.00     0.293 HD
ENDBRANCH   2  10
TORSDOF 2
ENDMDL
MODEL 7
REMARK VINA RESULT:    -3.258      2.507      4.289
REMARK INTER + INTRA:          -3.785
REMARK INTER:                  -3.533
REMARK INTRA:                  -0.252
REMARK UNBOUND:                -0.242
REMARK SMILES O=C([O-])c1ccccc1O
REMARK SMILES IDX 4 1 9 2 5 3 8 4 6 5 7 6 2 7 1 8 3 9 10 10
REMARK H PARENT 10 11
REMARK Flexibility Score: inf
ROOT
ATOM      1  C   UNL     1     -94.514 146.770 241.970  1.00  0.00     0.039 A 
ATOM      2  C   UNL     1     -93.969 147.150 240.721  1.00  0.00     0.124 A 
ATOM      3  C   UNL     1     -93.977 145.648 242.632  1.00  0.00     0.014 A 
ATOM      4  C   UNL     1     -92.912 146.411 240.166  1.00  0.00     0.047 A 
ATOM      5  C   UNL     1     -92.926 144.922 242.067  1.00  0.00     0.001 A 
ATOM      6  C   UNL     1     -92.394 145.303 240.835  1.00  0.00     0.004 A 
ENDROOT
BRANCH   1   7
ATOM      7  C   UNL     1     -95.633 147.522 242.595  1.00  0.00     0.075 C 
ATOM      8  O   UNL     1     -96.661 146.916 242.999  1.00  0.00    -0.545 OA
ATOM      9  O   UNL     1     -95.573 148.902 242.750  1.00  0.00    -0.545 OA
ENDBRANCH   1   7
BRANCH   2  10
ATOM     10  O   UNL     1     -94.468 148.253 240.029  1.00  0.00    -0.507 OA
ATOM     11  H   UNL     1     -95.025 148.149 239.189  1.00  0.00     0.293 HD
ENDBRANCH   2  10
TORSDOF 2
ENDMDL
