MODEL 1
REMARK VINA RESULT:    -4.087      0.000      0.000
REMARK INTER + INTRA:          -6.543
REMARK INTER:                  -5.760
REMARK INTRA:                  -0.783
REMARK UNBOUND:                -0.783
REMARK SMILES CC(=O)OCC[C@H](C)CCC=C(C)C
REMARK SMILES IDX 8 1 7 2 9 3 10 4 11 5 12 6 13 7 14 8 6 9 5 10 4 11 2 12 3 13
REMARK SMILES IDX 1 14
REMARK H PARENT
REMARK Flexibility Score: inf
ROOT
ATOM      1  C   UNL     1     -14.782 -16.141  13.396  1.00  0.00     0.008 C 
ATOM      2  C   UNL     1     -15.877 -17.208  13.566  1.00  0.00    -0.011 C 
ENDROOT
BRANCH   2   3
ATOM      3  C   UNL     1     -15.433 -18.346  14.516  1.00  0.00     0.007 C 
BRANCH   3   4
ATOM      4  C   UNL     1     -14.098 -18.978  14.093  1.00  0.00     0.027 C 
BRANCH   4   5
ATOM      5  C   UNL     1     -13.291 -19.380  15.302  1.00  0.00    -0.028 C 
ATOM      6  C   UNL     1     -12.371 -20.369  15.312  1.00  0.00    -0.080 C 
ATOM      7  C   UNL     1     -12.098 -21.222  14.094  1.00  0.00     0.039 C 
ATOM      8  C   UNL     1     -11.611 -20.631  16.587  1.00  0.00     0.039 C 
ENDBRANCH   4   5
ENDBRANCH   3   4
ENDBRANCH   2   3
BRANCH   2   9
ATOM      9  C   UNL     1     -16.380 -17.751  12.205  1.00  0.00     0.045 C 
BRANCH   9  10
ATOM     10  C   UNL     1     -17.346 -18.943  12.287  1.00  0.00     0.233 C 
BRANCH  10  11
ATOM     11  O   UNL     1     -16.743 -20.110  11.738  1.00  0.00    -0.466 OA
BRANCH  11  12
ATOM     12  C   UNL     1     -16.509 -21.264  12.491  1.00  0.00     0.302 C 
ATOM     13  O   UNL     1     -17.312 -21.616  13.398  1.00  0.00    -0.253 OA
ATOM     14  C   UNL     1     -15.268 -22.055  12.254  1.00  0.00     0.139 C 
ENDBRANCH  11  12
ENDBRANCH  10  11
ENDBRANCH   9  10
ENDBRANCH   2   9
TORSDOF 7
ENDMDL
MODEL 2
REMARK VINA RESULT:    -4.070      1.611      3.596
REMARK INTER + INTRA:          -6.518
REMARK INTER:                  -5.616
REMARK INTRA:                  -0.902
REMARK UNBOUND:                -0.783
REMARK SMILES CC(=O)OCC[C@H](C)CCC=C(C)C
REMARK SMILES IDX 8 1 7 2 9 3 10 4 11 5 12 6 13 7 14 8 6 9 5 10 4 11 2 12 3 13
REMARK SMILES IDX 1 14
REMARK H PARENT
REMARK Flexibility Score: inf
ROOT
ATOM      1  C   UNL     1     -14.971 -21.681  10.734  1.00  0.00     0.008 C 
ATOM      2  C   UNL     1     -14.842 -21.518  12.258  1.00  0.00    -0.011 C 
ENDROOT
BRANCH   2   3
ATOM      3  C   UNL     1     -13.766 -22.459  12.851  1.00  0.00     0.007 C 
BRANCH   3   4
ATOM      4  C   UNL     1     -12.401 -21.769  13.002  1.00  0.00     0.027 C 
BRANCH   4   5
ATOM      5  C   UNL     1     -12.140 -21.416  14.445  1.00  0.00    -0.028 C 
ATOM      6  C   UNL     1     -12.031 -20.153  14.914  1.00  0.00    -0.080 C 
ATOM      7  C   UNL     1     -12.110 -18.950  14.003  1.00  0.00     0.039 C 
ATOM      8  C   UNL     1     -11.810 -19.952  16.392  1.00  0.00     0.039 C 
ENDBRANCH   4   5
ENDBRANCH   3   4
ENDBRANCH   2   3
BRANCH   2   9
ATOM      9  C   UNL     1     -16.206 -21.669  12.979  1.00  0.00     0.045 C 
BRANCH   9  10
ATOM     10  C   UNL     1     -17.025 -20.377  13.116  1.00  0.00     0.233 C 
BRANCH  10  11
ATOM     11  O   UNL     1     -16.878 -19.829  14.422  1.00  0.00    -0.466 OA
BRANCH  11  12
ATOM     12  C   UNL     1     -15.906 -18.876  14.735  1.00  0.00     0.302 C 
ATOM     13  O   UNL     1     -15.299 -18.912  15.840  1.00  0.00    -0.253 OA
ATOM     14  C   UNL     1     -15.622 -17.774  13.773  1.00  0.00     0.139 C 
ENDBRANCH  11  12
ENDBRANCH  10  11
ENDBRANCH   9  10
ENDBRANCH   2   9
TORSDOF 7
ENDMDL
MODEL 3
REMARK VINA RESULT:    -4.060      2.354      4.977
REMARK INTER + INTRA:          -6.504
REMARK INTER:                  -5.763
REMARK INTRA:                  -0.742
REMARK UNBOUND:                -0.783
REMARK SMILES CC(=O)OCC[C@H](C)CCC=C(C)C
REMARK SMILES IDX 8 1 7 2 9 3 10 4 11 5 12 6 13 7 14 8 6 9 5 10 4 11 2 12 3 13
REMARK SMILES IDX 1 14
REMARK H PARENT
REMARK Flexibility Score: inf
ROOT
ATOM      1  C   UNL     1     -14.786 -20.867  10.729  1.00  0.00     0.008 C 
ATOM      2  C   UNL     1     -15.520 -21.862  11.644  1.00  0.00    -0.011 C 
ENDROOT
BRANCH   2   3
ATOM      3  C   UNL     1     -16.920 -21.345  12.054  1.00  0.00     0.007 C 
BRANCH   3   4
ATOM      4  C   UNL     1     -16.902 -20.608  13.402  1.00  0.00     0.027 C 
BRANCH   4   5
ATOM      5  C   UNL     1     -16.647 -19.134  13.201  1.00  0.00    -0.028 C 
ATOM      6  C   UNL     1     -15.974 -18.350  14.072  1.00  0.00    -0.080 C 
ATOM      7  C   UNL     1     -15.451 -18.879  15.387  1.00  0.00     0.039 C 
ATOM      8  C   UNL     1     -15.760 -16.901  13.717  1.00  0.00     0.039 C 
ENDBRANCH   4   5
ENDBRANCH   3   4
ENDBRANCH   2   3
BRANCH   2   9
ATOM      9  C   UNL     1     -14.667 -22.265  12.873  1.00  0.00     0.045 C 
BRANCH   9  10
ATOM     10  C   UNL     1     -13.223 -21.740  12.874  1.00  0.00     0.233 C 
BRANCH  10  11
ATOM     11  O   UNL     1     -12.969 -20.987  14.055  1.00  0.00    -0.466 OA
BRANCH  11  12
ATOM     12  C   UNL     1     -11.744 -21.028  14.727  1.00  0.00     0.302 C 
ATOM     13  O   UNL     1     -10.705 -21.450  14.150  1.00  0.00    -0.253 OA
ATOM     14  C   UNL     1     -11.679 -20.619  16.159  1.00  0.00     0.139 C 
ENDBRANCH  11  12
ENDBRANCH  10  11
ENDBRANCH   9  10
ENDBRANCH   2   9
TORSDOF 7
ENDMDL
MODEL 4
REMARK VINA RESULT:    -4.048      1.957      2.979
REMARK INTER + INTRA:          -6.488
REMARK INTER:                  -5.304
REMARK INTRA:                  -1.184
REMARK UNBOUND:                -0.783
REMARK SMILES CC(=O)OCC[C@H](C)CCC=C(C)C
REMARK SMILES IDX 8 1 7 2 9 3 10 4 11 5 12 6 13 7 14 8 6 9 5 10 4 11 2 12 3 13
REMARK SMILES IDX 1 14
REMARK H PARENT
REMARK Flexibility Score: inf
ROOT
ATOM      1  C   UNL     1     -17.126 -18.978  12.369  1.00  0.00     0.008 C 
ATOM      2  C   UNL     1     -17.293 -19.872  13.609  1.00  0.00    -0.011 C 
ENDROOT
BRANCH   2   3
ATOM      3  C   UNL     1     -16.482 -19.343  14.816  1.00  0.00     0.007 C 
BRANCH   3   4
ATOM      4  C   UNL     1     -15.313 -18.442  14.389  1.00  0.00     0.027 C 
BRANCH   4   5
ATOM      5  C   UNL     1     -13.998 -19.162  14.552  1.00  0.00    -0.028 C 
ATOM      6  C   UNL     1     -13.123 -19.392  13.548  1.00  0.00    -0.080 C 
ATOM      7  C   UNL     1     -13.415 -18.987  12.123  1.00  0.00     0.039 C 
ATOM      8  C   UNL     1     -11.827 -20.091  13.870  1.00  0.00     0.039 C 
ENDBRANCH   4   5
ENDBRANCH   3   4
ENDBRANCH   2   3
BRANCH   2   9
ATOM      9  C   UNL     1     -16.978 -21.359  13.305  1.00  0.00     0.045 C 
BRANCH   9  10
ATOM     10  C   UNL     1     -16.088 -21.606  12.078  1.00  0.00     0.233 C 
BRANCH  10  11
ATOM     11  O   UNL     1     -14.898 -22.289  12.456  1.00  0.00    -0.466 OA
BRANCH  11  12
ATOM     12  C   UNL     1     -13.879 -22.588  11.548  1.00  0.00     0.302 C 
ATOM     13  O   UNL     1     -12.722 -22.887  11.951  1.00  0.00    -0.253 OA
ATOM     14  C   UNL     1     -14.151 -22.499  10.085  1.00  0.00     0.139 C 
ENDBRANCH  11  12
ENDBRANCH  10  11
ENDBRANCH   9  10
ENDBRANCH   2   9
TORSDOF 7
ENDMDL
MODEL 5
REMARK VINA RESULT:    -4.028      1.471      2.155
REMARK INTER + INTRA:          -6.460
REMARK INTER:                  -5.589
REMARK INTRA:                  -0.871
REMARK UNBOUND:                -0.783
REMARK SMILES CC(=O)OCC[C@H](C)CCC=C(C)C
REMARK SMILES IDX 8 1 7 2 9 3 10 4 11 5 12 6 13 7 14 8 6 9 5 10 4 11 2 12 3 13
REMARK SMILES IDX 1 14
REMARK H PARENT
REMARK Flexibility Score: inf
ROOT
ATOM      1  C   UNL     1     -15.718 -18.484  12.421  1.00  0.00     0.008 C 
ATOM      2  C   UNL     1     -16.178 -18.843  13.844  1.00  0.00    -0.011 C 
ENDROOT
BRANCH   2   3
ATOM      3  C   UNL     1     -14.987 -18.938  14.829  1.00  0.00     0.007 C 
BRANCH   3   4
ATOM      4  C   UNL     1     -13.668 -18.457  14.204  1.00  0.00     0.027 C 
BRANCH   4   5
ATOM      5  C   UNL     1     -12.654 -19.575  14.175  1.00  0.00    -0.028 C 
ATOM      6  C   UNL     1     -11.787 -19.844  15.175  1.00  0.00    -0.080 C 
ATOM      7  C   UNL     1     -11.713 -18.996  16.423  1.00  0.00     0.039 C 
ATOM      8  C   UNL     1     -10.857 -21.022  15.021  1.00  0.00     0.039 C 
ENDBRANCH   4   5
ENDBRANCH   3   4
ENDBRANCH   2   3
BRANCH   2   9
ATOM      9  C   UNL     1     -17.057 -20.119  13.871  1.00  0.00     0.045 C 
BRANCH   9  10
ATOM     10  C   UNL     1     -17.031 -20.963  12.588  1.00  0.00     0.233 C 
BRANCH  10  11
ATOM     11  O   UNL     1     -16.131 -22.057  12.730  1.00  0.00    -0.466 OA
BRANCH  11  12
ATOM     12  C   UNL     1     -14.861 -22.070  12.147  1.00  0.00     0.302 C 
ATOM     13  O   UNL     1     -14.686 -21.643  10.973  1.00  0.00    -0.253 OA
ATOM     14  C   UNL     1     -13.712 -22.644  12.903  1.00  0.00     0.139 C 
ENDBRANCH  11  12
ENDBRANCH  10  11
ENDBRANCH   9  10
ENDBRANCH   2   9
TORSDOF 7
ENDMDL
MODEL 6
REMARK VINA RESULT:    -4.000      1.907      3.935
REMARK INTER + INTRA:          -6.420
REMARK INTER:                  -5.423
REMARK INTRA:                  -0.997
REMARK UNBOUND:                -0.783
REMARK SMILES CC(=O)OCC[C@H](C)CCC=C(C)C
REMARK SMILES IDX 8 1 7 2 9 3 10 4 11 5 12 6 13 7 14 8 6 9 5 10 4 11 2 12 3 13
REMARK SMILES IDX 1 14
REMARK H PARENT
REMARK Flexibility Score: inf
ROOT
ATOM      1  C   UNL     1     -17.657 -18.905  11.941  1.00  0.00     0.008 C 
ATOM      2  C   UNL     1     -17.021 -20.051  12.747  1.00  0.00    -0.011 C 
ENDROOT
BRANCH   2   3
ATOM      3  C   UNL     1     -16.852 -19.683  14.240  1.00  0.00     0.007 C 
BRANCH   3   4
ATOM      4  C   UNL     1     -15.484 -19.050  14.538  1.00  0.00     0.027 C 
BRANCH   4   5
ATOM      5  C   UNL     1     -15.549 -17.549  14.399  1.00  0.00    -0.028 C 
ATOM      6  C   UNL     1     -14.840 -16.834  13.499  1.00  0.00    -0.080 C 
ATOM      7  C   UNL     1     -13.849 -17.484  12.561  1.00  0.00     0.039 C 
ATOM      8  C   UNL     1     -15.040 -15.341  13.448  1.00  0.00     0.039 C 
ENDBRANCH   4   5
ENDBRANCH   3   4
ENDBRANCH   2   3
BRANCH   2   9
ATOM      9  C   UNL     1     -15.693 -20.543  12.116  1.00  0.00     0.045 C 
BRANCH   9  10
ATOM     10  C   UNL     1     -15.533 -22.067  12.023  1.00  0.00     0.233 C 
BRANCH  10  11
ATOM     11  O   UNL     1     -14.573 -22.526  12.969  1.00  0.00    -0.466 OA
BRANCH  11  12
ATOM     12  C   UNL     1     -13.200 -22.323  12.810  1.00  0.00     0.302 C 
ATOM     13  O   UNL     1     -12.567 -22.893  11.880  1.00  0.00    -0.253 OA
ATOM     14  C   UNL     1     -12.468 -21.465  13.785  1.00  0.00     0.139 C 
ENDBRANCH  11  12
ENDBRANCH  10  11
ENDBRANCH   9  10
ENDBRANCH   2   9
TORSDOF 7
ENDMDL
MODEL 7
REMARK VINA RESULT:    -3.975      2.012      3.362
REMARK INTER + INTRA:          -6.385
REMARK INTER:                  -5.525
REMARK INTRA:                  -0.860
REMARK UNBOUND:                -0.783
REMARK SMILES CC(=O)OCC[C@H](C)CCC=C(C)C
REMARK SMILES IDX 8 1 7 2 9 3 10 4 11 5 12 6 13 7 14 8 6 9 5 10 4 11 2 12 3 13
REMARK SMILES IDX 1 14
REMARK H PARENT
REMARK Flexibility Score: inf
ROOT
ATOM      1  C   UNL     1     -13.487 -19.824  11.771  1.00  0.00     0.008 C 
ATOM      2  C   UNL     1     -13.304 -20.809  12.938  1.00  0.00    -0.011 C 
ENDROOT
BRANCH   2   3
ATOM      3  C   UNL     1     -11.812 -21.121  13.203  1.00  0.00     0.007 C 
BRANCH   3   4
ATOM      4  C   UNL     1     -11.522 -21.389  14.688  1.00  0.00     0.027 C 
BRANCH   4   5
ATOM      5  C   UNL     1     -10.898 -20.179  15.336  1.00  0.00    -0.028 C 
ATOM      6  C   UNL     1     -11.566 -19.300  16.115  1.00  0.00    -0.080 C 
ATOM      7  C   UNL     1     -13.050 -19.423  16.370  1.00  0.00     0.039 C 
ATOM      8  C   UNL     1     -10.799 -18.158  16.731  1.00  0.00     0.039 C 
ENDBRANCH   4   5
ENDBRANCH   3   4
ENDBRANCH   2   3
BRANCH   2   9
ATOM      9  C   UNL     1     -14.143 -22.099  12.750  1.00  0.00     0.045 C 
BRANCH   9  10
ATOM     10  C   UNL     1     -15.425 -21.937  11.921  1.00  0.00     0.233 C 
BRANCH  10  11
ATOM     11  O   UNL     1     -16.535 -21.663  12.769  1.00  0.00    -0.466 OA
BRANCH  11  12
ATOM     12  C   UNL     1     -16.992 -20.367  13.021  1.00  0.00     0.302 C 
ATOM     13  O   UNL     1     -17.359 -19.617  12.076  1.00  0.00    -0.253 OA
ATOM     14  C   UNL     1     -16.993 -19.849  14.419  1.00  0.00     0.139 C 
ENDBRANCH  11  12
ENDBRANCH  10  11
ENDBRANCH   9  10
ENDBRANCH   2   9
TORSDOF 7
ENDMDL
MODEL 8
REMARK VINA RESULT:    -3.961      2.409      4.345
REMARK INTER + INTRA:          -6.365
REMARK INTER:                  -5.767
REMARK INTRA:                  -0.598
REMARK UNBOUND:                -0.783
REMARK SMILES CC(=O)OCC[C@H](C)CCC=C(C)C
REMARK SMILES IDX 8 1 7 2 9 3 10 4 11 5 12 6 13 7 14 8 6 9 5 10 4 11 2 12 3 13
REMARK SMILES IDX 1 14
REMARK H PARENT
REMARK Flexibility Score: inf
ROOT
ATOM      1  C   UNL     1     -15.058 -18.081  11.882  1.00  0.00     0.008 C 
ATOM      2  C   UNL     1     -16.052 -17.822  13.027  1.00  0.00    -0.011 C 
ENDROOT
BRANCH   2   3
ATOM      3  C   UNL     1     -15.853 -16.424  13.660  1.00  0.00     0.007 C 
BRANCH   3   4
ATOM      4  C   UNL     1     -14.420 -15.896  13.482  1.00  0.00     0.027 C 
BRANCH   4   5
ATOM      5  C   UNL     1     -14.433 -14.429  13.131  1.00  0.00    -0.028 C 
ATOM      6  C   UNL     1     -13.535 -13.528  13.587  1.00  0.00    -0.080 C 
ATOM      7  C   UNL     1     -12.441 -13.907  14.557  1.00  0.00     0.039 C 
ATOM      8  C   UNL     1     -13.649 -12.100  13.117  1.00  0.00     0.039 C 
ENDBRANCH   4   5
ENDBRANCH   3   4
ENDBRANCH   2   3
BRANCH   2   9
ATOM      9  C   UNL     1     -16.025 -18.950  14.090  1.00  0.00     0.045 C 
BRANCH   9  10
ATOM     10  C   UNL     1     -17.259 -19.864  14.112  1.00  0.00     0.233 C 
BRANCH  10  11
ATOM     11  O   UNL     1     -16.914 -21.176  13.679  1.00  0.00    -0.466 OA
BRANCH  11  12
ATOM     12  C   UNL     1     -16.564 -21.467  12.358  1.00  0.00     0.302 C 
ATOM     13  O   UNL     1     -17.382 -21.278  11.417  1.00  0.00    -0.253 OA
ATOM     14  C   UNL     1     -15.227 -22.058  12.067  1.00  0.00     0.139 C 
ENDBRANCH  11  12
ENDBRANCH  10  11
ENDBRANCH   9  10
ENDBRANCH   2   9
TORSDOF 7
ENDMDL
MODEL 9
REMARK VINA RESULT:    -3.935      1.713      2.555
REMARK INTER + INTRA:          -6.329
REMARK INTER:                  -5.486
REMARK INTRA:                  -0.843
REMARK UNBOUND:                -0.783
REMARK SMILES CC(=O)OCC[C@H](C)CCC=C(C)C
REMARK SMILES IDX 8 1 7 2 9 3 10 4 11 5 12 6 13 7 14 8 6 9 5 10 4 11 2 12 3 13
REMARK SMILES IDX 1 14
REMARK H PARENT
REMARK Flexibility Score: inf
ROOT
ATOM      1  C   UNL     1     -13.388 -17.902  13.312  1.00  0.00     0.008 C 
ATOM      2  C   UNL     1     -13.648 -18.759  14.563  1.00  0.00    -0.011 C 
ENDROOT
BRANCH   2   3
ATOM      3  C   UNL     1     -12.989 -20.155  14.454  1.00  0.00     0.007 C 
BRANCH   3   4
ATOM      4  C   UNL     1     -12.005 -20.431  15.602  1.00  0.00     0.027 C 
BRANCH   4   5
ATOM      5  C   UNL     1     -11.744 -19.174  16.394  1.00  0.00    -0.028 C 
ATOM      6  C   UNL     1     -10.650 -18.394  16.250  1.00  0.00    -0.080 C 
ATOM      7  C   UNL     1      -9.532 -18.749  15.298  1.00  0.00     0.039 C 
ATOM      8  C   UNL     1     -10.545 -17.142  17.084  1.00  0.00     0.039 C 
ENDBRANCH   4   5
ENDBRANCH   3   4
ENDBRANCH   2   3
BRANCH   2   9
ATOM      9  C   UNL     1     -15.157 -18.854  14.903  1.00  0.00     0.045 C 
BRANCH   9  10
ATOM     10  C   UNL     1     -16.096 -19.000  13.696  1.00  0.00     0.233 C 
BRANCH  10  11
ATOM     11  O   UNL     1     -16.633 -20.317  13.640  1.00  0.00    -0.466 OA
BRANCH  11  12
ATOM     12  C   UNL     1     -16.504 -21.137  12.516  1.00  0.00     0.302 C 
ATOM     13  O   UNL     1     -17.344 -21.084  11.578  1.00  0.00    -0.253 OA
ATOM     14  C   UNL     1     -15.387 -22.123  12.453  1.00  0.00     0.139 C 
ENDBRANCH  11  12
ENDBRANCH  10  11
ENDBRANCH   9  10
ENDBRANCH   2   9
TORSDOF 7
ENDMDL
