MODEL 1
REMARK VINA RESULT:    -3.299      0.000      0.000
REMARK INTER + INTRA:          -4.581
REMARK INTER:                  -4.263
REMARK INTRA:                  -0.319
REMARK UNBOUND:                -0.319
REMARK SMILES C=CC(=O)CCCCC
REMARK SMILES IDX 6 1 7 2 8 3 9 4 5 5 3 6 4 7 2 8 1 9
REMARK H PARENT
REMARK Flexibility Score: inf
ROOT
ATOM      1  C   UNL     1       1.881 -10.074 -41.662  1.00  0.00     0.008 C 
ENDROOT
BRANCH   1   2
ATOM      2  C   UNL     1       2.840 -11.053 -42.361  1.00  0.00     0.000 C 
BRANCH   2   3
ATOM      3  C   UNL     1       2.637 -11.092 -43.883  1.00  0.00    -0.003 C 
ATOM      4  C   UNL     1       2.222 -12.473 -44.390  1.00  0.00     0.004 C 
ENDBRANCH   2   3
ENDBRANCH   1   2
BRANCH   1   5
ATOM      5  C   UNL     1       0.858  -9.471 -42.636  1.00  0.00     0.080 C 
BRANCH   5   6
ATOM      6  C   UNL     1      -0.534 -10.001 -42.399  1.00  0.00     0.155 C 
ATOM      7  O   UNL     1      -0.749 -11.230 -42.575  1.00  0.00    -0.295 OA
BRANCH   6   8
ATOM      8  C   UNL     1      -1.658  -9.153 -41.945  1.00  0.00     0.039 C 
ATOM      9  C   UNL     1      -1.809  -8.722 -40.693  1.00  0.00     0.012 C 
ENDBRANCH   6   8
ENDBRANCH   5   6
ENDBRANCH   1   5
TORSDOF 5
ENDMDL
MODEL 2
REMARK VINA RESULT:    -3.247      1.741      4.606
REMARK INTER + INTRA:          -4.515
REMARK INTER:                  -4.243
REMARK INTRA:                  -0.271
REMARK UNBOUND:                -0.319
REMARK SMILES C=CC(=O)CCCCC
REMARK SMILES IDX 6 1 7 2 8 3 9 4 5 5 3 6 4 7 2 8 1 9
REMARK H PARENT
REMARK Flexibility Score: inf
ROOT
ATOM      1  C   UNL     1       0.108  -9.651 -42.079  1.00  0.00     0.008 C 
ENDROOT
BRANCH   1   2
ATOM      2  C   UNL     1       0.051  -9.775 -40.547  1.00  0.00     0.000 C 
BRANCH   2   3
ATOM      3  C   UNL     1      -0.897  -8.749 -39.907  1.00  0.00    -0.003 C 
ATOM      4  C   UNL     1      -2.164  -8.521 -40.730  1.00  0.00     0.004 C 
ENDBRANCH   2   3
ENDBRANCH   1   2
BRANCH   1   5
ATOM      5  C   UNL     1       1.544  -9.467 -42.593  1.00  0.00     0.080 C 
BRANCH   5   6
ATOM      6  C   UNL     1       2.392 -10.693 -42.364  1.00  0.00     0.155 C 
ATOM      7  O   UNL     1       3.394 -10.598 -41.607  1.00  0.00    -0.295 OA
BRANCH   6   8
ATOM      8  C   UNL     1       2.092 -12.010 -42.966  1.00  0.00     0.039 C 
ATOM      9  C   UNL     1       2.191 -12.274 -44.269  1.00  0.00     0.012 C 
ENDBRANCH   6   8
ENDBRANCH   5   6
ENDBRANCH   1   5
TORSDOF 5
ENDMDL
MODEL 3
REMARK VINA RESULT:    -3.204      1.517      1.884
REMARK INTER + INTRA:          -4.459
REMARK INTER:                  -3.947
REMARK INTRA:                  -0.511
REMARK UNBOUND:                -0.319
REMARK SMILES C=CC(=O)CCCCC
REMARK SMILES IDX 6 1 7 2 8 3 9 4 5 5 3 6 4 7 2 8 1 9
REMARK H PARENT
REMARK Flexibility Score: inf
ROOT
ATOM      1  C   UNL     1       1.264  -9.476 -42.464  1.00  0.00     0.008 C 
ENDROOT
BRANCH   1   2
ATOM      2  C   UNL     1       2.365 -10.387 -41.893  1.00  0.00     0.000 C 
BRANCH   2   3
ATOM      3  C   UNL     1       2.157 -11.864 -42.260  1.00  0.00    -0.003 C 
ATOM      4  C   UNL     1       2.043 -12.089 -43.767  1.00  0.00     0.004 C 
ENDBRANCH   2   3
ENDBRANCH   1   2
BRANCH   1   5
ATOM      5  C   UNL     1       0.040  -9.397 -41.540  1.00  0.00     0.080 C 
BRANCH   5   6
ATOM      6  C   UNL     1      -1.230  -9.809 -42.240  1.00  0.00     0.155 C 
ATOM      7  O   UNL     1      -1.971  -8.910 -42.721  1.00  0.00    -0.295 OA
BRANCH   6   8
ATOM      8  C   UNL     1      -1.639 -11.220 -42.414  1.00  0.00     0.039 C 
ATOM      9  C   UNL     1      -1.767 -12.088 -41.410  1.00  0.00     0.012 C 
ENDBRANCH   6   8
ENDBRANCH   5   6
ENDBRANCH   1   5
TORSDOF 5
ENDMDL
MODEL 4
REMARK VINA RESULT:    -3.157      2.288      5.143
REMARK INTER + INTRA:          -4.399
REMARK INTER:                  -4.214
REMARK INTRA:                  -0.185
REMARK UNBOUND:                -0.319
REMARK SMILES C=CC(=O)CCCCC
REMARK SMILES IDX 6 1 7 2 8 3 9 4 5 5 3 6 4 7 2 8 1 9
REMARK H PARENT
REMARK Flexibility Score: inf
ROOT
ATOM      1  C   UNL     1      -0.506  -9.195 -39.344  1.00  0.00     0.008 C 
ENDROOT
BRANCH   1   2
ATOM      2  C   UNL     1      -1.227  -7.842 -39.215  1.00  0.00     0.000 C 
BRANCH   2   3
ATOM      3  C   UNL     1      -0.796  -7.061 -37.964  1.00  0.00    -0.003 C 
ATOM      4  C   UNL     1      -0.399  -7.973 -36.804  1.00  0.00     0.004 C 
ENDBRANCH   2   3
ENDBRANCH   1   2
BRANCH   1   5
ATOM      5  C   UNL     1      -0.643  -9.793 -40.752  1.00  0.00     0.080 C 
BRANCH   5   6
ATOM      6  C   UNL     1       0.617 -10.492 -41.199  1.00  0.00     0.155 C 
ATOM      7  O   UNL     1       0.819 -11.674 -40.813  1.00  0.00    -0.295 OA
BRANCH   6   8
ATOM      8  C   UNL     1       1.619  -9.865 -42.089  1.00  0.00     0.039 C 
ATOM      9  C   UNL     1       1.312  -9.081 -43.122  1.00  0.00     0.012 C 
ENDBRANCH   6   8
ENDBRANCH   5   6
ENDBRANCH   1   5
TORSDOF 5
ENDMDL
MODEL 5
REMARK VINA RESULT:    -3.145      1.830      4.024
REMARK INTER + INTRA:          -4.383
REMARK INTER:                  -3.764
REMARK INTRA:                  -0.619
REMARK UNBOUND:                -0.319
REMARK SMILES C=CC(=O)CCCCC
REMARK SMILES IDX 6 1 7 2 8 3 9 4 5 5 3 6 4 7 2 8 1 9
REMARK H PARENT
REMARK Flexibility Score: inf
ROOT
ATOM      1  C   UNL     1       0.122  -9.480 -41.883  1.00  0.00     0.008 C 
ENDROOT
BRANCH   1   2
ATOM      2  C   UNL     1      -0.974 -10.442 -42.373  1.00  0.00     0.000 C 
BRANCH   2   3
ATOM      3  C   UNL     1      -1.250 -11.578 -41.376  1.00  0.00    -0.003 C 
ATOM      4  C   UNL     1      -0.759 -11.260 -39.965  1.00  0.00     0.004 C 
ENDBRANCH   2   3
ENDBRANCH   1   2
BRANCH   1   5
ATOM      5  C   UNL     1       1.229  -9.282 -42.929  1.00  0.00     0.080 C 
BRANCH   5   6
ATOM      6  C   UNL     1       2.086 -10.512 -43.091  1.00  0.00     0.155 C 
ATOM      7  O   UNL     1       2.323 -10.931 -44.256  1.00  0.00    -0.295 OA
BRANCH   6   8
ATOM      8  C   UNL     1       2.682 -11.241 -41.951  1.00  0.00     0.039 C 
ATOM      9  C   UNL     1       2.357 -12.487 -41.609  1.00  0.00     0.012 C 
ENDBRANCH   6   8
ENDBRANCH   5   6
ENDBRANCH   1   5
TORSDOF 5
ENDMDL
MODEL 6
REMARK VINA RESULT:    -3.142      2.240      5.140
REMARK INTER + INTRA:          -4.379
REMARK INTER:                  -4.213
REMARK INTRA:                  -0.165
REMARK UNBOUND:                -0.319
REMARK SMILES C=CC(=O)CCCCC
REMARK SMILES IDX 6 1 7 2 8 3 9 4 5 5 3 6 4 7 2 8 1 9
REMARK H PARENT
REMARK Flexibility Score: inf
ROOT
ATOM      1  C   UNL     1      -0.251  -9.761 -40.137  1.00  0.00     0.008 C 
ENDROOT
BRANCH   1   2
ATOM      2  C   UNL     1      -0.825  -8.621 -39.279  1.00  0.00     0.000 C 
BRANCH   2   3
ATOM      3  C   UNL     1      -0.761  -8.926 -37.775  1.00  0.00    -0.003 C 
ATOM      4  C   UNL     1      -0.373  -7.707 -36.940  1.00  0.00     0.004 C 
ENDBRANCH   2   3
ENDBRANCH   1   2
BRANCH   1   5
ATOM      5  C   UNL     1      -0.295  -9.436 -41.638  1.00  0.00     0.080 C 
BRANCH   5   6
ATOM      6  C   UNL     1       1.066  -9.534 -42.282  1.00  0.00     0.155 C 
ATOM      7  O   UNL     1       1.275  -8.894 -43.346  1.00  0.00    -0.295 OA
BRANCH   6   8
ATOM      8  C   UNL     1       2.176 -10.328 -41.712  1.00  0.00     0.039 C 
ATOM      9  C   UNL     1       3.072 -10.990 -42.444  1.00  0.00     0.012 C 
ENDBRANCH   6   8
ENDBRANCH   5   6
ENDBRANCH   1   5
TORSDOF 5
ENDMDL
MODEL 7
REMARK VINA RESULT:    -3.093      1.553      4.759
REMARK INTER + INTRA:          -4.316
REMARK INTER:                  -4.031
REMARK INTRA:                  -0.285
REMARK UNBOUND:                -0.319
REMARK SMILES C=CC(=O)CCCCC
REMARK SMILES IDX 6 1 7 2 8 3 9 4 5 5 3 6 4 7 2 8 1 9
REMARK H PARENT
REMARK Flexibility Score: inf
ROOT
ATOM      1  C   UNL     1      -2.012  -8.766 -41.007  1.00  0.00     0.008 C 
ENDROOT
BRANCH   1   2
ATOM      2  C   UNL     1      -0.993  -8.697 -39.856  1.00  0.00     0.000 C 
BRANCH   2   3
ATOM      3  C   UNL     1      -1.327  -7.597 -38.838  1.00  0.00    -0.003 C 
ATOM      4  C   UNL     1      -0.425  -7.637 -37.605  1.00  0.00     0.004 C 
ENDBRANCH   2   3
ENDBRANCH   1   2
BRANCH   1   5
ATOM      5  C   UNL     1      -1.345  -9.088 -42.353  1.00  0.00     0.080 C 
BRANCH   5   6
ATOM      6  C   UNL     1      -0.659 -10.431 -42.341  1.00  0.00     0.155 C 
ATOM      7  O   UNL     1      -1.350 -11.458 -42.107  1.00  0.00    -0.295 OA
BRANCH   6   8
ATOM      8  C   UNL     1       0.785 -10.606 -42.614  1.00  0.00     0.039 C 
ATOM      9  C   UNL     1       1.743  -9.858 -42.067  1.00  0.00     0.012 C 
ENDBRANCH   6   8
ENDBRANCH   5   6
ENDBRANCH   1   5
TORSDOF 5
ENDMDL
MODEL 8
REMARK VINA RESULT:    -3.053      2.054      2.493
REMARK INTER + INTRA:          -4.264
REMARK INTER:                  -4.122
REMARK INTRA:                  -0.142
REMARK UNBOUND:                -0.319
REMARK SMILES C=CC(=O)CCCCC
REMARK SMILES IDX 6 1 7 2 8 3 9 4 5 5 3 6 4 7 2 8 1 9
REMARK H PARENT
REMARK Flexibility Score: inf
ROOT
ATOM      1  C   UNL     1       0.764 -10.391 -41.191  1.00  0.00     0.008 C 
ENDROOT
BRANCH   1   2
ATOM      2  C   UNL     1       1.901  -9.856 -42.078  1.00  0.00     0.000 C 
BRANCH   2   3
ATOM      3  C   UNL     1       2.749 -10.980 -42.692  1.00  0.00    -0.003 C 
ATOM      4  C   UNL     1       1.940 -11.901 -43.604  1.00  0.00     0.004 C 
ENDBRANCH   2   3
ENDBRANCH   1   2
BRANCH   1   5
ATOM      5  C   UNL     1      -0.376  -9.373 -41.032  1.00  0.00     0.080 C 
BRANCH   5   6
ATOM      6  C   UNL     1      -0.770  -9.181 -39.588  1.00  0.00     0.155 C 
ATOM      7  O   UNL     1      -0.770 -10.184 -38.826  1.00  0.00    -0.295 OA
BRANCH   6   8
ATOM      8  C   UNL     1      -1.135  -7.867 -39.016  1.00  0.00     0.039 C 
ATOM      9  C   UNL     1      -0.619  -7.375 -37.890  1.00  0.00     0.012 C 
ENDBRANCH   6   8
ENDBRANCH   5   6
ENDBRANCH   1   5
TORSDOF 5
ENDMDL
MODEL 9
REMARK VINA RESULT:    -3.047      1.707      4.332
REMARK INTER + INTRA:          -4.257
REMARK INTER:                  -3.755
REMARK INTRA:                  -0.502
REMARK UNBOUND:                -0.319
REMARK SMILES C=CC(=O)CCCCC
REMARK SMILES IDX 6 1 7 2 8 3 9 4 5 5 3 6 4 7 2 8 1 9
REMARK H PARENT
REMARK Flexibility Score: inf
ROOT
ATOM      1  C   UNL     1      -1.003  -8.644 -39.968  1.00  0.00     0.008 C 
ENDROOT
BRANCH   1   2
ATOM      2  C   UNL     1      -2.470  -8.648 -40.433  1.00  0.00     0.000 C 
BRANCH   2   3
ATOM      3  C   UNL     1      -2.611  -8.381 -41.940  1.00  0.00    -0.003 C 
ATOM      4  C   UNL     1      -2.763  -9.664 -42.757  1.00  0.00     0.004 C 
ENDBRANCH   2   3
ENDBRANCH   1   2
BRANCH   1   5
ATOM      5  C   UNL     1      -0.454 -10.066 -39.771  1.00  0.00     0.080 C 
BRANCH   5   6
ATOM      6  C   UNL     1       0.428 -10.499 -40.915  1.00  0.00     0.155 C 
ATOM      7  O   UNL     1       0.743 -11.715 -41.004  1.00  0.00    -0.295 OA
BRANCH   6   8
ATOM      8  C   UNL     1       0.924  -9.569 -41.952  1.00  0.00     0.039 C 
ATOM      9  C   UNL     1       1.555  -9.956 -43.060  1.00  0.00     0.012 C 
ENDBRANCH   6   8
ENDBRANCH   5   6
ENDBRANCH   1   5
TORSDOF 5
ENDMDL
