MODEL 1
REMARK VINA RESULT:    -6.752      0.000      0.000
REMARK INTER + INTRA:          -9.230
REMARK INTER:                  -8.528
REMARK INTRA:                  -0.702
REMARK UNBOUND:                -0.702
REMARK SMILES Oc1ccc(CCc2cc(O)cc(O)c2)cc1
REMARK SMILES IDX 6 1 5 2 4 3 3 4 2 5 16 6 17 7 1 8 7 10 8 11 15 12 9 13 13 14
REMARK SMILES IDX 10 15 12 16 14 17 11 19
REMARK H PARENT 1 9 14 18 11 20
REMARK Flexibility Score: inf
ROOT
ATOM      1  C   UNL     1      -8.811   7.780 -14.347  1.00  0.00     0.040 C 
ENDROOT
BRANCH   1   2
ATOM      2  C   UNL     1      -8.719   8.606 -13.093  1.00  0.00    -0.047 A 
ATOM      3  C   UNL     1      -9.143   9.944 -13.093  1.00  0.00     0.007 A 
ATOM      4  C   UNL     1      -9.027  10.721 -11.936  1.00  0.00     0.046 A 
ATOM      5  C   UNL     1      -8.478  10.172 -10.772  1.00  0.00     0.115 A 
ATOM      6  C   UNL     1      -8.156   8.062 -11.927  1.00  0.00     0.007 A 
ATOM      7  C   UNL     1      -8.042   8.841 -10.770  1.00  0.00     0.046 A 
BRANCH   5   8
ATOM      8  O   UNL     1      -8.368  10.957  -9.626  1.00  0.00    -0.508 OA
ATOM      9  H   UNL     1      -8.623  10.599  -8.713  1.00  0.00     0.293 HD
ENDBRANCH   5   8
ENDBRANCH   1   2
BRANCH   1  10
ATOM     10  C   UNL     1      -7.434   7.233 -14.734  1.00  0.00     0.040 C 
BRANCH  10  11
ATOM     11  C   UNL     1      -6.568   8.330 -15.294  1.00  0.00    -0.040 A 
ATOM     12  C   UNL     1      -6.747   8.768 -16.616  1.00  0.00     0.050 A 
ATOM     13  C   UNL     1      -5.613   8.963 -14.481  1.00  0.00     0.050 A 
ATOM     14  C   UNL     1      -5.963   9.812 -17.127  1.00  0.00     0.119 A 
ATOM     15  C   UNL     1      -4.829  10.007 -14.992  1.00  0.00     0.119 A 
ATOM     16  C   UNL     1      -5.005  10.426 -16.314  1.00  0.00     0.092 A 
BRANCH  14  17
ATOM     17  O   UNL     1      -6.130  10.248 -18.439  1.00  0.00    -0.508 OA
ATOM     18  H   UNL     1      -5.361  10.642 -18.970  1.00  0.00     0.293 HD
ENDBRANCH  14  17
BRANCH  15  19
ATOM     19  O   UNL     1      -3.875  10.634 -14.193  1.00  0.00    -0.508 OA
ATOM     20  H   UNL     1      -3.703  11.630 -14.255  1.00  0.00     0.293 HD
ENDBRANCH  15  19
ENDBRANCH  10  11
ENDBRANCH   1  10
TORSDOF 6
ENDMDL
MODEL 2
REMARK VINA RESULT:    -6.677      1.924      2.261
REMARK INTER + INTRA:          -9.136
REMARK INTER:                  -8.525
REMARK INTRA:                  -0.611
REMARK UNBOUND:                -0.702
REMARK SMILES Oc1ccc(CCc2cc(O)cc(O)c2)cc1
REMARK SMILES IDX 6 1 5 2 4 3 3 4 2 5 16 6 17 7 1 8 7 10 8 11 15 12 9 13 13 14
REMARK SMILES IDX 10 15 12 16 14 17 11 19
REMARK H PARENT 1 9 14 18 11 20
REMARK Flexibility Score: inf
ROOT
ATOM      1  C   UNL     1      -8.847   8.334 -15.170  1.00  0.00     0.040 C 
ENDROOT
BRANCH   1   2
ATOM      2  C   UNL     1      -9.664   8.865 -14.023  1.00  0.00    -0.047 A 
ATOM      3  C   UNL     1     -10.800   8.168 -13.580  1.00  0.00     0.007 A 
ATOM      4  C   UNL     1     -11.577   8.678 -12.535  1.00  0.00     0.046 A 
ATOM      5  C   UNL     1     -11.235   9.892 -11.932  1.00  0.00     0.115 A 
ATOM      6  C   UNL     1      -9.332  10.091 -13.423  1.00  0.00     0.007 A 
ATOM      7  C   UNL     1     -10.111  10.599 -12.379  1.00  0.00     0.046 A 
BRANCH   5   8
ATOM      8  O   UNL     1     -12.019  10.389 -10.892  1.00  0.00    -0.508 OA
ATOM      9  H   UNL     1     -13.029  10.322 -10.912  1.00  0.00     0.293 HD
ENDBRANCH   5   8
ENDBRANCH   1   2
BRANCH   1  10
ATOM     10  C   UNL     1      -7.695   7.467 -14.654  1.00  0.00     0.040 C 
BRANCH  10  11
ATOM     11  C   UNL     1      -6.404   8.241 -14.671  1.00  0.00    -0.040 A 
ATOM     12  C   UNL     1      -5.738   8.482 -15.883  1.00  0.00     0.050 A 
ATOM     13  C   UNL     1      -5.883   8.775 -13.480  1.00  0.00     0.050 A 
ATOM     14  C   UNL     1      -4.553   9.230 -15.903  1.00  0.00     0.119 A 
ATOM     15  C   UNL     1      -4.698   9.523 -13.500  1.00  0.00     0.119 A 
ATOM     16  C   UNL     1      -4.035   9.746 -14.711  1.00  0.00     0.092 A 
BRANCH  14  17
ATOM     17  O   UNL     1      -3.884   9.468 -17.101  1.00  0.00    -0.508 OA
ATOM     18  H   UNL     1      -3.144   8.855 -17.427  1.00  0.00     0.293 HD
ENDBRANCH  14  17
BRANCH  15  19
ATOM     19  O   UNL     1      -4.173  10.050 -12.321  1.00  0.00    -0.508 OA
ATOM     20  H   UNL     1      -4.576  10.867 -11.880  1.00  0.00     0.293 HD
ENDBRANCH  15  19
ENDBRANCH  10  11
ENDBRANCH   1  10
TORSDOF 6
ENDMDL
MODEL 3
REMARK VINA RESULT:    -6.641      2.069      5.743
REMARK INTER + INTRA:          -9.090
REMARK INTER:                  -8.485
REMARK INTRA:                  -0.604
REMARK UNBOUND:                -0.702
REMARK SMILES Oc1ccc(CCc2cc(O)cc(O)c2)cc1
REMARK SMILES IDX 6 1 5 2 4 3 3 4 2 5 16 6 17 7 1 8 7 10 8 11 15 12 9 13 13 14
REMARK SMILES IDX 10 15 12 16 14 17 11 19
REMARK H PARENT 1 9 14 18 11 20
REMARK Flexibility Score: inf
ROOT
ATOM      1  C   UNL     1      -8.080   8.351 -12.314  1.00  0.00     0.040 C 
ENDROOT
BRANCH   1   2
ATOM      2  C   UNL     1      -6.961   8.578 -13.294  1.00  0.00    -0.047 A 
ATOM      3  C   UNL     1      -5.808   9.276 -12.904  1.00  0.00     0.007 A 
ATOM      4  C   UNL     1      -4.782   9.515 -13.824  1.00  0.00     0.046 A 
ATOM      5  C   UNL     1      -4.904   9.069 -15.144  1.00  0.00     0.115 A 
ATOM      6  C   UNL     1      -7.086   8.143 -14.624  1.00  0.00     0.007 A 
ATOM      7  C   UNL     1      -6.059   8.383 -15.543  1.00  0.00     0.046 A 
BRANCH   5   8
ATOM      8  O   UNL     1      -3.875   9.314 -16.051  1.00  0.00    -0.508 OA
ATOM      9  H   UNL     1      -3.288   8.565 -16.400  1.00  0.00     0.293 HD
ENDBRANCH   5   8
ENDBRANCH   1   2
BRANCH   1  10
ATOM     10  C   UNL     1      -9.427   8.732 -12.936  1.00  0.00     0.040 C 
BRANCH  10  11
ATOM     11  C   UNL     1      -9.901  10.056 -12.399  1.00  0.00    -0.040 A 
ATOM     12  C   UNL     1     -10.984  10.717 -13.000  1.00  0.00     0.050 A 
ATOM     13  C   UNL     1      -9.299  10.613 -11.258  1.00  0.00     0.050 A 
ATOM     14  C   UNL     1     -11.446  11.934 -12.480  1.00  0.00     0.119 A 
ATOM     15  C   UNL     1      -9.762  11.830 -10.738  1.00  0.00     0.119 A 
ATOM     16  C   UNL     1     -10.832  12.488 -11.352  1.00  0.00     0.092 A 
BRANCH  14  17
ATOM     17  O   UNL     1     -12.516  12.599 -13.074  1.00  0.00    -0.508 OA
ATOM     18  H   UNL     1     -13.473  12.289 -12.943  1.00  0.00     0.293 HD
ENDBRANCH  14  17
BRANCH  15  19
ATOM     19  O   UNL     1      -9.165  12.391  -9.611  1.00  0.00    -0.508 OA
ATOM     20  H   UNL     1      -9.598  13.156  -9.107  1.00  0.00     0.293 HD
ENDBRANCH  15  19
ENDBRANCH  10  11
ENDBRANCH   1  10
TORSDOF 6
ENDMDL
MODEL 4
REMARK VINA RESULT:    -6.628      2.062      6.078
REMARK INTER + INTRA:          -9.074
REMARK INTER:                  -8.477
REMARK INTRA:                  -0.597
REMARK UNBOUND:                -0.702
REMARK SMILES Oc1ccc(CCc2cc(O)cc(O)c2)cc1
REMARK SMILES IDX 6 1 5 2 4 3 3 4 2 5 16 6 17 7 1 8 7 10 8 11 15 12 9 13 13 14
REMARK SMILES IDX 10 15 12 16 14 17 11 19
REMARK H PARENT 1 9 14 18 11 20
REMARK Flexibility Score: inf
ROOT
ATOM      1  C   UNL     1      -8.060   8.358 -12.369  1.00  0.00     0.040 C 
ENDROOT
BRANCH   1   2
ATOM      2  C   UNL     1      -6.946   8.579 -13.356  1.00  0.00    -0.047 A 
ATOM      3  C   UNL     1      -5.810   9.317 -12.988  1.00  0.00     0.007 A 
ATOM      4  C   UNL     1      -4.789   9.551 -13.916  1.00  0.00     0.046 A 
ATOM      5  C   UNL     1      -4.900   9.059 -15.221  1.00  0.00     0.115 A 
ATOM      6  C   UNL     1      -7.058   8.098 -14.671  1.00  0.00     0.007 A 
ATOM      7  C   UNL     1      -6.037   8.333 -15.597  1.00  0.00     0.046 A 
BRANCH   5   8
ATOM      8  O   UNL     1      -3.876   9.299 -16.135  1.00  0.00    -0.508 OA
ATOM      9  H   UNL     1      -3.519   8.564 -16.735  1.00  0.00     0.293 HD
ENDBRANCH   5   8
ENDBRANCH   1   2
BRANCH   1  10
ATOM     10  C   UNL     1      -9.409   8.736 -12.986  1.00  0.00     0.040 C 
BRANCH  10  11
ATOM     11  C   UNL     1      -9.915  10.026 -12.398  1.00  0.00    -0.040 A 
ATOM     12  C   UNL     1      -9.288  10.587 -11.275  1.00  0.00     0.050 A 
ATOM     13  C   UNL     1     -10.985  10.709 -13.003  1.00  0.00     0.050 A 
ATOM     14  C   UNL     1      -9.738  11.805 -10.747  1.00  0.00     0.119 A 
ATOM     15  C   UNL     1     -11.435  11.927 -12.475  1.00  0.00     0.119 A 
ATOM     16  C   UNL     1     -10.812  12.469 -11.347  1.00  0.00     0.092 A 
BRANCH  14  17
ATOM     17  O   UNL     1      -9.124  12.364  -9.629  1.00  0.00    -0.508 OA
ATOM     18  H   UNL     1      -9.294  13.325  -9.354  1.00  0.00     0.293 HD
ENDBRANCH  14  17
BRANCH  15  19
ATOM     19  O   UNL     1     -12.499  12.605 -13.067  1.00  0.00    -0.508 OA
ATOM     20  H   UNL     1     -12.611  13.606 -12.967  1.00  0.00     0.293 HD
ENDBRANCH  15  19
ENDBRANCH  10  11
ENDBRANCH   1  10
TORSDOF 6
ENDMDL
MODEL 5
REMARK VINA RESULT:    -6.611      1.962      2.950
REMARK INTER + INTRA:          -9.053
REMARK INTER:                  -8.452
REMARK INTRA:                  -0.601
REMARK UNBOUND:                -0.702
REMARK SMILES Oc1ccc(CCc2cc(O)cc(O)c2)cc1
REMARK SMILES IDX 6 1 5 2 4 3 3 4 2 5 16 6 17 7 1 8 7 10 8 11 15 12 9 13 13 14
REMARK SMILES IDX 10 15 12 16 14 17 11 19
REMARK H PARENT 1 9 14 18 11 20
REMARK Flexibility Score: inf
ROOT
ATOM      1  C   UNL     1      -8.962   8.375 -15.031  1.00  0.00     0.040 C 
ENDROOT
BRANCH   1   2
ATOM      2  C   UNL     1      -9.748   8.966 -13.892  1.00  0.00    -0.047 A 
ATOM      3  C   UNL     1     -10.864   8.288 -13.375  1.00  0.00     0.007 A 
ATOM      4  C   UNL     1     -11.614   8.853 -12.338  1.00  0.00     0.046 A 
ATOM      5  C   UNL     1     -11.264  10.104 -11.817  1.00  0.00     0.115 A 
ATOM      6  C   UNL     1      -9.408  10.227 -13.375  1.00  0.00     0.007 A 
ATOM      7  C   UNL     1     -10.160  10.790 -12.339  1.00  0.00     0.046 A 
BRANCH   5   8
ATOM      8  O   UNL     1     -12.020  10.655 -10.785  1.00  0.00    -0.508 OA
ATOM      9  H   UNL     1     -13.005  10.443 -10.679  1.00  0.00     0.293 HD
ENDBRANCH   5   8
ENDBRANCH   1   2
BRANCH   1  10
ATOM     10  C   UNL     1      -7.802   7.527 -14.500  1.00  0.00     0.040 C 
BRANCH  10  11
ATOM     11  C   UNL     1      -6.515   8.306 -14.545  1.00  0.00    -0.040 A 
ATOM     12  C   UNL     1      -5.989   8.873 -13.373  1.00  0.00     0.050 A 
ATOM     13  C   UNL     1      -5.800   8.425 -15.749  1.00  0.00     0.050 A 
ATOM     14  C   UNL     1      -4.774   9.571 -13.408  1.00  0.00     0.119 A 
ATOM     15  C   UNL     1      -4.585   9.123 -15.784  1.00  0.00     0.119 A 
ATOM     16  C   UNL     1      -4.077   9.696 -14.613  1.00  0.00     0.092 A 
BRANCH  14  17
ATOM     17  O   UNL     1      -4.250  10.141 -12.250  1.00  0.00    -0.508 OA
ATOM     18  H   UNL     1      -4.303  11.139 -12.079  1.00  0.00     0.293 HD
ENDBRANCH  14  17
BRANCH  15  19
ATOM     19  O   UNL     1      -3.875   9.250 -16.976  1.00  0.00    -0.508 OA
ATOM     20  H   UNL     1      -4.301   9.642 -17.807  1.00  0.00     0.293 HD
ENDBRANCH  15  19
ENDBRANCH  10  11
ENDBRANCH   1  10
TORSDOF 6
ENDMDL
MODEL 6
REMARK VINA RESULT:    -6.546      2.187      2.586
REMARK INTER + INTRA:          -8.970
REMARK INTER:                  -8.479
REMARK INTRA:                  -0.491
REMARK UNBOUND:                -0.702
REMARK SMILES Oc1ccc(CCc2cc(O)cc(O)c2)cc1
REMARK SMILES IDX 6 1 5 2 4 3 3 4 2 5 16 6 17 7 1 8 7 10 8 11 15 12 9 13 13 14
REMARK SMILES IDX 10 15 12 16 14 17 11 19
REMARK H PARENT 1 9 14 18 11 20
REMARK Flexibility Score: inf
ROOT
ATOM      1  C   UNL     1      -8.244   8.980 -12.804  1.00  0.00     0.040 C 
ENDROOT
BRANCH   1   2
ATOM      2  C   UNL     1      -9.570   9.690 -12.747  1.00  0.00    -0.047 A 
ATOM      3  C   UNL     1      -9.621  11.092 -12.702  1.00  0.00     0.007 A 
ATOM      4  C   UNL     1     -10.851  11.751 -12.617  1.00  0.00     0.046 A 
ATOM      5  C   UNL     1     -12.040  11.016 -12.565  1.00  0.00     0.115 A 
ATOM      6  C   UNL     1     -10.765   8.955 -12.682  1.00  0.00     0.007 A 
ATOM      7  C   UNL     1     -11.995   9.616 -12.597  1.00  0.00     0.046 A 
BRANCH   5   8
ATOM      8  O   UNL     1     -13.260  11.685 -12.480  1.00  0.00    -0.508 OA
ATOM      9  H   UNL     1     -14.052  11.282 -11.994  1.00  0.00     0.293 HD
ENDBRANCH   5   8
ENDBRANCH   1   2
BRANCH   1  10
ATOM     10  C   UNL     1      -7.955   8.492 -14.227  1.00  0.00     0.040 C 
BRANCH  10  11
ATOM     11  C   UNL     1      -6.572   8.902 -14.655  1.00  0.00    -0.040 A 
ATOM     12  C   UNL     1      -5.944   8.258 -15.733  1.00  0.00     0.050 A 
ATOM     13  C   UNL     1      -5.919   9.969 -14.014  1.00  0.00     0.050 A 
ATOM     14  C   UNL     1      -4.669   8.662 -16.153  1.00  0.00     0.119 A 
ATOM     15  C   UNL     1      -4.644  10.372 -14.433  1.00  0.00     0.119 A 
ATOM     16  C   UNL     1      -4.022   9.715 -15.500  1.00  0.00     0.092 A 
BRANCH  14  17
ATOM     17  O   UNL     1      -4.038   8.024 -17.218  1.00  0.00    -0.508 OA
ATOM     18  H   UNL     1      -4.493   7.919 -18.118  1.00  0.00     0.293 HD
ENDBRANCH  14  17
BRANCH  15  19
ATOM     19  O   UNL     1      -3.989  11.425 -13.798  1.00  0.00    -0.508 OA
ATOM     20  H   UNL     1      -3.002  11.381 -13.579  1.00  0.00     0.293 HD
ENDBRANCH  15  19
ENDBRANCH  10  11
ENDBRANCH   1  10
TORSDOF 6
ENDMDL
MODEL 7
REMARK VINA RESULT:    -6.500      2.475      3.534
REMARK INTER + INTRA:          -8.912
REMARK INTER:                  -8.514
REMARK INTRA:                  -0.398
REMARK UNBOUND:                -0.702
REMARK SMILES Oc1ccc(CCc2cc(O)cc(O)c2)cc1
REMARK SMILES IDX 6 1 5 2 4 3 3 4 2 5 16 6 17 7 1 8 7 10 8 11 15 12 9 13 13 14
REMARK SMILES IDX 10 15 12 16 14 17 11 19
REMARK H PARENT 1 9 14 18 11 20
REMARK Flexibility Score: inf
ROOT
ATOM      1  C   UNL     1      -8.640  10.482 -12.835  1.00  0.00     0.040 C 
ENDROOT
BRANCH   1   2
ATOM      2  C   UNL     1     -10.090  10.825 -12.622  1.00  0.00    -0.047 A 
ATOM      3  C   UNL     1     -10.465  12.136 -12.286  1.00  0.00     0.007 A 
ATOM      4  C   UNL     1     -11.809  12.448 -12.056  1.00  0.00     0.046 A 
ATOM      5  C   UNL     1     -12.788  11.453 -12.148  1.00  0.00     0.115 A 
ATOM      6  C   UNL     1     -11.074   9.826 -12.700  1.00  0.00     0.007 A 
ATOM      7  C   UNL     1     -12.417  10.140 -12.470  1.00  0.00     0.046 A 
BRANCH   5   8
ATOM      8  O   UNL     1     -14.123  11.777 -11.917  1.00  0.00    -0.508 OA
ATOM      9  H   UNL     1     -14.484  11.892 -10.977  1.00  0.00     0.293 HD
ENDBRANCH   5   8
ENDBRANCH   1   2
BRANCH   1  10
ATOM     10  C   UNL     1      -8.468   9.641 -14.103  1.00  0.00     0.040 C 
BRANCH  10  11
ATOM     11  C   UNL     1      -7.060   9.753 -14.624  1.00  0.00    -0.040 A 
ATOM     12  C   UNL     1      -6.125  10.570 -13.968  1.00  0.00     0.050 A 
ATOM     13  C   UNL     1      -6.654   8.997 -15.737  1.00  0.00     0.050 A 
ATOM     14  C   UNL     1      -4.805  10.650 -14.434  1.00  0.00     0.119 A 
ATOM     15  C   UNL     1      -5.334   9.076 -16.202  1.00  0.00     0.119 A 
ATOM     16  C   UNL     1      -4.415   9.905 -15.550  1.00  0.00     0.092 A 
BRANCH  14  17
ATOM     17  O   UNL     1      -3.875  11.464 -13.792  1.00  0.00    -0.508 OA
ATOM     18  H   UNL     1      -4.158  12.154 -13.106  1.00  0.00     0.293 HD
ENDBRANCH  14  17
BRANCH  15  19
ATOM     19  O   UNL     1      -4.927   8.335 -17.309  1.00  0.00    -0.508 OA
ATOM     20  H   UNL     1      -4.357   7.504 -17.211  1.00  0.00     0.293 HD
ENDBRANCH  15  19
ENDBRANCH  10  11
ENDBRANCH   1  10
TORSDOF 6
ENDMDL
MODEL 8
REMARK VINA RESULT:    -6.486      2.849      3.705
REMARK INTER + INTRA:          -8.894
REMARK INTER:                  -8.370
REMARK INTRA:                  -0.524
REMARK UNBOUND:                -0.702
REMARK SMILES Oc1ccc(CCc2cc(O)cc(O)c2)cc1
REMARK SMILES IDX 6 1 5 2 4 3 3 4 2 5 16 6 17 7 1 8 7 10 8 11 15 12 9 13 13 14
REMARK SMILES IDX 10 15 12 16 14 17 11 19
REMARK H PARENT 1 9 14 18 11 20
REMARK Flexibility Score: inf
ROOT
ATOM      1  C   UNL     1      -9.992   9.538 -13.353  1.00  0.00     0.040 C 
ENDROOT
BRANCH   1   2
ATOM      2  C   UNL     1     -11.010  10.438 -12.707  1.00  0.00    -0.047 A 
ATOM      3  C   UNL     1     -12.260   9.930 -12.319  1.00  0.00     0.007 A 
ATOM      4  C   UNL     1     -13.218  10.774 -11.748  1.00  0.00     0.046 A 
ATOM      5  C   UNL     1     -12.940  12.133 -11.568  1.00  0.00     0.115 A 
ATOM      6  C   UNL     1     -10.740  11.805 -12.537  1.00  0.00     0.007 A 
ATOM      7  C   UNL     1     -11.699  12.648 -11.965  1.00  0.00     0.046 A 
BRANCH   5   8
ATOM      8  O   UNL     1     -13.904  12.963 -10.998  1.00  0.00    -0.508 OA
ATOM      9  H   UNL     1     -13.745  13.957 -10.883  1.00  0.00     0.293 HD
ENDBRANCH   5   8
ENDBRANCH   1   2
BRANCH   1  10
ATOM     10  C   UNL     1      -8.894   9.162 -12.354  1.00  0.00     0.040 C 
BRANCH  10  11
ATOM     11  C   UNL     1      -7.551   9.635 -12.842  1.00  0.00    -0.040 A 
ATOM     12  C   UNL     1      -7.466  10.632 -13.827  1.00  0.00     0.050 A 
ATOM     13  C   UNL     1      -6.371   9.122 -12.277  1.00  0.00     0.050 A 
ATOM     14  C   UNL     1      -6.216  11.096 -14.259  1.00  0.00     0.119 A 
ATOM     15  C   UNL     1      -5.121   9.585 -12.709  1.00  0.00     0.119 A 
ATOM     16  C   UNL     1      -5.047  10.569 -13.700  1.00  0.00     0.092 A 
BRANCH  14  17
ATOM     17  O   UNL     1      -6.125  12.080 -15.239  1.00  0.00    -0.508 OA
ATOM     18  H   UNL     1      -6.609  12.966 -15.149  1.00  0.00     0.293 HD
ENDBRANCH  14  17
BRANCH  15  19
ATOM     19  O   UNL     1      -3.947   9.076 -12.157  1.00  0.00    -0.508 OA
ATOM     20  H   UNL     1      -3.866   8.103 -11.889  1.00  0.00     0.293 HD
ENDBRANCH  15  19
ENDBRANCH  10  11
ENDBRANCH   1  10
TORSDOF 6
ENDMDL
MODEL 9
REMARK VINA RESULT:    -6.426      3.018      6.566
REMARK INTER + INTRA:          -8.819
REMARK INTER:                  -8.412
REMARK INTRA:                  -0.407
REMARK UNBOUND:                -0.702
REMARK SMILES Oc1ccc(CCc2cc(O)cc(O)c2)cc1
REMARK SMILES IDX 6 1 5 2 4 3 3 4 2 5 16 6 17 7 1 8 7 10 8 11 15 12 9 13 13 14
REMARK SMILES IDX 10 15 12 16 14 17 11 19
REMARK H PARENT 1 9 14 18 11 20
REMARK Flexibility Score: inf
ROOT
ATOM      1  C   UNL     1      -9.162   9.087 -13.970  1.00  0.00     0.040 C 
ENDROOT
BRANCH   1   2
ATOM      2  C   UNL     1      -7.758   9.133 -14.509  1.00  0.00    -0.047 A 
ATOM      3  C   UNL     1      -7.033  10.336 -14.496  1.00  0.00     0.007 A 
ATOM      4  C   UNL     1      -5.741  10.386 -15.026  1.00  0.00     0.046 A 
ATOM      5  C   UNL     1      -5.165   9.240 -15.585  1.00  0.00     0.115 A 
ATOM      6  C   UNL     1      -7.181   7.989 -15.082  1.00  0.00     0.007 A 
ATOM      7  C   UNL     1      -5.888   8.041 -15.613  1.00  0.00     0.046 A 
BRANCH   5   8
ATOM      8  O   UNL     1      -3.875   9.305 -16.111  1.00  0.00    -0.508 OA
ATOM      9  H   UNL     1      -3.660   8.939 -17.031  1.00  0.00     0.293 HD
ENDBRANCH   5   8
ENDBRANCH   1   2
BRANCH   1  10
ATOM     10  C   UNL     1      -9.274   9.917 -12.687  1.00  0.00     0.040 C 
BRANCH  10  11
ATOM     11  C   UNL     1     -10.680  10.421 -12.504  1.00  0.00    -0.040 A 
ATOM     12  C   UNL     1     -10.943  11.800 -12.498  1.00  0.00     0.050 A 
ATOM     13  C   UNL     1     -11.748   9.515 -12.395  1.00  0.00     0.050 A 
ATOM     14  C   UNL     1     -12.257  12.269 -12.361  1.00  0.00     0.119 A 
ATOM     15  C   UNL     1     -13.062   9.984 -12.258  1.00  0.00     0.119 A 
ATOM     16  C   UNL     1     -13.312  11.360 -12.238  1.00  0.00     0.092 A 
BRANCH  14  17
ATOM     17  O   UNL     1     -12.524  13.636 -12.347  1.00  0.00    -0.508 OA
ATOM     18  H   UNL     1     -13.446  13.994 -12.125  1.00  0.00     0.293 HD
ENDBRANCH  14  17
BRANCH  15  19
ATOM     19  O   UNL     1     -14.125   9.090 -12.142  1.00  0.00    -0.508 OA
ATOM     20  H   UNL     1     -13.987   8.142 -11.814  1.00  0.00     0.293 HD
ENDBRANCH  15  19
ENDBRANCH  10  11
ENDBRANCH   1  10
TORSDOF 6
ENDMDL
