MODEL 1
REMARK VINA RESULT:    -8.406      0.000      0.000
REMARK INTER + INTRA:          -8.898
REMARK INTER:                  -8.898
REMARK INTRA:                   0.000
REMARK UNBOUND:                 0.000
REMARK SMILES C[C@@H]1CC[C@@H]2[N@H+](C1)C[C@H]1[C@@H]3C[C@H]4[C@@H](CC(=O)[C@@H]5C[C@H](O)CC[C@@]54C)[C@H]3CC[C@@H]1[C@]2(C)O
REMARK SMILES IDX 5 1 6 2 8 3 7 4 4 5 29 6 3 7 28 8 30 9 2 10 27 11 9 12 1 13
REMARK SMILES IDX 26 14 10 15 25 16 11 17 13 18 12 19 14 20 23 21 15 22 17 23
REMARK SMILES IDX 22 24 24 25 16 26 18 27 21 28 19 29 31 31 20 33
REMARK H PARENT 6 30 31 32 20 34
REMARK Flexibility Score: inf
ROOT
ATOM      1  C   UNL     1      21.379 -19.084 -11.243  1.00  0.00     0.216 C 
ATOM      2  N   UNL     1      22.612 -19.762 -10.732  1.00  0.00    -0.330 N 
ATOM      3  C   UNL     1      22.752 -21.159 -11.194  1.00  0.00     0.266 C 
ATOM      4  C   UNL     1      23.843 -18.963 -10.943  1.00  0.00     0.265 C 
ATOM      5  C   UNL     1      21.336 -17.579 -10.814  1.00  0.00     0.069 C 
ATOM      6  C   UNL     1      21.139 -19.248 -12.795  1.00  0.00     0.117 C 
ATOM      7  C   UNL     1      22.361 -17.239  -9.732  1.00  0.00     0.015 C 
ATOM      8  C   UNL     1      21.284 -20.751 -13.198  1.00  0.00     0.036 C 
ATOM      9  C   UNL     1      19.703 -18.746 -13.125  1.00  0.00     0.049 C 
ATOM     10  C   UNL     1      23.787 -17.599 -10.196  1.00  0.00     0.041 C 
ATOM     11  C   UNL     1      21.034 -21.026 -14.723  1.00  0.00     0.007 C 
ATOM     12  C   UNL     1      22.662 -21.294 -12.719  1.00  0.00     0.054 C 
ATOM     13  C   UNL     1      24.750 -17.572  -9.003  1.00  0.00     0.013 C 
ATOM     14  C   UNL     1      21.319 -22.488 -15.144  1.00  0.00     0.004 C 
ATOM     15  C   UNL     1      22.772 -22.769 -13.148  1.00  0.00     0.002 C 
ATOM     16  C   UNL     1      22.723 -22.854 -14.670  1.00  0.00    -0.004 C 
ATOM     17  C   UNL     1      24.016 -23.580 -12.780  1.00  0.00     0.009 C 
ATOM     18  C   UNL     1      23.345 -24.216 -15.029  1.00  0.00     0.003 C 
ATOM     19  C   UNL     1      23.822 -24.797 -13.691  1.00  0.00    -0.000 C 
ATOM     20  C   UNL     1      22.503 -25.285 -15.746  1.00  0.00     0.080 C 
ATOM     21  C   UNL     1      24.950 -25.878 -13.876  1.00  0.00    -0.020 C 
ATOM     22  C   UNL     1      23.270 -26.600 -15.731  1.00  0.00     0.136 C 
ATOM     23  C   UNL     1      24.734 -26.622 -15.267  1.00  0.00     0.065 C 
ATOM     24  C   UNL     1      24.857 -26.875 -12.677  1.00  0.00     0.010 C 
ATOM     25  C   UNL     1      26.346 -25.204 -13.874  1.00  0.00     0.012 C 
ATOM     26  O   UNL     1      22.716 -27.617 -16.125  1.00  0.00    -0.299 OA
ATOM     27  C   UNL     1      25.419 -28.009 -15.368  1.00  0.00     0.043 C 
ATOM     28  C   UNL     1      25.663 -28.160 -12.875  1.00  0.00     0.032 C 
ATOM     29  C   UNL     1      25.211 -28.898 -14.140  1.00  0.00     0.115 C 
ATOM     30  H   UNL     1      22.502 -19.855  -9.693  1.00  0.00     0.348 HD
ENDROOT
BRANCH   6  31
ATOM     31  O   UNL     1      22.094 -18.473 -13.488  1.00  0.00    -0.384 OA
ATOM     32  H   UNL     1      22.745 -19.076 -13.932  1.00  0.00     0.211 HD
ENDBRANCH   6  31
BRANCH  29  33
ATOM     33  O   UNL     1      23.863 -29.281 -14.044  1.00  0.00    -0.393 OA
ATOM     34  H   UNL     1      23.702 -29.528 -13.097  1.00  0.00     0.210 HD
ENDBRANCH  29  33
TORSDOF 2
ENDMDL
MODEL 2
REMARK VINA RESULT:    -8.306      3.057      8.877
REMARK INTER + INTRA:          -8.792
REMARK INTER:                  -8.792
REMARK INTRA:                   0.000
REMARK UNBOUND:                 0.000
REMARK SMILES C[C@@H]1CC[C@@H]2[N@H+](C1)C[C@H]1[C@@H]3C[C@H]4[C@@H](CC(=O)[C@@H]5C[C@H](O)CC[C@@]54C)[C@H]3CC[C@@H]1[C@]2(C)O
REMARK SMILES IDX 5 1 6 2 8 3 7 4 4 5 29 6 3 7 28 8 30 9 2 10 27 11 9 12 1 13
REMARK SMILES IDX 26 14 10 15 25 16 11 17 13 18 12 19 14 20 23 21 15 22 17 23
REMARK SMILES IDX 22 24 24 25 16 26 18 27 21 28 19 29 31 31 20 33
REMARK H PARENT 6 30 31 32 20 34
REMARK Flexibility Score: inf
ROOT
ATOM      1  C   UNL     1      21.778 -24.275 -13.918  1.00  0.00     0.216 C 
ATOM      2  N   UNL     1      22.102 -23.987 -12.486  1.00  0.00    -0.330 N 
ATOM      3  C   UNL     1      22.473 -22.578 -12.235  1.00  0.00     0.266 C 
ATOM      4  C   UNL     1      21.068 -24.482 -11.546  1.00  0.00     0.265 C 
ATOM      5  C   UNL     1      21.288 -25.749 -14.108  1.00  0.00     0.069 C 
ATOM      6  C   UNL     1      20.779 -23.246 -14.581  1.00  0.00     0.117 C 
ATOM      7  C   UNL     1      21.556 -26.627 -12.886  1.00  0.00     0.015 C 
ATOM      8  C   UNL     1      21.251 -21.785 -14.289  1.00  0.00     0.036 C 
ATOM      9  C   UNL     1      20.760 -23.500 -16.117  1.00  0.00     0.049 C 
ATOM     10  C   UNL     1      20.900 -26.028 -11.626  1.00  0.00     0.041 C 
ATOM     11  C   UNL     1      20.339 -20.682 -14.932  1.00  0.00     0.007 C 
ATOM     12  C   UNL     1      21.426 -21.585 -12.754  1.00  0.00     0.054 C 
ATOM     13  C   UNL     1      21.448 -26.717 -10.370  1.00  0.00     0.013 C 
ATOM     14  C   UNL     1      20.725 -19.240 -14.521  1.00  0.00     0.004 C 
ATOM     15  C   UNL     1      21.876 -20.133 -12.507  1.00  0.00     0.002 C 
ATOM     16  C   UNL     1      20.789 -19.181 -12.997  1.00  0.00    -0.004 C 
ATOM     17  C   UNL     1      22.162 -19.655 -11.083  1.00  0.00     0.009 C 
ATOM     18  C   UNL     1      21.049 -17.848 -12.272  1.00  0.00     0.003 C 
ATOM     19  C   UNL     1      22.212 -18.140 -11.314  1.00  0.00    -0.000 C 
ATOM     20  C   UNL     1      21.392 -16.584 -13.077  1.00  0.00     0.080 C 
ATOM     21  C   UNL     1      22.269 -17.124 -10.114  1.00  0.00    -0.020 C 
ATOM     22  C   UNL     1      21.858 -15.502 -12.112  1.00  0.00     0.136 C 
ATOM     23  C   UNL     1      21.704 -15.716 -10.598  1.00  0.00     0.065 C 
ATOM     24  C   UNL     1      23.758 -17.011  -9.655  1.00  0.00     0.010 C 
ATOM     25  C   UNL     1      21.407 -17.636  -8.933  1.00  0.00     0.012 C 
ATOM     26  O   UNL     1      22.316 -14.461 -12.560  1.00  0.00    -0.299 OA
ATOM     27  C   UNL     1      22.150 -14.510  -9.731  1.00  0.00     0.043 C 
ATOM     28  C   UNL     1      24.032 -15.830  -8.723  1.00  0.00     0.032 C 
ATOM     29  C   UNL     1      23.642 -14.506  -9.390  1.00  0.00     0.115 C 
ATOM     30  H   UNL     1      22.978 -24.517 -12.258  1.00  0.00     0.348 HD
ENDROOT
BRANCH   6  31
ATOM     31  O   UNL     1      19.491 -23.448 -14.040  1.00  0.00    -0.384 OA
ATOM     32  H   UNL     1      19.261 -22.688 -13.447  1.00  0.00     0.211 HD
ENDBRANCH   6  31
BRANCH  29  33
ATOM     33  O   UNL     1      24.401 -14.286 -10.551  1.00  0.00    -0.393 OA
ATOM     34  H   UNL     1      24.589 -15.177 -10.944  1.00  0.00     0.210 HD
ENDBRANCH  29  33
TORSDOF 2
ENDMDL
MODEL 3
REMARK VINA RESULT:    -8.286      1.917      8.450
REMARK INTER + INTRA:          -8.770
REMARK INTER:                  -8.770
REMARK INTRA:                   0.000
REMARK UNBOUND:                 0.000
REMARK SMILES C[C@@H]1CC[C@@H]2[N@H+](C1)C[C@H]1[C@@H]3C[C@H]4[C@@H](CC(=O)[C@@H]5C[C@H](O)CC[C@@]54C)[C@H]3CC[C@@H]1[C@]2(C)O
REMARK SMILES IDX 5 1 6 2 8 3 7 4 4 5 29 6 3 7 28 8 30 9 2 10 27 11 9 12 1 13
REMARK SMILES IDX 26 14 10 15 25 16 11 17 13 18 12 19 14 20 23 21 15 22 17 23
REMARK SMILES IDX 22 24 24 25 16 26 18 27 21 28 19 29 31 31 20 33
REMARK H PARENT 6 30 31 32 20 34
REMARK Flexibility Score: inf
ROOT
ATOM      1  C   UNL     1      24.312 -25.728 -15.030  1.00  0.00     0.216 C 
ATOM      2  N   UNL     1      25.195 -25.233 -13.926  1.00  0.00    -0.330 N 
ATOM      3  C   UNL     1      24.892 -23.849 -13.503  1.00  0.00     0.266 C 
ATOM      4  C   UNL     1      25.279 -26.175 -12.784  1.00  0.00     0.265 C 
ATOM      5  C   UNL     1      24.602 -27.229 -15.363  1.00  0.00     0.069 C 
ATOM      6  C   UNL     1      22.771 -25.477 -14.796  1.00  0.00     0.117 C 
ATOM      7  C   UNL     1      25.900 -27.739 -14.735  1.00  0.00     0.015 C 
ATOM      8  C   UNL     1      22.533 -23.991 -14.374  1.00  0.00     0.036 C 
ATOM      9  C   UNL     1      22.018 -25.778 -16.125  1.00  0.00     0.049 C 
ATOM     10  C   UNL     1      25.880 -27.548 -13.205  1.00  0.00     0.041 C 
ATOM     11  C   UNL     1      21.023 -23.630 -14.145  1.00  0.00     0.007 C 
ATOM     12  C   UNL     1      23.416 -23.647 -13.138  1.00  0.00     0.054 C 
ATOM     13  C   UNL     1      27.289 -27.742 -12.633  1.00  0.00     0.013 C 
ATOM     14  C   UNL     1      20.805 -22.202 -13.588  1.00  0.00     0.004 C 
ATOM     15  C   UNL     1      23.143 -22.184 -12.744  1.00  0.00     0.002 C 
ATOM     16  C   UNL     1      21.677 -22.038 -12.346  1.00  0.00    -0.004 C 
ATOM     17  C   UNL     1      23.900 -21.554 -11.574  1.00  0.00     0.009 C 
ATOM     18  C   UNL     1      21.605 -20.754 -11.499  1.00  0.00     0.003 C 
ATOM     19  C   UNL     1      23.061 -20.289 -11.361  1.00  0.00    -0.000 C 
ATOM     20  C   UNL     1      20.760 -19.561 -11.974  1.00  0.00     0.080 C 
ATOM     21  C   UNL     1      23.277 -19.356 -10.113  1.00  0.00    -0.020 C 
ATOM     22  C   UNL     1      21.083 -18.356 -11.100  1.00  0.00     0.136 C 
ATOM     23  C   UNL     1      21.938 -18.540  -9.837  1.00  0.00     0.065 C 
ATOM     24  C   UNL     1      24.470 -18.401 -10.432  1.00  0.00     0.010 C 
ATOM     25  C   UNL     1      23.620 -20.203  -8.861  1.00  0.00     0.012 C 
ATOM     26  O   UNL     1      20.625 -17.263 -11.400  1.00  0.00    -0.299 OA
ATOM     27  C   UNL     1      22.132 -17.249  -9.000  1.00  0.00     0.043 C 
ATOM     28  C   UNL     1      24.598 -17.224  -9.464  1.00  0.00     0.032 C 
ATOM     29  C   UNL     1      23.314 -16.387  -9.449  1.00  0.00     0.115 C 
ATOM     30  H   UNL     1      26.165 -25.165 -14.317  1.00  0.00     0.348 HD
ENDROOT
BRANCH   6  31
ATOM     31  O   UNL     1      22.318 -26.342 -13.776  1.00  0.00    -0.384 OA
ATOM     32  H   UNL     1      21.333 -26.264 -13.694  1.00  0.00     0.211 HD
ENDBRANCH   6  31
BRANCH  29  33
ATOM     33  O   UNL     1      23.057 -15.838 -10.716  1.00  0.00    -0.393 OA
ATOM     34  H   UNL     1      23.350 -16.510 -11.384  1.00  0.00     0.210 HD
ENDBRANCH  29  33
TORSDOF 2
ENDMDL
MODEL 4
REMARK VINA RESULT:    -8.179      4.065      4.628
REMARK INTER + INTRA:          -8.658
REMARK INTER:                  -8.658
REMARK INTRA:                   0.000
REMARK UNBOUND:                 0.000
REMARK SMILES C[C@@H]1CC[C@@H]2[N@H+](C1)C[C@H]1[C@@H]3C[C@H]4[C@@H](CC(=O)[C@@H]5C[C@H](O)CC[C@@]54C)[C@H]3CC[C@@H]1[C@]2(C)O
REMARK SMILES IDX 5 1 6 2 8 3 7 4 4 5 29 6 3 7 28 8 30 9 2 10 27 11 9 12 1 13
REMARK SMILES IDX 26 14 10 15 25 16 11 17 13 18 12 19 14 20 23 21 15 22 17 23
REMARK SMILES IDX 22 24 24 25 16 26 18 27 21 28 19 29 31 31 20 33
REMARK H PARENT 6 30 31 32 20 34
REMARK Flexibility Score: inf
ROOT
ATOM      1  C   UNL     1      21.399 -20.765 -12.338  1.00  0.00     0.216 C 
ATOM      2  N   UNL     1      22.100 -21.488 -11.231  1.00  0.00    -0.330 N 
ATOM      3  C   UNL     1      21.537 -22.826 -10.949  1.00  0.00     0.266 C 
ATOM      4  C   UNL     1      23.574 -21.512 -11.395  1.00  0.00     0.265 C 
ATOM      5  C   UNL     1      22.101 -19.406 -12.667  1.00  0.00     0.069 C 
ATOM      6  C   UNL     1      21.172 -21.628 -13.641  1.00  0.00     0.117 C 
ATOM      7  C   UNL     1      23.113 -18.985 -11.601  1.00  0.00     0.015 C 
ATOM      8  C   UNL     1      20.557 -23.013 -13.261  1.00  0.00     0.036 C 
ATOM      9  C   UNL     1      20.199 -20.854 -14.578  1.00  0.00     0.049 C 
ATOM     10  C   UNL     1      24.182 -20.078 -11.398  1.00  0.00     0.041 C 
ATOM     11  C   UNL     1      20.266 -23.939 -14.494  1.00  0.00     0.007 C 
ATOM     12  C   UNL     1      21.454 -23.713 -12.197  1.00  0.00     0.054 C 
ATOM     13  C   UNL     1      24.977 -19.804 -10.116  1.00  0.00     0.013 C 
ATOM     14  C   UNL     1      19.793 -25.360 -14.105  1.00  0.00     0.004 C 
ATOM     15  C   UNL     1      20.824 -25.077 -11.861  1.00  0.00     0.002 C 
ATOM     16  C   UNL     1      20.802 -25.942 -13.118  1.00  0.00    -0.004 C 
ATOM     17  C   UNL     1      21.475 -25.980 -10.811  1.00  0.00     0.009 C 
ATOM     18  C   UNL     1      20.667 -27.393 -12.619  1.00  0.00     0.003 C 
ATOM     19  C   UNL     1      20.732 -27.292 -11.089  1.00  0.00    -0.000 C 
ATOM     20  C   UNL     1      19.433 -28.229 -12.996  1.00  0.00     0.080 C 
ATOM     21  C   UNL     1      21.169 -28.646 -10.417  1.00  0.00    -0.020 C 
ATOM     22  C   UNL     1      19.432 -29.502 -12.160  1.00  0.00     0.136 C 
ATOM     23  C   UNL     1      20.666 -29.859 -11.318  1.00  0.00     0.065 C 
ATOM     24  C   UNL     1      20.538 -28.696  -8.990  1.00  0.00     0.010 C 
ATOM     25  C   UNL     1      22.713 -28.713 -10.297  1.00  0.00     0.012 C 
ATOM     26  O   UNL     1      18.458 -30.240 -12.201  1.00  0.00    -0.299 OA
ATOM     27  C   UNL     1      20.563 -31.215 -10.572  1.00  0.00     0.043 C 
ATOM     28  C   UNL     1      20.595 -30.078  -8.335  1.00  0.00     0.032 C 
ATOM     29  C   UNL     1      19.885 -31.123  -9.203  1.00  0.00     0.115 C 
ATOM     30  H   UNL     1      21.916 -20.952 -10.349  1.00  0.00     0.348 HD
ENDROOT
BRANCH   6  31
ATOM     31  O   UNL     1      22.415 -21.817 -14.284  1.00  0.00    -0.384 OA
ATOM     32  H   UNL     1      23.115 -21.308 -13.799  1.00  0.00     0.211 HD
ENDBRANCH   6  31
BRANCH  29  33
ATOM     33  O   UNL     1      18.525 -30.808  -9.357  1.00  0.00    -0.393 OA
ATOM     34  H   UNL     1      18.480 -30.026  -9.966  1.00  0.00     0.210 HD
ENDBRANCH  29  33
TORSDOF 2
ENDMDL
MODEL 5
REMARK VINA RESULT:    -7.858      2.395      8.496
REMARK INTER + INTRA:          -8.318
REMARK INTER:                  -8.318
REMARK INTRA:                   0.000
REMARK UNBOUND:                 0.000
REMARK SMILES C[C@@H]1CC[C@@H]2[N@H+](C1)C[C@H]1[C@@H]3C[C@H]4[C@@H](CC(=O)[C@@H]5C[C@H](O)CC[C@@]54C)[C@H]3CC[C@@H]1[C@]2(C)O
REMARK SMILES IDX 5 1 6 2 8 3 7 4 4 5 29 6 3 7 28 8 30 9 2 10 27 11 9 12 1 13
REMARK SMILES IDX 26 14 10 15 25 16 11 17 13 18 12 19 14 20 23 21 15 22 17 23
REMARK SMILES IDX 22 24 24 25 16 26 18 27 21 28 19 29 31 31 20 33
REMARK H PARENT 6 30 31 32 20 34
REMARK Flexibility Score: inf
ROOT
ATOM      1  C   UNL     1      23.115 -26.895 -13.649  1.00  0.00     0.216 C 
ATOM      2  N   UNL     1      22.497 -26.305 -12.420  1.00  0.00    -0.330 N 
ATOM      3  C   UNL     1      22.662 -24.839 -12.321  1.00  0.00     0.266 C 
ATOM      4  C   UNL     1      21.095 -26.737 -12.210  1.00  0.00     0.265 C 
ATOM      5  C   UNL     1      22.817 -28.428 -13.758  1.00  0.00     0.069 C 
ATOM      6  C   UNL     1      22.753 -26.142 -14.989  1.00  0.00     0.117 C 
ATOM      7  C   UNL     1      22.262 -29.020 -12.462  1.00  0.00     0.015 C 
ATOM      8  C   UNL     1      22.973 -24.605 -14.809  1.00  0.00     0.036 C 
ATOM      9  C   UNL     1      23.675 -26.682 -16.120  1.00  0.00     0.049 C 
ATOM     10  C   UNL     1      20.982 -28.279 -12.025  1.00  0.00     0.041 C 
ATOM     11  C   UNL     1      22.668 -23.764 -16.099  1.00  0.00     0.007 C 
ATOM     12  C   UNL     1      22.173 -24.099 -13.572  1.00  0.00     0.054 C 
ATOM     13  C   UNL     1      20.631 -28.646 -10.578  1.00  0.00     0.013 C 
ATOM     14  C   UNL     1      22.748 -22.235 -15.876  1.00  0.00     0.004 C 
ATOM     15  C   UNL     1      22.404 -22.582 -13.439  1.00  0.00     0.002 C 
ATOM     16  C   UNL     1      21.864 -21.882 -14.682  1.00  0.00    -0.004 C 
ATOM     17  C   UNL     1      21.764 -21.812 -12.283  1.00  0.00     0.009 C 
ATOM     18  C   UNL     1      21.649 -20.414 -14.269  1.00  0.00     0.003 C 
ATOM     19  C   UNL     1      21.974 -20.373 -12.770  1.00  0.00    -0.000 C 
ATOM     20  C   UNL     1      22.438 -19.292 -14.964  1.00  0.00     0.080 C 
ATOM     21  C   UNL     1      21.302 -19.150 -12.044  1.00  0.00    -0.020 C 
ATOM     22  C   UNL     1      22.234 -17.998 -14.187  1.00  0.00     0.136 C 
ATOM     23  C   UNL     1      21.179 -17.940 -13.072  1.00  0.00     0.065 C 
ATOM     24  C   UNL     1      22.198 -18.770 -10.822  1.00  0.00     0.010 C 
ATOM     25  C   UNL     1      19.887 -19.533 -11.542  1.00  0.00     0.012 C 
ATOM     26  O   UNL     1      22.890 -17.012 -14.490  1.00  0.00    -0.299 OA
ATOM     27  C   UNL     1      21.022 -16.547 -12.410  1.00  0.00     0.043 C 
ATOM     28  C   UNL     1      21.864 -17.409 -10.209  1.00  0.00     0.032 C 
ATOM     29  C   UNL     1      21.990 -16.294 -11.252  1.00  0.00     0.115 C 
ATOM     30  H   UNL     1      23.038 -26.670 -11.599  1.00  0.00     0.348 HD
ENDROOT
BRANCH   6  31
ATOM     31  O   UNL     1      21.400 -26.396 -15.303  1.00  0.00    -0.384 OA
ATOM     32  H   UNL     1      21.205 -26.052 -16.213  1.00  0.00     0.211 HD
ENDBRANCH   6  31
BRANCH  29  33
ATOM     33  O   UNL     1      23.306 -16.204 -11.735  1.00  0.00    -0.393 OA
ATOM     34  H   UNL     1      23.304 -16.594 -12.648  1.00  0.00     0.210 HD
ENDBRANCH  29  33
TORSDOF 2
ENDMDL
MODEL 6
REMARK VINA RESULT:    -7.706      1.268      1.768
REMARK INTER + INTRA:          -8.157
REMARK INTER:                  -8.157
REMARK INTRA:                   0.000
REMARK UNBOUND:                 0.000
REMARK SMILES C[C@@H]1CC[C@@H]2[N@H+](C1)C[C@H]1[C@@H]3C[C@H]4[C@@H](CC(=O)[C@@H]5C[C@H](O)CC[C@@]54C)[C@H]3CC[C@@H]1[C@]2(C)O
REMARK SMILES IDX 5 1 6 2 8 3 7 4 4 5 29 6 3 7 28 8 30 9 2 10 27 11 9 12 1 13
REMARK SMILES IDX 26 14 10 15 25 16 11 17 13 18 12 19 14 20 23 21 15 22 17 23
REMARK SMILES IDX 22 24 24 25 16 26 18 27 21 28 19 29 31 31 20 33
REMARK H PARENT 6 30 31 32 20 34
REMARK Flexibility Score: inf
ROOT
ATOM      1  C   UNL     1      21.264 -20.269 -12.475  1.00  0.00     0.216 C 
ATOM      2  N   UNL     1      22.140 -21.008 -11.513  1.00  0.00    -0.330 N 
ATOM      3  C   UNL     1      22.282 -22.446 -11.827  1.00  0.00     0.266 C 
ATOM      4  C   UNL     1      23.445 -20.341 -11.286  1.00  0.00     0.265 C 
ATOM      5  C   UNL     1      21.237 -18.736 -12.161  1.00  0.00     0.069 C 
ATOM      6  C   UNL     1      21.590 -20.539 -13.997  1.00  0.00     0.117 C 
ATOM      7  C   UNL     1      21.828 -18.398 -10.792  1.00  0.00     0.015 C 
ATOM      8  C   UNL     1      21.702 -22.077 -14.249  1.00  0.00     0.036 C 
ATOM      9  C   UNL     1      20.440 -19.942 -14.858  1.00  0.00     0.049 C 
ATOM     10  C   UNL     1      23.275 -18.920 -10.675  1.00  0.00     0.041 C 
ATOM     11  C   UNL     1      21.997 -22.455 -15.744  1.00  0.00     0.007 C 
ATOM     12  C   UNL     1      22.740 -22.699 -13.269  1.00  0.00     0.054 C 
ATOM     13  C   UNL     1      23.732 -18.879  -9.212  1.00  0.00     0.013 C 
ATOM     14  C   UNL     1      22.250 -23.966 -15.963  1.00  0.00     0.004 C 
ATOM     15  C   UNL     1      22.832 -24.207 -13.559  1.00  0.00     0.002 C 
ATOM     16  C   UNL     1      23.333 -24.414 -14.986  1.00  0.00    -0.004 C 
ATOM     17  C   UNL     1      23.756 -25.091 -12.720  1.00  0.00     0.009 C 
ATOM     18  C   UNL     1      23.885 -25.851 -15.026  1.00  0.00     0.003 C 
ATOM     19  C   UNL     1      23.773 -26.359 -13.583  1.00  0.00    -0.000 C 
ATOM     20  C   UNL     1      23.249 -26.897 -15.957  1.00  0.00     0.080 C 
ATOM     21  C   UNL     1      24.761 -27.546 -13.287  1.00  0.00    -0.020 C 
ATOM     22  C   UNL     1      23.804 -28.269 -15.599  1.00  0.00     0.136 C 
ATOM     23  C   UNL     1      24.986 -28.381 -14.624  1.00  0.00     0.065 C 
ATOM     24  C   UNL     1      24.125 -28.428 -12.166  1.00  0.00     0.010 C 
ATOM     25  C   UNL     1      26.126 -27.000 -12.796  1.00  0.00     0.012 C 
ATOM     26  O   UNL     1      23.322 -29.262 -16.125  1.00  0.00    -0.299 OA
ATOM     27  C   UNL     1      25.499 -29.827 -14.401  1.00  0.00     0.043 C 
ATOM     28  C   UNL     1      24.798 -29.791 -11.992  1.00  0.00     0.032 C 
ATOM     29  C   UNL     1      24.759 -30.589 -13.300  1.00  0.00     0.115 C 
ATOM     30  H   UNL     1      21.649 -21.005 -10.586  1.00  0.00     0.348 HD
ENDROOT
BRANCH   6  31
ATOM     31  O   UNL     1      22.813 -19.912 -14.318  1.00  0.00    -0.384 OA
ATOM     32  H   UNL     1      22.640 -18.973 -14.588  1.00  0.00     0.211 HD
ENDBRANCH   6  31
BRANCH  29  33
ATOM     33  O   UNL     1      23.435 -30.842 -13.695  1.00  0.00    -0.393 OA
ATOM     34  H   UNL     1      23.351 -30.528 -14.633  1.00  0.00     0.210 HD
ENDBRANCH  29  33
TORSDOF 2
ENDMDL
MODEL 7
REMARK VINA RESULT:    -7.641      2.431      8.488
REMARK INTER + INTRA:          -8.088
REMARK INTER:                  -8.088
REMARK INTRA:                   0.000
REMARK UNBOUND:                 0.000
REMARK SMILES C[C@@H]1CC[C@@H]2[N@H+](C1)C[C@H]1[C@@H]3C[C@H]4[C@@H](CC(=O)[C@@H]5C[C@H](O)CC[C@@]54C)[C@H]3CC[C@@H]1[C@]2(C)O
REMARK SMILES IDX 5 1 6 2 8 3 7 4 4 5 29 6 3 7 28 8 30 9 2 10 27 11 9 12 1 13
REMARK SMILES IDX 26 14 10 15 25 16 11 17 13 18 12 19 14 20 23 21 15 22 17 23
REMARK SMILES IDX 22 24 24 25 16 26 18 27 21 28 19 29 31 31 20 33
REMARK H PARENT 6 30 31 32 20 34
REMARK Flexibility Score: inf
ROOT
ATOM      1  C   UNL     1      24.122 -27.800 -13.922  1.00  0.00     0.216 C 
ATOM      2  N   UNL     1      25.183 -26.752 -13.792  1.00  0.00    -0.330 N 
ATOM      3  C   UNL     1      24.652 -25.372 -13.789  1.00  0.00     0.266 C 
ATOM      4  C   UNL     1      26.117 -27.007 -12.669  1.00  0.00     0.265 C 
ATOM      5  C   UNL     1      24.726 -29.240 -13.810  1.00  0.00     0.069 C 
ATOM      6  C   UNL     1      22.894 -27.613 -12.946  1.00  0.00     0.117 C 
ATOM      7  C   UNL     1      26.250 -29.256 -13.919  1.00  0.00     0.015 C 
ATOM      8  C   UNL     1      22.381 -26.138 -13.017  1.00  0.00     0.036 C 
ATOM      9  C   UNL     1      21.765 -28.590 -13.384  1.00  0.00     0.049 C 
ATOM     10  C   UNL     1      26.887 -28.349 -12.846  1.00  0.00     0.041 C 
ATOM     11  C   UNL     1      21.138 -25.854 -12.101  1.00  0.00     0.007 C 
ATOM     12  C   UNL     1      23.557 -25.156 -12.737  1.00  0.00     0.054 C 
ATOM     13  C   UNL     1      28.365 -28.108 -13.172  1.00  0.00     0.013 C 
ATOM     14  C   UNL     1      20.724 -24.363 -12.064  1.00  0.00     0.004 C 
ATOM     15  C   UNL     1      23.009 -23.719 -12.801  1.00  0.00     0.002 C 
ATOM     16  C   UNL     1      21.957 -23.535 -11.711  1.00  0.00    -0.004 C 
ATOM     17  C   UNL     1      23.952 -22.533 -12.597  1.00  0.00     0.009 C 
ATOM     18  C   UNL     1      21.848 -22.015 -11.494  1.00  0.00     0.003 C 
ATOM     19  C   UNL     1      22.930 -21.408 -12.397  1.00  0.00    -0.000 C 
ATOM     20  C   UNL     1      20.522 -21.287 -11.773  1.00  0.00     0.080 C 
ATOM     21  C   UNL     1      23.365 -19.971 -11.929  1.00  0.00    -0.020 C 
ATOM     22  C   UNL     1      20.773 -19.785 -11.738  1.00  0.00     0.136 C 
ATOM     23  C   UNL     1      22.124 -19.252 -11.237  1.00  0.00     0.065 C 
ATOM     24  C   UNL     1      23.848 -19.184 -13.188  1.00  0.00     0.010 C 
ATOM     25  C   UNL     1      24.527 -20.067 -10.908  1.00  0.00     0.012 C 
ATOM     26  O   UNL     1      19.879 -19.024 -12.076  1.00  0.00    -0.299 OA
ATOM     27  C   UNL     1      22.223 -17.705 -11.184  1.00  0.00     0.043 C 
ATOM     28  C   UNL     1      23.995 -17.678 -12.960  1.00  0.00     0.032 C 
ATOM     29  C   UNL     1      22.669 -17.064 -12.500  1.00  0.00     0.115 C 
ATOM     30  H   UNL     1      25.762 -26.792 -14.665  1.00  0.00     0.348 HD
ENDROOT
BRANCH   6  31
ATOM     31  O   UNL     1      23.309 -27.911 -11.630  1.00  0.00    -0.384 OA
ATOM     32  H   UNL     1      22.514 -27.969 -11.040  1.00  0.00     0.211 HD
ENDBRANCH   6  31
BRANCH  29  33
ATOM     33  O   UNL     1      21.673 -17.227 -13.477  1.00  0.00    -0.393 OA
ATOM     34  H   UNL     1      21.388 -16.316 -13.750  1.00  0.00     0.210 HD
ENDBRANCH  29  33
TORSDOF 2
ENDMDL
MODEL 8
REMARK VINA RESULT:    -7.506      3.637      8.124
REMARK INTER + INTRA:          -7.945
REMARK INTER:                  -7.945
REMARK INTRA:                   0.000
REMARK UNBOUND:                 0.000
REMARK SMILES C[C@@H]1CC[C@@H]2[N@H+](C1)C[C@H]1[C@@H]3C[C@H]4[C@@H](CC(=O)[C@@H]5C[C@H](O)CC[C@@]54C)[C@H]3CC[C@@H]1[C@]2(C)O
REMARK SMILES IDX 5 1 6 2 8 3 7 4 4 5 29 6 3 7 28 8 30 9 2 10 27 11 9 12 1 13
REMARK SMILES IDX 26 14 10 15 25 16 11 17 13 18 12 19 14 20 23 21 15 22 17 23
REMARK SMILES IDX 22 24 24 25 16 26 18 27 21 28 19 29 31 31 20 33
REMARK H PARENT 6 30 31 32 20 34
REMARK Flexibility Score: inf
ROOT
ATOM      1  C   UNL     1      20.563 -28.363 -12.748  1.00  0.00     0.216 C 
ATOM      2  N   UNL     1      21.254 -27.538 -11.708  1.00  0.00    -0.330 N 
ATOM      3  C   UNL     1      21.716 -26.225 -12.206  1.00  0.00     0.266 C 
ATOM      4  C   UNL     1      20.484 -27.432 -10.446  1.00  0.00     0.265 C 
ATOM      5  C   UNL     1      20.000 -29.692 -12.142  1.00  0.00     0.069 C 
ATOM      6  C   UNL     1      19.457 -27.589 -13.568  1.00  0.00     0.117 C 
ATOM      7  C   UNL     1      20.549 -29.989 -10.747  1.00  0.00     0.015 C 
ATOM      8  C   UNL     1      20.029 -26.226 -14.075  1.00  0.00     0.036 C 
ATOM      9  C   UNL     1      19.035 -28.472 -14.778  1.00  0.00     0.049 C 
ATOM     10  C   UNL     1      20.258 -28.822  -9.782  1.00  0.00     0.041 C 
ATOM     11  C   UNL     1      19.012 -25.389 -14.929  1.00  0.00     0.007 C 
ATOM     12  C   UNL     1      20.599 -25.414 -12.875  1.00  0.00     0.054 C 
ATOM     13  C   UNL     1      21.091 -28.975  -8.505  1.00  0.00     0.013 C 
ATOM     14  C   UNL     1      19.532 -23.981 -15.307  1.00  0.00     0.004 C 
ATOM     15  C   UNL     1      21.138 -24.076 -13.412  1.00  0.00     0.002 C 
ATOM     16  C   UNL     1      19.988 -23.284 -14.028  1.00  0.00    -0.004 C 
ATOM     17  C   UNL     1      21.795 -23.079 -12.457  1.00  0.00     0.009 C 
ATOM     18  C   UNL     1      20.464 -21.820 -14.057  1.00  0.00     0.003 C 
ATOM     19  C   UNL     1      21.826 -21.832 -13.350  1.00  0.00    -0.000 C 
ATOM     20  C   UNL     1      20.623 -21.085 -15.398  1.00  0.00     0.080 C 
ATOM     21  C   UNL     1      22.219 -20.419 -12.781  1.00  0.00    -0.020 C 
ATOM     22  C   UNL     1      21.352 -19.771 -15.151  1.00  0.00     0.136 C 
ATOM     23  C   UNL     1      21.587 -19.291 -13.710  1.00  0.00     0.065 C 
ATOM     24  C   UNL     1      23.778 -20.331 -12.759  1.00  0.00     0.010 C 
ATOM     25  C   UNL     1      21.676 -20.250 -11.339  1.00  0.00     0.012 C 
ATOM     26  O   UNL     1      21.708 -19.098 -16.108  1.00  0.00    -0.299 OA
ATOM     27  C   UNL     1      22.276 -17.906 -13.600  1.00  0.00     0.043 C 
ATOM     28  C   UNL     1      24.316 -18.915 -12.544  1.00  0.00     0.032 C 
ATOM     29  C   UNL     1      23.804 -17.966 -13.632  1.00  0.00     0.115 C 
ATOM     30  H   UNL     1      22.144 -28.036 -11.463  1.00  0.00     0.348 HD
ENDROOT
BRANCH   6  31
ATOM     31  O   UNL     1      18.346 -27.357 -12.727  1.00  0.00    -0.384 OA
ATOM     32  H   UNL     1      18.653 -26.918 -11.893  1.00  0.00     0.211 HD
ENDBRANCH   6  31
BRANCH  29  33
ATOM     33  O   UNL     1      24.244 -18.373 -14.902  1.00  0.00    -0.393 OA
ATOM     34  H   UNL     1      23.570 -18.052 -15.556  1.00  0.00     0.210 HD
ENDBRANCH  29  33
TORSDOF 2
ENDMDL
MODEL 9
REMARK VINA RESULT:    -7.310      2.909      8.930
REMARK INTER + INTRA:          -7.737
REMARK INTER:                  -7.737
REMARK INTRA:                   0.000
REMARK UNBOUND:                 0.000
REMARK SMILES C[C@@H]1CC[C@@H]2[N@H+](C1)C[C@H]1[C@@H]3C[C@H]4[C@@H](CC(=O)[C@@H]5C[C@H](O)CC[C@@]54C)[C@H]3CC[C@@H]1[C@]2(C)O
REMARK SMILES IDX 5 1 6 2 8 3 7 4 4 5 29 6 3 7 28 8 30 9 2 10 27 11 9 12 1 13
REMARK SMILES IDX 26 14 10 15 25 16 11 17 13 18 12 19 14 20 23 21 15 22 17 23
REMARK SMILES IDX 22 24 24 25 16 26 18 27 21 28 19 29 31 31 20 33
REMARK H PARENT 6 30 31 32 20 34
REMARK Flexibility Score: inf
ROOT
ATOM      1  C   UNL     1      21.974 -28.908 -13.771  1.00  0.00     0.216 C 
ATOM      2  N   UNL     1      20.816 -27.982 -13.974  1.00  0.00    -0.330 N 
ATOM      3  C   UNL     1      21.011 -26.649 -13.365  1.00  0.00     0.266 C 
ATOM      4  C   UNL     1      20.374 -27.906 -15.387  1.00  0.00     0.265 C 
ATOM      5  C   UNL     1      21.761 -30.263 -14.526  1.00  0.00     0.069 C 
ATOM      6  C   UNL     1      23.382 -28.277 -14.106  1.00  0.00     0.117 C 
ATOM      7  C   UNL     1      20.324 -30.454 -15.012  1.00  0.00     0.015 C 
ATOM      8  C   UNL     1      23.518 -26.884 -13.411  1.00  0.00     0.036 C 
ATOM      9  C   UNL     1      24.488 -29.241 -13.585  1.00  0.00     0.049 C 
ATOM     10  C   UNL     1      19.893 -29.286 -15.922  1.00  0.00     0.041 C 
ATOM     11  C   UNL     1      24.900 -26.183 -13.659  1.00  0.00     0.007 C 
ATOM     12  C   UNL     1      22.317 -25.977 -13.809  1.00  0.00     0.054 C 
ATOM     13  C   UNL     1      18.373 -29.310 -16.124  1.00  0.00     0.013 C 
ATOM     14  C   UNL     1      24.977 -24.746 -13.091  1.00  0.00     0.004 C 
ATOM     15  C   UNL     1      22.495 -24.613 -13.118  1.00  0.00     0.002 C 
ATOM     16  C   UNL     1      23.780 -23.961 -13.620  1.00  0.00    -0.004 C 
ATOM     17  C   UNL     1      21.439 -23.521 -13.300  1.00  0.00     0.009 C 
ATOM     18  C   UNL     1      23.627 -22.459 -13.317  1.00  0.00     0.003 C 
ATOM     19  C   UNL     1      22.207 -22.312 -12.753  1.00  0.00    -0.000 C 
ATOM     20  C   UNL     1      24.602 -21.761 -12.354  1.00  0.00     0.080 C 
ATOM     21  C   UNL     1      21.652 -20.847 -12.901  1.00  0.00    -0.020 C 
ATOM     22  C   UNL     1      24.063 -20.374 -12.033  1.00  0.00     0.136 C 
ATOM     23  C   UNL     1      22.868 -19.821 -12.824  1.00  0.00     0.065 C 
ATOM     24  C   UNL     1      20.630 -20.605 -11.745  1.00  0.00     0.010 C 
ATOM     25  C   UNL     1      20.934 -20.679 -14.264  1.00  0.00     0.012 C 
ATOM     26  O   UNL     1      24.615 -19.705 -11.171  1.00  0.00    -0.299 OA
ATOM     27  C   UNL     1      22.464 -18.372 -12.448  1.00  0.00     0.043 C 
ATOM     28  C   UNL     1      20.248 -19.137 -11.553  1.00  0.00     0.032 C 
ATOM     29  C   UNL     1      21.489 -18.282 -11.272  1.00  0.00     0.115 C 
ATOM     30  H   UNL     1      20.006 -28.381 -13.439  1.00  0.00     0.348 HD
ENDROOT
BRANCH   6  31
ATOM     31  O   UNL     1      23.491 -28.125 -15.506  1.00  0.00    -0.384 OA
ATOM     32  H   UNL     1      22.589 -28.181 -15.913  1.00  0.00     0.211 HD
ENDBRANCH   6  31
BRANCH  29  33
ATOM     33  O   UNL     1      22.123 -18.691 -10.087  1.00  0.00    -0.393 OA
ATOM     34  H   UNL     1      21.490 -18.508  -9.345  1.00  0.00     0.210 HD
ENDBRANCH  29  33
TORSDOF 2
ENDMDL
