MODEL 1
REMARK VINA RESULT:    -3.283      0.000      0.000
REMARK INTER + INTRA:          -4.418
REMARK INTER:                  -5.010
REMARK INTRA:                   0.592
REMARK UNBOUND:                 0.592
REMARK SMILES CC1=CCC[C@H](C)C(=O)C[C@H](C(C)C)C(=O)C1
REMARK SMILES IDX 8 1 9 2 6 3 7 4 5 5 4 6 3 7 2 8 1 9 10 11 11 12 15 13 16 14
REMARK SMILES IDX 17 15 12 17 13 18 14 19
REMARK H PARENT
REMARK Flexibility Score: 70.00
ROOT
ATOM      1  C   UNL     1     163.889 202.328 304.518  1.00  0.00     0.136 C 
ATOM      2  O   UNL     1     163.463 202.783 305.572  1.00  0.00    -0.299 OA
ENDROOT
BRANCH   1   3
ATOM      3  C   UNL     1     162.991 202.413 303.294  1.00  0.00     0.053 C 
ATOM      4  C   UNL     1     161.625 203.061 303.572  1.00  0.00     0.016 C 
BRANCH   3   5
ATOM      5  C   UNL     1     163.723 203.019 302.075  1.00  0.00     0.015 C 
BRANCH   5   6
ATOM      6  C   UNL     1     163.814 202.078 300.859  1.00  0.00     0.028 C 
BRANCH   6   7
ATOM      7  C   UNL     1     165.223 201.613 300.580  1.00  0.00    -0.028 C 
ATOM      8  C   UNL     1     165.838 200.566 301.184  1.00  0.00    -0.070 CG0
ATOM      9  C   UNL     1     167.283 200.307 300.835  1.00  0.00     0.039 C 
ATOM     10  G   UNL     1     165.140 199.625 302.158  1.00  0.00     0.000 G0
ENDBRANCH   6   7
ENDBRANCH   5   6
ENDBRANCH   3   5
ENDBRANCH   1   3
BRANCH   1  11
ATOM     11  C   UNL     1     165.285 201.734 304.507  1.00  0.00     0.087 C 
BRANCH  11  12
ATOM     12  C   UNL     1     165.273 200.197 304.716  1.00  0.00     0.066 C 
BRANCH  12  13
ATOM     13  C   UNL     1     165.839 199.474 303.502  1.00  0.00     0.140 C 
ATOM     14  O   UNL     1     166.837 198.777 303.602  1.00  0.00    -0.299 OA
BRANCH  13  15
ATOM     15  C   UNL     1     165.152 199.602 302.165  1.00  0.00     0.106 CG0
ATOM     16  G   UNL     1     165.846 200.564 301.209  1.00  0.00     0.000 G0
ENDBRANCH  13  15
ENDBRANCH  12  13
BRANCH  12  17
ATOM     17  C   UNL     1     165.929 199.776 306.069  1.00  0.00    -0.006 C 
ATOM     18  C   UNL     1     165.128 200.292 307.275  1.00  0.00     0.008 C 
ATOM     19  C   UNL     1     166.195 198.265 306.211  1.00  0.00     0.008 C 
ENDBRANCH  12  17
ENDBRANCH  11  12
ENDBRANCH   1  11
TORSDOF 1
ENDMDL
MODEL 2
REMARK VINA RESULT:    -2.863      1.803      4.713
REMARK INTER + INTRA:          -3.778
REMARK INTER:                  -3.774
REMARK INTRA:                  -0.004
REMARK UNBOUND:                 0.592
REMARK SMILES CC1=CCC[C@H](C)C(=O)C[C@H](C(C)C)C(=O)C1
REMARK SMILES IDX 8 1 9 2 6 3 7 4 5 5 4 6 3 7 2 8 1 9 10 11 11 12 15 13 16 14
REMARK SMILES IDX 17 15 12 17 13 18 14 19
REMARK H PARENT
REMARK Flexibility Score: 70.00
ROOT
ATOM      1  C   UNL     1     166.906 202.558 301.371  1.00  0.00     0.136 C 
ATOM      2  O   UNL     1     168.021 203.047 301.250  1.00  0.00    -0.299 OA
ENDROOT
BRANCH   1   3
ATOM      3  C   UNL     1     166.533 201.404 300.453  1.00  0.00     0.053 C 
ATOM      4  C   UNL     1     166.829 201.674 298.968  1.00  0.00     0.016 C 
BRANCH   3   5
ATOM      5  C   UNL     1     167.092 200.054 300.956  1.00  0.00     0.015 C 
BRANCH   5   6
ATOM      6  C   UNL     1     166.118 199.257 301.845  1.00  0.00     0.028 C 
BRANCH   6   7
ATOM      7  C   UNL     1     166.562 199.186 303.285  1.00  0.00    -0.028 C 
ATOM      8  C   UNL     1     165.878 199.688 304.343  1.00  0.00    -0.070 CG0
ATOM      9  C   UNL     1     166.525 199.596 305.703  1.00  0.00     0.039 C 
ATOM     10  G   UNL     1     164.486 200.300 304.234  1.00  0.00     0.000 G0
ENDBRANCH   6   7
ENDBRANCH   5   6
ENDBRANCH   3   5
ENDBRANCH   1   3
BRANCH   1  11
ATOM     11  C   UNL     1     165.988 203.123 302.438  1.00  0.00     0.087 C 
BRANCH  11  12
ATOM     12  C   UNL     1     164.666 202.321 302.563  1.00  0.00     0.066 C 
BRANCH  12  13
ATOM     13  C   UNL     1     164.476 201.796 303.979  1.00  0.00     0.140 C 
ATOM     14  O   UNL     1     164.300 202.568 304.910  1.00  0.00    -0.299 OA
BRANCH  13  15
ATOM     15  C   UNL     1     164.483 200.310 304.236  1.00  0.00     0.106 CG0
ATOM     16  G   UNL     1     165.882 199.713 304.337  1.00  0.00     0.000 G0
ENDBRANCH  13  15
ENDBRANCH  12  13
BRANCH  12  17
ATOM     17  C   UNL     1     163.438 203.110 302.007  1.00  0.00    -0.006 C 
ATOM     18  C   UNL     1     163.039 202.625 300.605  1.00  0.00     0.008 C 
ATOM     19  C   UNL     1     162.210 203.125 302.938  1.00  0.00     0.008 C 
ENDBRANCH  12  17
ENDBRANCH  11  12
ENDBRANCH   1  11
TORSDOF 1
ENDMDL
MODEL 3
REMARK VINA RESULT:    -2.743      1.472      3.957
REMARK INTER + INTRA:          -3.594
REMARK INTER:                  -4.844
REMARK INTRA:                   1.250
REMARK UNBOUND:                 0.592
REMARK SMILES CC1=CCC[C@H](C)C(=O)C[C@H](C(C)C)C(=O)C1
REMARK SMILES IDX 8 1 9 2 6 3 7 4 5 5 4 6 3 7 2 8 1 9 10 11 11 12 15 13 16 14
REMARK SMILES IDX 17 15 12 17 13 18 14 19
REMARK H PARENT
REMARK Flexibility Score: 70.00
ROOT
ATOM      1  C   UNL     1     164.886 200.839 305.399  1.00  0.00     0.136 C 
ATOM      2  O   UNL     1     164.344 201.587 306.202  1.00  0.00    -0.299 OA
ENDROOT
BRANCH   1   3
ATOM      3  C   UNL     1     165.932 199.869 305.927  1.00  0.00     0.053 C 
ATOM      4  C   UNL     1     165.342 198.712 306.751  1.00  0.00     0.016 C 
BRANCH   3   5
ATOM      5  C   UNL     1     166.907 199.405 304.822  1.00  0.00     0.015 C 
BRANCH   5   6
ATOM      6  C   UNL     1     166.217 198.842 303.565  1.00  0.00     0.028 C 
BRANCH   6   7
ATOM      7  C   UNL     1     167.078 198.942 302.329  1.00  0.00    -0.028 C 
ATOM      8  C   UNL     1     166.847 199.766 301.277  1.00  0.00    -0.070 CG0
ATOM      9  C   UNL     1     167.773 199.662 300.091  1.00  0.00     0.039 C 
ATOM     10  G   UNL     1     165.734 200.807 301.248  1.00  0.00     0.000 G0
ENDBRANCH   6   7
ENDBRANCH   5   6
ENDBRANCH   3   5
ENDBRANCH   1   3
BRANCH   1  11
ATOM     11  C   UNL     1     164.460 200.918 303.945  1.00  0.00     0.087 C 
BRANCH  11  12
ATOM     12  C   UNL     1     164.911 202.240 303.271  1.00  0.00     0.066 C 
BRANCH  12  13
ATOM     13  C   UNL     1     165.922 201.974 302.165  1.00  0.00     0.140 C 
ATOM     14  O   UNL     1     166.903 202.691 302.032  1.00  0.00    -0.299 OA
BRANCH  13  15
ATOM     15  C   UNL     1     165.725 200.803 301.234  1.00  0.00     0.106 CG0
ATOM     16  G   UNL     1     166.851 199.777 301.293  1.00  0.00     0.000 G0
ENDBRANCH  13  15
ENDBRANCH  12  13
BRANCH  12  17
ATOM     17  C   UNL     1     163.702 203.124 302.827  1.00  0.00    -0.006 C 
ATOM     18  C   UNL     1     163.381 202.941 301.336  1.00  0.00     0.008 C 
ATOM     19  C   UNL     1     162.429 202.942 303.675  1.00  0.00     0.008 C 
ENDBRANCH  12  17
ENDBRANCH  11  12
ENDBRANCH   1  11
TORSDOF 1
ENDMDL
MODEL 4
REMARK VINA RESULT:    -2.657      2.053      4.467
REMARK INTER + INTRA:          -3.463
REMARK INTER:                  -4.140
REMARK INTRA:                   0.677
REMARK UNBOUND:                 0.592
REMARK SMILES CC1=CCC[C@H](C)C(=O)C[C@H](C(C)C)C(=O)C1
REMARK SMILES IDX 8 1 9 2 6 3 7 4 5 5 4 6 3 7 2 8 1 9 10 11 11 12 15 13 16 14
REMARK SMILES IDX 17 15 12 17 13 18 14 19
REMARK H PARENT
REMARK Flexibility Score: 70.00
ROOT
ATOM      1  C   UNL     1     165.832 201.766 303.665  1.00  0.00     0.136 C 
ATOM      2  O   UNL     1     166.518 202.774 303.762  1.00  0.00    -0.299 OA
ENDROOT
BRANCH   1   3
ATOM      3  C   UNL     1     165.917 200.739 304.784  1.00  0.00     0.053 C 
ATOM      4  C   UNL     1     164.582 200.506 305.512  1.00  0.00     0.016 C 
BRANCH   3   5
ATOM      5  C   UNL     1     166.605 199.433 304.325  1.00  0.00     0.015 C 
BRANCH   5   6
ATOM      6  C   UNL     1     166.244 198.996 302.893  1.00  0.00     0.028 C 
BRANCH   6   7
ATOM      7  C   UNL     1     167.440 198.955 301.973  1.00  0.00    -0.028 C 
ATOM      8  C   UNL     1     167.500 199.514 300.738  1.00  0.00    -0.070 CG0
ATOM      9  C   UNL     1     168.755 199.293 299.931  1.00  0.00     0.039 C 
ATOM     10  G   UNL     1     166.390 200.376 300.148  1.00  0.00     0.000 G0
ENDBRANCH   6   7
ENDBRANCH   5   6
ENDBRANCH   3   5
ENDBRANCH   1   3
BRANCH   1  11
ATOM     11  C   UNL     1     164.933 201.625 302.451  1.00  0.00     0.087 C 
BRANCH  11  12
ATOM     12  C   UNL     1     165.391 202.523 301.272  1.00  0.00     0.066 C 
BRANCH  12  13
ATOM     13  C   UNL     1     166.498 201.852 300.471  1.00  0.00     0.140 C 
ATOM     14  O   UNL     1     167.478 202.488 300.111  1.00  0.00    -0.299 OA
BRANCH  13  15
ATOM     15  C   UNL     1     166.397 200.385 300.132  1.00  0.00     0.106 CG0
ATOM     16  G   UNL     1     167.508 199.538 300.742  1.00  0.00     0.000 G0
ENDBRANCH  13  15
ENDBRANCH  12  13
BRANCH  12  17
ATOM     17  C   UNL     1     164.192 203.022 300.404  1.00  0.00    -0.006 C 
ATOM     18  C   UNL     1     164.534 203.019 298.906  1.00  0.00     0.008 C 
ATOM     19  C   UNL     1     162.866 202.278 300.653  1.00  0.00     0.008 C 
ENDBRANCH  12  17
ENDBRANCH  11  12
ENDBRANCH   1  11
TORSDOF 1
ENDMDL
MODEL 5
REMARK VINA RESULT:    -2.657      2.037      4.802
REMARK INTER + INTRA:          -3.463
REMARK INTER:                  -4.015
REMARK INTRA:                   0.552
REMARK UNBOUND:                 0.592
REMARK SMILES CC1=CCC[C@H](C)C(=O)C[C@H](C(C)C)C(=O)C1
REMARK SMILES IDX 8 1 9 2 6 3 7 4 5 5 4 6 3 7 2 8 1 9 10 11 11 12 15 13 16 14
REMARK SMILES IDX 17 15 12 17 13 18 14 19
REMARK H PARENT
REMARK Flexibility Score: 70.00
ROOT
ATOM      1  C   UNL     1     165.583 199.775 302.708  1.00  0.00     0.136 C 
ATOM      2  O   UNL     1     164.652 199.250 302.113  1.00  0.00    -0.299 OA
ENDROOT
BRANCH   1   3
ATOM      3  C   UNL     1     165.505 199.849 304.225  1.00  0.00     0.053 C 
ATOM      4  C   UNL     1     166.875 199.991 304.909  1.00  0.00     0.016 C 
BRANCH   3   5
ATOM      5  C   UNL     1     164.465 200.887 304.706  1.00  0.00     0.015 C 
BRANCH   5   6
ATOM      6  C   UNL     1     164.622 202.281 304.070  1.00  0.00     0.028 C 
BRANCH   6   7
ATOM      7  C   UNL     1     163.694 202.499 302.899  1.00  0.00    -0.028 C 
ATOM      8  C   UNL     1     164.084 202.769 301.628  1.00  0.00    -0.070 CG0
ATOM      9  C   UNL     1     163.006 203.043 300.609  1.00  0.00     0.039 C 
ATOM     10  G   UNL     1     165.540 202.773 301.175  1.00  0.00     0.000 G0
ENDBRANCH   6   7
ENDBRANCH   5   6
ENDBRANCH   3   5
ENDBRANCH   1   3
BRANCH   1  11
ATOM     11  C   UNL     1     166.753 200.293 301.893  1.00  0.00     0.087 C 
BRANCH  11  12
ATOM     12  C   UNL     1     166.416 200.405 300.384  1.00  0.00     0.066 C 
BRANCH  12  13
ATOM     13  C   UNL     1     165.818 201.765 300.055  1.00  0.00     0.140 C 
ATOM     14  O   UNL     1     165.534 202.058 298.903  1.00  0.00    -0.299 OA
BRANCH  13  15
ATOM     15  C   UNL     1     165.553 202.756 301.161  1.00  0.00     0.106 CG0
ATOM     16  G   UNL     1     164.108 202.762 301.645  1.00  0.00     0.000 G0
ENDBRANCH  13  15
ENDBRANCH  12  13
BRANCH  12  17
ATOM     17  C   UNL     1     167.621 200.004 299.474  1.00  0.00    -0.006 C 
ATOM     18  C   UNL     1     168.524 201.208 299.164  1.00  0.00     0.008 C 
ATOM     19  C   UNL     1     168.461 198.827 300.004  1.00  0.00     0.008 C 
ENDBRANCH  12  17
ENDBRANCH  11  12
ENDBRANCH   1  11
TORSDOF 1
ENDMDL
MODEL 6
REMARK VINA RESULT:    -2.587      1.384      3.862
REMARK INTER + INTRA:          -3.357
REMARK INTER:                  -4.776
REMARK INTRA:                   1.419
REMARK UNBOUND:                 0.592
REMARK SMILES CC1=CCC[C@H](C)C(=O)C[C@H](C(C)C)C(=O)C1
REMARK SMILES IDX 8 1 9 2 6 3 7 4 5 5 4 6 3 7 2 8 1 9 10 11 11 12 15 13 16 14
REMARK SMILES IDX 17 15 12 17 13 18 14 19
REMARK H PARENT
REMARK Flexibility Score: 70.00
ROOT
ATOM      1  C   UNL     1     166.419 199.503 302.755  1.00  0.00     0.136 C 
ATOM      2  O   UNL     1     167.213 198.627 303.070  1.00  0.00    -0.299 OA
ENDROOT
BRANCH   1   3
ATOM      3  C   UNL     1     166.661 200.246 301.450  1.00  0.00     0.053 C 
ATOM      4  C   UNL     1     167.620 199.518 300.493  1.00  0.00     0.016 C 
BRANCH   3   5
ATOM      5  C   UNL     1     165.342 200.692 300.780  1.00  0.00     0.015 C 
BRANCH   5   6
ATOM      6  C   UNL     1     165.094 202.212 300.820  1.00  0.00     0.028 C 
BRANCH   6   7
ATOM      7  C   UNL     1     163.752 202.572 301.409  1.00  0.00    -0.028 C 
ATOM      8  C   UNL     1     163.519 202.860 302.714  1.00  0.00    -0.070 CG0
ATOM      9  C   UNL     1     162.092 203.113 303.131  1.00  0.00     0.039 C 
ATOM     10  G   UNL     1     164.620 202.977 303.761  1.00  0.00     0.000 G0
ENDBRANCH   6   7
ENDBRANCH   5   6
ENDBRANCH   3   5
ENDBRANCH   1   3
BRANCH   1  11
ATOM     11  C   UNL     1     165.244 199.770 303.677  1.00  0.00     0.087 C 
BRANCH  11  12
ATOM     12  C   UNL     1     165.592 200.783 304.798  1.00  0.00     0.066 C 
BRANCH  12  13
ATOM     13  C   UNL     1     164.589 201.929 304.831  1.00  0.00     0.140 C 
ATOM     14  O   UNL     1     163.761 202.005 305.726  1.00  0.00    -0.299 OA
BRANCH  13  15
ATOM     15  C   UNL     1     164.629 202.992 303.761  1.00  0.00     0.106 CG0
ATOM     16  G   UNL     1     163.520 202.859 302.724  1.00  0.00     0.000 G0
ENDBRANCH  13  15
ENDBRANCH  12  13
BRANCH  12  17
ATOM     17  C   UNL     1     165.810 200.090 306.180  1.00  0.00    -0.006 C 
ATOM     18  C   UNL     1     164.635 200.348 307.137  1.00  0.00     0.008 C 
ATOM     19  C   UNL     1     166.114 198.582 306.101  1.00  0.00     0.008 C 
ENDBRANCH  12  17
ENDBRANCH  11  12
ENDBRANCH   1  11
TORSDOF 1
ENDMDL
MODEL 7
REMARK VINA RESULT:    -2.521      1.924      2.652
REMARK INTER + INTRA:          -3.256
REMARK INTER:                  -3.938
REMARK INTRA:                   0.682
REMARK UNBOUND:                 0.592
REMARK SMILES CC1=CCC[C@H](C)C(=O)C[C@H](C(C)C)C(=O)C1
REMARK SMILES IDX 8 1 9 2 6 3 7 4 5 5 4 6 3 7 2 8 1 9 10 11 11 12 15 13 16 14
REMARK SMILES IDX 17 15 12 17 13 18 14 19
REMARK H PARENT
REMARK Flexibility Score: 70.00
ROOT
ATOM      1  C   UNL     1     163.144 202.362 302.191  1.00  0.00     0.136 C 
ATOM      2  O   UNL     1     162.165 203.071 302.381  1.00  0.00    -0.299 OA
ENDROOT
BRANCH   1   3
ATOM      3  C   UNL     1     163.466 201.965 300.759  1.00  0.00     0.053 C 
ATOM      4  C   UNL     1     162.270 201.367 299.999  1.00  0.00     0.016 C 
BRANCH   3   5
ATOM      5  C   UNL     1     164.183 203.096 299.987  1.00  0.00     0.015 C 
BRANCH   5   6
ATOM      6  C   UNL     1     165.249 202.605 298.989  1.00  0.00     0.028 C 
BRANCH   6   7
ATOM      7  C   UNL     1     165.951 201.351 299.451  1.00  0.00    -0.028 C 
ATOM      8  C   UNL     1     166.817 201.275 300.492  1.00  0.00    -0.070 CG0
ATOM      9  C   UNL     1     167.487 199.948 300.749  1.00  0.00     0.039 C 
ATOM     10  G   UNL     1     167.116 202.440 301.428  1.00  0.00     0.000 G0
ENDBRANCH   6   7
ENDBRANCH   5   6
ENDBRANCH   3   5
ENDBRANCH   1   3
BRANCH   1  11
ATOM     11  C   UNL     1     163.975 201.951 303.392  1.00  0.00     0.087 C 
BRANCH  11  12
ATOM     12  C   UNL     1     165.320 201.296 302.982  1.00  0.00     0.066 C 
BRANCH  12  13
ATOM     13  C   UNL     1     166.400 202.347 302.773  1.00  0.00     0.140 C 
ATOM     14  O   UNL     1     166.720 203.100 303.681  1.00  0.00    -0.299 OA
BRANCH  13  15
ATOM     15  C   UNL     1     167.100 202.450 301.441  1.00  0.00     0.106 CG0
ATOM     16  G   UNL     1     166.801 201.289 300.500  1.00  0.00     0.000 G0
ENDBRANCH  13  15
ENDBRANCH  12  13
BRANCH  12  17
ATOM     17  C   UNL     1     165.736 200.139 303.946  1.00  0.00    -0.006 C 
ATOM     18  C   UNL     1     165.343 200.442 305.400  1.00  0.00     0.008 C 
ATOM     19  C   UNL     1     165.227 198.745 303.533  1.00  0.00     0.008 C 
ENDBRANCH  12  17
ENDBRANCH  11  12
ENDBRANCH   1  11
TORSDOF 1
ENDMDL
MODEL 8
REMARK VINA RESULT:    -2.451      1.949      5.570
REMARK INTER + INTRA:          -3.149
REMARK INTER:                  -3.260
REMARK INTRA:                   0.110
REMARK UNBOUND:                 0.592
REMARK SMILES CC1=CCC[C@H](C)C(=O)C[C@H](C(C)C)C(=O)C1
REMARK SMILES IDX 8 1 9 2 6 3 7 4 5 5 4 6 3 7 2 8 1 9 10 11 11 12 15 13 16 14
REMARK SMILES IDX 17 15 12 17 13 18 14 19
REMARK H PARENT
REMARK Flexibility Score: 70.00
ROOT
ATOM      1  C   UNL     1     165.322 199.840 301.665  1.00  0.00     0.136 C 
ATOM      2  O   UNL     1     164.263 199.258 301.472  1.00  0.00    -0.299 OA
ENDROOT
BRANCH   1   3
ATOM      3  C   UNL     1     166.470 199.046 302.267  1.00  0.00     0.053 C 
ATOM      4  C   UNL     1     167.849 199.424 301.700  1.00  0.00     0.016 C 
BRANCH   3   5
ATOM      5  C   UNL     1     166.423 199.031 303.812  1.00  0.00     0.015 C 
BRANCH   5   6
ATOM      6  C   UNL     1     166.449 200.429 304.459  1.00  0.00     0.028 C 
BRANCH   6   7
ATOM      7  C   UNL     1     165.139 200.798 305.112  1.00  0.00    -0.028 C 
ATOM      8  C   UNL     1     164.360 201.854 304.767  1.00  0.00    -0.070 CG0
ATOM      9  C   UNL     1     163.126 202.112 305.594  1.00  0.00     0.039 C 
ATOM     10  G   UNL     1     164.647 202.759 303.575  1.00  0.00     0.000 G0
ENDBRANCH   6   7
ENDBRANCH   5   6
ENDBRANCH   3   5
ENDBRANCH   1   3
BRANCH   1  11
ATOM     11  C   UNL     1     165.417 201.302 301.271  1.00  0.00     0.087 C 
BRANCH  11  12
ATOM     12  C   UNL     1     164.024 201.973 301.152  1.00  0.00     0.066 C 
BRANCH  12  13
ATOM     13  C   UNL     1     163.630 202.653 302.456  1.00  0.00     0.140 C 
ATOM     14  O   UNL     1     162.504 203.101 302.609  1.00  0.00    -0.299 OA
BRANCH  13  15
ATOM     15  C   UNL     1     164.632 202.759 303.579  1.00  0.00     0.106 CG0
ATOM     16  G   UNL     1     164.333 201.838 304.756  1.00  0.00     0.000 G0
ENDBRANCH  13  15
ENDBRANCH  12  13
BRANCH  12  17
ATOM     17  C   UNL     1     163.912 202.895 299.896  1.00  0.00    -0.006 C 
ATOM     18  C   UNL     1     165.157 202.788 299.001  1.00  0.00     0.008 C 
ATOM     19  C   UNL     1     162.634 202.690 299.062  1.00  0.00     0.008 C 
ENDBRANCH  12  17
ENDBRANCH  11  12
ENDBRANCH   1  11
TORSDOF 1
ENDMDL
MODEL 9
REMARK VINA RESULT:    -2.308      1.832      4.159
REMARK INTER + INTRA:          -2.930
REMARK INTER:                  -4.311
REMARK INTRA:                   1.381
REMARK UNBOUND:                 0.592
REMARK SMILES CC1=CCC[C@H](C)C(=O)C[C@H](C(C)C)C(=O)C1
REMARK SMILES IDX 8 1 9 2 6 3 7 4 5 5 4 6 3 7 2 8 1 9 10 11 11 12 15 13 16 14
REMARK SMILES IDX 17 15 12 17 13 18 14 19
REMARK H PARENT
REMARK Flexibility Score: 70.00
ROOT
ATOM      1  C   UNL     1     164.241 202.120 301.577  1.00  0.00     0.136 C 
ATOM      2  O   UNL     1     163.950 201.177 300.853  1.00  0.00    -0.299 OA
ENDROOT
BRANCH   1   3
ATOM      3  C   UNL     1     163.106 202.873 302.253  1.00  0.00     0.053 C 
ATOM      4  C   UNL     1     161.771 202.790 301.494  1.00  0.00     0.016 C 
BRANCH   3   5
ATOM      5  C   UNL     1     162.985 202.522 303.753  1.00  0.00     0.015 C 
BRANCH   5   6
ATOM      6  C   UNL     1     164.325 202.525 304.514  1.00  0.00     0.028 C 
BRANCH   6   7
ATOM      7  C   UNL     1     164.481 201.338 305.433  1.00  0.00    -0.028 C 
ATOM      8  C   UNL     1     165.433 200.378 305.321  1.00  0.00    -0.070 CG0
ATOM      9  C   UNL     1     165.375 199.220 306.285  1.00  0.00     0.039 C 
ATOM     10  G   UNL     1     166.567 200.430 304.304  1.00  0.00     0.000 G0
ENDBRANCH   6   7
ENDBRANCH   5   6
ENDBRANCH   3   5
ENDBRANCH   1   3
BRANCH   1  11
ATOM     11  C   UNL     1     165.709 202.454 301.762  1.00  0.00     0.087 C 
BRANCH  11  12
ATOM     12  C   UNL     1     166.601 201.185 301.810  1.00  0.00     0.066 C 
BRANCH  12  13
ATOM     13  C   UNL     1     166.125 200.222 302.888  1.00  0.00     0.140 C 
ATOM     14  O   UNL     1     165.404 199.277 302.604  1.00  0.00    -0.299 OA
BRANCH  13  15
ATOM     15  C   UNL     1     166.562 200.420 304.318  1.00  0.00     0.106 CG0
ATOM     16  G   UNL     1     165.416 200.374 305.321  1.00  0.00     0.000 G0
ENDBRANCH  13  15
ENDBRANCH  12  13
BRANCH  12  17
ATOM     17  C   UNL     1     166.777 200.529 300.404  1.00  0.00    -0.006 C 
ATOM     18  C   UNL     1     167.104 201.574 299.325  1.00  0.00     0.008 C 
ATOM     19  C   UNL     1     167.796 199.375 300.357  1.00  0.00     0.008 C 
ENDBRANCH  12  17
ENDBRANCH  11  12
ENDBRANCH   1  11
TORSDOF 1
ENDMDL
