MODEL 1
REMARK VINA RESULT:    -5.235      0.000      0.000
REMARK INTER + INTRA:          -5.914
REMARK INTER:                  -5.694
REMARK INTRA:                  -0.221
REMARK UNBOUND:                -0.221
REMARK SMILES O=C([O-])c1ccccc1O
REMARK SMILES IDX 4 1 9 2 5 3 8 4 6 5 7 6 2 7 1 8 3 9 10 10
REMARK H PARENT 10 11
REMARK Flexibility Score: inf
ROOT
ATOM      1  C   UNL     1       3.506  -3.585 -21.678  1.00  0.00     0.039 A 
ATOM      2  C   UNL     1       4.761  -3.594 -22.333  1.00  0.00     0.124 A 
ATOM      3  C   UNL     1       3.121  -2.434 -20.964  1.00  0.00     0.014 A 
ATOM      4  C   UNL     1       5.595  -2.466 -22.263  1.00  0.00     0.047 A 
ATOM      5  C   UNL     1       3.960  -1.319 -20.902  1.00  0.00     0.001 A 
ATOM      6  C   UNL     1       5.195  -1.335 -21.550  1.00  0.00     0.004 A 
ENDROOT
BRANCH   1   7
ATOM      7  C   UNL     1       2.588  -4.751 -21.722  1.00  0.00     0.075 C 
ATOM      8  O   UNL     1       1.343  -4.603 -21.599  1.00  0.00    -0.545 OA
ATOM      9  O   UNL     1       3.092  -6.034 -21.902  1.00  0.00    -0.545 OA
ENDBRANCH   1   7
BRANCH   2  10
ATOM     10  O   UNL     1       5.185  -4.712 -23.051  1.00  0.00    -0.507 OA
ATOM     11  H   UNL     1       6.092  -5.134 -22.895  1.00  0.00     0.293 HD
ENDBRANCH   2  10
TORSDOF 2
ENDMDL
MODEL 2
REMARK VINA RESULT:    -5.052     13.388     14.802
REMARK INTER + INTRA:          -5.716
REMARK INTER:                  -5.480
REMARK INTRA:                  -0.236
REMARK UNBOUND:                -0.221
REMARK SMILES O=C([O-])c1ccccc1O
REMARK SMILES IDX 4 1 9 2 5 3 8 4 6 5 7 6 2 7 1 8 3 9 10 10
REMARK H PARENT 10 11
REMARK Flexibility Score: inf
ROOT
ATOM      1  C   UNL     1       5.932  10.715 -23.376  1.00  0.00     0.039 A 
ATOM      2  C   UNL     1       4.605  10.705 -22.883  1.00  0.00     0.124 A 
ATOM      3  C   UNL     1       6.775   9.626 -23.079  1.00  0.00     0.014 A 
ATOM      4  C   UNL     1       4.153   9.621 -22.113  1.00  0.00     0.047 A 
ATOM      5  C   UNL     1       6.312   8.555 -22.311  1.00  0.00     0.001 A 
ATOM      6  C   UNL     1       5.003   8.553 -21.828  1.00  0.00     0.004 A 
ENDROOT
BRANCH   1   7
ATOM      7  C   UNL     1       6.458  11.835 -24.195  1.00  0.00     0.075 C 
ATOM      8  O   UNL     1       7.668  12.180 -24.125  1.00  0.00    -0.545 OA
ATOM      9  O   UNL     1       5.617  12.528 -25.059  1.00  0.00    -0.545 OA
ENDBRANCH   1   7
BRANCH   2  10
ATOM     10  O   UNL     1       3.734  11.761 -23.152  1.00  0.00    -0.507 OA
ATOM     11  H   UNL     1       2.759  11.604 -23.377  1.00  0.00     0.293 HD
ENDBRANCH   2  10
TORSDOF 2
ENDMDL
MODEL 3
REMARK VINA RESULT:    -4.934     12.854     13.851
REMARK INTER + INTRA:          -5.587
REMARK INTER:                  -5.341
REMARK INTRA:                  -0.246
REMARK UNBOUND:                -0.221
REMARK SMILES O=C([O-])c1ccccc1O
REMARK SMILES IDX 4 1 9 2 5 3 8 4 6 5 7 6 2 7 1 8 3 9 10 10
REMARK H PARENT 10 11
REMARK Flexibility Score: inf
ROOT
ATOM      1  C   UNL     1       4.934  10.007 -22.704  1.00  0.00     0.039 A 
ATOM      2  C   UNL     1       6.305  10.212 -22.991  1.00  0.00     0.124 A 
ATOM      3  C   UNL     1       4.556   8.855 -21.988  1.00  0.00     0.014 A 
ATOM      4  C   UNL     1       7.258   9.274 -22.563  1.00  0.00     0.047 A 
ATOM      5  C   UNL     1       5.515   7.929 -21.568  1.00  0.00     0.001 A 
ATOM      6  C   UNL     1       6.863   8.138 -21.855  1.00  0.00     0.004 A 
ENDROOT
BRANCH   1   7
ATOM      7  C   UNL     1       3.888  10.969 -23.133  1.00  0.00     0.075 C 
ATOM      8  O   UNL     1       3.933  11.513 -24.269  1.00  0.00    -0.545 OA
ATOM      9  O   UNL     1       2.836  11.287 -22.283  1.00  0.00    -0.545 OA
ENDBRANCH   1   7
BRANCH   2  10
ATOM     10  O   UNL     1       6.726  11.339 -23.697  1.00  0.00    -0.507 OA
ATOM     11  H   UNL     1       6.934  11.301 -24.688  1.00  0.00     0.293 HD
ENDBRANCH   2  10
TORSDOF 2
ENDMDL
MODEL 4
REMARK VINA RESULT:    -4.930      2.422      3.537
REMARK INTER + INTRA:          -5.583
REMARK INTER:                  -5.378
REMARK INTRA:                  -0.205
REMARK UNBOUND:                -0.221
REMARK SMILES O=C([O-])c1ccccc1O
REMARK SMILES IDX 4 1 9 2 5 3 8 4 6 5 7 6 2 7 1 8 3 9 10 10
REMARK H PARENT 10 11
REMARK Flexibility Score: inf
ROOT
ATOM      1  C   UNL     1       4.122  -2.296 -21.506  1.00  0.00     0.039 A 
ATOM      2  C   UNL     1       4.989  -3.139 -22.243  1.00  0.00     0.124 A 
ATOM      3  C   UNL     1       2.843  -2.774 -21.160  1.00  0.00     0.014 A 
ATOM      4  C   UNL     1       4.566  -4.425 -22.614  1.00  0.00     0.047 A 
ATOM      5  C   UNL     1       2.435  -4.055 -21.537  1.00  0.00     0.001 A 
ATOM      6  C   UNL     1       3.294  -4.879 -22.263  1.00  0.00     0.004 A 
ENDROOT
BRANCH   1   7
ATOM      7  C   UNL     1       4.522  -0.929 -21.089  1.00  0.00     0.075 C 
ATOM      8  O   UNL     1       3.961  -0.356 -20.116  1.00  0.00    -0.545 OA
ATOM      9  O   UNL     1       5.529  -0.253 -21.769  1.00  0.00    -0.545 OA
ENDBRANCH   1   7
BRANCH   2  10
ATOM     10  O   UNL     1       6.265  -2.708 -22.607  1.00  0.00    -0.507 OA
ATOM     11  H   UNL     1       6.432  -2.206 -23.471  1.00  0.00     0.293 HD
ENDBRANCH   2  10
TORSDOF 2
ENDMDL
MODEL 5
REMARK VINA RESULT:    -4.903      2.440      3.435
REMARK INTER + INTRA:          -5.554
REMARK INTER:                  -5.469
REMARK INTRA:                  -0.085
REMARK UNBOUND:                -0.221
REMARK SMILES O=C([O-])c1ccccc1O
REMARK SMILES IDX 4 1 9 2 5 3 8 4 6 5 7 6 2 7 1 8 3 9 10 10
REMARK H PARENT 10 11
REMARK Flexibility Score: inf
ROOT
ATOM      1  C   UNL     1       4.797  -3.676 -22.870  1.00  0.00     0.039 A 
ATOM      2  C   UNL     1       4.827  -2.531 -22.038  1.00  0.00     0.124 A 
ATOM      3  C   UNL     1       3.764  -4.617 -22.695  1.00  0.00     0.014 A 
ATOM      4  C   UNL     1       3.837  -2.353 -21.059  1.00  0.00     0.047 A 
ATOM      5  C   UNL     1       2.786  -4.427 -21.716  1.00  0.00     0.001 A 
ATOM      6  C   UNL     1       2.822  -3.297 -20.899  1.00  0.00     0.004 A 
ENDROOT
BRANCH   1   7
ATOM      7  C   UNL     1       5.820  -3.910 -23.921  1.00  0.00     0.075 C 
ATOM      8  O   UNL     1       5.628  -3.537 -25.110  1.00  0.00    -0.545 OA
ATOM      9  O   UNL     1       7.014  -4.550 -23.608  1.00  0.00    -0.545 OA
ENDBRANCH   1   7
BRANCH   2  10
ATOM     10  O   UNL     1       5.831  -1.573 -22.176  1.00  0.00    -0.507 OA
ATOM     11  H   UNL     1       5.932  -0.808 -21.519  1.00  0.00     0.293 HD
ENDBRANCH   2  10
TORSDOF 2
ENDMDL
MODEL 6
REMARK VINA RESULT:    -4.782     12.404     13.751
REMARK INTER + INTRA:          -5.422
REMARK INTER:                  -5.171
REMARK INTRA:                  -0.251
REMARK UNBOUND:                -0.221
REMARK SMILES O=C([O-])c1ccccc1O
REMARK SMILES IDX 4 1 9 2 5 3 8 4 6 5 7 6 2 7 1 8 3 9 10 10
REMARK H PARENT 10 11
REMARK Flexibility Score: inf
ROOT
ATOM      1  C   UNL     1       6.007   9.609 -22.783  1.00  0.00     0.039 A 
ATOM      2  C   UNL     1       4.698  10.116 -22.599  1.00  0.00     0.124 A 
ATOM      3  C   UNL     1       6.895  10.312 -23.620  1.00  0.00     0.014 A 
ATOM      4  C   UNL     1       4.308  11.299 -23.247  1.00  0.00     0.047 A 
ATOM      5  C   UNL     1       6.494  11.487 -24.259  1.00  0.00     0.001 A 
ATOM      6  C   UNL     1       5.203  11.980 -24.074  1.00  0.00     0.004 A 
ENDROOT
BRANCH   1   7
ATOM      7  C   UNL     1       6.468   8.364 -22.120  1.00  0.00     0.075 C 
ATOM      8  O   UNL     1       7.623   8.282 -21.622  1.00  0.00    -0.545 OA
ATOM      9  O   UNL     1       5.627   7.260 -22.037  1.00  0.00    -0.545 OA
ENDBRANCH   1   7
BRANCH   2  10
ATOM     10  O   UNL     1       3.784   9.454 -21.779  1.00  0.00    -0.507 OA
ATOM     11  H   UNL     1       3.910   8.485 -21.514  1.00  0.00     0.293 HD
ENDBRANCH   2  10
TORSDOF 2
ENDMDL
MODEL 7
REMARK VINA RESULT:    -4.763     12.462     13.674
REMARK INTER + INTRA:          -5.401
REMARK INTER:                  -5.196
REMARK INTRA:                  -0.205
REMARK UNBOUND:                -0.221
REMARK SMILES O=C([O-])c1ccccc1O
REMARK SMILES IDX 4 1 9 2 5 3 8 4 6 5 7 6 2 7 1 8 3 9 10 10
REMARK H PARENT 10 11
REMARK Flexibility Score: inf
ROOT
ATOM      1  C   UNL     1       5.038  10.091 -22.915  1.00  0.00     0.039 A 
ATOM      2  C   UNL     1       5.098   8.884 -22.178  1.00  0.00     0.124 A 
ATOM      3  C   UNL     1       6.242  10.693 -23.330  1.00  0.00     0.014 A 
ATOM      4  C   UNL     1       6.343   8.311 -21.874  1.00  0.00     0.047 A 
ATOM      5  C   UNL     1       7.473  10.112 -23.020  1.00  0.00     0.001 A 
ATOM      6  C   UNL     1       7.524   8.924 -22.293  1.00  0.00     0.004 A 
ENDROOT
BRANCH   1   7
ATOM      7  C   UNL     1       3.747  10.737 -23.264  1.00  0.00     0.075 C 
ATOM      8  O   UNL     1       3.007  11.233 -22.372  1.00  0.00    -0.545 OA
ATOM      9  O   UNL     1       3.331  10.805 -24.588  1.00  0.00    -0.545 OA
ENDBRANCH   1   7
BRANCH   2  10
ATOM     10  O   UNL     1       3.932   8.252 -21.746  1.00  0.00    -0.507 OA
ATOM     11  H   UNL     1       3.907   7.701 -20.897  1.00  0.00     0.293 HD
ENDBRANCH   2  10
TORSDOF 2
ENDMDL
MODEL 8
REMARK VINA RESULT:    -4.748      1.364      2.929
REMARK INTER + INTRA:          -5.385
REMARK INTER:                  -5.144
REMARK INTRA:                  -0.241
REMARK UNBOUND:                -0.221
REMARK SMILES O=C([O-])c1ccccc1O
REMARK SMILES IDX 4 1 9 2 5 3 8 4 6 5 7 6 2 7 1 8 3 9 10 10
REMARK H PARENT 10 11
REMARK Flexibility Score: inf
ROOT
ATOM      1  C   UNL     1       5.038  -2.692 -22.434  1.00  0.00     0.039 A 
ATOM      2  C   UNL     1       3.821  -2.893 -21.740  1.00  0.00     0.124 A 
ATOM      3  C   UNL     1       5.826  -1.571 -22.111  1.00  0.00     0.014 A 
ATOM      4  C   UNL     1       3.421  -1.981 -20.750  1.00  0.00     0.047 A 
ATOM      5  C   UNL     1       5.416  -0.671 -21.125  1.00  0.00     0.001 A 
ATOM      6  C   UNL     1       4.216  -0.875 -20.445  1.00  0.00     0.004 A 
ENDROOT
BRANCH   1   7
ATOM      7  C   UNL     1       5.506  -3.628 -23.488  1.00  0.00     0.075 C 
ATOM      8  O   UNL     1       4.795  -3.875 -24.499  1.00  0.00    -0.545 OA
ATOM      9  O   UNL     1       6.743  -4.250 -23.375  1.00  0.00    -0.545 OA
ENDBRANCH   1   7
BRANCH   2  10
ATOM     10  O   UNL     1       3.008  -3.990 -22.025  1.00  0.00    -0.507 OA
ATOM     11  H   UNL     1       3.390  -4.920 -22.149  1.00  0.00     0.293 HD
ENDBRANCH   2  10
TORSDOF 2
ENDMDL
MODEL 9
REMARK VINA RESULT:    -4.498      2.155      2.532
REMARK INTER + INTRA:          -5.113
REMARK INTER:                  -4.876
REMARK INTRA:                  -0.237
REMARK UNBOUND:                -0.221
REMARK SMILES O=C([O-])c1ccccc1O
REMARK SMILES IDX 4 1 9 2 5 3 8 4 6 5 7 6 2 7 1 8 3 9 10 10
REMARK H PARENT 10 11
REMARK Flexibility Score: inf
ROOT
ATOM      1  C   UNL     1       2.981  -3.936 -23.063  1.00  0.00     0.039 A 
ATOM      2  C   UNL     1       4.197  -3.968 -23.788  1.00  0.00     0.124 A 
ATOM      3  C   UNL     1       1.927  -3.131 -23.538  1.00  0.00     0.014 A 
ATOM      4  C   UNL     1       4.333  -3.204 -24.957  1.00  0.00     0.047 A 
ATOM      5  C   UNL     1       2.078  -2.376 -24.703  1.00  0.00     0.001 A 
ATOM      6  C   UNL     1       3.278  -2.411 -25.412  1.00  0.00     0.004 A 
ENDROOT
BRANCH   1   7
ATOM      7  C   UNL     1       2.785  -4.726 -21.821  1.00  0.00     0.075 C 
ATOM      8  O   UNL     1       2.480  -4.165 -20.735  1.00  0.00    -0.545 OA
ATOM      9  O   UNL     1       2.936  -6.108 -21.837  1.00  0.00    -0.545 OA
ENDBRANCH   1   7
BRANCH   2  10
ATOM     10  O   UNL     1       5.266  -4.750 -23.355  1.00  0.00    -0.507 OA
ATOM     11  H   UNL     1       6.178  -4.351 -23.167  1.00  0.00     0.293 HD
ENDBRANCH   2  10
TORSDOF 2
ENDMDL
