MODEL 1
REMARK VINA RESULT:    -4.912      0.000      0.000
REMARK INTER + INTRA:          -5.718
REMARK INTER:                  -5.630
REMARK INTRA:                  -0.088
REMARK UNBOUND:                -0.088
REMARK SMILES COc1cc(C(=O)[O-])ccc1O
REMARK SMILES IDX 5 1 9 2 4 3 10 4 3 5 11 6 6 7 7 8 8 9 2 10 1 11 12 12
REMARK H PARENT 12 13
REMARK Flexibility Score: inf
ROOT
ATOM      1  C   UNL     1      -1.845   6.738  -6.178  1.00  0.00     0.001 A 
ATOM      2  C   UNL     1      -0.604   6.459  -6.771  1.00  0.00     0.014 A 
ATOM      3  C   UNL     1      -2.240   6.007  -5.042  1.00  0.00     0.060 A 
ATOM      4  C   UNL     1       0.226   5.470  -6.242  1.00  0.00     0.051 A 
ATOM      5  C   UNL     1      -1.405   5.006  -4.503  1.00  0.00     0.161 A 
ATOM      6  C   UNL     1      -0.165   4.744  -5.114  1.00  0.00     0.157 A 
ENDROOT
BRANCH   1   7
ATOM      7  C   UNL     1      -2.723   7.787  -6.744  1.00  0.00     0.072 C 
ATOM      8  O   UNL     1      -3.710   7.478  -7.463  1.00  0.00    -0.545 OA
ATOM      9  O   UNL     1      -2.470   9.130  -6.489  1.00  0.00    -0.545 OA
ENDBRANCH   1   7
BRANCH   5  10
ATOM     10  O   UNL     1      -1.773   4.262  -3.371  1.00  0.00    -0.493 OA
ATOM     11  C   UNL     1      -2.933   3.441  -3.284  1.00  0.00     0.278 C 
ENDBRANCH   5  10
BRANCH   6  12
ATOM     12  O   UNL     1       0.691   3.764  -4.614  1.00  0.00    -0.504 OA
ATOM     13  H   UNL     1       1.698   3.872  -4.619  1.00  0.00     0.293 HD
ENDBRANCH   6  12
TORSDOF 3
ENDMDL
MODEL 2
REMARK VINA RESULT:    -4.885     10.429     12.120
REMARK INTER + INTRA:          -5.686
REMARK INTER:                  -5.611
REMARK INTRA:                  -0.075
REMARK UNBOUND:                -0.088
REMARK SMILES COc1cc(C(=O)[O-])ccc1O
REMARK SMILES IDX 5 1 9 2 4 3 10 4 3 5 11 6 6 7 7 8 8 9 2 10 1 11 12 12
REMARK H PARENT 12 13
REMARK Flexibility Score: inf
ROOT
ATOM      1  C   UNL     1       2.193  15.971  -1.309  1.00  0.00     0.001 A 
ATOM      2  C   UNL     1       2.603  14.807  -1.978  1.00  0.00     0.014 A 
ATOM      3  C   UNL     1       1.400  16.910  -1.993  1.00  0.00     0.060 A 
ATOM      4  C   UNL     1       2.229  14.586  -3.304  1.00  0.00     0.051 A 
ATOM      5  C   UNL     1       1.019  16.692  -3.333  1.00  0.00     0.161 A 
ATOM      6  C   UNL     1       1.440  15.518  -3.984  1.00  0.00     0.157 A 
ENDROOT
BRANCH   1   7
ATOM      7  C   UNL     1       2.594  16.201   0.098  1.00  0.00     0.072 C 
ATOM      8  O   UNL     1       3.810  16.320   0.406  1.00  0.00    -0.545 OA
ATOM      9  O   UNL     1       1.634  16.292   1.098  1.00  0.00    -0.545 OA
ENDBRANCH   1   7
BRANCH   5  10
ATOM     10  O   UNL     1       0.228  17.612  -4.040  1.00  0.00    -0.493 OA
ATOM     11  C   UNL     1       0.019  18.965  -3.652  1.00  0.00     0.278 C 
ENDBRANCH   5  10
BRANCH   6  12
ATOM     12  O   UNL     1       1.086  15.262  -5.308  1.00  0.00    -0.504 OA
ATOM     13  H   UNL     1       1.160  15.966  -6.033  1.00  0.00     0.293 HD
ENDBRANCH   6  12
TORSDOF 3
ENDMDL
MODEL 3
REMARK VINA RESULT:    -4.778     10.052     11.498
REMARK INTER + INTRA:          -5.563
REMARK INTER:                  -5.464
REMARK INTRA:                  -0.099
REMARK UNBOUND:                -0.088
REMARK SMILES COc1cc(C(=O)[O-])ccc1O
REMARK SMILES IDX 5 1 9 2 4 3 10 4 3 5 11 6 6 7 7 8 8 9 2 10 1 11 12 12
REMARK H PARENT 12 13
REMARK Flexibility Score: inf
ROOT
ATOM      1  C   UNL     1       2.237  15.895  -1.140  1.00  0.00     0.001 A 
ATOM      2  C   UNL     1       1.102  16.507  -1.695  1.00  0.00     0.014 A 
ATOM      3  C   UNL     1       3.018  15.046  -1.944  1.00  0.00     0.060 A 
ATOM      4  C   UNL     1       0.754  16.275  -3.026  1.00  0.00     0.051 A 
ATOM      5  C   UNL     1       2.672  14.808  -3.291  1.00  0.00     0.161 A 
ATOM      6  C   UNL     1       1.531  15.432  -3.826  1.00  0.00     0.157 A 
ENDROOT
BRANCH   1   7
ATOM      7  C   UNL     1       2.600  16.144   0.274  1.00  0.00     0.072 C 
ATOM      8  O   UNL     1       3.809  16.243   0.617  1.00  0.00    -0.545 OA
ATOM      9  O   UNL     1       1.612  16.273   1.243  1.00  0.00    -0.545 OA
ENDBRANCH   1   7
BRANCH   5  10
ATOM     10  O   UNL     1       3.434  13.966  -4.116  1.00  0.00    -0.493 OA
ATOM     11  C   UNL     1       3.460  12.546  -4.020  1.00  0.00     0.278 C 
ENDBRANCH   5  10
BRANCH   6  12
ATOM     12  O   UNL     1       1.152  15.225  -5.152  1.00  0.00    -0.504 OA
ATOM     13  H   UNL     1       1.606  15.698  -5.924  1.00  0.00     0.293 HD
ENDBRANCH   6  12
TORSDOF 3
ENDMDL
MODEL 4
REMARK VINA RESULT:    -4.682      1.520      4.260
REMARK INTER + INTRA:          -5.454
REMARK INTER:                  -5.370
REMARK INTRA:                  -0.084
REMARK UNBOUND:                -0.088
REMARK SMILES COc1cc(C(=O)[O-])ccc1O
REMARK SMILES IDX 5 1 9 2 4 3 10 4 3 5 11 6 6 7 7 8 8 9 2 10 1 11 12 12
REMARK H PARENT 12 13
REMARK Flexibility Score: inf
ROOT
ATOM      1  C   UNL     1      -1.612   4.356  -4.458  1.00  0.00     0.001 A 
ATOM      2  C   UNL     1      -0.577   3.830  -5.246  1.00  0.00     0.014 A 
ATOM      3  C   UNL     1      -2.145   5.617  -4.782  1.00  0.00     0.060 A 
ATOM      4  C   UNL     1      -0.083   4.548  -6.336  1.00  0.00     0.051 A 
ATOM      5  C   UNL     1      -1.651   6.347  -5.883  1.00  0.00     0.161 A 
ATOM      6  C   UNL     1      -0.613   5.800  -6.659  1.00  0.00     0.157 A 
ENDROOT
BRANCH   1   7
ATOM      7  C   UNL     1      -2.130   3.591  -3.302  1.00  0.00     0.072 C 
ATOM      8  O   UNL     1      -1.340   2.992  -2.523  1.00  0.00    -0.545 OA
ATOM      9  O   UNL     1      -3.496   3.524  -3.057  1.00  0.00    -0.545 OA
ENDBRANCH   1   7
BRANCH   5  10
ATOM     10  O   UNL     1      -2.164   7.607  -6.230  1.00  0.00    -0.493 OA
ATOM     11  C   UNL     1      -3.550   7.929  -6.285  1.00  0.00     0.278 C 
ENDBRANCH   5  10
BRANCH   6  12
ATOM     12  O   UNL     1      -0.095   6.488  -7.756  1.00  0.00    -0.504 OA
ATOM     13  H   UNL     1       0.687   7.126  -7.674  1.00  0.00     0.293 HD
ENDBRANCH   6  12
TORSDOF 3
ENDMDL
MODEL 5
REMARK VINA RESULT:    -4.586      9.117     10.843
REMARK INTER + INTRA:          -5.343
REMARK INTER:                  -5.444
REMARK INTRA:                   0.101
REMARK UNBOUND:                -0.088
REMARK SMILES COc1cc(C(=O)[O-])ccc1O
REMARK SMILES IDX 5 1 9 2 4 3 10 4 3 5 11 6 6 7 7 8 8 9 2 10 1 11 12 12
REMARK H PARENT 12 13
REMARK Flexibility Score: inf
ROOT
ATOM      1  C   UNL     1       1.835  13.843  -3.373  1.00  0.00     0.001 A 
ATOM      2  C   UNL     1       3.122  14.169  -2.919  1.00  0.00     0.014 A 
ATOM      3  C   UNL     1       0.977  14.876  -3.797  1.00  0.00     0.060 A 
ATOM      4  C   UNL     1       3.545  15.498  -2.887  1.00  0.00     0.051 A 
ATOM      5  C   UNL     1       1.400  16.221  -3.768  1.00  0.00     0.161 A 
ATOM      6  C   UNL     1       2.694  16.524  -3.309  1.00  0.00     0.157 A 
ENDROOT
BRANCH   1   7
ATOM      7  C   UNL     1       1.390  12.432  -3.403  1.00  0.00     0.072 C 
ATOM      8  O   UNL     1       2.225  11.494  -3.293  1.00  0.00    -0.545 OA
ATOM      9  O   UNL     1       0.044  12.120  -3.551  1.00  0.00    -0.545 OA
ENDBRANCH   1   7
BRANCH   5  10
ATOM     10  O   UNL     1       0.566  17.271  -4.184  1.00  0.00    -0.493 OA
ATOM     11  C   UNL     1       0.057  18.288  -3.329  1.00  0.00     0.278 C 
ENDBRANCH   5  10
BRANCH   6  12
ATOM     12  O   UNL     1       3.153  17.840  -3.263  1.00  0.00    -0.504 OA
ATOM     13  H   UNL     1       3.920  18.125  -2.666  1.00  0.00     0.293 HD
ENDBRANCH   6  12
TORSDOF 3
ENDMDL
MODEL 6
REMARK VINA RESULT:    -4.428      2.285      2.950
REMARK INTER + INTRA:          -5.163
REMARK INTER:                  -5.067
REMARK INTRA:                  -0.096
REMARK UNBOUND:                -0.088
REMARK SMILES COc1cc(C(=O)[O-])ccc1O
REMARK SMILES IDX 5 1 9 2 4 3 10 4 3 5 11 6 6 7 7 8 8 9 2 10 1 11 12 12
REMARK H PARENT 12 13
REMARK Flexibility Score: inf
ROOT
ATOM      1  C   UNL     1      -3.327   7.413  -6.876  1.00  0.00     0.001 A 
ATOM      2  C   UNL     1      -3.706   6.705  -8.027  1.00  0.00     0.014 A 
ATOM      3  C   UNL     1      -3.225   6.726  -5.653  1.00  0.00     0.060 A 
ATOM      4  C   UNL     1      -3.978   5.337  -7.958  1.00  0.00     0.051 A 
ATOM      5  C   UNL     1      -3.498   5.344  -5.577  1.00  0.00     0.161 A 
ATOM      6  C   UNL     1      -3.876   4.654  -6.743  1.00  0.00     0.157 A 
ENDROOT
BRANCH   1   7
ATOM      7  C   UNL     1      -3.042   8.863  -6.955  1.00  0.00     0.072 C 
ATOM      8  O   UNL     1      -1.897   9.308  -6.671  1.00  0.00    -0.545 OA
ATOM      9  O   UNL     1      -4.032   9.756  -7.345  1.00  0.00    -0.545 OA
ENDBRANCH   1   7
BRANCH   5  10
ATOM     10  O   UNL     1      -3.404   4.633  -4.370  1.00  0.00    -0.493 OA
ATOM     11  C   UNL     1      -2.182   4.229  -3.762  1.00  0.00     0.278 C 
ENDBRANCH   5  10
BRANCH   6  12
ATOM     12  O   UNL     1      -4.155   3.289  -6.714  1.00  0.00    -0.504 OA
ATOM     13  H   UNL     1      -4.998   2.918  -6.291  1.00  0.00     0.293 HD
ENDBRANCH   6  12
TORSDOF 3
ENDMDL
MODEL 7
REMARK VINA RESULT:    -4.402      9.739     11.271
REMARK INTER + INTRA:          -5.133
REMARK INTER:                  -5.045
REMARK INTRA:                  -0.088
REMARK UNBOUND:                -0.088
REMARK SMILES COc1cc(C(=O)[O-])ccc1O
REMARK SMILES IDX 5 1 9 2 4 3 10 4 3 5 11 6 6 7 7 8 8 9 2 10 1 11 12 12
REMARK H PARENT 12 13
REMARK Flexibility Score: inf
ROOT
ATOM      1  C   UNL     1       2.066  14.240  -3.435  1.00  0.00     0.001 A 
ATOM      2  C   UNL     1       1.136  15.023  -4.136  1.00  0.00     0.014 A 
ATOM      3  C   UNL     1       2.995  14.875  -2.590  1.00  0.00     0.060 A 
ATOM      4  C   UNL     1       1.133  16.412  -3.997  1.00  0.00     0.051 A 
ATOM      5  C   UNL     1       2.997  16.278  -2.446  1.00  0.00     0.161 A 
ATOM      6  C   UNL     1       2.056  17.042  -3.158  1.00  0.00     0.157 A 
ENDROOT
BRANCH   1   7
ATOM      7  C   UNL     1       2.065  12.768  -3.587  1.00  0.00     0.072 C 
ATOM      8  O   UNL     1       0.981  12.127  -3.622  1.00  0.00    -0.545 OA
ATOM      9  O   UNL     1       3.262  12.070  -3.696  1.00  0.00    -0.545 OA
ENDBRANCH   1   7
BRANCH   5  10
ATOM     10  O   UNL     1       3.913  16.937  -1.610  1.00  0.00    -0.493 OA
ATOM     11  C   UNL     1       4.124  16.626  -0.237  1.00  0.00     0.278 C 
ENDBRANCH   5  10
BRANCH   6  12
ATOM     12  O   UNL     1       2.022  18.431  -3.044  1.00  0.00    -0.504 OA
ATOM     13  H   UNL     1       1.716  18.898  -2.198  1.00  0.00     0.293 HD
ENDBRANCH   6  12
TORSDOF 3
ENDMDL
MODEL 8
REMARK VINA RESULT:    -4.387     10.429     11.887
REMARK INTER + INTRA:          -5.115
REMARK INTER:                  -5.042
REMARK INTRA:                  -0.073
REMARK UNBOUND:                -0.088
REMARK SMILES COc1cc(C(=O)[O-])ccc1O
REMARK SMILES IDX 5 1 9 2 4 3 10 4 3 5 11 6 6 7 7 8 8 9 2 10 1 11 12 12
REMARK H PARENT 12 13
REMARK Flexibility Score: inf
ROOT
ATOM      1  C   UNL     1       1.756  15.526  -2.912  1.00  0.00     0.001 A 
ATOM      2  C   UNL     1       1.202  16.586  -3.647  1.00  0.00     0.014 A 
ATOM      3  C   UNL     1       1.845  15.638  -1.512  1.00  0.00     0.060 A 
ATOM      4  C   UNL     1       0.745  17.734  -2.998  1.00  0.00     0.051 A 
ATOM      5  C   UNL     1       1.385  16.795  -0.851  1.00  0.00     0.161 A 
ATOM      6  C   UNL     1       0.833  17.844  -1.607  1.00  0.00     0.157 A 
ENDROOT
BRANCH   1   7
ATOM      7  C   UNL     1       2.241  14.312  -3.607  1.00  0.00     0.072 C 
ATOM      8  O   UNL     1       1.443  13.384  -3.907  1.00  0.00    -0.545 OA
ATOM      9  O   UNL     1       3.584  14.178  -3.939  1.00  0.00    -0.545 OA
ENDBRANCH   1   7
BRANCH   5  10
ATOM     10  O   UNL     1       1.461  16.933   0.545  1.00  0.00    -0.493 OA
ATOM     11  C   UNL     1       1.793  15.881   1.445  1.00  0.00     0.278 C 
ENDBRANCH   5  10
BRANCH   6  12
ATOM     12  O   UNL     1       0.366  19.006  -0.993  1.00  0.00    -0.504 OA
ATOM     13  H   UNL     1      -0.224  18.983  -0.170  1.00  0.00     0.293 HD
ENDBRANCH   6  12
TORSDOF 3
ENDMDL
MODEL 9
REMARK VINA RESULT:    -4.259     12.420     13.365
REMARK INTER + INTRA:          -4.969
REMARK INTER:                  -4.889
REMARK INTRA:                  -0.080
REMARK UNBOUND:                -0.088
REMARK SMILES COc1cc(C(=O)[O-])ccc1O
REMARK SMILES IDX 5 1 9 2 4 3 10 4 3 5 11 6 6 7 7 8 8 9 2 10 1 11 12 12
REMARK H PARENT 12 13
REMARK Flexibility Score: inf
ROOT
ATOM      1  C   UNL     1       1.915  15.462   2.304  1.00  0.00     0.001 A 
ATOM      2  C   UNL     1       3.316  15.493   2.225  1.00  0.00     0.014 A 
ATOM      3  C   UNL     1       1.157  15.921   1.210  1.00  0.00     0.060 A 
ATOM      4  C   UNL     1       3.948  15.973   1.077  1.00  0.00     0.051 A 
ATOM      5  C   UNL     1       1.791  16.407   0.048  1.00  0.00     0.161 A 
ATOM      6  C   UNL     1       3.196  16.428  -0.010  1.00  0.00     0.157 A 
ENDROOT
BRANCH   1   7
ATOM      7  C   UNL     1       1.249  14.954   3.524  1.00  0.00     0.072 C 
ATOM      8  O   UNL     1       1.830  15.007   4.641  1.00  0.00    -0.545 OA
ATOM      9  O   UNL     1      -0.029  14.411   3.456  1.00  0.00    -0.545 OA
ENDBRANCH   1   7
BRANCH   5  10
ATOM     10  O   UNL     1       1.061  16.871  -1.058  1.00  0.00    -0.493 OA
ATOM     11  C   UNL     1       0.681  18.227  -1.266  1.00  0.00     0.278 C 
ENDBRANCH   5  10
BRANCH   6  12
ATOM     12  O   UNL     1       3.864  16.900  -1.140  1.00  0.00    -0.504 OA
ATOM     13  H   UNL     1       3.553  17.718  -1.649  1.00  0.00     0.293 HD
ENDBRANCH   6  12
TORSDOF 3
ENDMDL
