MODEL 1
REMARK VINA RESULT:    -4.860      0.000      0.000
REMARK INTER + INTRA:          -5.836
REMARK INTER:                  -5.570
REMARK INTRA:                  -0.266
REMARK UNBOUND:                -0.266
REMARK SMILES COc1ccc(C=O)c(O)c1
REMARK SMILES IDX 3 1 11 2 9 3 6 4 5 5 4 6 2 7 1 8 10 9 7 11 8 12
REMARK H PARENT 10 10
REMARK Flexibility Score: inf
ROOT
ATOM      1  C   UNL     1      14.130  44.810   4.360  1.00  0.00     0.122 A 
ATOM      2  C   UNL     1      14.420  45.327   5.637  1.00  0.00     0.093 A 
ATOM      3  C   UNL     1      15.613  44.982   6.291  1.00  0.00     0.129 A 
ATOM      4  C   UNL     1      16.531  44.113   5.671  1.00  0.00     0.056 A 
ATOM      5  C   UNL     1      16.235  43.600   4.396  1.00  0.00     0.019 A 
ATOM      6  C   UNL     1      15.045  43.947   3.751  1.00  0.00     0.047 A 
ENDROOT
BRANCH   1   7
ATOM      7  O   UNL     1      12.951  45.127   3.670  1.00  0.00    -0.497 OA
ATOM      8  C   UNL     1      12.271  46.374   3.768  1.00  0.00     0.278 C 
ENDBRANCH   1   7
BRANCH   3   9
ATOM      9  O   UNL     1      15.884  45.504   7.556  1.00  0.00    -0.507 OA
ATOM     10  H   UNL     1      16.696  46.086   7.730  1.00  0.00     0.293 HD
ENDBRANCH   3   9
BRANCH   4  11
ATOM     11  C   UNL     1      17.789  43.743   6.352  1.00  0.00     0.263 C 
ATOM     12  O   UNL     1      17.784  43.289   7.528  1.00  0.00    -0.298 OA
ENDBRANCH   4  11
TORSDOF 3
ENDMDL
MODEL 2
REMARK VINA RESULT:    -4.796      1.412      1.547
REMARK INTER + INTRA:          -5.763
REMARK INTER:                  -5.507
REMARK INTRA:                  -0.256
REMARK UNBOUND:                -0.266
REMARK SMILES COc1ccc(C=O)c(O)c1
REMARK SMILES IDX 3 1 11 2 9 3 6 4 5 5 4 6 2 7 1 8 10 9 7 11 8 12
REMARK H PARENT 10 10
REMARK Flexibility Score: inf
ROOT
ATOM      1  C   UNL     1      15.098  44.813   5.147  1.00  0.00     0.122 A 
ATOM      2  C   UNL     1      15.136  45.426   6.414  1.00  0.00     0.093 A 
ATOM      3  C   UNL     1      15.765  44.790   7.495  1.00  0.00     0.129 A 
ATOM      4  C   UNL     1      16.366  43.529   7.318  1.00  0.00     0.056 A 
ATOM      5  C   UNL     1      16.324  42.922   6.050  1.00  0.00     0.019 A 
ATOM      6  C   UNL     1      15.695  43.561   4.979  1.00  0.00     0.047 A 
ENDROOT
BRANCH   1   7
ATOM      7  O   UNL     1      14.480  45.411   4.040  1.00  0.00    -0.497 OA
ATOM      8  C   UNL     1      13.095  45.737   3.969  1.00  0.00     0.278 C 
ENDBRANCH   1   7
BRANCH   3   9
ATOM      9  O   UNL     1      15.793  45.412   8.743  1.00  0.00    -0.507 OA
ATOM     10  H   UNL     1      16.624  45.404   9.324  1.00  0.00     0.293 HD
ENDBRANCH   3   9
BRANCH   4  11
ATOM     11  C   UNL     1      17.031  42.850   8.450  1.00  0.00     0.263 C 
ATOM     12  O   UNL     1      17.806  43.479   9.219  1.00  0.00    -0.298 OA
ENDBRANCH   4  11
TORSDOF 3
ENDMDL
MODEL 3
REMARK VINA RESULT:    -4.676      1.165      2.016
REMARK INTER + INTRA:          -5.626
REMARK INTER:                  -5.368
REMARK INTRA:                  -0.258
REMARK UNBOUND:                -0.266
REMARK SMILES COc1ccc(C=O)c(O)c1
REMARK SMILES IDX 3 1 11 2 9 3 6 4 5 5 4 6 2 7 1 8 10 9 7 11 8 12
REMARK H PARENT 10 10
REMARK Flexibility Score: inf
ROOT
ATOM      1  C   UNL     1      13.792  45.088   4.337  1.00  0.00     0.122 A 
ATOM      2  C   UNL     1      14.677  44.063   3.955  1.00  0.00     0.093 A 
ATOM      3  C   UNL     1      15.820  43.785   4.722  1.00  0.00     0.129 A 
ATOM      4  C   UNL     1      16.088  44.536   5.882  1.00  0.00     0.056 A 
ATOM      5  C   UNL     1      15.200  45.559   6.258  1.00  0.00     0.019 A 
ATOM      6  C   UNL     1      14.065  45.829   5.490  1.00  0.00     0.047 A 
ENDROOT
BRANCH   1   7
ATOM      7  O   UNL     1      12.639  45.400   3.602  1.00  0.00    -0.497 OA
ATOM      8  C   UNL     1      12.019  46.682   3.582  1.00  0.00     0.278 C 
ENDBRANCH   1   7
BRANCH   3   9
ATOM      9  O   UNL     1      16.687  42.766   4.328  1.00  0.00    -0.507 OA
ATOM     10  H   UNL     1      16.482  42.168   3.535  1.00  0.00     0.293 HD
ENDBRANCH   3   9
BRANCH   4  11
ATOM     11  C   UNL     1      17.289  44.252   6.696  1.00  0.00     0.263 C 
ATOM     12  O   UNL     1      17.432  43.143   7.279  1.00  0.00    -0.298 OA
ENDBRANCH   4  11
TORSDOF 3
ENDMDL
MODEL 4
REMARK VINA RESULT:    -4.669      1.216      4.324
REMARK INTER + INTRA:          -5.618
REMARK INTER:                  -5.353
REMARK INTRA:                  -0.265
REMARK UNBOUND:                -0.266
REMARK SMILES COc1ccc(C=O)c(O)c1
REMARK SMILES IDX 3 1 11 2 9 3 6 4 5 5 4 6 2 7 1 8 10 9 7 11 8 12
REMARK H PARENT 10 10
REMARK Flexibility Score: inf
ROOT
ATOM      1  C   UNL     1      16.924  43.809   6.585  1.00  0.00     0.122 A 
ATOM      2  C   UNL     1      16.024  44.814   6.987  1.00  0.00     0.093 A 
ATOM      3  C   UNL     1      15.085  45.333   6.083  1.00  0.00     0.129 A 
ATOM      4  C   UNL     1      15.038  44.849   4.761  1.00  0.00     0.056 A 
ATOM      5  C   UNL     1      15.940  43.845   4.366  1.00  0.00     0.019 A 
ATOM      6  C   UNL     1      16.871  43.334   5.272  1.00  0.00     0.047 A 
ENDROOT
BRANCH   1   7
ATOM      7  O   UNL     1      17.879  43.261   7.454  1.00  0.00    -0.497 OA
ATOM      8  C   UNL     1      17.607  42.844   8.788  1.00  0.00     0.278 C 
ENDBRANCH   1   7
BRANCH   3   9
ATOM      9  O   UNL     1      14.201  46.329   6.498  1.00  0.00    -0.507 OA
ATOM     10  H   UNL     1      13.767  46.309   7.414  1.00  0.00     0.293 HD
ENDBRANCH   3   9
BRANCH   4  11
ATOM     11  C   UNL     1      14.053  45.390   3.801  1.00  0.00     0.263 C 
ATOM     12  O   UNL     1      12.820  45.385   4.062  1.00  0.00    -0.298 OA
ENDBRANCH   4  11
TORSDOF 3
ENDMDL
MODEL 5
REMARK VINA RESULT:    -4.645      1.544      2.020
REMARK INTER + INTRA:          -5.590
REMARK INTER:                  -5.324
REMARK INTRA:                  -0.265
REMARK UNBOUND:                -0.266
REMARK SMILES COc1ccc(C=O)c(O)c1
REMARK SMILES IDX 3 1 11 2 9 3 6 4 5 5 4 6 2 7 1 8 10 9 7 11 8 12
REMARK H PARENT 10 10
REMARK Flexibility Score: inf
ROOT
ATOM      1  C   UNL     1      12.717  46.183   4.860  1.00  0.00     0.122 A 
ATOM      2  C   UNL     1      13.701  46.415   5.839  1.00  0.00     0.093 A 
ATOM      3  C   UNL     1      14.898  45.681   5.835  1.00  0.00     0.129 A 
ATOM      4  C   UNL     1      15.120  44.703   4.847  1.00  0.00     0.056 A 
ATOM      5  C   UNL     1      14.133  44.476   3.872  1.00  0.00     0.019 A 
ATOM      6  C   UNL     1      12.945  45.211   3.882  1.00  0.00     0.047 A 
ENDROOT
BRANCH   1   7
ATOM      7  O   UNL     1      11.507  46.892   4.826  1.00  0.00    -0.497 OA
ATOM      8  C   UNL     1      10.760  47.265   5.979  1.00  0.00     0.278 C 
ENDBRANCH   1   7
BRANCH   3   9
ATOM      9  O   UNL     1      15.862  45.924   6.813  1.00  0.00    -0.507 OA
ATOM     10  H   UNL     1      16.353  46.809   6.869  1.00  0.00     0.293 HD
ENDBRANCH   3   9
BRANCH   4  11
ATOM     11  C   UNL     1      16.377  43.925   4.834  1.00  0.00     0.263 C 
ATOM     12  O   UNL     1      16.791  43.342   5.872  1.00  0.00    -0.298 OA
ENDBRANCH   4  11
TORSDOF 3
ENDMDL
MODEL 6
REMARK VINA RESULT:    -4.635      2.503      2.708
REMARK INTER + INTRA:          -5.579
REMARK INTER:                  -5.321
REMARK INTRA:                  -0.258
REMARK UNBOUND:                -0.266
REMARK SMILES COc1ccc(C=O)c(O)c1
REMARK SMILES IDX 3 1 11 2 9 3 6 4 5 5 4 6 2 7 1 8 10 9 7 11 8 12
REMARK H PARENT 10 10
REMARK Flexibility Score: inf
ROOT
ATOM      1  C   UNL     1      13.685  43.214   6.525  1.00  0.00     0.122 A 
ATOM      2  C   UNL     1      13.814  43.340   7.921  1.00  0.00     0.093 A 
ATOM      3  C   UNL     1      15.074  43.244   8.532  1.00  0.00     0.129 A 
ATOM      4  C   UNL     1      16.222  43.021   7.747  1.00  0.00     0.056 A 
ATOM      5  C   UNL     1      16.086  42.896   6.353  1.00  0.00     0.019 A 
ATOM      6  C   UNL     1      14.828  42.992   5.753  1.00  0.00     0.047 A 
ENDROOT
BRANCH   1   7
ATOM      7  O   UNL     1      12.446  43.302   5.873  1.00  0.00    -0.497 OA
ATOM      8  C   UNL     1      12.196  42.827   4.554  1.00  0.00     0.278 C 
ENDBRANCH   1   7
BRANCH   3   9
ATOM      9  O   UNL     1      15.184  43.371   9.917  1.00  0.00    -0.507 OA
ATOM     10  H   UNL     1      16.013  43.068  10.416  1.00  0.00     0.293 HD
ENDBRANCH   3   9
BRANCH   4  11
ATOM     11  C   UNL     1      17.553  42.918   8.381  1.00  0.00     0.263 C 
ATOM     12  O   UNL     1      17.893  43.699   9.310  1.00  0.00    -0.298 OA
ENDBRANCH   4  11
TORSDOF 3
ENDMDL
MODEL 7
REMARK VINA RESULT:    -4.625      2.093      4.328
REMARK INTER + INTRA:          -5.567
REMARK INTER:                  -5.313
REMARK INTRA:                  -0.254
REMARK UNBOUND:                -0.266
REMARK SMILES COc1ccc(C=O)c(O)c1
REMARK SMILES IDX 3 1 11 2 9 3 6 4 5 5 4 6 2 7 1 8 10 9 7 11 8 12
REMARK H PARENT 10 10
REMARK Flexibility Score: inf
ROOT
ATOM      1  C   UNL     1      15.810  44.665   6.103  1.00  0.00     0.122 A 
ATOM      2  C   UNL     1      15.057  43.535   6.470  1.00  0.00     0.093 A 
ATOM      3  C   UNL     1      14.154  42.955   5.565  1.00  0.00     0.129 A 
ATOM      4  C   UNL     1      13.996  43.505   4.278  1.00  0.00     0.056 A 
ATOM      5  C   UNL     1      14.751  44.634   3.918  1.00  0.00     0.019 A 
ATOM      6  C   UNL     1      15.648  45.205   4.824  1.00  0.00     0.047 A 
ENDROOT
BRANCH   1   7
ATOM      7  O   UNL     1      16.723  45.277   6.974  1.00  0.00    -0.497 OA
ATOM      8  C   UNL     1      16.864  44.949   8.352  1.00  0.00     0.278 C 
ENDBRANCH   1   7
BRANCH   3   9
ATOM      9  O   UNL     1      13.415  41.835   5.946  1.00  0.00    -0.507 OA
ATOM     10  H   UNL     1      12.984  41.767   6.861  1.00  0.00     0.293 HD
ENDBRANCH   3   9
BRANCH   4  11
ATOM     11  C   UNL     1      13.047  42.902   3.318  1.00  0.00     0.263 C 
ATOM     12  O   UNL     1      11.907  42.513   3.688  1.00  0.00    -0.298 OA
ENDBRANCH   4  11
TORSDOF 3
ENDMDL
MODEL 8
REMARK VINA RESULT:    -4.619      1.424      4.743
REMARK INTER + INTRA:          -5.561
REMARK INTER:                  -5.299
REMARK INTRA:                  -0.261
REMARK UNBOUND:                -0.266
REMARK SMILES COc1ccc(C=O)c(O)c1
REMARK SMILES IDX 3 1 11 2 9 3 6 4 5 5 4 6 2 7 1 8 10 9 7 11 8 12
REMARK H PARENT 10 10
REMARK Flexibility Score: inf
ROOT
ATOM      1  C   UNL     1      16.536  44.180   6.902  1.00  0.00     0.122 A 
ATOM      2  C   UNL     1      16.326  43.428   5.731  1.00  0.00     0.093 A 
ATOM      3  C   UNL     1      15.352  43.818   4.799  1.00  0.00     0.129 A 
ATOM      4  C   UNL     1      14.576  44.969   5.031  1.00  0.00     0.056 A 
ATOM      5  C   UNL     1      14.791  45.716   6.202  1.00  0.00     0.019 A 
ATOM      6  C   UNL     1      15.762  45.322   7.126  1.00  0.00     0.047 A 
ENDROOT
BRANCH   1   7
ATOM      7  O   UNL     1      17.497  43.828   7.861  1.00  0.00    -0.497 OA
ATOM      8  C   UNL     1      17.461  42.634   8.636  1.00  0.00     0.278 C 
ENDBRANCH   1   7
BRANCH   3   9
ATOM      9  O   UNL     1      15.157  43.060   3.644  1.00  0.00    -0.507 OA
ATOM     10  H   UNL     1      15.065  43.492   2.731  1.00  0.00     0.293 HD
ENDBRANCH   3   9
BRANCH   4  11
ATOM     11  C   UNL     1      13.548  45.388   4.055  1.00  0.00     0.263 C 
ATOM     12  O   UNL     1      12.606  44.615   3.730  1.00  0.00    -0.298 OA
ENDBRANCH   4  11
TORSDOF 3
ENDMDL
MODEL 9
REMARK VINA RESULT:    -4.565      1.734      2.234
REMARK INTER + INTRA:          -5.498
REMARK INTER:                  -5.231
REMARK INTRA:                  -0.268
REMARK UNBOUND:                -0.266
REMARK SMILES COc1ccc(C=O)c(O)c1
REMARK SMILES IDX 3 1 11 2 9 3 6 4 5 5 4 6 2 7 1 8 10 9 7 11 8 12
REMARK H PARENT 10 10
REMARK Flexibility Score: inf
ROOT
ATOM      1  C   UNL     1      14.185  44.322   5.391  1.00  0.00     0.122 A 
ATOM      2  C   UNL     1      14.499  43.031   5.854  1.00  0.00     0.093 A 
ATOM      3  C   UNL     1      15.446  42.850   6.874  1.00  0.00     0.129 A 
ATOM      4  C   UNL     1      16.090  43.966   7.443  1.00  0.00     0.056 A 
ATOM      5  C   UNL     1      15.771  45.253   6.976  1.00  0.00     0.019 A 
ATOM      6  C   UNL     1      14.828  45.425   5.960  1.00  0.00     0.047 A 
ENDROOT
BRANCH   1   7
ATOM      7  O   UNL     1      13.246  44.550   4.374  1.00  0.00    -0.497 OA
ATOM      8  C   UNL     1      12.701  45.826   4.053  1.00  0.00     0.278 C 
ENDBRANCH   1   7
BRANCH   3   9
ATOM      9  O   UNL     1      15.745  41.563   7.321  1.00  0.00    -0.507 OA
ATOM     10  H   UNL     1      15.104  41.039   7.906  1.00  0.00     0.293 HD
ENDBRANCH   3   9
BRANCH   4  11
ATOM     11  C   UNL     1      17.088  43.786   8.518  1.00  0.00     0.263 C 
ATOM     12  O   UNL     1      17.989  42.909   8.429  1.00  0.00    -0.298 OA
ENDBRANCH   4  11
TORSDOF 3
ENDMDL
