MODEL 1
REMARK VINA RESULT:    -2.166      0.000      0.000
REMARK INTER + INTRA:          -6.770
REMARK INTER:                  -5.458
REMARK INTRA:                  -1.312
REMARK UNBOUND:                -1.312
REMARK SMILES CCCCCCCCCCCCCCCCCCCCCCCCCCCC(=O)[O-]
REMARK SMILES IDX 15 1 16 2 17 3 18 4 19 5 20 6 21 7 22 8 23 9 24 10 25 11
REMARK SMILES IDX 26 12 27 13 28 14 29 15 30 16 14 17 13 18 12 19 11 20 10 21
REMARK SMILES IDX 9 22 8 23 7 24 6 25 5 26 4 27 3 28 2 29 1 30
REMARK H PARENT
REMARK Flexibility Score: inf
ROOT
ATOM      1  C   UNL     1      14.536 -13.000  12.636  1.00  0.00     0.000 C 
ENDROOT
BRANCH   1   2
ATOM      2  C   UNL     1      16.065 -12.955  12.495  1.00  0.00     0.000 C 
BRANCH   2   3
ATOM      3  C   UNL     1      16.674 -11.682  13.106  1.00  0.00     0.000 C 
BRANCH   3   4
ATOM      4  C   UNL     1      17.351 -10.785  12.055  1.00  0.00     0.000 C 
BRANCH   4   5
ATOM      5  C   UNL     1      16.669  -9.414  11.918  1.00  0.00     0.000 C 
BRANCH   5   6
ATOM      6  C   UNL     1      17.672  -8.248  11.876  1.00  0.00     0.000 C 
BRANCH   6   7
ATOM      7  C   UNL     1      17.875  -7.601  13.255  1.00  0.00     0.000 C 
BRANCH   7   8
ATOM      8  C   UNL     1      18.189  -6.097  13.165  1.00  0.00     0.000 C 
BRANCH   8   9
ATOM      9  C   UNL     1      16.919  -5.251  12.929  1.00  0.00     0.000 C 
BRANCH   9  10
ATOM     10  C   UNL     1      15.607  -6.060  12.997  1.00  0.00     0.000 C 
BRANCH  10  11
ATOM     11  C   UNL     1      15.132  -6.410  14.417  1.00  0.00     0.000 C 
BRANCH  11  12
ATOM     12  C   UNL     1      15.132  -5.199  15.364  1.00  0.00     0.006 C 
BRANCH  12  13
ATOM     13  C   UNL     1      14.802  -5.628  16.797  1.00  0.00     0.053 C 
BRANCH  13  14
ATOM     14  C   UNL     1      16.006  -5.520  17.680  1.00  0.00     0.041 C 
ATOM     15  O   UNL     1      15.898  -5.066  18.850  1.00  0.00    -0.550 OA
ATOM     16  O   UNL     1      17.254  -5.911  17.206  1.00  0.00    -0.550 OA
ENDBRANCH  13  14
ENDBRANCH  12  13
ENDBRANCH  11  12
ENDBRANCH  10  11
ENDBRANCH   9  10
ENDBRANCH   8   9
ENDBRANCH   7   8
ENDBRANCH   6   7
ENDBRANCH   5   6
ENDBRANCH   4   5
ENDBRANCH   3   4
ENDBRANCH   2   3
ENDBRANCH   1   2
BRANCH   1  17
ATOM     17  C   UNL     1      13.882 -11.837  11.875  1.00  0.00     0.000 C 
BRANCH  17  18
ATOM     18  C   UNL     1      13.050 -10.910  12.781  1.00  0.00     0.000 C 
BRANCH  18  19
ATOM     19  C   UNL     1      11.523 -11.013  12.604  1.00  0.00     0.000 C 
BRANCH  19  20
ATOM     20  C   UNL     1      11.084 -12.302  11.885  1.00  0.00     0.000 C 
BRANCH  20  21
ATOM     21  C   UNL     1       9.813 -12.909  12.500  1.00  0.00     0.000 C 
BRANCH  21  22
ATOM     22  C   UNL     1       8.525 -12.298  11.924  1.00  0.00    -0.000 C 
BRANCH  22  23
ATOM     23  C   UNL     1       7.269 -13.155  12.208  1.00  0.00    -0.000 C 
BRANCH  23  24
ATOM     24  C   UNL     1       6.682 -12.967  13.620  1.00  0.00    -0.000 C 
BRANCH  24  25
ATOM     25  C   UNL     1       6.016 -14.218  14.221  1.00  0.00    -0.000 C 
BRANCH  25  26
ATOM     26  C   UNL     1       4.990 -14.895  13.281  1.00  0.00    -0.000 C 
BRANCH  26  27
ATOM     27  C   UNL     1       4.942 -16.427  13.403  1.00  0.00    -0.000 C 
BRANCH  27  28
ATOM     28  C   UNL     1       5.638 -17.138  12.228  1.00  0.00    -0.000 C 
BRANCH  28  29
ATOM     29  C   UNL     1       5.380 -18.653  12.222  1.00  0.00    -0.003 C 
ATOM     30  C   UNL     1       6.660 -19.472  12.059  1.00  0.00     0.004 C 
ENDBRANCH  28  29
ENDBRANCH  27  28
ENDBRANCH  26  27
ENDBRANCH  25  26
ENDBRANCH  24  25
ENDBRANCH  23  24
ENDBRANCH  22  23
ENDBRANCH  21  22
ENDBRANCH  20  21
ENDBRANCH  19  20
ENDBRANCH  18  19
ENDBRANCH  17  18
ENDBRANCH   1  17
TORSDOF 26
ENDMDL
MODEL 2
REMARK VINA RESULT:    -1.641      4.063      7.481
REMARK INTER + INTRA:          -5.446
REMARK INTER:                  -3.077
REMARK INTRA:                  -2.370
REMARK UNBOUND:                -1.312
REMARK SMILES CCCCCCCCCCCCCCCCCCCCCCCCCCCC(=O)[O-]
REMARK SMILES IDX 15 1 16 2 17 3 18 4 19 5 20 6 21 7 22 8 23 9 24 10 25 11
REMARK SMILES IDX 26 12 27 13 28 14 29 15 30 16 14 17 13 18 12 19 11 20 10 21
REMARK SMILES IDX 9 22 8 23 7 24 6 25 5 26 4 27 3 28 2 29 1 30
REMARK H PARENT
REMARK Flexibility Score: inf
ROOT
ATOM      1  C   UNL     1      13.733  -8.354  12.934  1.00  0.00     0.000 C 
ENDROOT
BRANCH   1   2
ATOM      2  C   UNL     1      14.269  -7.376  11.878  1.00  0.00     0.000 C 
BRANCH   2   3
ATOM      3  C   UNL     1      14.042  -5.907  12.271  1.00  0.00     0.000 C 
BRANCH   3   4
ATOM      4  C   UNL     1      15.261  -5.018  11.969  1.00  0.00     0.000 C 
BRANCH   4   5
ATOM      5  C   UNL     1      16.574  -5.815  11.897  1.00  0.00     0.000 C 
BRANCH   5   6
ATOM      6  C   UNL     1      17.820  -4.914  11.875  1.00  0.00     0.000 C 
BRANCH   6   7
ATOM      7  C   UNL     1      18.570  -4.918  13.217  1.00  0.00     0.000 C 
BRANCH   7   8
ATOM      8  C   UNL     1      17.621  -4.974  14.427  1.00  0.00     0.000 C 
BRANCH   8   9
ATOM      9  C   UNL     1      17.287  -6.426  14.837  1.00  0.00     0.000 C 
BRANCH   9  10
ATOM     10  C   UNL     1      15.891  -6.591  15.471  1.00  0.00     0.000 C 
BRANCH  10  11
ATOM     11  C   UNL     1      15.073  -5.294  15.592  1.00  0.00     0.000 C 
BRANCH  11  12
ATOM     12  C   UNL     1      14.372  -5.152  16.952  1.00  0.00     0.006 C 
BRANCH  12  13
ATOM     13  C   UNL     1      15.263  -4.402  17.948  1.00  0.00     0.053 C 
BRANCH  13  14
ATOM     14  C   UNL     1      16.297  -5.313  18.532  1.00  0.00     0.041 C 
ATOM     15  O   UNL     1      17.424  -4.861  18.870  1.00  0.00    -0.550 OA
ATOM     16  O   UNL     1      16.022  -6.666  18.695  1.00  0.00    -0.550 OA
ENDBRANCH  13  14
ENDBRANCH  12  13
ENDBRANCH  11  12
ENDBRANCH  10  11
ENDBRANCH   9  10
ENDBRANCH   8   9
ENDBRANCH   7   8
ENDBRANCH   6   7
ENDBRANCH   5   6
ENDBRANCH   4   5
ENDBRANCH   3   4
ENDBRANCH   2   3
ENDBRANCH   1   2
BRANCH   1  17
ATOM     17  C   UNL     1      12.848  -9.430  12.286  1.00  0.00     0.000 C 
BRANCH  17  18
ATOM     18  C   UNL     1      11.748  -9.958  13.226  1.00  0.00     0.000 C 
BRANCH  18  19
ATOM     19  C   UNL     1      11.526 -11.482  13.188  1.00  0.00     0.000 C 
BRANCH  19  20
ATOM     20  C   UNL     1      12.494 -12.210  12.238  1.00  0.00     0.000 C 
BRANCH  20  21
ATOM     21  C   UNL     1      13.377 -13.230  12.974  1.00  0.00     0.000 C 
BRANCH  21  22
ATOM     22  C   UNL     1      14.711 -13.489  12.254  1.00  0.00    -0.000 C 
BRANCH  22  23
ATOM     23  C   UNL     1      15.918 -13.549  13.218  1.00  0.00    -0.000 C 
BRANCH  23  24
ATOM     24  C   UNL     1      16.865 -12.337  13.121  1.00  0.00    -0.000 C 
BRANCH  24  25
ATOM     25  C   UNL     1      16.670 -11.455  11.875  1.00  0.00    -0.000 C 
BRANCH  25  26
ATOM     26  C   UNL     1      16.477  -9.953  12.194  1.00  0.00    -0.000 C 
BRANCH  26  27
ATOM     27  C   UNL     1      17.781  -9.137  12.185  1.00  0.00    -0.000 C 
BRANCH  27  28
ATOM     28  C   UNL     1      18.163  -8.613  13.582  1.00  0.00    -0.000 C 
BRANCH  28  29
ATOM     29  C   UNL     1      19.001  -9.625  14.379  1.00  0.00    -0.003 C 
ATOM     30  C   UNL     1      18.193 -10.345  15.458  1.00  0.00     0.004 C 
ENDBRANCH  28  29
ENDBRANCH  27  28
ENDBRANCH  26  27
ENDBRANCH  25  26
ENDBRANCH  24  25
ENDBRANCH  23  24
ENDBRANCH  22  23
ENDBRANCH  21  22
ENDBRANCH  20  21
ENDBRANCH  19  20
ENDBRANCH  18  19
ENDBRANCH  17  18
ENDBRANCH   1  17
TORSDOF 26
ENDMDL
MODEL 3
REMARK VINA RESULT:    -1.517      4.501     11.884
REMARK INTER + INTRA:          -5.134
REMARK INTER:                  -4.223
REMARK INTRA:                  -0.911
REMARK UNBOUND:                -1.312
REMARK SMILES CCCCCCCCCCCCCCCCCCCCCCCCCCCC(=O)[O-]
REMARK SMILES IDX 15 1 16 2 17 3 18 4 19 5 20 6 21 7 22 8 23 9 24 10 25 11
REMARK SMILES IDX 26 12 27 13 28 14 29 15 30 16 14 17 13 18 12 19 11 20 10 21
REMARK SMILES IDX 9 22 8 23 7 24 6 25 5 26 4 27 3 28 2 29 1 30
REMARK H PARENT
REMARK Flexibility Score: inf
ROOT
ATOM      1  C   UNL     1      15.486 -10.402  12.495  1.00  0.00     0.000 C 
ENDROOT
BRANCH   1   2
ATOM      2  C   UNL     1      15.127 -11.799  11.969  1.00  0.00     0.000 C 
BRANCH   2   3
ATOM      3  C   UNL     1      13.939 -12.423  12.721  1.00  0.00     0.000 C 
BRANCH   3   4
ATOM      4  C   UNL     1      12.775 -11.435  12.912  1.00  0.00     0.000 C 
BRANCH   4   5
ATOM      5  C   UNL     1      11.626 -11.673  11.919  1.00  0.00     0.000 C 
BRANCH   5   6
ATOM      6  C   UNL     1      10.529 -12.594  12.482  1.00  0.00     0.000 C 
BRANCH   6   7
ATOM      7  C   UNL     1       9.127 -12.205  11.988  1.00  0.00     0.000 C 
BRANCH   7   8
ATOM      8  C   UNL     1       8.066 -12.273  13.100  1.00  0.00     0.000 C 
BRANCH   8   9
ATOM      9  C   UNL     1       7.344 -13.638  13.132  1.00  0.00     0.000 C 
BRANCH   9  10
ATOM     10  C   UNL     1       6.499 -13.929  11.875  1.00  0.00     0.000 C 
BRANCH  10  11
ATOM     11  C   UNL     1       5.035 -14.313  12.151  1.00  0.00     0.000 C 
BRANCH  11  12
ATOM     12  C   UNL     1       4.771 -14.643  13.628  1.00  0.00     0.006 C 
BRANCH  12  13
ATOM     13  C   UNL     1       3.284 -14.927  13.865  1.00  0.00     0.053 C 
BRANCH  13  14
ATOM     14  C   UNL     1       2.490 -13.658  13.868  1.00  0.00     0.041 C 
ATOM     15  O   UNL     1       1.819 -13.326  12.854  1.00  0.00    -0.550 OA
ATOM     16  O   UNL     1       2.498 -12.834  14.987  1.00  0.00    -0.550 OA
ENDBRANCH  13  14
ENDBRANCH  12  13
ENDBRANCH  11  12
ENDBRANCH  10  11
ENDBRANCH   9  10
ENDBRANCH   8   9
ENDBRANCH   7   8
ENDBRANCH   6   7
ENDBRANCH   5   6
ENDBRANCH   4   5
ENDBRANCH   3   4
ENDBRANCH   2   3
ENDBRANCH   1   2
BRANCH   1  17
ATOM     17  C   UNL     1      16.992 -10.293  12.778  1.00  0.00     0.000 C 
BRANCH  17  18
ATOM     18  C   UNL     1      17.638  -9.042  12.154  1.00  0.00     0.000 C 
BRANCH  18  19
ATOM     19  C   UNL     1      18.562  -8.241  13.091  1.00  0.00     0.000 C 
BRANCH  19  20
ATOM     20  C   UNL     1      18.510  -6.723  12.838  1.00  0.00     0.000 C 
BRANCH  20  21
ATOM     21  C   UNL     1      17.249  -6.303  12.066  1.00  0.00     0.000 C 
BRANCH  21  22
ATOM     22  C   UNL     1      16.522  -5.116  12.719  1.00  0.00    -0.000 C 
BRANCH  22  23
ATOM     23  C   UNL     1      15.138  -5.497  13.295  1.00  0.00    -0.000 C 
BRANCH  23  24
ATOM     24  C   UNL     1      13.990  -4.573  12.844  1.00  0.00    -0.000 C 
BRANCH  24  25
ATOM     25  C   UNL     1      13.175  -3.940  13.986  1.00  0.00    -0.000 C 
BRANCH  25  26
ATOM     26  C   UNL     1      13.344  -4.656  15.348  1.00  0.00    -0.000 C 
BRANCH  26  27
ATOM     27  C   UNL     1      14.773  -4.601  15.914  1.00  0.00    -0.000 C 
BRANCH  27  28
ATOM     28  C   UNL     1      14.815  -4.793  17.440  1.00  0.00    -0.000 C 
BRANCH  28  29
ATOM     29  C   UNL     1      16.132  -5.425  17.917  1.00  0.00    -0.003 C 
ATOM     30  C   UNL     1      16.887  -6.138  16.797  1.00  0.00     0.004 C 
ENDBRANCH  28  29
ENDBRANCH  27  28
ENDBRANCH  26  27
ENDBRANCH  25  26
ENDBRANCH  24  25
ENDBRANCH  23  24
ENDBRANCH  22  23
ENDBRANCH  21  22
ENDBRANCH  20  21
ENDBRANCH  19  20
ENDBRANCH  18  19
ENDBRANCH  17  18
ENDBRANCH   1  17
TORSDOF 26
ENDMDL
MODEL 4
REMARK VINA RESULT:    -1.091      1.308      2.166
REMARK INTER + INTRA:          -4.060
REMARK INTER:                  -3.024
REMARK INTRA:                  -1.036
REMARK UNBOUND:                -1.312
REMARK SMILES CCCCCCCCCCCCCCCCCCCCCCCCCCCC(=O)[O-]
REMARK SMILES IDX 15 1 16 2 17 3 18 4 19 5 20 6 21 7 22 8 23 9 24 10 25 11
REMARK SMILES IDX 26 12 27 13 28 14 29 15 30 16 14 17 13 18 12 19 11 20 10 21
REMARK SMILES IDX 9 22 8 23 7 24 6 25 5 26 4 27 3 28 2 29 1 30
REMARK H PARENT
REMARK Flexibility Score: inf
ROOT
ATOM      1  C   UNL     1      14.519 -13.178  12.628  1.00  0.00     0.000 C 
ENDROOT
BRANCH   1   2
ATOM      2  C   UNL     1      16.046 -13.225  12.471  1.00  0.00     0.000 C 
BRANCH   2   3
ATOM      3  C   UNL     1      16.745 -12.050  13.177  1.00  0.00     0.000 C 
BRANCH   3   4
ATOM      4  C   UNL     1      17.380 -11.057  12.188  1.00  0.00     0.000 C 
BRANCH   4   5
ATOM      5  C   UNL     1      16.590  -9.742  12.079  1.00  0.00     0.000 C 
BRANCH   5   6
ATOM      6  C   UNL     1      17.481  -8.496  12.221  1.00  0.00     0.000 C 
BRANCH   6   7
ATOM      7  C   UNL     1      17.358  -7.843  13.606  1.00  0.00     0.000 C 
BRANCH   7   8
ATOM      8  C   UNL     1      18.013  -6.452  13.668  1.00  0.00     0.000 C 
BRANCH   8   9
ATOM      9  C   UNL     1      17.003  -5.320  13.380  1.00  0.00     0.000 C 
BRANCH   9  10
ATOM     10  C   UNL     1      15.530  -5.778  13.387  1.00  0.00     0.000 C 
BRANCH  10  11
ATOM     11  C   UNL     1      14.912  -5.960  14.784  1.00  0.00     0.000 C 
BRANCH  11  12
ATOM     12  C   UNL     1      15.939  -5.811  15.917  1.00  0.00     0.006 C 
BRANCH  12  13
ATOM     13  C   UNL     1      15.278  -5.253  17.181  1.00  0.00     0.053 C 
BRANCH  13  14
ATOM     14  C   UNL     1      16.276  -5.110  18.289  1.00  0.00     0.041 C 
ATOM     15  O   UNL     1      17.383  -5.708  18.227  1.00  0.00    -0.550 OA
ATOM     16  O   UNL     1      15.978  -4.325  19.396  1.00  0.00    -0.550 OA
ENDBRANCH  13  14
ENDBRANCH  12  13
ENDBRANCH  11  12
ENDBRANCH  10  11
ENDBRANCH   9  10
ENDBRANCH   8   9
ENDBRANCH   7   8
ENDBRANCH   6   7
ENDBRANCH   5   6
ENDBRANCH   4   5
ENDBRANCH   3   4
ENDBRANCH   2   3
ENDBRANCH   1   2
BRANCH   1  17
ATOM     17  C   UNL     1      13.933 -11.950  11.915  1.00  0.00     0.000 C 
BRANCH  17  18
ATOM     18  C   UNL     1      13.078 -11.063  12.839  1.00  0.00     0.000 C 
BRANCH  18  19
ATOM     19  C   UNL     1      11.564 -11.086  12.556  1.00  0.00     0.000 C 
BRANCH  19  20
ATOM     20  C   UNL     1      11.096 -12.385  11.876  1.00  0.00     0.000 C 
BRANCH  20  21
ATOM     21  C   UNL     1       9.721 -12.848  12.383  1.00  0.00     0.000 C 
BRANCH  21  22
ATOM     22  C   UNL     1       8.580 -11.921  11.934  1.00  0.00    -0.000 C 
BRANCH  22  23
ATOM     23  C   UNL     1       7.177 -12.518  12.192  1.00  0.00    -0.000 C 
BRANCH  23  24
ATOM     24  C   UNL     1       6.896 -12.854  13.670  1.00  0.00    -0.000 C 
BRANCH  24  25
ATOM     25  C   UNL     1       6.739 -14.354  13.979  1.00  0.00    -0.000 C 
BRANCH  25  26
ATOM     26  C   UNL     1       5.647 -15.057  13.137  1.00  0.00    -0.000 C 
BRANCH  26  27
ATOM     27  C   UNL     1       4.217 -14.578  13.438  1.00  0.00    -0.000 C 
BRANCH  27  28
ATOM     28  C   UNL     1       3.524 -13.966  12.208  1.00  0.00    -0.000 C 
BRANCH  28  29
ATOM     29  C   UNL     1       1.998 -13.893  12.368  1.00  0.00    -0.003 C 
ATOM     30  C   UNL     1       1.567 -13.037  13.557  1.00  0.00     0.004 C 
ENDBRANCH  28  29
ENDBRANCH  27  28
ENDBRANCH  26  27
ENDBRANCH  25  26
ENDBRANCH  24  25
ENDBRANCH  23  24
ENDBRANCH  22  23
ENDBRANCH  21  22
ENDBRANCH  20  21
ENDBRANCH  19  20
ENDBRANCH  18  19
ENDBRANCH  17  18
ENDBRANCH   1  17
TORSDOF 26
ENDMDL
MODEL 5
REMARK VINA RESULT:    -0.518      3.848      8.627
REMARK INTER + INTRA:          -2.616
REMARK INTER:                   0.305
REMARK INTRA:                  -2.921
REMARK UNBOUND:                -1.312
REMARK SMILES CCCCCCCCCCCCCCCCCCCCCCCCCCCC(=O)[O-]
REMARK SMILES IDX 15 1 16 2 17 3 18 4 19 5 20 6 21 7 22 8 23 9 24 10 25 11
REMARK SMILES IDX 26 12 27 13 28 14 29 15 30 16 14 17 13 18 12 19 11 20 10 21
REMARK SMILES IDX 9 22 8 23 7 24 6 25 5 26 4 27 3 28 2 29 1 30
REMARK H PARENT
REMARK Flexibility Score: inf
ROOT
ATOM      1  C   UNL     1      11.210 -12.736  13.060  1.00  0.00     0.000 C 
ENDROOT
BRANCH   1   2
ATOM      2  C   UNL     1      12.446 -13.157  13.869  1.00  0.00     0.000 C 
BRANCH   2   3
ATOM      3  C   UNL     1      13.424 -14.012  13.046  1.00  0.00     0.000 C 
BRANCH   3   4
ATOM      4  C   UNL     1      14.522 -13.172  12.371  1.00  0.00     0.000 C 
BRANCH   4   5
ATOM      5  C   UNL     1      15.850 -13.198  13.147  1.00  0.00     0.000 C 
BRANCH   5   6
ATOM      6  C   UNL     1      16.901 -12.237  12.565  1.00  0.00     0.000 C 
BRANCH   6   7
ATOM      7  C   UNL     1      16.297 -10.884  12.159  1.00  0.00     0.000 C 
BRANCH   7   8
ATOM      8  C   UNL     1      17.353  -9.769  12.059  1.00  0.00     0.000 C 
BRANCH   8   9
ATOM      9  C   UNL     1      18.043  -9.499  13.414  1.00  0.00     0.000 C 
BRANCH   9  10
ATOM     10  C   UNL     1      18.467  -8.030  13.619  1.00  0.00     0.000 C 
BRANCH  10  11
ATOM     11  C   UNL     1      19.645  -7.565  12.746  1.00  0.00     0.000 C 
BRANCH  11  12
ATOM     12  C   UNL     1      19.328  -6.297  11.938  1.00  0.00     0.006 C 
BRANCH  12  13
ATOM     13  C   UNL     1      17.839  -5.950  12.032  1.00  0.00     0.053 C 
BRANCH  13  14
ATOM     14  C   UNL     1      17.646  -4.552  12.533  1.00  0.00     0.041 C 
ATOM     15  O   UNL     1      16.572  -3.936  12.298  1.00  0.00    -0.550 OA
ATOM     16  O   UNL     1      18.656  -3.924  13.252  1.00  0.00    -0.550 OA
ENDBRANCH  13  14
ENDBRANCH  12  13
ENDBRANCH  11  12
ENDBRANCH  10  11
ENDBRANCH   9  10
ENDBRANCH   8   9
ENDBRANCH   7   8
ENDBRANCH   6   7
ENDBRANCH   5   6
ENDBRANCH   4   5
ENDBRANCH   3   4
ENDBRANCH   2   3
ENDBRANCH   1   2
BRANCH   1  17
ATOM     17  C   UNL     1      11.599 -11.778  11.924  1.00  0.00     0.000 C 
BRANCH  17  18
ATOM     18  C   UNL     1      11.530 -10.295  12.329  1.00  0.00     0.000 C 
BRANCH  18  19
ATOM     19  C   UNL     1      12.808  -9.729  12.977  1.00  0.00     0.000 C 
BRANCH  19  20
ATOM     20  C   UNL     1      12.685  -8.243  13.360  1.00  0.00     0.000 C 
BRANCH  20  21
ATOM     21  C   UNL     1      13.623  -7.348  12.535  1.00  0.00     0.000 C 
BRANCH  21  22
ATOM     22  C   UNL     1      14.985  -7.131  13.214  1.00  0.00    -0.000 C 
BRANCH  22  23
ATOM     23  C   UNL     1      14.918  -6.154  14.410  1.00  0.00    -0.000 C 
BRANCH  23  24
ATOM     24  C   UNL     1      13.693  -5.218  14.392  1.00  0.00    -0.000 C 
BRANCH  24  25
ATOM     25  C   UNL     1      13.553  -4.304  15.623  1.00  0.00    -0.000 C 
BRANCH  25  26
ATOM     26  C   UNL     1      13.865  -5.008  16.965  1.00  0.00    -0.000 C 
BRANCH  26  27
ATOM     27  C   UNL     1      14.573  -4.111  17.995  1.00  0.00    -0.000 C 
BRANCH  27  28
ATOM     28  C   UNL     1      15.976  -4.625  18.364  1.00  0.00    -0.000 C 
BRANCH  28  29
ATOM     29  C   UNL     1      16.077  -6.156  18.300  1.00  0.00    -0.003 C 
ATOM     30  C   UNL     1      17.253  -6.638  17.452  1.00  0.00     0.004 C 
ENDBRANCH  28  29
ENDBRANCH  27  28
ENDBRANCH  26  27
ENDBRANCH  25  26
ENDBRANCH  24  25
ENDBRANCH  23  24
ENDBRANCH  22  23
ENDBRANCH  21  22
ENDBRANCH  20  21
ENDBRANCH  19  20
ENDBRANCH  18  19
ENDBRANCH  17  18
ENDBRANCH   1  17
TORSDOF 26
ENDMDL
MODEL 6
REMARK VINA RESULT:    -0.161      1.591      2.226
REMARK INTER + INTRA:          -1.717
REMARK INTER:                  -0.517
REMARK INTRA:                  -1.200
REMARK UNBOUND:                -1.312
REMARK SMILES CCCCCCCCCCCCCCCCCCCCCCCCCCCC(=O)[O-]
REMARK SMILES IDX 15 1 16 2 17 3 18 4 19 5 20 6 21 7 22 8 23 9 24 10 25 11
REMARK SMILES IDX 26 12 27 13 28 14 29 15 30 16 14 17 13 18 12 19 11 20 10 21
REMARK SMILES IDX 9 22 8 23 7 24 6 25 5 26 4 27 3 28 2 29 1 30
REMARK H PARENT
REMARK Flexibility Score: inf
ROOT
ATOM      1  C   UNL     1      13.377 -11.330  13.246  1.00  0.00     0.000 C 
ENDROOT
BRANCH   1   2
ATOM      2  C   UNL     1      14.592 -12.268  13.188  1.00  0.00     0.000 C 
BRANCH   2   3
ATOM      3  C   UNL     1      15.614 -11.838  12.123  1.00  0.00     0.000 C 
BRANCH   3   4
ATOM      4  C   UNL     1      15.609 -10.320  11.875  1.00  0.00     0.000 C 
BRANCH   4   5
ATOM      5  C   UNL     1      16.992  -9.680  12.082  1.00  0.00     0.000 C 
BRANCH   5   6
ATOM      6  C   UNL     1      17.420  -9.645  13.560  1.00  0.00     0.000 C 
BRANCH   6   7
ATOM      7  C   UNL     1      18.291  -8.423  13.889  1.00  0.00     0.000 C 
BRANCH   7   8
ATOM      8  C   UNL     1      18.273  -7.363  12.773  1.00  0.00     0.000 C 
BRANCH   8   9
ATOM      9  C   UNL     1      18.800  -5.996  13.262  1.00  0.00     0.000 C 
BRANCH   9  10
ATOM     10  C   UNL     1      17.707  -4.917  13.404  1.00  0.00     0.000 C 
BRANCH  10  11
ATOM     11  C   UNL     1      16.270  -5.412  13.159  1.00  0.00     0.000 C 
BRANCH  11  12
ATOM     12  C   UNL     1      15.715  -6.240  14.329  1.00  0.00     0.006 C 
BRANCH  12  13
ATOM     13  C   UNL     1      15.086  -5.330  15.389  1.00  0.00     0.053 C 
BRANCH  13  14
ATOM     14  C   UNL     1      13.725  -4.873  14.963  1.00  0.00     0.041 C 
ATOM     15  O   UNL     1      13.086  -4.041  15.661  1.00  0.00    -0.550 OA
ATOM     16  O   UNL     1      13.156  -5.375  13.798  1.00  0.00    -0.550 OA
ENDBRANCH  13  14
ENDBRANCH  12  13
ENDBRANCH  11  12
ENDBRANCH  10  11
ENDBRANCH   9  10
ENDBRANCH   8   9
ENDBRANCH   7   8
ENDBRANCH   6   7
ENDBRANCH   5   6
ENDBRANCH   4   5
ENDBRANCH   3   4
ENDBRANCH   2   3
ENDBRANCH   1   2
BRANCH   1  17
ATOM     17  C   UNL     1      12.509 -11.478  11.988  1.00  0.00     0.000 C 
BRANCH  17  18
ATOM     18  C   UNL     1      11.600 -12.721  12.020  1.00  0.00     0.000 C 
BRANCH  18  19
ATOM     19  C   UNL     1      10.502 -12.705  13.101  1.00  0.00     0.000 C 
BRANCH  19  20
ATOM     20  C   UNL     1       9.425 -11.633  12.853  1.00  0.00     0.000 C 
BRANCH  20  21
ATOM     21  C   UNL     1       8.340 -12.112  11.875  1.00  0.00     0.000 C 
BRANCH  21  22
ATOM     22  C   UNL     1       7.614 -13.375  12.366  1.00  0.00    -0.000 C 
BRANCH  22  23
ATOM     23  C   UNL     1       6.091 -13.340  12.101  1.00  0.00    -0.000 C 
BRANCH  23  24
ATOM     24  C   UNL     1       5.439 -14.731  11.979  1.00  0.00    -0.000 C 
BRANCH  24  25
ATOM     25  C   UNL     1       4.868 -15.301  13.290  1.00  0.00    -0.000 C 
BRANCH  25  26
ATOM     26  C   UNL     1       4.416 -16.778  13.188  1.00  0.00    -0.000 C 
BRANCH  26  27
ATOM     27  C   UNL     1       5.068 -17.555  12.032  1.00  0.00    -0.000 C 
BRANCH  27  28
ATOM     28  C   UNL     1       6.093 -18.595  12.520  1.00  0.00    -0.000 C 
BRANCH  28  29
ATOM     29  C   UNL     1       5.881 -19.975  11.879  1.00  0.00    -0.003 C 
ATOM     30  C   UNL     1       6.747 -21.062  12.513  1.00  0.00     0.004 C 
ENDBRANCH  28  29
ENDBRANCH  27  28
ENDBRANCH  26  27
ENDBRANCH  25  26
ENDBRANCH  24  25
ENDBRANCH  23  24
ENDBRANCH  22  23
ENDBRANCH  21  22
ENDBRANCH  20  21
ENDBRANCH  19  20
ENDBRANCH  18  19
ENDBRANCH  17  18
ENDBRANCH   1  17
TORSDOF 26
ENDMDL
