MODEL 1
REMARK VINA RESULT:    -3.621      0.000      0.000
REMARK INTER + INTRA:          -3.727
REMARK INTER:                  -3.727
REMARK INTRA:                   0.000
REMARK UNBOUND:                 0.000
REMARK SMILES CC1(C)[C@@H]2CC[C@@](C)(C2)[C@H]1O
REMARK SMILES IDX 1 1 2 2 4 3 5 4 6 5 7 6 9 7 10 8 8 9 3 10 11 11
REMARK H PARENT 11 12
REMARK Flexibility Score: inf
ROOT
ATOM      1  C   UNL     1     136.107 142.227 140.447  1.00  0.00     0.014 C 
ATOM      2  C   UNL     1     134.914 141.702 141.283  1.00  0.00    -0.006 C 
ATOM      3  C   UNL     1     134.523 140.220 140.955  1.00  0.00    -0.002 C 
ATOM      4  C   UNL     1     134.402 139.994 139.435  1.00  0.00     0.005 C 
ATOM      5  C   UNL     1     133.159 140.817 139.066  1.00  0.00     0.010 C 
ATOM      6  C   UNL     1     132.663 141.320 140.441  1.00  0.00    -0.006 C 
ATOM      7  C   UNL     1     133.057 140.174 141.347  1.00  0.00     0.013 C 
ATOM      8  C   UNL     1     133.592 142.466 140.924  1.00  0.00     0.126 C 
ATOM      9  C   UNL     1     131.165 141.651 140.460  1.00  0.00     0.014 C 
ATOM     10  C   UNL     1     135.312 141.818 142.779  1.00  0.00     0.014 C 
ENDROOT
BRANCH   8  11
ATOM     11  O   UNL     1     133.034 143.117 142.040  1.00  0.00    -0.392 OA
ATOM     12  H   UNL     1     132.966 142.437 142.760  1.00  0.00     0.211 HD
ENDBRANCH   8  11
TORSDOF 1
ENDMDL
MODEL 2
REMARK VINA RESULT:    -3.601     12.453     14.508
REMARK INTER + INTRA:          -3.706
REMARK INTER:                  -3.706
REMARK INTRA:                   0.000
REMARK UNBOUND:                 0.000
REMARK SMILES CC1(C)[C@@H]2CC[C@@](C)(C2)[C@H]1O
REMARK SMILES IDX 1 1 2 2 4 3 5 4 6 5 7 6 9 7 10 8 8 9 3 10 11 11
REMARK H PARENT 11 12
REMARK Flexibility Score: inf
ROOT
ATOM      1  C   UNL     1     145.595 139.427 140.523  1.00  0.00     0.014 C 
ATOM      2  C   UNL     1     146.798 139.964 141.335  1.00  0.00    -0.006 C 
ATOM      3  C   UNL     1     147.183 141.442 140.982  1.00  0.00    -0.002 C 
ATOM      4  C   UNL     1     147.283 141.648 139.457  1.00  0.00     0.005 C 
ATOM      5  C   UNL     1     148.522 140.821 139.083  1.00  0.00     0.010 C 
ATOM      6  C   UNL     1     149.037 140.337 140.459  1.00  0.00    -0.006 C 
ATOM      7  C   UNL     1     148.654 141.494 141.354  1.00  0.00     0.013 C 
ATOM      8  C   UNL     1     148.116 139.197 140.970  1.00  0.00     0.126 C 
ATOM      9  C   UNL     1     150.536 140.008 140.462  1.00  0.00     0.014 C 
ATOM     10  C   UNL     1     146.420 139.869 142.838  1.00  0.00     0.014 C 
ENDROOT
BRANCH   8  11
ATOM     11  O   UNL     1     148.689 138.562 142.087  1.00  0.00    -0.392 OA
ATOM     12  H   UNL     1     147.969 138.024 142.508  1.00  0.00     0.211 HD
ENDBRANCH   8  11
TORSDOF 1
ENDMDL
MODEL 3
REMARK VINA RESULT:    -3.594      9.028     10.197
REMARK INTER + INTRA:          -3.699
REMARK INTER:                  -3.699
REMARK INTRA:                   0.000
REMARK UNBOUND:                 0.000
REMARK SMILES CC1(C)[C@@H]2CC[C@@](C)(C2)[C@H]1O
REMARK SMILES IDX 1 1 2 2 4 3 5 4 6 5 7 6 9 7 10 8 8 9 3 10 11 11
REMARK H PARENT 11 12
REMARK Flexibility Score: inf
ROOT
ATOM      1  C   UNL     1     142.154 145.534 140.484  1.00  0.00     0.014 C 
ATOM      2  C   UNL     1     141.659 146.754 141.297  1.00  0.00    -0.006 C 
ATOM      3  C   UNL     1     140.174 147.151 140.990  1.00  0.00    -0.002 C 
ATOM      4  C   UNL     1     139.917 147.233 139.472  1.00  0.00     0.005 C 
ATOM      5  C   UNL     1     140.744 148.457 139.051  1.00  0.00     0.010 C 
ATOM      6  C   UNL     1     141.281 148.985 140.402  1.00  0.00    -0.006 C 
ATOM      7  C   UNL     1     140.152 148.628 141.342  1.00  0.00     0.013 C 
ATOM      8  C   UNL     1     142.428 148.057 140.886  1.00  0.00     0.126 C 
ATOM      9  C   UNL     1     141.628 150.480 140.372  1.00  0.00     0.014 C 
ATOM     10  C   UNL     1     141.803 146.396 142.801  1.00  0.00     0.014 C 
ENDROOT
BRANCH   8  11
ATOM     11  O   UNL     1     143.108 148.639 141.972  1.00  0.00    -0.392 OA
ATOM     12  H   UNL     1     143.132 149.616 141.801  1.00  0.00     0.211 HD
ENDBRANCH   8  11
TORSDOF 1
ENDMDL
MODEL 4
REMARK VINA RESULT:    -3.567      9.070     10.229
REMARK INTER + INTRA:          -3.671
REMARK INTER:                  -3.671
REMARK INTRA:                   0.000
REMARK UNBOUND:                 0.000
REMARK SMILES CC1(C)[C@@H]2CC[C@@](C)(C2)[C@H]1O
REMARK SMILES IDX 1 1 2 2 4 3 5 4 6 5 7 6 9 7 10 8 8 9 3 10 11 11
REMARK H PARENT 11 12
REMARK Flexibility Score: inf
ROOT
ATOM      1  C   UNL     1     139.395 136.081 140.427  1.00  0.00     0.014 C 
ATOM      2  C   UNL     1     139.901 134.890 141.277  1.00  0.00    -0.006 C 
ATOM      3  C   UNL     1     141.398 134.517 141.003  1.00  0.00    -0.002 C 
ATOM      4  C   UNL     1     141.682 134.404 139.492  1.00  0.00     0.005 C 
ATOM      5  C   UNL     1     140.886 133.154 139.088  1.00  0.00     0.010 C 
ATOM      6  C   UNL     1     140.338 132.647 140.442  1.00  0.00    -0.006 C 
ATOM      7  C   UNL     1     141.445 133.049 141.391  1.00  0.00     0.013 C 
ATOM      8  C   UNL     1     139.165 133.563 140.886  1.00  0.00     0.126 C 
ATOM      9  C   UNL     1     140.022 131.146 140.443  1.00  0.00     0.014 C 
ATOM     10  C   UNL     1     139.726 135.281 142.770  1.00  0.00     0.014 C 
ENDROOT
BRANCH   8  11
ATOM     11  O   UNL     1     138.479 132.994 141.975  1.00  0.00    -0.392 OA
ATOM     12  H   UNL     1     138.413 133.700 142.669  1.00  0.00     0.211 HD
ENDBRANCH   8  11
TORSDOF 1
ENDMDL
MODEL 5
REMARK VINA RESULT:    -3.362     12.790     14.223
REMARK INTER + INTRA:          -3.461
REMARK INTER:                  -3.461
REMARK INTRA:                   0.000
REMARK UNBOUND:                 0.000
REMARK SMILES CC1(C)[C@@H]2CC[C@@](C)(C2)[C@H]1O
REMARK SMILES IDX 1 1 2 2 4 3 5 4 6 5 7 6 9 7 10 8 8 9 3 10 11 11
REMARK H PARENT 11 12
REMARK Flexibility Score: inf
ROOT
ATOM      1  C   UNL     1     149.693 139.278 139.428  1.00  0.00     0.014 C 
ATOM      2  C   UNL     1     148.177 139.179 139.730  1.00  0.00    -0.006 C 
ATOM      3  C   UNL     1     147.428 140.552 139.635  1.00  0.00    -0.002 C 
ATOM      4  C   UNL     1     148.176 141.655 140.411  1.00  0.00     0.005 C 
ATOM      5  C   UNL     1     148.006 141.216 141.873  1.00  0.00     0.010 C 
ATOM      6  C   UNL     1     147.088 139.978 141.753  1.00  0.00    -0.006 C 
ATOM      7  C   UNL     1     146.239 140.340 140.555  1.00  0.00     0.013 C 
ATOM      8  C   UNL     1     147.924 138.780 141.225  1.00  0.00     0.126 C 
ATOM      9  C   UNL     1     146.286 139.693 143.030  1.00  0.00     0.014 C 
ATOM     10  C   UNL     1     147.567 138.180 138.709  1.00  0.00     0.014 C 
ENDROOT
BRANCH   8  11
ATOM     11  O   UNL     1     147.196 137.581 141.340  1.00  0.00    -0.392 OA
ATOM     12  H   UNL     1     146.860 137.542 142.274  1.00  0.00     0.211 HD
ENDBRANCH   8  11
TORSDOF 1
ENDMDL
MODEL 6
REMARK VINA RESULT:    -3.357      9.235     10.484
REMARK INTER + INTRA:          -3.455
REMARK INTER:                  -3.455
REMARK INTRA:                   0.000
REMARK UNBOUND:                 0.000
REMARK SMILES CC1(C)[C@@H]2CC[C@@](C)(C2)[C@H]1O
REMARK SMILES IDX 1 1 2 2 4 3 5 4 6 5 7 6 9 7 10 8 8 9 3 10 11 11
REMARK H PARENT 11 12
REMARK Flexibility Score: inf
ROOT
ATOM      1  C   UNL     1     142.063 149.570 139.491  1.00  0.00     0.014 C 
ATOM      2  C   UNL     1     142.242 148.057 139.766  1.00  0.00    -0.006 C 
ATOM      3  C   UNL     1     140.892 147.261 139.798  1.00  0.00    -0.002 C 
ATOM      4  C   UNL     1     139.846 147.965 140.686  1.00  0.00     0.005 C 
ATOM      5  C   UNL     1     140.431 147.800 142.097  1.00  0.00     0.010 C 
ATOM      6  C   UNL     1     141.683 146.926 141.847  1.00  0.00    -0.006 C 
ATOM      7  C   UNL     1     141.234 146.074 140.681  1.00  0.00     0.013 C 
ATOM      8  C   UNL     1     142.793 147.806 141.213  1.00  0.00     0.126 C 
ATOM      9  C   UNL     1     142.118 146.125 143.081  1.00  0.00     0.014 C 
ATOM     10  C   UNL     1     143.156 147.489 138.647  1.00  0.00     0.014 C 
ENDROOT
BRANCH   8  11
ATOM     11  O   UNL     1     144.022 147.120 141.203  1.00  0.00    -0.392 OA
ATOM     12  H   UNL     1     144.418 147.235 142.106  1.00  0.00     0.211 HD
ENDBRANCH   8  11
TORSDOF 1
ENDMDL
MODEL 7
REMARK VINA RESULT:    -3.355      1.170      3.337
REMARK INTER + INTRA:          -3.453
REMARK INTER:                  -3.453
REMARK INTRA:                   0.000
REMARK UNBOUND:                 0.000
REMARK SMILES CC1(C)[C@@H]2CC[C@@](C)(C2)[C@H]1O
REMARK SMILES IDX 1 1 2 2 4 3 5 4 6 5 7 6 9 7 10 8 8 9 3 10 11 11
REMARK H PARENT 11 12
REMARK Flexibility Score: inf
ROOT
ATOM      1  C   UNL     1     133.314 140.932 138.826  1.00  0.00     0.014 C 
ATOM      2  C   UNL     1     133.072 141.553 140.223  1.00  0.00    -0.006 C 
ATOM      3  C   UNL     1     133.592 143.025 140.354  1.00  0.00    -0.002 C 
ATOM      4  C   UNL     1     135.033 143.161 139.822  1.00  0.00     0.005 C 
ATOM      5  C   UNL     1     135.851 142.364 140.850  1.00  0.00     0.010 C 
ATOM      6  C   UNL     1     134.787 141.967 141.899  1.00  0.00    -0.006 C 
ATOM      7  C   UNL     1     133.847 143.150 141.845  1.00  0.00     0.013 C 
ATOM      8  C   UNL     1     133.915 140.818 141.322  1.00  0.00     0.126 C 
ATOM      9  C   UNL     1     135.379 141.694 143.288  1.00  0.00     0.014 C 
ATOM     10  C   UNL     1     131.542 141.515 140.486  1.00  0.00     0.014 C 
ENDROOT
BRANCH   8  11
ATOM     11  O   UNL     1     133.106 140.259 142.329  1.00  0.00    -0.392 OA
ATOM     12  H   UNL     1     133.469 139.354 142.514  1.00  0.00     0.211 HD
ENDBRANCH   8  11
TORSDOF 1
ENDMDL
MODEL 8
REMARK VINA RESULT:    -3.324      9.491     10.447
REMARK INTER + INTRA:          -3.421
REMARK INTER:                  -3.421
REMARK INTRA:                   0.000
REMARK UNBOUND:                 0.000
REMARK SMILES CC1(C)[C@@H]2CC[C@@](C)(C2)[C@H]1O
REMARK SMILES IDX 1 1 2 2 4 3 5 4 6 5 7 6 9 7 10 8 8 9 3 10 11 11
REMARK H PARENT 11 12
REMARK Flexibility Score: inf
ROOT
ATOM      1  C   UNL     1     140.817 148.290 138.845  1.00  0.00     0.014 C 
ATOM      2  C   UNL     1     141.464 148.543 140.229  1.00  0.00    -0.006 C 
ATOM      3  C   UNL     1     142.937 148.019 140.336  1.00  0.00    -0.002 C 
ATOM      4  C   UNL     1     143.059 146.573 139.814  1.00  0.00     0.005 C 
ATOM      5  C   UNL     1     142.279 145.766 140.863  1.00  0.00     0.010 C 
ATOM      6  C   UNL     1     141.905 146.840 141.910  1.00  0.00    -0.006 C 
ATOM      7  C   UNL     1     143.090 147.776 141.827  1.00  0.00     0.013 C 
ATOM      8  C   UNL     1     140.748 147.711 141.348  1.00  0.00     0.126 C 
ATOM      9  C   UNL     1     141.656 146.261 143.309  1.00  0.00     0.014 C 
ATOM     10  C   UNL     1     141.436 150.075 140.479  1.00  0.00     0.014 C 
ENDROOT
BRANCH   8  11
ATOM     11  O   UNL     1     140.210 148.530 142.358  1.00  0.00    -0.392 OA
ATOM     12  H   UNL     1     140.971 148.805 142.934  1.00  0.00     0.211 HD
ENDBRANCH   8  11
TORSDOF 1
ENDMDL
MODEL 9
REMARK VINA RESULT:    -3.317     12.540     14.081
REMARK INTER + INTRA:          -3.414
REMARK INTER:                  -3.414
REMARK INTRA:                   0.000
REMARK UNBOUND:                 0.000
REMARK SMILES CC1(C)[C@@H]2CC[C@@](C)(C2)[C@H]1O
REMARK SMILES IDX 1 1 2 2 4 3 5 4 6 5 7 6 9 7 10 8 8 9 3 10 11 11
REMARK H PARENT 11 12
REMARK Flexibility Score: inf
ROOT
ATOM      1  C   UNL     1     148.303 140.794 138.863  1.00  0.00     0.014 C 
ATOM      2  C   UNL     1     148.555 140.141 140.244  1.00  0.00    -0.006 C 
ATOM      3  C   UNL     1     148.035 138.666 140.345  1.00  0.00    -0.002 C 
ATOM      4  C   UNL     1     146.590 138.543 139.820  1.00  0.00     0.005 C 
ATOM      5  C   UNL     1     145.779 139.316 140.870  1.00  0.00     0.010 C 
ATOM      6  C   UNL     1     146.850 139.690 141.921  1.00  0.00    -0.006 C 
ATOM      7  C   UNL     1     147.789 138.507 141.835  1.00  0.00     0.013 C 
ATOM      8  C   UNL     1     147.718 140.851 141.365  1.00  0.00     0.126 C 
ATOM      9  C   UNL     1     146.267 139.930 143.320  1.00  0.00     0.014 C 
ATOM     10  C   UNL     1     150.086 140.173 140.498  1.00  0.00     0.014 C 
ENDROOT
BRANCH   8  11
ATOM     11  O   UNL     1     148.534 141.386 142.379  1.00  0.00    -0.392 OA
ATOM     12  H   UNL     1     149.085 140.637 142.725  1.00  0.00     0.211 HD
ENDBRANCH   8  11
TORSDOF 1
ENDMDL
