MODEL 1
REMARK VINA RESULT:    -3.194      0.000      0.000
REMARK INTER + INTRA:          -3.430
REMARK INTER:                  -3.941
REMARK INTRA:                   0.510
REMARK UNBOUND:                 0.510
REMARK SMILES O=c1c(O)c(-c2cc(O)c(O)c(O)c2)oc2cc(O)cc(O)c12
REMARK SMILES IDX 5 1 3 2 2 3 1 4 23 5 21 6 20 7 18 8 17 9 16 10 15 11 6 12
REMARK SMILES IDX 7 13 8 14 14 15 10 16 12 17 9 18 11 20 13 22 4 24 22 26
REMARK SMILES IDX 19 28
REMARK H PARENT 9 19 11 21 13 23 4 25 22 27 19 29
REMARK Flexibility Score: inf
ROOT
ATOM      1  C   UNL     1       1.198  32.174   6.708  1.00  0.00     0.180 A 
ATOM      2  C   UNL     1       1.762  30.932   7.047  1.00  0.00     0.208 A 
ATOM      3  C   UNL     1       2.275  30.748   8.341  1.00  0.00     0.238 A 
ATOM      4  O   UNL     1       2.709  29.611   8.661  1.00  0.00    -0.285 OA
ATOM      5  C   UNL     1       2.270  31.824   9.262  1.00  0.00     0.111 A 
ATOM      6  C   UNL     1       2.804  31.763  10.584  1.00  0.00     0.134 A 
ATOM      7  C   UNL     1       2.648  32.858  11.443  1.00  0.00     0.093 A 
ATOM      8  C   UNL     1       2.034  34.035  11.006  1.00  0.00     0.123 A 
ATOM      9  C   UNL     1       1.558  34.123   9.700  1.00  0.00     0.094 A 
ATOM     10  C   UNL     1       1.665  33.034   8.832  1.00  0.00     0.146 A 
ATOM     11  O   UNL     1       1.179  33.155   7.603  1.00  0.00    -0.452 OA
ENDROOT
BRANCH   1  12
ATOM     12  C   UNL     1       0.625  32.440   5.369  1.00  0.00     0.029 A 
ATOM     13  C   UNL     1       0.007  33.665   5.067  1.00  0.00     0.062 A 
ATOM     14  C   UNL     1      -0.508  33.907   3.786  1.00  0.00     0.162 A 
ATOM     15  C   UNL     1       0.751  31.472   4.361  1.00  0.00     0.062 A 
ATOM     16  C   UNL     1      -0.397  32.923   2.788  1.00  0.00     0.200 A 
ATOM     17  C   UNL     1       0.239  31.704   3.080  1.00  0.00     0.162 A 
BRANCH  14  18
ATOM     18  O   UNL     1      -1.125  35.125   3.500  1.00  0.00    -0.504 OA
ATOM     19  H   UNL     1      -2.103  35.177   3.242  1.00  0.00     0.293 HD
ENDBRANCH  14  18
BRANCH  16  20
ATOM     20  O   UNL     1      -0.909  33.145   1.509  1.00  0.00    -0.502 OA
ATOM     21  H   UNL     1      -1.794  32.756   1.207  1.00  0.00     0.293 HD
ENDBRANCH  16  20
BRANCH  17  22
ATOM     22  O   UNL     1       0.372  30.711   2.110  1.00  0.00    -0.504 OA
ATOM     23  H   UNL     1       0.369  30.922   1.118  1.00  0.00     0.293 HD
ENDBRANCH  17  22
ENDBRANCH   1  12
BRANCH   2  24
ATOM     24  O   UNL     1       1.826  29.907   6.099  1.00  0.00    -0.502 OA
ATOM     25  H   UNL     1       1.215  29.100   6.129  1.00  0.00     0.293 HD
ENDBRANCH   2  24
BRANCH   6  26
ATOM     26  O   UNL     1       3.513  30.671  11.093  1.00  0.00    -0.507 OA
ATOM     27  H   UNL     1       4.242  30.176  10.603  1.00  0.00     0.293 HD
ENDBRANCH   6  26
BRANCH   8  28
ATOM     28  O   UNL     1       1.897  35.125  11.862  1.00  0.00    -0.508 OA
ATOM     29  H   UNL     1       2.428  35.977  11.724  1.00  0.00     0.293 HD
ENDBRANCH   8  28
TORSDOF 7
ENDMDL
MODEL 2
REMARK VINA RESULT:    -2.660     19.951     21.927
REMARK INTER + INTRA:          -2.771
REMARK INTER:                  -2.766
REMARK INTRA:                  -0.005
REMARK UNBOUND:                 0.510
REMARK SMILES O=c1c(O)c(-c2cc(O)c(O)c(O)c2)oc2cc(O)cc(O)c12
REMARK SMILES IDX 5 1 3 2 2 3 1 4 23 5 21 6 20 7 18 8 17 9 16 10 15 11 6 12
REMARK SMILES IDX 7 13 8 14 14 15 10 16 12 17 9 18 11 20 13 22 4 24 22 26
REMARK SMILES IDX 19 28
REMARK H PARENT 9 19 11 21 13 23 4 25 22 27 19 29
REMARK Flexibility Score: inf
ROOT
ATOM      1  C   UNL     1      18.133  19.933   3.092  1.00  0.00     0.180 A 
ATOM      2  C   UNL     1      18.638  19.281   1.952  1.00  0.00     0.208 A 
ATOM      3  C   UNL     1      18.662  17.878   1.926  1.00  0.00     0.238 A 
ATOM      4  O   UNL     1      19.045  17.301   0.875  1.00  0.00    -0.285 OA
ATOM      5  C   UNL     1      18.235  17.143   3.059  1.00  0.00     0.111 A 
ATOM      6  C   UNL     1      18.259  15.719   3.160  1.00  0.00     0.134 A 
ATOM      7  C   UNL     1      17.712  15.097   4.289  1.00  0.00     0.093 A 
ATOM      8  C   UNL     1      17.202  15.850   5.350  1.00  0.00     0.123 A 
ATOM      9  C   UNL     1      17.225  17.241   5.285  1.00  0.00     0.094 A 
ATOM     10  C   UNL     1      17.728  17.889   4.155  1.00  0.00     0.146 A 
ATOM     11  O   UNL     1      17.710  19.216   4.127  1.00  0.00    -0.452 OA
ENDROOT
BRANCH   1  12
ATOM     12  C   UNL     1      18.062  21.408   3.188  1.00  0.00     0.029 A 
ATOM     13  C   UNL     1      18.623  22.098   4.277  1.00  0.00     0.062 A 
ATOM     14  C   UNL     1      18.567  23.497   4.338  1.00  0.00     0.162 A 
ATOM     15  C   UNL     1      17.476  22.140   2.145  1.00  0.00     0.062 A 
ATOM     16  C   UNL     1      17.957  24.221   3.299  1.00  0.00     0.200 A 
ATOM     17  C   UNL     1      17.415  23.536   2.198  1.00  0.00     0.162 A 
BRANCH  14  18
ATOM     18  O   UNL     1      19.120  24.171   5.427  1.00  0.00    -0.504 OA
ATOM     19  H   UNL     1      18.932  23.884   6.381  1.00  0.00     0.293 HD
ENDBRANCH  14  18
BRANCH  16  20
ATOM     20  O   UNL     1      17.888  25.614   3.347  1.00  0.00    -0.502 OA
ATOM     21  H   UNL     1      17.016  26.107   3.498  1.00  0.00     0.293 HD
ENDBRANCH  16  20
BRANCH  17  22
ATOM     22  O   UNL     1      16.811  24.226   1.147  1.00  0.00    -0.504 OA
ATOM     23  H   UNL     1      16.042  24.869   1.296  1.00  0.00     0.293 HD
ENDBRANCH  17  22
ENDBRANCH   1  12
BRANCH   2  24
ATOM     24  O   UNL     1      19.125  20.026   0.875  1.00  0.00    -0.502 OA
ATOM     25  H   UNL     1      18.514  20.500   0.221  1.00  0.00     0.293 HD
ENDBRANCH   2  24
BRANCH   6  26
ATOM     26  O   UNL     1      18.825  14.875   2.199  1.00  0.00    -0.507 OA
ATOM     27  H   UNL     1      19.781  14.920   1.881  1.00  0.00     0.293 HD
ENDBRANCH   6  26
BRANCH   8  28
ATOM     28  O   UNL     1      16.675  15.223   6.477  1.00  0.00    -0.508 OA
ATOM     29  H   UNL     1      16.383  15.752   7.290  1.00  0.00     0.293 HD
ENDBRANCH   8  28
TORSDOF 7
ENDMDL
MODEL 3
REMARK VINA RESULT:    -2.065      2.250      3.119
REMARK INTER + INTRA:          -2.038
REMARK INTER:                  -1.703
REMARK INTRA:                  -0.335
REMARK UNBOUND:                 0.510
REMARK SMILES O=c1c(O)c(-c2cc(O)c(O)c(O)c2)oc2cc(O)cc(O)c12
REMARK SMILES IDX 5 1 3 2 2 3 1 4 23 5 21 6 20 7 18 8 17 9 16 10 15 11 6 12
REMARK SMILES IDX 7 13 8 14 14 15 10 16 12 17 9 18 11 20 13 22 4 24 22 26
REMARK SMILES IDX 19 28
REMARK H PARENT 9 19 11 21 13 23 4 25 22 27 19 29
REMARK Flexibility Score: inf
ROOT
ATOM      1  C   UNL     1       1.075  31.500   6.127  1.00  0.00     0.180 A 
ATOM      2  C   UNL     1       0.252  30.931   7.115  1.00  0.00     0.208 A 
ATOM      3  C   UNL     1       0.839  30.456   8.298  1.00  0.00     0.238 A 
ATOM      4  O   UNL     1       0.090  30.017   9.209  1.00  0.00    -0.285 OA
ATOM      5  C   UNL     1       2.246  30.504   8.457  1.00  0.00     0.111 A 
ATOM      6  C   UNL     1       2.952  30.010   9.596  1.00  0.00     0.134 A 
ATOM      7  C   UNL     1       4.335  30.208   9.690  1.00  0.00     0.093 A 
ATOM      8  C   UNL     1       5.047  30.824   8.657  1.00  0.00     0.123 A 
ATOM      9  C   UNL     1       4.375  31.259   7.518  1.00  0.00     0.094 A 
ATOM     10  C   UNL     1       2.990  31.111   7.412  1.00  0.00     0.146 A 
ATOM     11  O   UNL     1       2.388  31.560   6.318  1.00  0.00    -0.452 OA
ENDROOT
BRANCH   1  12
ATOM     12  C   UNL     1       0.529  32.035   4.859  1.00  0.00     0.029 A 
ATOM     13  C   UNL     1       0.512  31.262   3.685  1.00  0.00     0.062 A 
ATOM     14  C   UNL     1      -0.031  31.778   2.501  1.00  0.00     0.162 A 
ATOM     15  C   UNL     1      -0.039  33.318   4.840  1.00  0.00     0.062 A 
ATOM     16  C   UNL     1      -0.578  33.072   2.485  1.00  0.00     0.200 A 
ATOM     17  C   UNL     1      -0.583  33.840   3.662  1.00  0.00     0.162 A 
BRANCH  14  18
ATOM     18  O   UNL     1      -0.035  31.004   1.340  1.00  0.00    -0.504 OA
ATOM     19  H   UNL     1      -0.566  30.143   1.277  1.00  0.00     0.293 HD
ENDBRANCH  14  18
BRANCH  16  20
ATOM     20  O   UNL     1      -1.118  33.603   1.313  1.00  0.00    -0.502 OA
ATOM     21  H   UNL     1      -1.083  34.593   1.102  1.00  0.00     0.293 HD
ENDBRANCH  16  20
BRANCH  17  22
ATOM     22  O   UNL     1      -1.125  35.125   3.681  1.00  0.00    -0.504 OA
ATOM     23  H   UNL     1      -1.892  35.378   4.293  1.00  0.00     0.293 HD
ENDBRANCH  17  22
ENDBRANCH   1  12
BRANCH   2  24
ATOM     24  O   UNL     1      -1.125  30.824   6.906  1.00  0.00    -0.502 OA
ATOM     25  H   UNL     1      -1.797  30.916   7.658  1.00  0.00     0.293 HD
ENDBRANCH   2  24
BRANCH   6  26
ATOM     26  O   UNL     1       2.353  29.303  10.643  1.00  0.00    -0.507 OA
ATOM     27  H   UNL     1       2.285  29.628  11.595  1.00  0.00     0.293 HD
ENDBRANCH   6  26
BRANCH   8  28
ATOM     28  O   UNL     1       6.425  31.001   8.752  1.00  0.00    -0.508 OA
ATOM     29  H   UNL     1       6.834  31.919   8.879  1.00  0.00     0.293 HD
ENDBRANCH   8  28
TORSDOF 7
ENDMDL
MODEL 4
REMARK VINA RESULT:    -2.010      2.257      2.562
REMARK INTER + INTRA:          -1.969
REMARK INTER:                  -1.604
REMARK INTRA:                  -0.365
REMARK UNBOUND:                 0.510
REMARK SMILES O=c1c(O)c(-c2cc(O)c(O)c(O)c2)oc2cc(O)cc(O)c12
REMARK SMILES IDX 5 1 3 2 2 3 1 4 23 5 21 6 20 7 18 8 17 9 16 10 15 11 6 12
REMARK SMILES IDX 7 13 8 14 14 15 10 16 12 17 9 18 11 20 13 22 4 24 22 26
REMARK SMILES IDX 19 28
REMARK H PARENT 9 19 11 21 13 23 4 25 22 27 19 29
REMARK Flexibility Score: inf
ROOT
ATOM      1  C   UNL     1       1.036  31.499   6.124  1.00  0.00     0.180 A 
ATOM      2  C   UNL     1       0.247  30.870   7.103  1.00  0.00     0.208 A 
ATOM      3  C   UNL     1       0.864  30.397   8.272  1.00  0.00     0.238 A 
ATOM      4  O   UNL     1       0.142  29.903   9.177  1.00  0.00    -0.285 OA
ATOM      5  C   UNL     1       2.268  30.506   8.424  1.00  0.00     0.111 A 
ATOM      6  C   UNL     1       3.005  30.021   9.547  1.00  0.00     0.134 A 
ATOM      7  C   UNL     1       4.377  30.280   9.636  1.00  0.00     0.093 A 
ATOM      8  C   UNL     1       5.053  30.951   8.614  1.00  0.00     0.123 A 
ATOM      9  C   UNL     1       4.353  31.380   7.489  1.00  0.00     0.094 A 
ATOM     10  C   UNL     1       2.976  31.170   7.388  1.00  0.00     0.146 A 
ATOM     11  O   UNL     1       2.346  31.615   6.308  1.00  0.00    -0.452 OA
ENDROOT
BRANCH   1  12
ATOM     12  C   UNL     1       0.456  32.035   4.872  1.00  0.00     0.029 A 
ATOM     13  C   UNL     1      -0.072  33.336   4.808  1.00  0.00     0.062 A 
ATOM     14  C   UNL     1      -0.594  33.835   3.607  1.00  0.00     0.162 A 
ATOM     15  C   UNL     1       0.487  31.253   3.707  1.00  0.00     0.062 A 
ATOM     16  C   UNL     1      -0.580  33.036   2.450  1.00  0.00     0.200 A 
ATOM     17  C   UNL     1      -0.033  31.742   2.504  1.00  0.00     0.162 A 
BRANCH  14  18
ATOM     18  O   UNL     1      -1.122  35.125   3.558  1.00  0.00    -0.504 OA
ATOM     19  H   UNL     1      -0.789  35.811   2.891  1.00  0.00     0.293 HD
ENDBRANCH  14  18
BRANCH  16  20
ATOM     20  O   UNL     1      -1.100  33.515   1.247  1.00  0.00    -0.502 OA
ATOM     21  H   UNL     1      -1.994  33.205   0.884  1.00  0.00     0.293 HD
ENDBRANCH  16  20
BRANCH  17  22
ATOM     22  O   UNL     1       0.003  30.928   1.373  1.00  0.00    -0.504 OA
ATOM     23  H   UNL     1      -0.835  30.521   0.974  1.00  0.00     0.293 HD
ENDBRANCH  17  22
ENDBRANCH   1  12
BRANCH   2  24
ATOM     24  O   UNL     1      -1.125  30.704   6.901  1.00  0.00    -0.502 OA
ATOM     25  H   UNL     1      -1.787  30.670   7.666  1.00  0.00     0.293 HD
ENDBRANCH   2  24
BRANCH   6  26
ATOM     26  O   UNL     1       2.446  29.263  10.581  1.00  0.00    -0.507 OA
ATOM     27  H   UNL     1       1.893  29.637  11.337  1.00  0.00     0.293 HD
ENDBRANCH   6  26
BRANCH   8  28
ATOM     28  O   UNL     1       6.422  31.190   8.704  1.00  0.00    -0.508 OA
ATOM     29  H   UNL     1       6.823  31.684   9.492  1.00  0.00     0.293 HD
ENDBRANCH   8  28
TORSDOF 7
ENDMDL
MODEL 5
REMARK VINA RESULT:    -1.538      1.430      7.410
REMARK INTER + INTRA:          -1.388
REMARK INTER:                  -1.502
REMARK INTRA:                   0.114
REMARK UNBOUND:                 0.510
REMARK SMILES O=c1c(O)c(-c2cc(O)c(O)c(O)c2)oc2cc(O)cc(O)c12
REMARK SMILES IDX 5 1 3 2 2 3 1 4 23 5 21 6 20 7 18 8 17 9 16 10 15 11 6 12
REMARK SMILES IDX 7 13 8 14 14 15 10 16 12 17 9 18 11 20 13 22 4 24 22 26
REMARK SMILES IDX 19 28
REMARK H PARENT 9 19 11 21 13 23 4 25 22 27 19 29
REMARK Flexibility Score: inf
ROOT
ATOM      1  C   UNL     1       1.055  32.581   6.007  1.00  0.00     0.180 A 
ATOM      2  C   UNL     1       0.479  33.830   5.718  1.00  0.00     0.208 A 
ATOM      3  C   UNL     1      -0.116  34.031   4.462  1.00  0.00     0.238 A 
ATOM      4  O   UNL     1      -0.696  35.125   4.237  1.00  0.00    -0.285 OA
ATOM      5  C   UNL     1      -0.079  33.001   3.491  1.00  0.00     0.111 A 
ATOM      6  C   UNL     1      -0.611  33.110   2.170  1.00  0.00     0.134 A 
ATOM      7  C   UNL     1      -0.612  31.989   1.331  1.00  0.00     0.093 A 
ATOM      8  C   UNL     1      -0.042  30.781   1.741  1.00  0.00     0.123 A 
ATOM      9  C   UNL     1       0.529  30.681   3.008  1.00  0.00     0.094 A 
ATOM     10  C   UNL     1       0.510  31.769   3.881  1.00  0.00     0.146 A 
ATOM     11  O   UNL     1       1.046  31.623   5.087  1.00  0.00    -0.452 OA
ENDROOT
BRANCH   1  12
ATOM     12  C   UNL     1       1.689  32.289   7.312  1.00  0.00     0.029 A 
ATOM     13  C   UNL     1       2.481  33.244   7.971  1.00  0.00     0.062 A 
ATOM     14  C   UNL     1       3.052  32.958   9.218  1.00  0.00     0.162 A 
ATOM     15  C   UNL     1       1.448  31.055   7.935  1.00  0.00     0.062 A 
ATOM     16  C   UNL     1       2.825  31.711   9.825  1.00  0.00     0.200 A 
ATOM     17  C   UNL     1       2.015  30.760   9.179  1.00  0.00     0.162 A 
BRANCH  14  18
ATOM     18  O   UNL     1       3.843  33.912   9.860  1.00  0.00    -0.504 OA
ATOM     19  H   UNL     1       3.562  34.332  10.738  1.00  0.00     0.293 HD
ENDBRANCH  14  18
BRANCH  16  20
ATOM     20  O   UNL     1       3.390  31.407  11.064  1.00  0.00    -0.502 OA
ATOM     21  H   UNL     1       3.800  32.118  11.659  1.00  0.00     0.293 HD
ENDBRANCH  16  20
BRANCH  17  22
ATOM     22  O   UNL     1       1.763  29.517   9.758  1.00  0.00    -0.504 OA
ATOM     23  H   UNL     1       0.857  29.274  10.141  1.00  0.00     0.293 HD
ENDBRANCH  17  22
ENDBRANCH   1  12
BRANCH   2  24
ATOM     24  O   UNL     1       0.520  34.859   6.662  1.00  0.00    -0.502 OA
ATOM     25  H   UNL     1       1.387  35.294   6.954  1.00  0.00     0.293 HD
ENDBRANCH   2  24
BRANCH   6  26
ATOM     26  O   UNL     1      -1.124  34.292   1.628  1.00  0.00    -0.507 OA
ATOM     27  H   UNL     1      -0.571  35.023   1.208  1.00  0.00     0.293 HD
ENDBRANCH   6  26
BRANCH   8  28
ATOM     28  O   UNL     1      -0.032  29.676   0.894  1.00  0.00    -0.508 OA
ATOM     29  H   UNL     1       0.711  29.530   0.221  1.00  0.00     0.293 HD
ENDBRANCH   8  28
TORSDOF 7
ENDMDL
MODEL 6
REMARK VINA RESULT:    -1.107      1.449      7.544
REMARK INTER + INTRA:          -0.856
REMARK INTER:                  -0.940
REMARK INTRA:                   0.084
REMARK UNBOUND:                 0.510
REMARK SMILES O=c1c(O)c(-c2cc(O)c(O)c(O)c2)oc2cc(O)cc(O)c12
REMARK SMILES IDX 5 1 3 2 2 3 1 4 23 5 21 6 20 7 18 8 17 9 16 10 15 11 6 12
REMARK SMILES IDX 7 13 8 14 14 15 10 16 12 17 9 18 11 20 13 22 4 24 22 26
REMARK SMILES IDX 19 28
REMARK H PARENT 9 19 11 21 13 23 4 25 22 27 19 29
REMARK Flexibility Score: inf
ROOT
ATOM      1  C   UNL     1       0.956  32.544   6.072  1.00  0.00     0.180 A 
ATOM      2  C   UNL     1       0.386  33.799   5.797  1.00  0.00     0.208 A 
ATOM      3  C   UNL     1      -0.181  34.026   4.533  1.00  0.00     0.238 A 
ATOM      4  O   UNL     1      -0.756  35.125   4.319  1.00  0.00    -0.285 OA
ATOM      5  C   UNL     1      -0.122  33.017   3.541  1.00  0.00     0.111 A 
ATOM      6  C   UNL     1      -0.624  33.154   2.211  1.00  0.00     0.134 A 
ATOM      7  C   UNL     1      -0.605  32.051   1.349  1.00  0.00     0.093 A 
ATOM      8  C   UNL     1      -0.044  30.835   1.746  1.00  0.00     0.123 A 
ATOM      9  C   UNL     1       0.498  30.708   3.022  1.00  0.00     0.094 A 
ATOM     10  C   UNL     1       0.459  31.778   3.919  1.00  0.00     0.146 A 
ATOM     11  O   UNL     1       0.968  31.605   5.132  1.00  0.00    -0.452 OA
ENDROOT
BRANCH   1  12
ATOM     12  C   UNL     1       1.560  32.224   7.385  1.00  0.00     0.029 A 
ATOM     13  C   UNL     1       1.335  30.987   8.013  1.00  0.00     0.062 A 
ATOM     14  C   UNL     1       1.936  30.694   9.245  1.00  0.00     0.162 A 
ATOM     15  C   UNL     1       2.423  33.150   7.991  1.00  0.00     0.062 A 
ATOM     16  C   UNL     1       2.781  31.637   9.856  1.00  0.00     0.200 A 
ATOM     17  C   UNL     1       3.026  32.867   9.220  1.00  0.00     0.162 A 
BRANCH  14  18
ATOM     18  O   UNL     1       1.700  29.465   9.862  1.00  0.00    -0.504 OA
ATOM     19  H   UNL     1       1.101  29.386  10.675  1.00  0.00     0.293 HD
ENDBRANCH  14  18
BRANCH  16  20
ATOM     20  O   UNL     1       3.383  31.363  11.084  1.00  0.00    -0.502 OA
ATOM     21  H   UNL     1       3.730  30.441  11.322  1.00  0.00     0.293 HD
ENDBRANCH  16  20
BRANCH  17  22
ATOM     22  O   UNL     1       3.865  33.819   9.796  1.00  0.00    -0.504 OA
ATOM     23  H   UNL     1       4.827  33.940   9.500  1.00  0.00     0.293 HD
ENDBRANCH  17  22
ENDBRANCH   1  12
BRANCH   2  24
ATOM     24  O   UNL     1       0.405  34.807   6.764  1.00  0.00    -0.502 OA
ATOM     25  H   UNL     1      -0.229  34.815   7.554  1.00  0.00     0.293 HD
ENDBRANCH   2  24
BRANCH   6  26
ATOM     26  O   UNL     1      -1.125  34.348   1.683  1.00  0.00    -0.507 OA
ATOM     27  H   UNL     1      -1.477  34.462   0.745  1.00  0.00     0.293 HD
ENDBRANCH   6  26
BRANCH   8  28
ATOM     28  O   UNL     1      -0.015  29.748   0.875  1.00  0.00    -0.508 OA
ATOM     29  H   UNL     1       0.726  29.635   0.193  1.00  0.00     0.293 HD
ENDBRANCH   8  28
TORSDOF 7
ENDMDL
