MODEL 1
REMARK VINA RESULT:    -4.364      0.000      0.000
REMARK INTER + INTRA:          -4.939
REMARK INTER:                  -4.747
REMARK INTRA:                  -0.192
REMARK UNBOUND:                -0.192
REMARK SMILES C=C(C)[C@H]1CC[C@@H](C)C[C@H]1O
REMARK SMILES IDX 8 1 7 2 6 3 5 4 4 5 10 6 9 7 11 8 2 10 1 11 3 12
REMARK H PARENT 11 9
REMARK Flexibility Score: inf
ROOT
ATOM      1  C   UNL     1      45.132   9.211 117.845  1.00  0.00     0.008 C 
ATOM      2  C   UNL     1      44.552   8.542 119.102  1.00  0.00    -0.012 C 
ATOM      3  C   UNL     1      43.030   8.763 119.225  1.00  0.00     0.004 C 
ATOM      4  C   UNL     1      42.674  10.180 119.696  1.00  0.00     0.011 C 
ATOM      5  C   UNL     1      43.384  10.507 121.025  1.00  0.00     0.043 C 
ATOM      6  C   UNL     1      44.918  10.369 120.899  1.00  0.00     0.121 C 
ATOM      7  C   UNL     1      45.294   8.960 120.393  1.00  0.00     0.035 C 
ENDROOT
BRANCH   6   8
ATOM      8  O   UNL     1      45.443  11.352 120.044  1.00  0.00    -0.392 OA
ATOM      9  H   UNL     1      45.616  12.156 120.601  1.00  0.00     0.210 HD
ENDBRANCH   6   8
BRANCH   5  10
ATOM     10  C   UNL     1      42.969  11.864 121.581  1.00  0.00    -0.075 C 
ATOM     11  C   UNL     1      42.146  12.687 120.908  1.00  0.00     0.008 C 
ATOM     12  C   UNL     1      43.469  12.262 122.946  1.00  0.00     0.039 C 
ENDBRANCH   5  10
TORSDOF 2
ENDMDL
MODEL 2
REMARK VINA RESULT:    -4.274      8.477     10.619
REMARK INTER + INTRA:          -4.841
REMARK INTER:                  -4.653
REMARK INTRA:                  -0.188
REMARK UNBOUND:                -0.192
REMARK SMILES C=C(C)[C@H]1CC[C@@H](C)C[C@H]1O
REMARK SMILES IDX 8 1 7 2 6 3 5 4 4 5 10 6 9 7 11 8 2 10 1 11 3 12
REMARK H PARENT 11 9
REMARK Flexibility Score: inf
ROOT
ATOM      1  C   UNL     1      52.354   5.564 112.339  1.00  0.00     0.008 C 
ATOM      2  C   UNL     1      51.150   4.639 112.580  1.00  0.00    -0.012 C 
ATOM      3  C   UNL     1      50.232   4.549 111.342  1.00  0.00     0.004 C 
ATOM      4  C   UNL     1      49.360   5.799 111.162  1.00  0.00     0.011 C 
ATOM      5  C   UNL     1      48.536   6.078 112.434  1.00  0.00     0.043 C 
ATOM      6  C   UNL     1      49.445   6.251 113.673  1.00  0.00     0.121 C 
ATOM      7  C   UNL     1      50.355   5.018 113.852  1.00  0.00     0.035 C 
ENDROOT
BRANCH   6   8
ATOM      8  O   UNL     1      50.218   7.419 113.570  1.00  0.00    -0.392 OA
ATOM      9  H   UNL     1      49.585   8.184 113.552  1.00  0.00     0.210 HD
ENDBRANCH   6   8
BRANCH   5  10
ATOM     10  C   UNL     1      47.576   7.248 112.254  1.00  0.00    -0.075 C 
ATOM     11  C   UNL     1      47.649   8.071 111.194  1.00  0.00     0.008 C 
ATOM     12  C   UNL     1      46.490   7.448 113.280  1.00  0.00     0.039 C 
ENDBRANCH   5  10
TORSDOF 2
ENDMDL
MODEL 3
REMARK VINA RESULT:    -4.254      3.300      5.019
REMARK INTER + INTRA:          -4.819
REMARK INTER:                  -4.640
REMARK INTRA:                  -0.178
REMARK UNBOUND:                -0.192
REMARK SMILES C=C(C)[C@H]1CC[C@@H](C)C[C@H]1O
REMARK SMILES IDX 8 1 7 2 6 3 5 4 4 5 10 6 9 7 11 8 2 10 1 11 3 12
REMARK H PARENT 11 9
REMARK Flexibility Score: inf
ROOT
ATOM      1  C   UNL     1      44.680   6.509 114.376  1.00  0.00     0.008 C 
ATOM      2  C   UNL     1      43.895   7.785 114.721  1.00  0.00    -0.012 C 
ATOM      3  C   UNL     1      44.731   9.061 114.485  1.00  0.00     0.004 C 
ATOM      4  C   UNL     1      45.779   9.292 115.582  1.00  0.00     0.011 C 
ATOM      5  C   UNL     1      45.116   9.322 116.973  1.00  0.00     0.043 C 
ATOM      6  C   UNL     1      44.338   8.018 117.261  1.00  0.00     0.121 C 
ATOM      7  C   UNL     1      43.301   7.750 116.149  1.00  0.00     0.035 C 
ENDROOT
BRANCH   6   8
ATOM      8  O   UNL     1      45.215   6.927 117.385  1.00  0.00    -0.392 OA
ATOM      9  H   UNL     1      46.084   7.209 116.995  1.00  0.00     0.210 HD
ENDBRANCH   6   8
BRANCH   5  10
ATOM     10  C   UNL     1      46.109   9.659 118.079  1.00  0.00    -0.075 C 
ATOM     11  C   UNL     1      47.388   9.975 117.813  1.00  0.00     0.008 C 
ATOM     12  C   UNL     1      45.617   9.677 119.503  1.00  0.00     0.039 C 
ENDBRANCH   5  10
TORSDOF 2
ENDMDL
MODEL 4
REMARK VINA RESULT:    -4.209      5.956      8.839
REMARK INTER + INTRA:          -4.770
REMARK INTER:                  -4.580
REMARK INTRA:                  -0.190
REMARK UNBOUND:                -0.192
REMARK SMILES C=C(C)[C@H]1CC[C@@H](C)C[C@H]1O
REMARK SMILES IDX 8 1 7 2 6 3 5 4 4 5 10 6 9 7 11 8 2 10 1 11 3 12
REMARK H PARENT 11 9
REMARK Flexibility Score: inf
ROOT
ATOM      1  C   UNL     1      45.634   7.282 116.381  1.00  0.00     0.008 C 
ATOM      2  C   UNL     1      46.094   8.384 115.412  1.00  0.00    -0.012 C 
ATOM      3  C   UNL     1      45.723   8.059 113.949  1.00  0.00     0.004 C 
ATOM      4  C   UNL     1      46.641   6.996 113.330  1.00  0.00     0.011 C 
ATOM      5  C   UNL     1      48.119   7.420 113.439  1.00  0.00     0.043 C 
ATOM      6  C   UNL     1      48.531   7.673 114.907  1.00  0.00     0.121 C 
ATOM      7  C   UNL     1      47.597   8.715 115.558  1.00  0.00     0.035 C 
ENDROOT
BRANCH   6   8
ATOM      8  O   UNL     1      48.520   6.478 115.645  1.00  0.00    -0.392 OA
ATOM      9  H   UNL     1      48.248   5.755 115.021  1.00  0.00     0.210 HD
ENDBRANCH   6   8
BRANCH   5  10
ATOM     10  C   UNL     1      49.053   6.442 112.737  1.00  0.00    -0.075 C 
ATOM     11  C   UNL     1      50.374   6.670 112.634  1.00  0.00     0.008 C 
ATOM     12  C   UNL     1      48.472   5.166 112.185  1.00  0.00     0.039 C 
ENDBRANCH   5  10
TORSDOF 2
ENDMDL
MODEL 5
REMARK VINA RESULT:    -4.202      3.633      6.445
REMARK INTER + INTRA:          -4.762
REMARK INTER:                  -4.569
REMARK INTRA:                  -0.193
REMARK UNBOUND:                -0.192
REMARK SMILES C=C(C)[C@H]1CC[C@@H](C)C[C@H]1O
REMARK SMILES IDX 8 1 7 2 6 3 5 4 4 5 10 6 9 7 11 8 2 10 1 11 3 12
REMARK H PARENT 11 9
REMARK Flexibility Score: inf
ROOT
ATOM      1  C   UNL     1      44.499   8.311 118.942  1.00  0.00     0.008 C 
ATOM      2  C   UNL     1      44.851   9.375 117.890  1.00  0.00    -0.012 C 
ATOM      3  C   UNL     1      43.779   9.472 116.784  1.00  0.00     0.004 C 
ATOM      4  C   UNL     1      43.860   8.313 115.780  1.00  0.00     0.011 C 
ATOM      5  C   UNL     1      45.272   8.219 115.168  1.00  0.00     0.043 C 
ATOM      6  C   UNL     1      46.353   8.042 116.258  1.00  0.00     0.121 C 
ATOM      7  C   UNL     1      46.266   9.180 117.297  1.00  0.00     0.035 C 
ENDROOT
BRANCH   6   8
ATOM      8  O   UNL     1      46.231   6.794 116.889  1.00  0.00    -0.392 OA
ATOM      9  H   UNL     1      47.002   6.707 117.509  1.00  0.00     0.210 HD
ENDBRANCH   6   8
BRANCH   5  10
ATOM     10  C   UNL     1      45.361   7.151 114.085  1.00  0.00    -0.075 C 
ATOM     11  C   UNL     1      46.415   7.067 113.254  1.00  0.00     0.008 C 
ATOM     12  C   UNL     1      44.250   6.138 113.985  1.00  0.00     0.039 C 
ENDBRANCH   5  10
TORSDOF 2
ENDMDL
MODEL 6
REMARK VINA RESULT:    -4.180      8.257      9.268
REMARK INTER + INTRA:          -4.739
REMARK INTER:                  -4.614
REMARK INTRA:                  -0.125
REMARK UNBOUND:                -0.192
REMARK SMILES C=C(C)[C@H]1CC[C@@H](C)C[C@H]1O
REMARK SMILES IDX 8 1 7 2 6 3 5 4 4 5 10 6 9 7 11 8 2 10 1 11 3 12
REMARK H PARENT 11 9
REMARK Flexibility Score: inf
ROOT
ATOM      1  C   UNL     1      40.539  12.538 112.847  1.00  0.00     0.008 C 
ATOM      2  C   UNL     1      41.198  13.758 112.181  1.00  0.00    -0.012 C 
ATOM      3  C   UNL     1      42.361  14.320 113.027  1.00  0.00     0.004 C 
ATOM      4  C   UNL     1      41.873  15.123 114.241  1.00  0.00     0.011 C 
ATOM      5  C   UNL     1      40.920  16.252 113.801  1.00  0.00     0.043 C 
ATOM      6  C   UNL     1      39.707  15.700 113.020  1.00  0.00     0.121 C 
ATOM      7  C   UNL     1      40.177  14.859 111.813  1.00  0.00     0.035 C 
ENDROOT
BRANCH   6   8
ATOM      8  O   UNL     1      38.877  14.934 113.855  1.00  0.00    -0.392 OA
ATOM      9  H   UNL     1      38.502  15.553 114.535  1.00  0.00     0.210 HD
ENDBRANCH   6   8
BRANCH   5  10
ATOM     10  C   UNL     1      40.502  17.141 114.966  1.00  0.00    -0.075 C 
ATOM     11  C   UNL     1      41.128  17.095 116.155  1.00  0.00     0.008 C 
ATOM     12  C   UNL     1      39.381  18.125 114.750  1.00  0.00     0.039 C 
ENDBRANCH   5  10
TORSDOF 2
ENDMDL
MODEL 7
REMARK VINA RESULT:    -4.152      1.362      4.191
REMARK INTER + INTRA:          -4.708
REMARK INTER:                  -4.542
REMARK INTRA:                  -0.165
REMARK UNBOUND:                -0.192
REMARK SMILES C=C(C)[C@H]1CC[C@@H](C)C[C@H]1O
REMARK SMILES IDX 8 1 7 2 6 3 5 4 4 5 10 6 9 7 11 8 2 10 1 11 3 12
REMARK H PARENT 11 9
REMARK Flexibility Score: inf
ROOT
ATOM      1  C   UNL     1      42.256  12.322 120.788  1.00  0.00     0.008 C 
ATOM      2  C   UNL     1      42.534  10.865 121.193  1.00  0.00    -0.012 C 
ATOM      3  C   UNL     1      43.945  10.690 121.792  1.00  0.00     0.004 C 
ATOM      4  C   UNL     1      45.046  10.705 120.722  1.00  0.00     0.011 C 
ATOM      5  C   UNL     1      44.773   9.639 119.643  1.00  0.00     0.043 C 
ATOM      6  C   UNL     1      43.395   9.846 118.975  1.00  0.00     0.121 C 
ATOM      7  C   UNL     1      42.276   9.868 120.038  1.00  0.00     0.035 C 
ENDROOT
BRANCH   6   8
ATOM      8  O   UNL     1      43.375  11.030 118.220  1.00  0.00    -0.392 OA
ATOM      9  H   UNL     1      43.738  11.749 118.801  1.00  0.00     0.210 HD
ENDBRANCH   6   8
BRANCH   5  10
ATOM     10  C   UNL     1      45.902   9.548 118.623  1.00  0.00    -0.075 C 
ATOM     11  C   UNL     1      47.052  10.227 118.774  1.00  0.00     0.008 C 
ATOM     12  C   UNL     1      45.727   8.632 117.440  1.00  0.00     0.039 C 
ENDBRANCH   5  10
TORSDOF 2
ENDMDL
MODEL 8
REMARK VINA RESULT:    -4.130     10.445     12.288
REMARK INTER + INTRA:          -4.684
REMARK INTER:                  -4.502
REMARK INTRA:                  -0.182
REMARK UNBOUND:                -0.192
REMARK SMILES C=C(C)[C@H]1CC[C@@H](C)C[C@H]1O
REMARK SMILES IDX 8 1 7 2 6 3 5 4 4 5 10 6 9 7 11 8 2 10 1 11 3 12
REMARK H PARENT 11 9
REMARK Flexibility Score: inf
ROOT
ATOM      1  C   UNL     1      39.687  -0.495 112.048  1.00  0.00     0.008 C 
ATOM      2  C   UNL     1      40.810  -0.740 113.068  1.00  0.00    -0.012 C 
ATOM      3  C   UNL     1      40.730   0.235 114.263  1.00  0.00     0.004 C 
ATOM      4  C   UNL     1      41.225   1.644 113.909  1.00  0.00     0.011 C 
ATOM      5  C   UNL     1      42.657   1.593 113.340  1.00  0.00     0.043 C 
ATOM      6  C   UNL     1      42.740   0.683 112.093  1.00  0.00     0.121 C 
ATOM      7  C   UNL     1      42.215  -0.731 112.419  1.00  0.00     0.035 C 
ENDROOT
BRANCH   6   8
ATOM      8  O   UNL     1      42.024   1.235 111.019  1.00  0.00    -0.392 OA
ATOM      9  H   UNL     1      42.391   2.145 110.864  1.00  0.00     0.210 HD
ENDBRANCH   6   8
BRANCH   5  10
ATOM     10  C   UNL     1      43.224   2.983 113.080  1.00  0.00    -0.075 C 
ATOM     11  C   UNL     1      44.542   3.194 112.917  1.00  0.00     0.008 C 
ATOM     12  C   UNL     1      42.264   4.138 112.961  1.00  0.00     0.039 C 
ENDBRANCH   5  10
TORSDOF 2
ENDMDL
MODEL 9
REMARK VINA RESULT:    -4.097      9.655     10.790
REMARK INTER + INTRA:          -4.648
REMARK INTER:                  -4.459
REMARK INTRA:                  -0.189
REMARK UNBOUND:                -0.192
REMARK SMILES C=C(C)[C@H]1CC[C@@H](C)C[C@H]1O
REMARK SMILES IDX 8 1 7 2 6 3 5 4 4 5 10 6 9 7 11 8 2 10 1 11 3 12
REMARK H PARENT 11 9
REMARK Flexibility Score: inf
ROOT
ATOM      1  C   UNL     1      48.410   3.883 111.934  1.00  0.00     0.008 C 
ATOM      2  C   UNL     1      49.333   4.900 111.243  1.00  0.00    -0.012 C 
ATOM      3  C   UNL     1      50.817   4.671 111.601  1.00  0.00     0.004 C 
ATOM      4  C   UNL     1      51.167   5.165 113.011  1.00  0.00     0.011 C 
ATOM      5  C   UNL     1      50.787   6.649 113.180  1.00  0.00     0.043 C 
ATOM      6  C   UNL     1      49.285   6.885 112.903  1.00  0.00     0.121 C 
ATOM      7  C   UNL     1      48.904   6.364 111.501  1.00  0.00     0.035 C 
ENDROOT
BRANCH   6   8
ATOM      8  O   UNL     1      48.490   6.272 113.885  1.00  0.00    -0.392 OA
ATOM      9  H   UNL     1      47.775   6.919 114.124  1.00  0.00     0.210 HD
ENDBRANCH   6   8
BRANCH   5  10
ATOM     10  C   UNL     1      51.220   7.206 114.531  1.00  0.00    -0.075 C 
ATOM     11  C   UNL     1      51.257   8.527 114.777  1.00  0.00     0.008 C 
ATOM     12  C   UNL     1      51.572   6.233 115.627  1.00  0.00     0.039 C 
ENDBRANCH   5  10
TORSDOF 2
ENDMDL
