MODEL 1
REMARK VINA RESULT:    -3.338      0.000      0.000
REMARK INTER + INTRA:          -4.664
REMARK INTER:                  -4.314
REMARK INTRA:                  -0.350
REMARK UNBOUND:                -0.350
REMARK SMILES C=CC(=O)CCCCC
REMARK SMILES IDX 6 1 7 2 8 3 9 4 5 5 3 6 4 7 2 8 1 9
REMARK H PARENT
REMARK Flexibility Score: inf
ROOT
ATOM      1  C   UNL     1      28.140 -42.284 -19.809  1.00  0.00     0.008 C 
ENDROOT
BRANCH   1   2
ATOM      2  C   UNL     1      28.934 -42.259 -21.124  1.00  0.00     0.000 C 
BRANCH   2   3
ATOM      3  C   UNL     1      28.603 -43.450 -22.036  1.00  0.00    -0.003 C 
ATOM      4  C   UNL     1      27.818 -43.042 -23.281  1.00  0.00     0.004 C 
ENDBRANCH   2   3
ENDBRANCH   1   2
BRANCH   1   5
ATOM      5  C   UNL     1      29.043 -41.949 -18.618  1.00  0.00     0.080 C 
BRANCH   5   6
ATOM      6  C   UNL     1      29.114 -43.108 -17.667  1.00  0.00     0.155 C 
ATOM      7  O   UNL     1      29.492 -42.909 -16.480  1.00  0.00    -0.295 OA
BRANCH   6   8
ATOM      8  C   UNL     1      28.789 -44.469 -18.135  1.00  0.00     0.039 C 
ATOM      9  C   UNL     1      29.724 -45.339 -18.507  1.00  0.00     0.012 C 
ENDBRANCH   6   8
ENDBRANCH   5   6
ENDBRANCH   1   5
TORSDOF 5
ENDMDL
MODEL 2
REMARK VINA RESULT:    -3.299      2.284      4.508
REMARK INTER + INTRA:          -4.613
REMARK INTER:                  -4.087
REMARK INTRA:                  -0.526
REMARK UNBOUND:                -0.350
REMARK SMILES C=CC(=O)CCCCC
REMARK SMILES IDX 6 1 7 2 8 3 9 4 5 5 3 6 4 7 2 8 1 9
REMARK H PARENT
REMARK Flexibility Score: inf
ROOT
ATOM      1  C   UNL     1      28.983 -45.177 -19.623  1.00  0.00     0.008 C 
ENDROOT
BRANCH   1   2
ATOM      2  C   UNL     1      29.551 -44.815 -18.243  1.00  0.00     0.000 C 
BRANCH   2   3
ATOM      3  C   UNL     1      28.478 -44.266 -17.289  1.00  0.00    -0.003 C 
ATOM      4  C   UNL     1      28.984 -43.101 -16.439  1.00  0.00     0.004 C 
ENDBRANCH   2   3
ENDBRANCH   1   2
BRANCH   1   5
ATOM      5  C   UNL     1      27.976 -44.122 -20.094  1.00  0.00     0.080 C 
BRANCH   5   6
ATOM      6  C   UNL     1      28.594 -43.226 -21.126  1.00  0.00     0.155 C 
ATOM      7  O   UNL     1      28.732 -43.648 -22.307  1.00  0.00    -0.295 OA
BRANCH   6   8
ATOM      8  C   UNL     1      29.076 -41.884 -20.748  1.00  0.00     0.039 C 
ATOM      9  C   UNL     1      28.771 -41.317 -19.583  1.00  0.00     0.012 C 
ENDBRANCH   6   8
ENDBRANCH   5   6
ENDBRANCH   1   5
TORSDOF 5
ENDMDL
MODEL 3
REMARK VINA RESULT:    -3.292      1.784      3.875
REMARK INTER + INTRA:          -4.604
REMARK INTER:                  -4.080
REMARK INTRA:                  -0.524
REMARK UNBOUND:                -0.350
REMARK SMILES C=CC(=O)CCCCC
REMARK SMILES IDX 6 1 7 2 8 3 9 4 5 5 3 6 4 7 2 8 1 9
REMARK H PARENT
REMARK Flexibility Score: inf
ROOT
ATOM      1  C   UNL     1      29.415 -42.671 -18.032  1.00  0.00     0.008 C 
ENDROOT
BRANCH   1   2
ATOM      2  C   UNL     1      28.513 -43.535 -17.137  1.00  0.00     0.000 C 
BRANCH   2   3
ATOM      3  C   UNL     1      28.515 -45.014 -17.552  1.00  0.00    -0.003 C 
ATOM      4  C   UNL     1      29.601 -45.339 -18.577  1.00  0.00     0.004 C 
ENDBRANCH   2   3
ENDBRANCH   1   2
BRANCH   1   5
ATOM      5  C   UNL     1      28.653 -41.452 -18.563  1.00  0.00     0.080 C 
BRANCH   5   6
ATOM      6  C   UNL     1      28.196 -41.688 -19.972  1.00  0.00     0.155 C 
ATOM      7  O   UNL     1      27.051 -41.293 -20.324  1.00  0.00    -0.295 OA
BRANCH   6   8
ATOM      8  C   UNL     1      29.062 -42.416 -20.919  1.00  0.00     0.039 C 
ATOM      9  C   UNL     1      28.600 -43.374 -21.719  1.00  0.00     0.012 C 
ENDBRANCH   6   8
ENDBRANCH   5   6
ENDBRANCH   1   5
TORSDOF 5
ENDMDL
MODEL 4
REMARK VINA RESULT:    -3.210      1.475      2.327
REMARK INTER + INTRA:          -4.498
REMARK INTER:                  -4.137
REMARK INTRA:                  -0.362
REMARK UNBOUND:                -0.350
REMARK SMILES C=CC(=O)CCCCC
REMARK SMILES IDX 6 1 7 2 8 3 9 4 5 5 3 6 4 7 2 8 1 9
REMARK H PARENT
REMARK Flexibility Score: inf
ROOT
ATOM      1  C   UNL     1      27.855 -44.610 -21.039  1.00  0.00     0.008 C 
ENDROOT
BRANCH   1   2
ATOM      2  C   UNL     1      28.692 -43.517 -21.721  1.00  0.00     0.000 C 
BRANCH   2   3
ATOM      3  C   UNL     1      27.837 -42.565 -22.572  1.00  0.00    -0.003 C 
ATOM      4  C   UNL     1      27.702 -43.028 -24.022  1.00  0.00     0.004 C 
ENDBRANCH   2   3
ENDBRANCH   1   2
BRANCH   1   5
ATOM      5  C   UNL     1      27.626 -44.282 -19.561  1.00  0.00     0.080 C 
BRANCH   5   6
ATOM      6  C   UNL     1      28.931 -44.246 -18.820  1.00  0.00     0.155 C 
ATOM      7  O   UNL     1      29.650 -45.281 -18.787  1.00  0.00    -0.295 OA
BRANCH   6   8
ATOM      8  C   UNL     1      29.340 -43.025 -18.100  1.00  0.00     0.039 C 
ATOM      9  C   UNL     1      28.857 -41.821 -18.402  1.00  0.00     0.012 C 
ENDBRANCH   6   8
ENDBRANCH   5   6
ENDBRANCH   1   5
TORSDOF 5
ENDMDL
MODEL 5
REMARK VINA RESULT:    -3.204      1.621      2.215
REMARK INTER + INTRA:          -4.490
REMARK INTER:                  -4.096
REMARK INTRA:                  -0.394
REMARK UNBOUND:                -0.350
REMARK SMILES C=CC(=O)CCCCC
REMARK SMILES IDX 6 1 7 2 8 3 9 4 5 5 3 6 4 7 2 8 1 9
REMARK H PARENT
REMARK Flexibility Score: inf
ROOT
ATOM      1  C   UNL     1      27.881 -41.271 -21.641  1.00  0.00     0.008 C 
ENDROOT
BRANCH   1   2
ATOM      2  C   UNL     1      27.378 -41.589 -23.058  1.00  0.00     0.000 C 
BRANCH   2   3
ATOM      3  C   UNL     1      27.821 -42.979 -23.542  1.00  0.00    -0.003 C 
ATOM      4  C   UNL     1      27.501 -43.221 -25.016  1.00  0.00     0.004 C 
ENDBRANCH   2   3
ENDBRANCH   1   2
BRANCH   1   5
ATOM      5  C   UNL     1      29.005 -42.228 -21.231  1.00  0.00     0.080 C 
BRANCH   5   6
ATOM      6  C   UNL     1      28.826 -42.673 -19.810  1.00  0.00     0.155 C 
ATOM      7  O   UNL     1      29.119 -41.880 -18.874  1.00  0.00    -0.295 OA
BRANCH   6   8
ATOM      8  C   UNL     1      28.357 -44.041 -19.516  1.00  0.00     0.039 C 
ATOM      9  C   UNL     1      28.311 -44.995 -20.443  1.00  0.00     0.012 C 
ENDBRANCH   6   8
ENDBRANCH   5   6
ENDBRANCH   1   5
TORSDOF 5
ENDMDL
MODEL 6
REMARK VINA RESULT:    -3.202     18.084     19.213
REMARK INTER + INTRA:          -4.488
REMARK INTER:                  -4.278
REMARK INTRA:                  -0.210
REMARK UNBOUND:                -0.350
REMARK SMILES C=CC(=O)CCCCC
REMARK SMILES IDX 6 1 7 2 8 3 9 4 5 5 3 6 4 7 2 8 1 9
REMARK H PARENT
REMARK Flexibility Score: inf
ROOT
ATOM      1  C   UNL     1      14.798 -44.998  -6.536  1.00  0.00     0.008 C 
ENDROOT
BRANCH   1   2
ATOM      2  C   UNL     1      16.207 -45.335  -7.048  1.00  0.00     0.000 C 
BRANCH   2   3
ATOM      3  C   UNL     1      16.440 -44.857  -8.489  1.00  0.00    -0.003 C 
ATOM      4  C   UNL     1      17.431 -45.737  -9.250  1.00  0.00     0.004 C 
ENDBRANCH   2   3
ENDBRANCH   1   2
BRANCH   1   5
ATOM      5  C   UNL     1      13.979 -44.285  -7.617  1.00  0.00     0.080 C 
BRANCH   5   6
ATOM      6  C   UNL     1      13.215 -43.136  -7.027  1.00  0.00     0.155 C 
ATOM      7  O   UNL     1      13.544 -42.694  -5.892  1.00  0.00    -0.295 OA
BRANCH   6   8
ATOM      8  C   UNL     1      12.063 -42.564  -7.750  1.00  0.00     0.039 C 
ATOM      9  C   UNL     1      10.937 -43.244  -7.952  1.00  0.00     0.012 C 
ENDBRANCH   6   8
ENDBRANCH   5   6
ENDBRANCH   1   5
TORSDOF 5
ENDMDL
MODEL 7
REMARK VINA RESULT:    -3.148      1.420      2.458
REMARK INTER + INTRA:          -4.418
REMARK INTER:                  -3.878
REMARK INTRA:                  -0.540
REMARK UNBOUND:                -0.350
REMARK SMILES C=CC(=O)CCCCC
REMARK SMILES IDX 6 1 7 2 8 3 9 4 5 5 3 6 4 7 2 8 1 9
REMARK H PARENT
REMARK Flexibility Score: inf
ROOT
ATOM      1  C   UNL     1      27.959 -44.338 -20.352  1.00  0.00     0.008 C 
ENDROOT
BRANCH   1   2
ATOM      2  C   UNL     1      28.613 -43.533 -21.485  1.00  0.00     0.000 C 
BRANCH   2   3
ATOM      3  C   UNL     1      28.989 -42.107 -21.054  1.00  0.00    -0.003 C 
ATOM      4  C   UNL     1      27.790 -41.309 -20.542  1.00  0.00     0.004 C 
ENDBRANCH   2   3
ENDBRANCH   1   2
BRANCH   1   5
ATOM      5  C   UNL     1      29.018 -45.028 -19.487  1.00  0.00     0.080 C 
BRANCH   5   6
ATOM      6  C   UNL     1      28.906 -44.581 -18.059  1.00  0.00     0.155 C 
ATOM      7  O   UNL     1      28.294 -45.310 -17.232  1.00  0.00    -0.295 OA
BRANCH   6   8
ATOM      8  C   UNL     1      29.467 -43.282 -17.644  1.00  0.00     0.039 C 
ATOM      9  C   UNL     1      28.732 -42.342 -17.054  1.00  0.00     0.012 C 
ENDBRANCH   6   8
ENDBRANCH   5   6
ENDBRANCH   1   5
TORSDOF 5
ENDMDL
MODEL 8
REMARK VINA RESULT:    -3.107      2.030      4.214
REMARK INTER + INTRA:          -4.365
REMARK INTER:                  -3.781
REMARK INTRA:                  -0.584
REMARK UNBOUND:                -0.350
REMARK SMILES C=CC(=O)CCCCC
REMARK SMILES IDX 6 1 7 2 8 3 9 4 5 5 3 6 4 7 2 8 1 9
REMARK H PARENT
REMARK Flexibility Score: inf
ROOT
ATOM      1  C   UNL     1      28.762 -44.810 -18.041  1.00  0.00     0.008 C 
ENDROOT
BRANCH   1   2
ATOM      2  C   UNL     1      29.443 -43.493 -17.640  1.00  0.00     0.000 C 
BRANCH   2   3
ATOM      3  C   UNL     1      28.522 -42.580 -16.816  1.00  0.00    -0.003 C 
ATOM      4  C   UNL     1      27.364 -42.012 -17.637  1.00  0.00     0.004 C 
ENDBRANCH   2   3
ENDBRANCH   1   2
BRANCH   1   5
ATOM      5  C   UNL     1      29.035 -45.143 -19.511  1.00  0.00     0.080 C 
BRANCH   5   6
ATOM      6  C   UNL     1      28.082 -44.406 -20.405  1.00  0.00     0.155 C 
ATOM      7  O   UNL     1      26.847 -44.653 -20.327  1.00  0.00    -0.295 OA
BRANCH   6   8
ATOM      8  C   UNL     1      28.593 -43.438 -21.393  1.00  0.00     0.039 C 
ATOM      9  C   UNL     1      28.941 -42.196 -21.065  1.00  0.00     0.012 C 
ENDBRANCH   6   8
ENDBRANCH   5   6
ENDBRANCH   1   5
TORSDOF 5
ENDMDL
MODEL 9
REMARK VINA RESULT:    -3.073      2.023      3.136
REMARK INTER + INTRA:          -4.321
REMARK INTER:                  -3.732
REMARK INTRA:                  -0.589
REMARK UNBOUND:                -0.350
REMARK SMILES C=CC(=O)CCCCC
REMARK SMILES IDX 6 1 7 2 8 3 9 4 5 5 3 6 4 7 2 8 1 9
REMARK H PARENT
REMARK Flexibility Score: inf
ROOT
ATOM      1  C   UNL     1      28.106 -42.253 -21.298  1.00  0.00     0.008 C 
ENDROOT
BRANCH   1   2
ATOM      2  C   UNL     1      29.032 -41.573 -20.278  1.00  0.00     0.000 C 
BRANCH   2   3
ATOM      3  C   UNL     1      28.315 -41.245 -18.959  1.00  0.00    -0.003 C 
ATOM      4  C   UNL     1      26.798 -41.151 -19.118  1.00  0.00     0.004 C 
ENDBRANCH   2   3
ENDBRANCH   1   2
BRANCH   1   5
ATOM      5  C   UNL     1      28.499 -43.719 -21.501  1.00  0.00     0.080 C 
BRANCH   5   6
ATOM      6  C   UNL     1      28.012 -44.559 -20.357  1.00  0.00     0.155 C 
ATOM      7  O   UNL     1      26.775 -44.610 -20.112  1.00  0.00    -0.295 OA
BRANCH   6   8
ATOM      8  C   UNL     1      28.977 -45.277 -19.502  1.00  0.00     0.039 C 
ATOM      9  C   UNL     1      29.356 -44.819 -18.312  1.00  0.00     0.012 C 
ENDBRANCH   6   8
ENDBRANCH   5   6
ENDBRANCH   1   5
TORSDOF 5
ENDMDL
