MODEL 1
REMARK VINA RESULT:    -6.317      0.000      0.000
REMARK INTER + INTRA:          -7.854
REMARK INTER:                  -7.610
REMARK INTRA:                  -0.245
REMARK UNBOUND:                -0.245
REMARK SMILES O=c1c(O)c(-c2ccc(O)c(O)c2)oc2cc(O)cc(O)c12
REMARK SMILES IDX 5 1 3 2 2 3 1 4 22 5 20 6 19 7 17 8 16 9 15 10 14 11 6 12
REMARK SMILES IDX 7 13 8 14 9 15 13 16 11 17 10 18 12 20 4 22 21 24 18 26
REMARK H PARENT 10 19 12 21 4 23 21 25 18 27
REMARK Flexibility Score: inf
ROOT
ATOM      1  C   UNL     1      14.786  18.031  14.088  1.00  0.00     0.180 A 
ATOM      2  C   UNL     1      14.927  16.800  13.421  1.00  0.00     0.208 A 
ATOM      3  C   UNL     1      14.187  15.696  13.873  1.00  0.00     0.238 A 
ATOM      4  O   UNL     1      14.297  14.590  13.276  1.00  0.00    -0.285 OA
ATOM      5  C   UNL     1      13.338  15.836  14.989  1.00  0.00     0.111 A 
ATOM      6  C   UNL     1      12.561  14.771  15.509  1.00  0.00     0.134 A 
ATOM      7  C   UNL     1      11.747  14.988  16.632  1.00  0.00     0.093 A 
ATOM      8  C   UNL     1      11.697  16.246  17.242  1.00  0.00     0.123 A 
ATOM      9  C   UNL     1      12.460  17.298  16.733  1.00  0.00     0.094 A 
ATOM     10  C   UNL     1      13.276  17.102  15.614  1.00  0.00     0.146 A 
ATOM     11  O   UNL     1      13.988  18.122  15.147  1.00  0.00    -0.452 OA
ENDROOT
BRANCH   1  12
ATOM     12  C   UNL     1      15.518  19.246  13.660  1.00  0.00     0.025 A 
ATOM     13  C   UNL     1      16.516  19.779  14.492  1.00  0.00     0.016 A 
ATOM     14  C   UNL     1      17.205  20.936  14.119  1.00  0.00     0.051 A 
ATOM     15  C   UNL     1      16.895  21.584  12.916  1.00  0.00     0.157 A 
ATOM     16  C   UNL     1      15.196  19.913  12.464  1.00  0.00     0.062 A 
ATOM     17  C   UNL     1      15.887  21.074  12.090  1.00  0.00     0.158 A 
BRANCH  15  18
ATOM     18  O   UNL     1      17.581  22.737  12.539  1.00  0.00    -0.504 OA
ATOM     19  H   UNL     1      18.480  22.691  12.072  1.00  0.00     0.293 HD
ENDBRANCH  15  18
BRANCH  17  20
ATOM     20  O   UNL     1      15.572  21.730  10.901  1.00  0.00    -0.504 OA
ATOM     21  H   UNL     1      14.757  22.329  10.826  1.00  0.00     0.293 HD
ENDBRANCH  17  20
ENDBRANCH   1  12
BRANCH   2  22
ATOM     22  O   UNL     1      15.813  16.675  12.347  1.00  0.00    -0.502 OA
ATOM     23  H   UNL     1      16.419  17.432  12.054  1.00  0.00     0.293 HD
ENDBRANCH   2  22
BRANCH   6  24
ATOM     24  O   UNL     1      12.593  13.506  14.922  1.00  0.00    -0.507 OA
ATOM     25  H   UNL     1      11.743  12.997  14.707  1.00  0.00     0.293 HD
ENDBRANCH   6  24
BRANCH   8  26
ATOM     26  O   UNL     1      10.888  16.462  18.357  1.00  0.00    -0.508 OA
ATOM     27  H   UNL     1      10.964  15.884  19.186  1.00  0.00     0.293 HD
ENDBRANCH   8  26
TORSDOF 6
ENDMDL
MODEL 2
REMARK VINA RESULT:    -6.051      3.754      5.745
REMARK INTER + INTRA:          -7.534
REMARK INTER:                  -7.439
REMARK INTRA:                  -0.095
REMARK UNBOUND:                -0.245
REMARK SMILES O=c1c(O)c(-c2ccc(O)c(O)c2)oc2cc(O)cc(O)c12
REMARK SMILES IDX 5 1 3 2 2 3 1 4 22 5 20 6 19 7 17 8 16 9 15 10 14 11 6 12
REMARK SMILES IDX 7 13 8 14 9 15 13 16 11 17 10 18 12 20 4 22 21 24 18 26
REMARK H PARENT 10 19 12 21 4 23 21 25 18 27
REMARK Flexibility Score: inf
ROOT
ATOM      1  C   UNL     1      16.716  14.946  13.145  1.00  0.00     0.180 A 
ATOM      2  C   UNL     1      16.381  16.196  12.590  1.00  0.00     0.208 A 
ATOM      3  C   UNL     1      15.172  16.802  12.967  1.00  0.00     0.238 A 
ATOM      4  O   UNL     1      14.867  17.927  12.484  1.00  0.00    -0.285 OA
ATOM      5  C   UNL     1      14.315  16.145  13.872  1.00  0.00     0.111 A 
ATOM      6  C   UNL     1      13.078  16.687  14.300  1.00  0.00     0.134 A 
ATOM      7  C   UNL     1      12.276  15.966  15.197  1.00  0.00     0.093 A 
ATOM      8  C   UNL     1      12.686  14.715  15.672  1.00  0.00     0.123 A 
ATOM      9  C   UNL     1      13.904  14.178  15.254  1.00  0.00     0.094 A 
ATOM     10  C   UNL     1      14.719  14.882  14.362  1.00  0.00     0.146 A 
ATOM     11  O   UNL     1      15.875  14.349  13.984  1.00  0.00    -0.452 OA
ENDROOT
BRANCH   1  12
ATOM     12  C   UNL     1      17.980  14.251  12.812  1.00  0.00     0.025 A 
ATOM     13  C   UNL     1      19.206  14.890  13.063  1.00  0.00     0.016 A 
ATOM     14  C   UNL     1      20.411  14.262  12.737  1.00  0.00     0.051 A 
ATOM     15  C   UNL     1      20.407  12.994  12.142  1.00  0.00     0.157 A 
ATOM     16  C   UNL     1      17.982  12.987  12.194  1.00  0.00     0.062 A 
ATOM     17  C   UNL     1      19.191  12.358  11.867  1.00  0.00     0.158 A 
BRANCH  15  18
ATOM     18  O   UNL     1      21.607  12.363  11.817  1.00  0.00    -0.504 OA
ATOM     19  H   UNL     1      21.728  11.873  10.939  1.00  0.00     0.293 HD
ENDBRANCH  15  18
BRANCH  17  20
ATOM     20  O   UNL     1      19.191  11.102  11.261  1.00  0.00    -0.504 OA
ATOM     21  H   UNL     1      18.465  10.827  10.609  1.00  0.00     0.293 HD
ENDBRANCH  17  20
ENDBRANCH   1  12
BRANCH   2  22
ATOM     22  O   UNL     1      17.225  16.803  11.657  1.00  0.00    -0.502 OA
ATOM     23  H   UNL     1      16.979  17.664  11.184  1.00  0.00     0.293 HD
ENDBRANCH   2  22
BRANCH   6  24
ATOM     24  O   UNL     1      12.643  17.932  13.842  1.00  0.00    -0.507 OA
ATOM     25  H   UNL     1      12.556  18.133  12.852  1.00  0.00     0.293 HD
ENDBRANCH   6  24
BRANCH   8  26
ATOM     26  O   UNL     1      11.889  13.999  16.563  1.00  0.00    -0.508 OA
ATOM     27  H   UNL     1      11.221  14.463  17.168  1.00  0.00     0.293 HD
ENDBRANCH   8  26
TORSDOF 6
ENDMDL
MODEL 3
REMARK VINA RESULT:    -5.871      1.476      1.546
REMARK INTER + INTRA:          -7.317
REMARK INTER:                  -7.016
REMARK INTRA:                  -0.301
REMARK UNBOUND:                -0.245
REMARK SMILES O=c1c(O)c(-c2ccc(O)c(O)c2)oc2cc(O)cc(O)c12
REMARK SMILES IDX 5 1 3 2 2 3 1 4 22 5 20 6 19 7 17 8 16 9 15 10 14 11 6 12
REMARK SMILES IDX 7 13 8 14 9 15 13 16 11 17 10 18 12 20 4 22 21 24 18 26
REMARK H PARENT 10 19 12 21 4 23 21 25 18 27
REMARK Flexibility Score: inf
ROOT
ATOM      1  C   UNL     1      15.704  17.707  14.327  1.00  0.00     0.180 A 
ATOM      2  C   UNL     1      16.583  16.610  14.247  1.00  0.00     0.208 A 
ATOM      3  C   UNL     1      16.147  15.358  14.710  1.00  0.00     0.238 A 
ATOM      4  O   UNL     1      16.922  14.365  14.634  1.00  0.00    -0.285 OA
ATOM      5  C   UNL     1      14.856  15.229  15.259  1.00  0.00     0.111 A 
ATOM      6  C   UNL     1      14.342  14.004  15.751  1.00  0.00     0.134 A 
ATOM      7  C   UNL     1      13.049  13.959  16.293  1.00  0.00     0.093 A 
ATOM      8  C   UNL     1      12.261  15.114  16.352  1.00  0.00     0.123 A 
ATOM      9  C   UNL     1      12.762  16.323  15.868  1.00  0.00     0.094 A 
ATOM     10  C   UNL     1      14.049  16.388  15.323  1.00  0.00     0.146 A 
ATOM     11  O   UNL     1      14.499  17.551  14.865  1.00  0.00    -0.452 OA
ENDROOT
BRANCH   1  12
ATOM     12  C   UNL     1      16.083  19.054  13.843  1.00  0.00     0.025 A 
ATOM     13  C   UNL     1      16.836  19.900  14.673  1.00  0.00     0.016 A 
ATOM     14  C   UNL     1      17.187  21.183  14.246  1.00  0.00     0.051 A 
ATOM     15  C   UNL     1      16.777  21.645  12.988  1.00  0.00     0.157 A 
ATOM     16  C   UNL     1      15.656  19.530  12.589  1.00  0.00     0.062 A 
ATOM     17  C   UNL     1      16.007  20.818  12.161  1.00  0.00     0.158 A 
BRANCH  15  18
ATOM     18  O   UNL     1      17.126  22.923  12.557  1.00  0.00    -0.504 OA
ATOM     19  H   UNL     1      17.724  23.066  11.751  1.00  0.00     0.293 HD
ENDBRANCH  15  18
BRANCH  17  20
ATOM     20  O   UNL     1      15.588  21.286  10.916  1.00  0.00    -0.504 OA
ATOM     21  H   UNL     1      16.177  21.206  10.095  1.00  0.00     0.293 HD
ENDBRANCH  17  20
ENDBRANCH   1  12
BRANCH   2  22
ATOM     22  O   UNL     1      17.876  16.775  13.744  1.00  0.00    -0.502 OA
ATOM     23  H   UNL     1      18.511  17.478  14.103  1.00  0.00     0.293 HD
ENDBRANCH   2  22
BRANCH   6  24
ATOM     24  O   UNL     1      15.105  12.836  15.707  1.00  0.00    -0.507 OA
ATOM     25  H   UNL     1      16.040  12.826  15.315  1.00  0.00     0.293 HD
ENDBRANCH   6  24
BRANCH   8  26
ATOM     26  O   UNL     1      10.976  15.070  16.890  1.00  0.00    -0.508 OA
ATOM     27  H   UNL     1      10.475  14.195  16.992  1.00  0.00     0.293 HD
ENDBRANCH   8  26
TORSDOF 6
ENDMDL
MODEL 4
REMARK VINA RESULT:    -5.728      4.192      6.331
REMARK INTER + INTRA:          -7.144
REMARK INTER:                  -7.000
REMARK INTRA:                  -0.144
REMARK UNBOUND:                -0.245
REMARK SMILES O=c1c(O)c(-c2ccc(O)c(O)c2)oc2cc(O)cc(O)c12
REMARK SMILES IDX 5 1 3 2 2 3 1 4 22 5 20 6 19 7 17 8 16 9 15 10 14 11 6 12
REMARK SMILES IDX 7 13 8 14 9 15 13 16 11 17 10 18 12 20 4 22 21 24 18 26
REMARK H PARENT 10 19 12 21 4 23 21 25 18 27
REMARK Flexibility Score: inf
ROOT
ATOM      1  C   UNL     1      17.167  14.599  13.253  1.00  0.00     0.180 A 
ATOM      2  C   UNL     1      16.538  14.053  14.388  1.00  0.00     0.208 A 
ATOM      3  C   UNL     1      15.388  14.681  14.893  1.00  0.00     0.238 A 
ATOM      4  O   UNL     1      14.810  14.195  15.903  1.00  0.00    -0.285 OA
ATOM      5  C   UNL     1      14.901  15.848  14.270  1.00  0.00     0.111 A 
ATOM      6  C   UNL     1      13.750  16.542  14.719  1.00  0.00     0.134 A 
ATOM      7  C   UNL     1      13.334  17.703  14.051  1.00  0.00     0.093 A 
ATOM      8  C   UNL     1      14.045  18.182  12.945  1.00  0.00     0.123 A 
ATOM      9  C   UNL     1      15.178  17.501  12.499  1.00  0.00     0.094 A 
ATOM     10  C   UNL     1      15.609  16.341  13.150  1.00  0.00     0.146 A 
ATOM     11  O   UNL     1      16.688  15.710  12.701  1.00  0.00    -0.452 OA
ENDROOT
BRANCH   1  12
ATOM     12  C   UNL     1      18.372  13.985  12.650  1.00  0.00     0.025 A 
ATOM     13  C   UNL     1      19.543  14.748  12.517  1.00  0.00     0.016 A 
ATOM     14  C   UNL     1      20.686  14.196  11.932  1.00  0.00     0.051 A 
ATOM     15  C   UNL     1      20.669  12.878  11.458  1.00  0.00     0.157 A 
ATOM     16  C   UNL     1      18.354  12.669  12.153  1.00  0.00     0.062 A 
ATOM     17  C   UNL     1      19.499  12.115  11.565  1.00  0.00     0.158 A 
BRANCH  15  18
ATOM     18  O   UNL     1      21.807  12.322  10.876  1.00  0.00    -0.504 OA
ATOM     19  H   UNL     1      22.175  11.429  11.180  1.00  0.00     0.293 HD
ENDBRANCH  15  18
BRANCH  17  20
ATOM     20  O   UNL     1      19.482  10.809  11.078  1.00  0.00    -0.504 OA
ATOM     21  H   UNL     1      18.611  10.323  10.894  1.00  0.00     0.293 HD
ENDBRANCH  17  20
ENDBRANCH   1  12
BRANCH   2  22
ATOM     22  O   UNL     1      17.070  12.925  15.016  1.00  0.00    -0.502 OA
ATOM     23  H   UNL     1      17.840  12.982  15.672  1.00  0.00     0.293 HD
ENDBRANCH   2  22
BRANCH   6  24
ATOM     24  O   UNL     1      13.023  16.089  15.820  1.00  0.00    -0.507 OA
ATOM     25  H   UNL     1      13.446  15.995  16.736  1.00  0.00     0.293 HD
ENDBRANCH   6  24
BRANCH   8  26
ATOM     26  O   UNL     1      13.631  19.335  12.281  1.00  0.00    -0.508 OA
ATOM     27  H   UNL     1      13.143  20.080  12.766  1.00  0.00     0.293 HD
ENDBRANCH   8  26
TORSDOF 6
ENDMDL
MODEL 5
REMARK VINA RESULT:    -5.696      4.315      6.916
REMARK INTER + INTRA:          -7.106
REMARK INTER:                  -7.120
REMARK INTRA:                   0.014
REMARK UNBOUND:                -0.245
REMARK SMILES O=c1c(O)c(-c2ccc(O)c(O)c2)oc2cc(O)cc(O)c12
REMARK SMILES IDX 5 1 3 2 2 3 1 4 22 5 20 6 19 7 17 8 16 9 15 10 14 11 6 12
REMARK SMILES IDX 7 13 8 14 9 15 13 16 11 17 10 18 12 20 4 22 21 24 18 26
REMARK H PARENT 10 19 12 21 4 23 21 25 18 27
REMARK Flexibility Score: inf
ROOT
ATOM      1  C   UNL     1      17.102  15.996  12.775  1.00  0.00     0.180 A 
ATOM      2  C   UNL     1      18.245  16.817  12.750  1.00  0.00     0.208 A 
ATOM      3  C   UNL     1      19.480  16.248  12.401  1.00  0.00     0.238 A 
ATOM      4  O   UNL     1      20.510  16.976  12.365  1.00  0.00    -0.285 OA
ATOM      5  C   UNL     1      19.554  14.872  12.102  1.00  0.00     0.111 A 
ATOM      6  C   UNL     1      20.760  14.222  11.743  1.00  0.00     0.134 A 
ATOM      7  C   UNL     1      20.754  12.846  11.469  1.00  0.00     0.093 A 
ATOM      8  C   UNL     1      19.566  12.110  11.547  1.00  0.00     0.123 A 
ATOM      9  C   UNL     1      18.375  12.747  11.899  1.00  0.00     0.094 A 
ATOM     10  C   UNL     1      18.361  14.118  12.174  1.00  0.00     0.146 A 
ATOM     11  O   UNL     1      17.212  14.699  12.502  1.00  0.00    -0.452 OA
ENDROOT
BRANCH   1  12
ATOM     12  C   UNL     1      15.761  16.525  13.116  1.00  0.00     0.025 A 
ATOM     13  C   UNL     1      14.939  15.806  13.999  1.00  0.00     0.016 A 
ATOM     14  C   UNL     1      13.662  16.275  14.319  1.00  0.00     0.051 A 
ATOM     15  C   UNL     1      13.184  17.462  13.748  1.00  0.00     0.157 A 
ATOM     16  C   UNL     1      15.267  17.705  12.529  1.00  0.00     0.062 A 
ATOM     17  C   UNL     1      13.986  18.175  12.849  1.00  0.00     0.158 A 
BRANCH  15  18
ATOM     18  O   UNL     1      11.912  17.935  14.066  1.00  0.00    -0.504 OA
ATOM     19  H   UNL     1      11.521  17.822  14.994  1.00  0.00     0.293 HD
ENDBRANCH  15  18
BRANCH  17  20
ATOM     20  O   UNL     1      13.500  19.348  12.272  1.00  0.00    -0.504 OA
ATOM     21  H   UNL     1      13.250  19.391  11.291  1.00  0.00     0.293 HD
ENDBRANCH  17  20
ENDBRANCH   1  12
BRANCH   2  22
ATOM     22  O   UNL     1      18.154  18.166  13.100  1.00  0.00    -0.502 OA
ATOM     23  H   UNL     1      17.283  18.592  13.394  1.00  0.00     0.293 HD
ENDBRANCH   2  22
BRANCH   6  24
ATOM     24  O   UNL     1      21.960  14.930  11.659  1.00  0.00    -0.507 OA
ATOM     25  H   UNL     1      22.645  14.908  12.406  1.00  0.00     0.293 HD
ENDBRANCH   6  24
BRANCH   8  26
ATOM     26  O   UNL     1      19.559  10.743  11.275  1.00  0.00    -0.508 OA
ATOM     27  H   UNL     1      19.457  10.057  12.013  1.00  0.00     0.293 HD
ENDBRANCH   8  26
TORSDOF 6
ENDMDL
MODEL 6
REMARK VINA RESULT:    -5.533      2.382      3.900
REMARK INTER + INTRA:          -6.909
REMARK INTER:                  -6.850
REMARK INTRA:                  -0.059
REMARK UNBOUND:                -0.245
REMARK SMILES O=c1c(O)c(-c2ccc(O)c(O)c2)oc2cc(O)cc(O)c12
REMARK SMILES IDX 5 1 3 2 2 3 1 4 22 5 20 6 19 7 17 8 16 9 15 10 14 11 6 12
REMARK SMILES IDX 7 13 8 14 9 15 13 16 11 17 10 18 12 20 4 22 21 24 18 26
REMARK H PARENT 10 19 12 21 4 23 21 25 18 27
REMARK Flexibility Score: inf
ROOT
ATOM      1  C   UNL     1      14.214  16.512  15.221  1.00  0.00     0.180 A 
ATOM      2  C   UNL     1      13.100  16.603  16.077  1.00  0.00     0.208 A 
ATOM      3  C   UNL     1      12.826  15.537  16.948  1.00  0.00     0.238 A 
ATOM      4  O   UNL     1      11.836  15.611  17.727  1.00  0.00    -0.285 OA
ATOM      5  C   UNL     1      13.654  14.396  16.936  1.00  0.00     0.111 A 
ATOM      6  C   UNL     1      13.444  13.278  17.779  1.00  0.00     0.134 A 
ATOM      7  C   UNL     1      14.308  12.175  17.700  1.00  0.00     0.093 A 
ATOM      8  C   UNL     1      15.375  12.170  16.795  1.00  0.00     0.123 A 
ATOM      9  C   UNL     1      15.586  13.270  15.962  1.00  0.00     0.094 A 
ATOM     10  C   UNL     1      14.737  14.379  16.027  1.00  0.00     0.146 A 
ATOM     11  O   UNL     1      14.964  15.415  15.226  1.00  0.00    -0.452 OA
ENDROOT
BRANCH   1  12
ATOM     12  C   UNL     1      14.579  17.602  14.288  1.00  0.00     0.025 A 
ATOM     13  C   UNL     1      13.649  18.029  13.326  1.00  0.00     0.016 A 
ATOM     14  C   UNL     1      13.979  19.041  12.422  1.00  0.00     0.051 A 
ATOM     15  C   UNL     1      15.250  19.630  12.455  1.00  0.00     0.157 A 
ATOM     16  C   UNL     1      15.861  18.182  14.303  1.00  0.00     0.062 A 
ATOM     17  C   UNL     1      16.193  19.197  13.395  1.00  0.00     0.158 A 
BRANCH  15  18
ATOM     18  O   UNL     1      15.583  20.642  11.556  1.00  0.00    -0.504 OA
ATOM     19  H   UNL     1      14.871  21.168  11.063  1.00  0.00     0.293 HD
ENDBRANCH  15  18
BRANCH  17  20
ATOM     20  O   UNL     1      17.461  19.776  13.415  1.00  0.00    -0.504 OA
ATOM     21  H   UNL     1      18.059  19.713  14.231  1.00  0.00     0.293 HD
ENDBRANCH  17  20
ENDBRANCH   1  12
BRANCH   2  22
ATOM     22  O   UNL     1      12.266  17.723  16.034  1.00  0.00    -0.502 OA
ATOM     23  H   UNL     1      11.389  17.767  16.540  1.00  0.00     0.293 HD
ENDBRANCH   2  22
BRANCH   6  24
ATOM     24  O   UNL     1      12.387  13.254  18.691  1.00  0.00    -0.507 OA
ATOM     25  H   UNL     1      11.925  12.390  18.948  1.00  0.00     0.293 HD
ENDBRANCH   6  24
BRANCH   8  26
ATOM     26  O   UNL     1      16.233  11.075  16.716  1.00  0.00    -0.508 OA
ATOM     27  H   UNL     1      16.947  10.910  17.416  1.00  0.00     0.293 HD
ENDBRANCH   8  26
TORSDOF 6
ENDMDL
MODEL 7
REMARK VINA RESULT:    -5.529      3.558      4.610
REMARK INTER + INTRA:          -6.904
REMARK INTER:                  -6.588
REMARK INTRA:                  -0.317
REMARK UNBOUND:                -0.245
REMARK SMILES O=c1c(O)c(-c2ccc(O)c(O)c2)oc2cc(O)cc(O)c12
REMARK SMILES IDX 5 1 3 2 2 3 1 4 22 5 20 6 19 7 17 8 16 9 15 10 14 11 6 12
REMARK SMILES IDX 7 13 8 14 9 15 13 16 11 17 10 18 12 20 4 22 21 24 18 26
REMARK H PARENT 10 19 12 21 4 23 21 25 18 27
REMARK Flexibility Score: inf
ROOT
ATOM      1  C   UNL     1      16.690  15.749  13.307  1.00  0.00     0.180 A 
ATOM      2  C   UNL     1      17.460  15.148  12.292  1.00  0.00     0.208 A 
ATOM      3  C   UNL     1      17.870  13.815  12.452  1.00  0.00     0.238 A 
ATOM      4  O   UNL     1      18.550  13.263  11.545  1.00  0.00    -0.285 OA
ATOM      5  C   UNL     1      17.522  13.115  13.625  1.00  0.00     0.111 A 
ATOM      6  C   UNL     1      17.899  11.771  13.864  1.00  0.00     0.134 A 
ATOM      7  C   UNL     1      17.522  11.146  15.063  1.00  0.00     0.093 A 
ATOM      8  C   UNL     1      16.778  11.839  16.024  1.00  0.00     0.123 A 
ATOM      9  C   UNL     1      16.404  13.163  15.792  1.00  0.00     0.094 A 
ATOM     10  C   UNL     1      16.768  13.803  14.603  1.00  0.00     0.146 A 
ATOM     11  O   UNL     1      16.395  15.062  14.407  1.00  0.00    -0.452 OA
ENDROOT
BRANCH   1  12
ATOM     12  C   UNL     1      16.204  17.144  13.204  1.00  0.00     0.025 A 
ATOM     13  C   UNL     1      17.036  18.197  13.619  1.00  0.00     0.016 A 
ATOM     14  C   UNL     1      16.591  19.520  13.550  1.00  0.00     0.051 A 
ATOM     15  C   UNL     1      15.302  19.807  13.081  1.00  0.00     0.157 A 
ATOM     16  C   UNL     1      14.904  17.436  12.754  1.00  0.00     0.062 A 
ATOM     17  C   UNL     1      14.457  18.763  12.686  1.00  0.00     0.158 A 
BRANCH  15  18
ATOM     18  O   UNL     1      14.855  21.125  13.009  1.00  0.00    -0.504 OA
ATOM     19  H   UNL     1      15.494  21.907  13.091  1.00  0.00     0.293 HD
ENDBRANCH  15  18
BRANCH  17  20
ATOM     20  O   UNL     1      13.170  19.052  12.233  1.00  0.00    -0.504 OA
ATOM     21  H   UNL     1      12.349  18.691  12.705  1.00  0.00     0.293 HD
ENDBRANCH  17  20
ENDBRANCH   1  12
BRANCH   2  22
ATOM     22  O   UNL     1      17.833  15.880  11.162  1.00  0.00    -0.502 OA
ATOM     23  H   UNL     1      18.487  15.522  10.476  1.00  0.00     0.293 HD
ENDBRANCH   2  22
BRANCH   6  24
ATOM     24  O   UNL     1      18.643  11.055  12.925  1.00  0.00    -0.507 OA
ATOM     25  H   UNL     1      18.297  10.195  12.515  1.00  0.00     0.293 HD
ENDBRANCH   6  24
BRANCH   8  26
ATOM     26  O   UNL     1      16.404  11.218  17.214  1.00  0.00    -0.508 OA
ATOM     27  H   UNL     1      16.182  11.755  18.045  1.00  0.00     0.293 HD
ENDBRANCH   8  26
TORSDOF 6
ENDMDL
MODEL 8
REMARK VINA RESULT:    -5.504      5.480      8.535
REMARK INTER + INTRA:          -6.875
REMARK INTER:                  -6.601
REMARK INTRA:                  -0.273
REMARK UNBOUND:                -0.245
REMARK SMILES O=c1c(O)c(-c2ccc(O)c(O)c2)oc2cc(O)cc(O)c12
REMARK SMILES IDX 5 1 3 2 2 3 1 4 22 5 20 6 19 7 17 8 16 9 15 10 14 11 6 12
REMARK SMILES IDX 7 13 8 14 9 15 13 16 11 17 10 18 12 20 4 22 21 24 18 26
REMARK H PARENT 10 19 12 21 4 23 21 25 18 27
REMARK Flexibility Score: inf
ROOT
ATOM      1  C   UNL     1      16.506  11.924  16.368  1.00  0.00     0.180 A 
ATOM      2  C   UNL     1      17.106  12.734  15.386  1.00  0.00     0.208 A 
ATOM      3  C   UNL     1      16.391  13.834  14.885  1.00  0.00     0.238 A 
ATOM      4  O   UNL     1      16.923  14.573  14.012  1.00  0.00    -0.285 OA
ATOM      5  C   UNL     1      15.089  14.093  15.359  1.00  0.00     0.111 A 
ATOM      6  C   UNL     1      14.301  15.179  14.904  1.00  0.00     0.134 A 
ATOM      7  C   UNL     1      13.009  15.364  15.417  1.00  0.00     0.093 A 
ATOM      8  C   UNL     1      12.491  14.485  16.375  1.00  0.00     0.123 A 
ATOM      9  C   UNL     1      13.264  13.415  16.828  1.00  0.00     0.094 A 
ATOM     10  C   UNL     1      14.555  13.214  16.329  1.00  0.00     0.146 A 
ATOM     11  O   UNL     1      15.270  12.190  16.780  1.00  0.00    -0.452 OA
ENDROOT
BRANCH   1  12
ATOM     12  C   UNL     1      17.202  10.758  16.959  1.00  0.00     0.025 A 
ATOM     13  C   UNL     1      17.276   9.558  16.233  1.00  0.00     0.016 A 
ATOM     14  C   UNL     1      17.910   8.439  16.778  1.00  0.00     0.051 A 
ATOM     15  C   UNL     1      18.464   8.498  18.063  1.00  0.00     0.157 A 
ATOM     16  C   UNL     1      17.742  10.806  18.257  1.00  0.00     0.062 A 
ATOM     17  C   UNL     1      18.377   9.683  18.805  1.00  0.00     0.158 A 
BRANCH  15  18
ATOM     18  O   UNL     1      19.099   7.385  18.610  1.00  0.00    -0.504 OA
ATOM     19  H   UNL     1      19.067   6.479  18.156  1.00  0.00     0.293 HD
ENDBRANCH  15  18
BRANCH  17  20
ATOM     20  O   UNL     1      18.917   9.733  20.089  1.00  0.00    -0.504 OA
ATOM     21  H   UNL     1      19.165  10.614  20.526  1.00  0.00     0.293 HD
ENDBRANCH  17  20
ENDBRANCH   1  12
BRANCH   2  22
ATOM     22  O   UNL     1      18.378  12.427  14.897  1.00  0.00    -0.502 OA
ATOM     23  H   UNL     1      18.626  12.538  13.921  1.00  0.00     0.293 HD
ENDBRANCH   2  22
BRANCH   6  24
ATOM     24  O   UNL     1      14.791  16.070  13.948  1.00  0.00    -0.507 OA
ATOM     25  H   UNL     1      14.940  17.050  14.160  1.00  0.00     0.293 HD
ENDBRANCH   6  24
BRANCH   8  26
ATOM     26  O   UNL     1      11.207  14.669  16.886  1.00  0.00    -0.508 OA
ATOM     27  H   UNL     1      10.397  14.708  16.279  1.00  0.00     0.293 HD
ENDBRANCH   8  26
TORSDOF 6
ENDMDL
MODEL 9
REMARK VINA RESULT:    -5.470      2.875      7.088
REMARK INTER + INTRA:          -6.834
REMARK INTER:                  -6.590
REMARK INTRA:                  -0.244
REMARK UNBOUND:                -0.245
REMARK SMILES O=c1c(O)c(-c2ccc(O)c(O)c2)oc2cc(O)cc(O)c12
REMARK SMILES IDX 5 1 3 2 2 3 1 4 22 5 20 6 19 7 17 8 16 9 15 10 14 11 6 12
REMARK SMILES IDX 7 13 8 14 9 15 13 16 11 17 10 18 12 20 4 22 21 24 18 26
REMARK H PARENT 10 19 12 21 4 23 21 25 18 27
REMARK Flexibility Score: inf
ROOT
ATOM      1  C   UNL     1      11.765  17.031  18.088  1.00  0.00     0.180 A 
ATOM      2  C   UNL     1      11.800  15.624  18.080  1.00  0.00     0.208 A 
ATOM      3  C   UNL     1      12.359  14.967  16.972  1.00  0.00     0.238 A 
ATOM      4  O   UNL     1      12.405  13.706  16.958  1.00  0.00    -0.285 OA
ATOM      5  C   UNL     1      12.853  15.722  15.890  1.00  0.00     0.111 A 
ATOM      6  C   UNL     1      13.429  15.137  14.736  1.00  0.00     0.134 A 
ATOM      7  C   UNL     1      13.889  15.957  13.695  1.00  0.00     0.093 A 
ATOM      8  C   UNL     1      13.785  17.350  13.787  1.00  0.00     0.123 A 
ATOM      9  C   UNL     1      13.219  17.931  14.923  1.00  0.00     0.094 A 
ATOM     10  C   UNL     1      12.756  17.130  15.971  1.00  0.00     0.146 A 
ATOM     11  O   UNL     1      12.226  17.710  17.042  1.00  0.00    -0.452 OA
ENDROOT
BRANCH   1  12
ATOM     12  C   UNL     1      11.208  17.797  19.227  1.00  0.00     0.025 A 
ATOM     13  C   UNL     1      12.082  18.439  20.120  1.00  0.00     0.016 A 
ATOM     14  C   UNL     1      11.580  19.150  21.213  1.00  0.00     0.051 A 
ATOM     15  C   UNL     1      10.199  19.215  21.439  1.00  0.00     0.157 A 
ATOM     16  C   UNL     1       9.823  17.848  19.470  1.00  0.00     0.062 A 
ATOM     17  C   UNL     1       9.320  18.560  20.568  1.00  0.00     0.158 A 
BRANCH  15  18
ATOM     18  O   UNL     1       9.695  19.925  22.527  1.00  0.00    -0.504 OA
ATOM     19  H   UNL     1       9.699  19.535  23.462  1.00  0.00     0.293 HD
ENDBRANCH  15  18
BRANCH  17  20
ATOM     20  O   UNL     1       7.947  18.616  20.804  1.00  0.00    -0.504 OA
ATOM     21  H   UNL     1       7.483  19.488  21.029  1.00  0.00     0.293 HD
ENDBRANCH  17  20
ENDBRANCH   1  12
BRANCH   2  22
ATOM     22  O   UNL     1      11.258  14.898  19.143  1.00  0.00    -0.502 OA
ATOM     23  H   UNL     1      10.720  15.336  19.881  1.00  0.00     0.293 HD
ENDBRANCH   2  22
BRANCH   6  24
ATOM     24  O   UNL     1      13.544  13.751  14.615  1.00  0.00    -0.507 OA
ATOM     25  H   UNL     1      12.821  13.192  14.177  1.00  0.00     0.293 HD
ENDBRANCH   6  24
BRANCH   8  26
ATOM     26  O   UNL     1      14.242  18.165  12.754  1.00  0.00    -0.508 OA
ATOM     27  H   UNL     1      14.486  19.136  12.913  1.00  0.00     0.293 HD
ENDBRANCH   8  26
TORSDOF 6
ENDMDL
