MODEL 1
REMARK VINA RESULT:    -3.537      0.000      0.000
REMARK INTER + INTRA:          -4.171
REMARK INTER:                  -4.157
REMARK INTRA:                  -0.014
REMARK UNBOUND:                -0.014
REMARK SMILES [NH3+][C@H](CO)C(=O)[O-]
REMARK SMILES IDX 3 1 2 2 1 3 5 7 6 8 7 9 4 10
REMARK H PARENT 1 4 1 5 1 6 4 11
REMARK Flexibility Score: inf
ROOT
ATOM      1  C   UNL     1      15.181   2.176   7.250  1.00  0.00     0.227 C 
ENDROOT
BRANCH   1   2
ATOM      2  C   UNL     1      14.667   1.779   8.647  1.00  0.00     0.253 C 
BRANCH   2   3
ATOM      3  N   UNL     1      14.113   2.945   9.344  1.00  0.00    -0.348 N 
ATOM      4  H   UNL     1      13.105   3.081   9.099  1.00  0.00     0.345 HD
ATOM      5  H   UNL     1      14.201   2.814  10.379  1.00  0.00     0.345 HD
ATOM      6  H   UNL     1      14.648   3.804   9.078  1.00  0.00     0.345 HD
ENDBRANCH   2   3
BRANCH   2   7
ATOM      7  C   UNL     1      13.634   0.688   8.543  1.00  0.00     0.102 C 
ATOM      8  O   UNL     1      13.686  -0.156   7.609  1.00  0.00    -0.544 OA
ATOM      9  O   UNL     1      12.623   0.599   9.491  1.00  0.00    -0.544 OA
ENDBRANCH   2   7
ENDBRANCH   1   2
BRANCH   1  10
ATOM     10  O   UNL     1      14.963   3.541   7.009  1.00  0.00    -0.390 OA
ATOM     11  H   UNL     1      15.758   4.022   7.360  1.00  0.00     0.210 HD
ENDBRANCH   1  10
TORSDOF 4
ENDMDL
MODEL 2
REMARK VINA RESULT:    -3.477      1.526      2.202
REMARK INTER + INTRA:          -4.101
REMARK INTER:                  -3.893
REMARK INTRA:                  -0.207
REMARK UNBOUND:                -0.014
REMARK SMILES [NH3+][C@H](CO)C(=O)[O-]
REMARK SMILES IDX 3 1 2 2 1 3 5 7 6 8 7 9 4 10
REMARK H PARENT 1 4 1 5 1 6 4 11
REMARK Flexibility Score: inf
ROOT
ATOM      1  C   UNL     1      14.493   3.381   9.533  1.00  0.00     0.227 C 
ENDROOT
BRANCH   1   2
ATOM      2  C   UNL     1      14.079   1.907   9.363  1.00  0.00     0.253 C 
BRANCH   2   3
ATOM      3  N   UNL     1      12.626   1.758   9.510  1.00  0.00    -0.348 N 
ATOM      4  H   UNL     1      12.213   1.297   8.667  1.00  0.00     0.345 HD
ATOM      5  H   UNL     1      12.412   1.182  10.357  1.00  0.00     0.345 HD
ATOM      6  H   UNL     1      12.186   2.699   9.636  1.00  0.00     0.345 HD
ENDBRANCH   2   3
BRANCH   2   7
ATOM      7  C   UNL     1      14.529   1.377   8.028  1.00  0.00     0.102 C 
ATOM      8  O   UNL     1      14.182   0.228   7.646  1.00  0.00    -0.544 OA
ATOM      9  O   UNL     1      15.323   2.163   7.202  1.00  0.00    -0.544 OA
ENDBRANCH   2   7
ENDBRANCH   1   2
BRANCH   1  10
ATOM     10  O   UNL     1      13.649   4.223   8.795  1.00  0.00    -0.390 OA
ATOM     11  H   UNL     1      14.212   4.974   8.468  1.00  0.00     0.210 HD
ENDBRANCH   1  10
TORSDOF 4
ENDMDL
MODEL 3
REMARK VINA RESULT:    -3.343     19.669     20.606
REMARK INTER + INTRA:          -3.943
REMARK INTER:                  -3.572
REMARK INTRA:                  -0.371
REMARK UNBOUND:                -0.014
REMARK SMILES [NH3+][C@H](CO)C(=O)[O-]
REMARK SMILES IDX 3 1 2 2 1 3 5 7 6 8 7 9 4 10
REMARK H PARENT 1 4 1 5 1 6 4 11
REMARK Flexibility Score: inf
ROOT
ATOM      1  C   UNL     1      25.440  12.210  -3.669  1.00  0.00     0.227 C 
ENDROOT
BRANCH   1   2
ATOM      2  C   UNL     1      24.678  13.020  -4.733  1.00  0.00     0.253 C 
BRANCH   2   3
ATOM      3  N   UNL     1      23.249  12.687  -4.712  1.00  0.00    -0.348 N 
ATOM      4  H   UNL     1      22.673  13.499  -5.033  1.00  0.00     0.345 HD
ATOM      5  H   UNL     1      23.066  11.867  -5.336  1.00  0.00     0.345 HD
ATOM      6  H   UNL     1      22.961  12.427  -3.740  1.00  0.00     0.345 HD
ENDBRANCH   2   3
BRANCH   2   7
ATOM      7  C   UNL     1      24.876  14.498  -4.521  1.00  0.00     0.102 C 
ATOM      8  O   UNL     1      24.061  15.159  -3.825  1.00  0.00    -0.544 OA
ATOM      9  O   UNL     1      25.974  15.138  -5.084  1.00  0.00    -0.544 OA
ENDBRANCH   2   7
ENDBRANCH   1   2
BRANCH   1  10
ATOM     10  O   UNL     1      25.894  13.045  -2.637  1.00  0.00    -0.390 OA
ATOM     11  H   UNL     1      26.821  13.311  -2.874  1.00  0.00     0.210 HD
ENDBRANCH   1  10
TORSDOF 4
ENDMDL
MODEL 4
REMARK VINA RESULT:    -3.339      2.052      3.103
REMARK INTER + INTRA:          -3.938
REMARK INTER:                  -3.719
REMARK INTRA:                  -0.219
REMARK UNBOUND:                -0.014
REMARK SMILES [NH3+][C@H](CO)C(=O)[O-]
REMARK SMILES IDX 3 1 2 2 1 3 5 7 6 8 7 9 4 10
REMARK H PARENT 1 4 1 5 1 6 4 11
REMARK Flexibility Score: inf
ROOT
ATOM      1  C   UNL     1      13.784   1.966   9.324  1.00  0.00     0.227 C 
ENDROOT
BRANCH   1   2
ATOM      2  C   UNL     1      14.741   1.261   8.344  1.00  0.00     0.253 C 
BRANCH   2   3
ATOM      3  N   UNL     1      14.224  -0.063   7.979  1.00  0.00    -0.348 N 
ATOM      4  H   UNL     1      14.989  -0.776   7.989  1.00  0.00     0.345 HD
ATOM      5  H   UNL     1      13.477  -0.351   8.653  1.00  0.00     0.345 HD
ATOM      6  H   UNL     1      13.803  -0.026   7.022  1.00  0.00     0.345 HD
ENDBRANCH   2   3
BRANCH   2   7
ATOM      7  C   UNL     1      14.955   2.100   7.113  1.00  0.00     0.102 C 
ATOM      8  O   UNL     1      15.235   3.324   7.214  1.00  0.00    -0.544 OA
ATOM      9  O   UNL     1      14.858   1.521   5.854  1.00  0.00    -0.544 OA
ENDBRANCH   2   7
ENDBRANCH   1   2
BRANCH   1  10
ATOM     10  O   UNL     1      14.476   2.897  10.112  1.00  0.00    -0.390 OA
ATOM     11  H   UNL     1      15.078   2.376  10.706  1.00  0.00     0.210 HD
ENDBRANCH   1  10
TORSDOF 4
ENDMDL
MODEL 5
REMARK VINA RESULT:    -3.280     20.190     20.549
REMARK INTER + INTRA:          -3.870
REMARK INTER:                  -3.624
REMARK INTRA:                  -0.246
REMARK UNBOUND:                -0.014
REMARK SMILES [NH3+][C@H](CO)C(=O)[O-]
REMARK SMILES IDX 3 1 2 2 1 3 5 7 6 8 7 9 4 10
REMARK H PARENT 1 4 1 5 1 6 4 11
REMARK Flexibility Score: inf
ROOT
ATOM      1  C   UNL     1      25.720  14.612  -2.744  1.00  0.00     0.227 C 
ENDROOT
BRANCH   1   2
ATOM      2  C   UNL     1      24.654  14.672  -3.854  1.00  0.00     0.253 C 
BRANCH   2   3
ATOM      3  N   UNL     1      24.955  15.750  -4.803  1.00  0.00    -0.348 N 
ATOM      4  H   UNL     1      25.858  16.219  -4.559  1.00  0.00     0.345 HD
ATOM      5  H   UNL     1      25.020  15.362  -5.772  1.00  0.00     0.345 HD
ATOM      6  H   UNL     1      24.186  16.460  -4.787  1.00  0.00     0.345 HD
ENDBRANCH   2   3
BRANCH   2   7
ATOM      7  C   UNL     1      24.557  13.352  -4.571  1.00  0.00     0.102 C 
ATOM      8  O   UNL     1      25.582  12.820  -5.074  1.00  0.00    -0.544 OA
ATOM      9  O   UNL     1      23.332  12.704  -4.668  1.00  0.00    -0.544 OA
ENDBRANCH   2   7
ENDBRANCH   1   2
BRANCH   1  10
ATOM     10  O   UNL     1      25.924  13.291  -2.320  1.00  0.00    -0.390 OA
ATOM     11  H   UNL     1      26.732  12.962  -2.793  1.00  0.00     0.210 HD
ENDBRANCH   1  10
TORSDOF 4
ENDMDL
MODEL 6
REMARK VINA RESULT:    -3.258     19.967     20.535
REMARK INTER + INTRA:          -3.844
REMARK INTER:                  -3.700
REMARK INTRA:                  -0.144
REMARK UNBOUND:                -0.014
REMARK SMILES [NH3+][C@H](CO)C(=O)[O-]
REMARK SMILES IDX 3 1 2 2 1 3 5 7 6 8 7 9 4 10
REMARK H PARENT 1 4 1 5 1 6 4 11
REMARK Flexibility Score: inf
ROOT
ATOM      1  C   UNL     1      26.846  14.443  -3.494  1.00  0.00     0.227 C 
ENDROOT
BRANCH   1   2
ATOM      2  C   UNL     1      25.886  13.303  -3.884  1.00  0.00     0.253 C 
BRANCH   2   3
ATOM      3  N   UNL     1      25.752  12.342  -2.784  1.00  0.00    -0.348 N 
ATOM      4  H   UNL     1      25.041  12.668  -2.089  1.00  0.00     0.345 HD
ATOM      5  H   UNL     1      25.463  11.410  -3.160  1.00  0.00     0.345 HD
ATOM      6  H   UNL     1      26.674  12.226  -2.301  1.00  0.00     0.345 HD
ENDBRANCH   2   3
BRANCH   2   7
ATOM      7  C   UNL     1      24.538  13.851  -4.271  1.00  0.00     0.102 C 
ATOM      8  O   UNL     1      24.307  15.088  -4.206  1.00  0.00    -0.544 OA
ATOM      9  O   UNL     1      23.542  12.991  -4.717  1.00  0.00    -0.544 OA
ENDBRANCH   2   7
ENDBRANCH   1   2
BRANCH   1  10
ATOM     10  O   UNL     1      26.767  14.713  -2.120  1.00  0.00    -0.390 OA
ATOM     11  H   UNL     1      25.855  14.447  -1.830  1.00  0.00     0.210 HD
ENDBRANCH   1  10
TORSDOF 4
ENDMDL
MODEL 7
REMARK VINA RESULT:    -3.235     20.020     20.772
REMARK INTER + INTRA:          -3.816
REMARK INTER:                  -3.442
REMARK INTRA:                  -0.374
REMARK UNBOUND:                -0.014
REMARK SMILES [NH3+][C@H](CO)C(=O)[O-]
REMARK SMILES IDX 3 1 2 2 1 3 5 7 6 8 7 9 4 10
REMARK H PARENT 1 4 1 5 1 6 4 11
REMARK Flexibility Score: inf
ROOT
ATOM      1  C   UNL     1      25.714  13.026  -3.835  1.00  0.00     0.227 C 
ENDROOT
BRANCH   1   2
ATOM      2  C   UNL     1      25.718  14.566  -3.818  1.00  0.00     0.253 C 
BRANCH   2   3
ATOM      3  N   UNL     1      24.400  15.091  -4.190  1.00  0.00    -0.348 N 
ATOM      4  H   UNL     1      24.182  15.963  -3.654  1.00  0.00     0.345 HD
ATOM      5  H   UNL     1      24.379  15.302  -5.215  1.00  0.00     0.345 HD
ATOM      6  H   UNL     1      23.665  14.374  -3.990  1.00  0.00     0.345 HD
ENDBRANCH   2   3
BRANCH   2   7
ATOM      7  C   UNL     1      26.127  15.082  -2.463  1.00  0.00     0.102 C 
ATOM      8  O   UNL     1      27.345  15.187  -2.159  1.00  0.00    -0.544 OA
ATOM      9  O   UNL     1      25.156  15.459  -1.544  1.00  0.00    -0.544 OA
ENDBRANCH   2   7
ENDBRANCH   1   2
BRANCH   1  10
ATOM     10  O   UNL     1      25.836  12.513  -2.535  1.00  0.00    -0.390 OA
ATOM     11  H   UNL     1      24.912  12.389  -2.192  1.00  0.00     0.210 HD
ENDBRANCH   1  10
TORSDOF 4
ENDMDL
MODEL 8
REMARK VINA RESULT:    -3.203     20.456     20.917
REMARK INTER + INTRA:          -3.779
REMARK INTER:                  -3.403
REMARK INTRA:                  -0.376
REMARK UNBOUND:                -0.014
REMARK SMILES [NH3+][C@H](CO)C(=O)[O-]
REMARK SMILES IDX 3 1 2 2 1 3 5 7 6 8 7 9 4 10
REMARK H PARENT 1 4 1 5 1 6 4 11
REMARK Flexibility Score: inf
ROOT
ATOM      1  C   UNL     1      24.732  16.372  -1.525  1.00  0.00     0.227 C 
ENDROOT
BRANCH   1   2
ATOM      2  C   UNL     1      25.547  15.514  -2.511  1.00  0.00     0.253 C 
BRANCH   2   3
ATOM      3  N   UNL     1      25.877  14.214  -1.916  1.00  0.00    -0.348 N 
ATOM      4  H   UNL     1      26.088  14.315  -0.896  1.00  0.00     0.345 HD
ATOM      5  H   UNL     1      25.074  13.554  -2.038  1.00  0.00     0.345 HD
ATOM      6  H   UNL     1      26.711  13.806  -2.398  1.00  0.00     0.345 HD
ENDBRANCH   2   3
BRANCH   2   7
ATOM      7  C   UNL     1      24.795  15.327  -3.802  1.00  0.00     0.102 C 
ATOM      8  O   UNL     1      24.200  14.243  -4.044  1.00  0.00    -0.544 OA
ATOM      9  O   UNL     1      24.743  16.360  -4.729  1.00  0.00    -0.544 OA
ENDBRANCH   2   7
ENDBRANCH   1   2
BRANCH   1  10
ATOM     10  O   UNL     1      23.467  16.669  -2.052  1.00  0.00    -0.390 OA
ATOM     11  H   UNL     1      23.236  15.928  -2.671  1.00  0.00     0.210 HD
ENDBRANCH   1  10
TORSDOF 4
ENDMDL
MODEL 9
REMARK VINA RESULT:    -3.175     20.378     20.953
REMARK INTER + INTRA:          -3.745
REMARK INTER:                  -3.512
REMARK INTRA:                  -0.233
REMARK UNBOUND:                -0.014
REMARK SMILES [NH3+][C@H](CO)C(=O)[O-]
REMARK SMILES IDX 3 1 2 2 1 3 5 7 6 8 7 9 4 10
REMARK H PARENT 1 4 1 5 1 6 4 11
REMARK Flexibility Score: inf
ROOT
ATOM      1  C   UNL     1      26.968  13.748  -4.543  1.00  0.00     0.227 C 
ENDROOT
BRANCH   1   2
ATOM      2  C   UNL     1      25.650  13.551  -3.769  1.00  0.00     0.253 C 
BRANCH   2   3
ATOM      3  N   UNL     1      25.764  12.427  -2.832  1.00  0.00    -0.348 N 
ATOM      4  H   UNL     1      26.226  11.607  -3.289  1.00  0.00     0.345 HD
ATOM      5  H   UNL     1      26.324  12.717  -1.997  1.00  0.00     0.345 HD
ATOM      6  H   UNL     1      24.811  12.144  -2.504  1.00  0.00     0.345 HD
ENDBRANCH   2   3
BRANCH   2   7
ATOM      7  C   UNL     1      25.270  14.811  -3.036  1.00  0.00     0.102 C 
ATOM      8  O   UNL     1      25.689  15.022  -1.867  1.00  0.00    -0.544 OA
ATOM      9  O   UNL     1      24.463  15.756  -3.656  1.00  0.00    -0.544 OA
ENDBRANCH   2   7
ENDBRANCH   1   2
BRANCH   1  10
ATOM     10  O   UNL     1      27.979  14.220  -3.692  1.00  0.00    -0.390 OA
ATOM     11  H   UNL     1      27.975  13.631  -2.893  1.00  0.00     0.210 HD
ENDBRANCH   1  10
TORSDOF 4
ENDMDL
