MODEL 1
REMARK VINA RESULT:    -2.197      0.000      0.000
REMARK INTER + INTRA:          -6.008
REMARK INTER:                  -5.022
REMARK INTRA:                  -0.986
REMARK UNBOUND:                -0.986
REMARK SMILES CCCCCCCCCCCCCCCCCCCCCCCC(=O)[O-]
REMARK SMILES IDX 13 1 14 2 15 3 16 4 17 5 18 6 19 7 20 8 21 9 22 10 23 11
REMARK SMILES IDX 24 12 25 13 26 14 12 15 11 16 10 17 9 18 8 19 7 20 6 21 5 22
REMARK SMILES IDX 4 23 3 24 2 25 1 26
REMARK H PARENT
REMARK Flexibility Score: inf
ROOT
ATOM      1  C   UNL     1      56.265   1.651  24.080  1.00  0.00     0.000 C 
ENDROOT
BRANCH   1   2
ATOM      2  C   UNL     1      54.735   1.789  24.180  1.00  0.00     0.000 C 
BRANCH   2   3
ATOM      3  C   UNL     1      54.191   2.974  23.361  1.00  0.00     0.000 C 
BRANCH   3   4
ATOM      4  C   UNL     1      53.647   2.590  21.972  1.00  0.00     0.000 C 
BRANCH   4   5
ATOM      5  C   UNL     1      52.167   2.975  21.788  1.00  0.00     0.000 C 
BRANCH   5   6
ATOM      6  C   UNL     1      51.757   3.043  20.309  1.00  0.00     0.000 C 
BRANCH   6   7
ATOM      7  C   UNL     1      50.578   2.108  19.982  1.00  0.00     0.000 C 
BRANCH   7   8
ATOM      8  C   UNL     1      51.031   0.670  19.679  1.00  0.00     0.000 C 
BRANCH   8   9
ATOM      9  C   UNL     1      49.875  -0.342  19.768  1.00  0.00     0.000 C 
BRANCH   9  10
ATOM     10  C   UNL     1      50.023  -1.322  20.947  1.00  0.00     0.006 C 
BRANCH  10  11
ATOM     11  C   UNL     1      50.242  -0.637  22.307  1.00  0.00     0.053 C 
BRANCH  11  12
ATOM     12  C   UNL     1      50.278  -1.607  23.447  1.00  0.00     0.041 C 
ATOM     13  O   UNL     1      50.110  -2.839  23.242  1.00  0.00    -0.550 OA
ATOM     14  O   UNL     1      50.479  -1.150  24.744  1.00  0.00    -0.550 OA
ENDBRANCH  11  12
ENDBRANCH  10  11
ENDBRANCH   9  10
ENDBRANCH   8   9
ENDBRANCH   7   8
ENDBRANCH   6   7
ENDBRANCH   5   6
ENDBRANCH   4   5
ENDBRANCH   3   4
ENDBRANCH   2   3
ENDBRANCH   1   2
BRANCH   1  15
ATOM     15  C   UNL     1      56.794   1.943  22.660  1.00  0.00     0.000 C 
BRANCH  15  16
ATOM     16  C   UNL     1      57.327   0.701  21.921  1.00  0.00     0.000 C 
BRANCH  16  17
ATOM     17  C   UNL     1      56.612  -0.620  22.263  1.00  0.00     0.000 C 
BRANCH  17  18
ATOM     18  C   UNL     1      57.009  -1.247  23.616  1.00  0.00    -0.000 C 
BRANCH  18  19
ATOM     19  C   UNL     1      58.478  -1.697  23.720  1.00  0.00    -0.000 C 
BRANCH  19  20
ATOM     20  C   UNL     1      59.114  -1.518  25.112  1.00  0.00    -0.000 C 
BRANCH  20  21
ATOM     21  C   UNL     1      60.522  -0.890  25.113  1.00  0.00    -0.000 C 
BRANCH  21  22
ATOM     22  C   UNL     1      61.689  -1.888  24.975  1.00  0.00    -0.000 C 
BRANCH  22  23
ATOM     23  C   UNL     1      62.987  -1.228  24.481  1.00  0.00    -0.000 C 
BRANCH  23  24
ATOM     24  C   UNL     1      63.057   0.275  24.809  1.00  0.00    -0.000 C 
BRANCH  24  25
ATOM     25  C   UNL     1      64.469   0.886  24.768  1.00  0.00    -0.003 C 
ATOM     26  C   UNL     1      64.460   2.408  24.636  1.00  0.00     0.004 C 
ENDBRANCH  24  25
ENDBRANCH  23  24
ENDBRANCH  22  23
ENDBRANCH  21  22
ENDBRANCH  20  21
ENDBRANCH  19  20
ENDBRANCH  18  19
ENDBRANCH  17  18
ENDBRANCH  16  17
ENDBRANCH  15  16
ENDBRANCH   1  15
TORSDOF 22
ENDMDL
MODEL 2
REMARK VINA RESULT:    -1.786      3.089      4.914
REMARK INTER + INTRA:          -5.070
REMARK INTER:                  -3.673
REMARK INTRA:                  -1.397
REMARK UNBOUND:                -0.986
REMARK SMILES CCCCCCCCCCCCCCCCCCCCCCCC(=O)[O-]
REMARK SMILES IDX 13 1 14 2 15 3 16 4 17 5 18 6 19 7 20 8 21 9 22 10 23 11
REMARK SMILES IDX 24 12 25 13 26 14 12 15 11 16 10 17 9 18 8 19 7 20 6 21 5 22
REMARK SMILES IDX 4 23 3 24 2 25 1 26
REMARK H PARENT
REMARK Flexibility Score: inf
ROOT
ATOM      1  C   UNL     1      54.155   2.364  24.823  1.00  0.00     0.000 C 
ENDROOT
BRANCH   1   2
ATOM      2  C   UNL     1      53.608   1.566  23.627  1.00  0.00     0.000 C 
BRANCH   2   3
ATOM      3  C   UNL     1      52.736   2.422  22.690  1.00  0.00     0.000 C 
BRANCH   3   4
ATOM      4  C   UNL     1      51.285   2.613  23.170  1.00  0.00     0.000 C 
BRANCH   4   5
ATOM      5  C   UNL     1      50.875   1.585  24.240  1.00  0.00     0.000 C 
BRANCH   5   6
ATOM      6  C   UNL     1      49.986   0.468  23.672  1.00  0.00     0.000 C 
BRANCH   6   7
ATOM      7  C   UNL     1      50.647  -0.918  23.774  1.00  0.00     0.000 C 
BRANCH   7   8
ATOM      8  C   UNL     1      51.497  -1.260  22.539  1.00  0.00     0.000 C 
BRANCH   8   9
ATOM      9  C   UNL     1      50.638  -1.645  21.321  1.00  0.00     0.000 C 
BRANCH   9  10
ATOM     10  C   UNL     1      49.876  -0.448  20.721  1.00  0.00     0.006 C 
BRANCH  10  11
ATOM     11  C   UNL     1      50.491   0.098  19.420  1.00  0.00     0.053 C 
BRANCH  11  12
ATOM     12  C   UNL     1      50.261   1.567  19.241  1.00  0.00     0.041 C 
ATOM     13  O   UNL     1      50.332   2.348  20.227  1.00  0.00    -0.550 OA
ATOM     14  O   UNL     1      49.949   2.074  17.986  1.00  0.00    -0.550 OA
ENDBRANCH  11  12
ENDBRANCH  10  11
ENDBRANCH   9  10
ENDBRANCH   8   9
ENDBRANCH   7   8
ENDBRANCH   6   7
ENDBRANCH   5   6
ENDBRANCH   4   5
ENDBRANCH   3   4
ENDBRANCH   2   3
ENDBRANCH   1   2
BRANCH   1  15
ATOM     15  C   UNL     1      55.592   2.877  24.587  1.00  0.00     0.000 C 
BRANCH  15  16
ATOM     16  C   UNL     1      56.572   1.794  24.098  1.00  0.00     0.000 C 
BRANCH  16  17
ATOM     17  C   UNL     1      56.896   0.693  25.125  1.00  0.00     0.000 C 
BRANCH  17  18
ATOM     18  C   UNL     1      56.994  -0.734  24.546  1.00  0.00    -0.000 C 
BRANCH  18  19
ATOM     19  C   UNL     1      58.412  -1.336  24.531  1.00  0.00    -0.000 C 
BRANCH  19  20
ATOM     20  C   UNL     1      58.628  -2.461  23.500  1.00  0.00    -0.000 C 
BRANCH  20  21
ATOM     21  C   UNL     1      58.250  -2.101  22.049  1.00  0.00    -0.000 C 
BRANCH  21  22
ATOM     22  C   UNL     1      58.644  -0.681  21.599  1.00  0.00    -0.000 C 
BRANCH  22  23
ATOM     23  C   UNL     1      57.539   0.021  20.792  1.00  0.00    -0.000 C 
BRANCH  23  24
ATOM     24  C   UNL     1      56.128  -0.484  21.145  1.00  0.00    -0.000 C 
BRANCH  24  25
ATOM     25  C   UNL     1      55.054   0.612  21.263  1.00  0.00    -0.003 C 
ATOM     26  C   UNL     1      53.792   0.305  20.459  1.00  0.00     0.004 C 
ENDBRANCH  24  25
ENDBRANCH  23  24
ENDBRANCH  22  23
ENDBRANCH  21  22
ENDBRANCH  20  21
ENDBRANCH  19  20
ENDBRANCH  18  19
ENDBRANCH  17  18
ENDBRANCH  16  17
ENDBRANCH  15  16
ENDBRANCH   1  15
TORSDOF 22
ENDMDL
MODEL 3
REMARK VINA RESULT:    -1.761      4.313     10.766
REMARK INTER + INTRA:          -5.011
REMARK INTER:                  -3.635
REMARK INTRA:                  -1.375
REMARK UNBOUND:                -0.986
REMARK SMILES CCCCCCCCCCCCCCCCCCCCCCCC(=O)[O-]
REMARK SMILES IDX 13 1 14 2 15 3 16 4 17 5 18 6 19 7 20 8 21 9 22 10 23 11
REMARK SMILES IDX 24 12 25 13 26 14 12 15 11 16 10 17 9 18 8 19 7 20 6 21 5 22
REMARK SMILES IDX 4 23 3 24 2 25 1 26
REMARK H PARENT
REMARK Flexibility Score: inf
ROOT
ATOM      1  C   UNL     1      55.515   1.354  22.332  1.00  0.00     0.000 C 
ENDROOT
BRANCH   1   2
ATOM      2  C   UNL     1      56.555   0.522  23.104  1.00  0.00     0.000 C 
BRANCH   2   3
ATOM      3  C   UNL     1      56.213  -0.979  23.131  1.00  0.00     0.000 C 
BRANCH   3   4
ATOM      4  C   UNL     1      57.054  -1.840  22.170  1.00  0.00     0.000 C 
BRANCH   4   5
ATOM      5  C   UNL     1      58.250  -2.513  22.869  1.00  0.00     0.000 C 
BRANCH   5   6
ATOM      6  C   UNL     1      58.431  -2.032  24.317  1.00  0.00     0.000 C 
BRANCH   6   7
ATOM      7  C   UNL     1      59.869  -2.234  24.829  1.00  0.00     0.000 C 
BRANCH   7   8
ATOM      8  C   UNL     1      60.706  -0.945  24.764  1.00  0.00     0.000 C 
BRANCH   8   9
ATOM      9  C   UNL     1      62.218  -1.227  24.697  1.00  0.00     0.000 C 
BRANCH   9  10
ATOM     10  C   UNL     1      63.032  -0.021  24.194  1.00  0.00     0.006 C 
BRANCH  10  11
ATOM     11  C   UNL     1      64.188   0.386  25.125  1.00  0.00     0.053 C 
BRANCH  11  12
ATOM     12  C   UNL     1      64.656   1.790  24.890  1.00  0.00     0.041 C 
ATOM     13  O   UNL     1      63.851   2.671  24.487  1.00  0.00    -0.550 OA
ATOM     14  O   UNL     1      65.988   2.122  25.099  1.00  0.00    -0.550 OA
ENDBRANCH  11  12
ENDBRANCH  10  11
ENDBRANCH   9  10
ENDBRANCH   8   9
ENDBRANCH   7   8
ENDBRANCH   6   7
ENDBRANCH   5   6
ENDBRANCH   4   5
ENDBRANCH   3   4
ENDBRANCH   2   3
ENDBRANCH   1   2
BRANCH   1  15
ATOM     15  C   UNL     1      54.906   2.485  23.188  1.00  0.00     0.000 C 
BRANCH  15  16
ATOM     16  C   UNL     1      54.155   1.989  24.439  1.00  0.00     0.000 C 
BRANCH  16  17
ATOM     17  C   UNL     1      52.997   1.013  24.162  1.00  0.00     0.000 C 
BRANCH  17  18
ATOM     18  C   UNL     1      51.602   1.665  24.064  1.00  0.00    -0.000 C 
BRANCH  18  19
ATOM     19  C   UNL     1      50.701   1.112  22.942  1.00  0.00    -0.000 C 
BRANCH  19  20
ATOM     20  C   UNL     1      49.898   2.177  22.171  1.00  0.00    -0.000 C 
BRANCH  20  21
ATOM     21  C   UNL     1      50.687   2.931  21.081  1.00  0.00    -0.000 C 
BRANCH  21  22
ATOM     22  C   UNL     1      51.995   2.253  20.627  1.00  0.00    -0.000 C 
BRANCH  22  23
ATOM     23  C   UNL     1      51.784   1.256  19.474  1.00  0.00    -0.000 C 
BRANCH  23  24
ATOM     24  C   UNL     1      51.631  -0.197  19.960  1.00  0.00    -0.000 C 
BRANCH  24  25
ATOM     25  C   UNL     1      50.184  -0.641  20.241  1.00  0.00    -0.003 C 
ATOM     26  C   UNL     1      50.088  -2.068  20.778  1.00  0.00     0.004 C 
ENDBRANCH  24  25
ENDBRANCH  23  24
ENDBRANCH  22  23
ENDBRANCH  21  22
ENDBRANCH  20  21
ENDBRANCH  19  20
ENDBRANCH  18  19
ENDBRANCH  17  18
ENDBRANCH  16  17
ENDBRANCH  15  16
ENDBRANCH   1  15
TORSDOF 22
ENDMDL
MODEL 4
REMARK VINA RESULT:    -1.684      3.132      7.299
REMARK INTER + INTRA:          -4.835
REMARK INTER:                  -3.874
REMARK INTRA:                  -0.961
REMARK UNBOUND:                -0.986
REMARK SMILES CCCCCCCCCCCCCCCCCCCCCCCC(=O)[O-]
REMARK SMILES IDX 13 1 14 2 15 3 16 4 17 5 18 6 19 7 20 8 21 9 22 10 23 11
REMARK SMILES IDX 24 12 25 13 26 14 12 15 11 16 10 17 9 18 8 19 7 20 6 21 5 22
REMARK SMILES IDX 4 23 3 24 2 25 1 26
REMARK H PARENT
REMARK Flexibility Score: inf
ROOT
ATOM      1  C   UNL     1      58.535  -1.563  24.105  1.00  0.00     0.000 C 
ENDROOT
BRANCH   1   2
ATOM      2  C   UNL     1      58.594  -1.779  22.583  1.00  0.00     0.000 C 
BRANCH   2   3
ATOM      3  C   UNL     1      57.198  -1.920  21.948  1.00  0.00     0.000 C 
BRANCH   3   4
ATOM      4  C   UNL     1      56.980  -1.056  20.692  1.00  0.00     0.000 C 
BRANCH   4   5
ATOM      5  C   UNL     1      56.858   0.444  21.019  1.00  0.00     0.000 C 
BRANCH   5   6
ATOM      6  C   UNL     1      55.405   0.876  21.266  1.00  0.00     0.000 C 
BRANCH   6   7
ATOM      7  C   UNL     1      54.645  -0.108  22.174  1.00  0.00     0.000 C 
BRANCH   7   8
ATOM      8  C   UNL     1      53.285  -0.524  21.588  1.00  0.00     0.000 C 
BRANCH   8   9
ATOM      9  C   UNL     1      52.854   0.367  20.410  1.00  0.00     0.000 C 
BRANCH   9  10
ATOM     10  C   UNL     1      51.866  -0.332  19.458  1.00  0.00     0.006 C 
BRANCH  10  11
ATOM     11  C   UNL     1      50.393   0.050  19.692  1.00  0.00     0.053 C 
BRANCH  11  12
ATOM     12  C   UNL     1      50.133   1.510  19.490  1.00  0.00     0.041 C 
ATOM     13  O   UNL     1      49.930   1.968  18.334  1.00  0.00    -0.550 OA
ATOM     14  O   UNL     1      50.132   2.374  20.578  1.00  0.00    -0.550 OA
ENDBRANCH  11  12
ENDBRANCH  10  11
ENDBRANCH   9  10
ENDBRANCH   8   9
ENDBRANCH   7   8
ENDBRANCH   6   7
ENDBRANCH   5   6
ENDBRANCH   4   5
ENDBRANCH   3   4
ENDBRANCH   2   3
ENDBRANCH   1   2
BRANCH   1  15
ATOM     15  C   UNL     1      57.216  -0.903  24.559  1.00  0.00     0.000 C 
BRANCH  15  16
ATOM     16  C   UNL     1      56.970   0.491  23.952  1.00  0.00     0.000 C 
BRANCH  16  17
ATOM     17  C   UNL     1      57.409   1.675  24.833  1.00  0.00     0.000 C 
BRANCH  17  18
ATOM     18  C   UNL     1      56.309   2.719  25.122  1.00  0.00    -0.000 C 
BRANCH  18  19
ATOM     19  C   UNL     1      54.980   2.488  24.379  1.00  0.00    -0.000 C 
BRANCH  19  20
ATOM     20  C   UNL     1      53.737   3.076  25.075  1.00  0.00    -0.000 C 
BRANCH  20  21
ATOM     21  C   UNL     1      52.508   2.146  25.115  1.00  0.00    -0.000 C 
BRANCH  21  22
ATOM     22  C   UNL     1      51.538   2.286  23.926  1.00  0.00    -0.000 C 
BRANCH  22  23
ATOM     23  C   UNL     1      50.988   0.934  23.438  1.00  0.00    -0.000 C 
BRANCH  23  24
ATOM     24  C   UNL     1      50.627  -0.016  24.595  1.00  0.00    -0.000 C 
BRANCH  24  25
ATOM     25  C   UNL     1      50.209  -1.435  24.165  1.00  0.00    -0.003 C 
ATOM     26  C   UNL     1      49.876  -1.536  22.678  1.00  0.00     0.004 C 
ENDBRANCH  24  25
ENDBRANCH  23  24
ENDBRANCH  22  23
ENDBRANCH  21  22
ENDBRANCH  20  21
ENDBRANCH  19  20
ENDBRANCH  18  19
ENDBRANCH  17  18
ENDBRANCH  16  17
ENDBRANCH  15  16
ENDBRANCH   1  15
TORSDOF 22
ENDMDL
MODEL 5
REMARK VINA RESULT:    -1.670      3.740      9.664
REMARK INTER + INTRA:          -4.803
REMARK INTER:                  -3.672
REMARK INTRA:                  -1.131
REMARK UNBOUND:                -0.986
REMARK SMILES CCCCCCCCCCCCCCCCCCCCCCCC(=O)[O-]
REMARK SMILES IDX 13 1 14 2 15 3 16 4 17 5 18 6 19 7 20 8 21 9 22 10 23 11
REMARK SMILES IDX 24 12 25 13 26 14 12 15 11 16 10 17 9 18 8 19 7 20 6 21 5 22
REMARK SMILES IDX 4 23 3 24 2 25 1 26
REMARK H PARENT
REMARK Flexibility Score: inf
ROOT
ATOM      1  C   UNL     1      53.955   1.354  22.080  1.00  0.00     0.000 C 
ENDROOT
BRANCH   1   2
ATOM      2  C   UNL     1      55.231   1.355  22.941  1.00  0.00     0.000 C 
BRANCH   2   3
ATOM      3  C   UNL     1      56.518   1.395  22.096  1.00  0.00     0.000 C 
BRANCH   3   4
ATOM      4  C   UNL     1      56.988   0.020  21.588  1.00  0.00     0.000 C 
BRANCH   4   5
ATOM      5  C   UNL     1      58.523  -0.098  21.531  1.00  0.00     0.000 C 
BRANCH   5   6
ATOM      6  C   UNL     1      59.056  -1.252  22.394  1.00  0.00     0.000 C 
BRANCH   6   7
ATOM      7  C   UNL     1      57.975  -2.302  22.706  1.00  0.00     0.000 C 
BRANCH   7   8
ATOM      8  C   UNL     1      57.511  -2.258  24.171  1.00  0.00     0.000 C 
BRANCH   8   9
ATOM      9  C   UNL     1      58.418  -1.378  25.049  1.00  0.00     0.000 C 
BRANCH   9  10
ATOM     10  C   UNL     1      59.866  -1.896  25.125  1.00  0.00     0.006 C 
BRANCH  10  11
ATOM     11  C   UNL     1      60.926  -0.857  24.715  1.00  0.00     0.053 C 
BRANCH  11  12
ATOM     12  C   UNL     1      62.317  -1.411  24.726  1.00  0.00     0.041 C 
ATOM     13  O   UNL     1      63.290  -0.700  24.358  1.00  0.00    -0.550 OA
ATOM     14  O   UNL     1      62.539  -2.723  25.125  1.00  0.00    -0.550 OA
ENDBRANCH  11  12
ENDBRANCH  10  11
ENDBRANCH   9  10
ENDBRANCH   8   9
ENDBRANCH   7   8
ENDBRANCH   6   7
ENDBRANCH   5   6
ENDBRANCH   4   5
ENDBRANCH   3   4
ENDBRANCH   2   3
ENDBRANCH   1   2
BRANCH   1  15
ATOM     15  C   UNL     1      53.348   2.765  21.920  1.00  0.00     0.000 C 
BRANCH  15  16
ATOM     16  C   UNL     1      51.835   2.766  21.629  1.00  0.00     0.000 C 
BRANCH  16  17
ATOM     17  C   UNL     1      50.935   2.478  22.845  1.00  0.00     0.000 C 
BRANCH  17  18
ATOM     18  C   UNL     1      51.609   2.675  24.219  1.00  0.00    -0.000 C 
BRANCH  18  19
ATOM     19  C   UNL     1      51.755   1.394  25.064  1.00  0.00    -0.000 C 
BRANCH  19  20
ATOM     20  C   UNL     1      50.493   0.511  25.125  1.00  0.00    -0.000 C 
BRANCH  20  21
ATOM     21  C   UNL     1      50.635  -0.879  24.474  1.00  0.00    -0.000 C 
BRANCH  21  22
ATOM     22  C   UNL     1      51.067  -0.873  22.994  1.00  0.00    -0.000 C 
BRANCH  22  23
ATOM     23  C   UNL     1      49.875  -0.875  22.021  1.00  0.00    -0.000 C 
BRANCH  23  24
ATOM     24  C   UNL     1      50.041  -1.888  20.874  1.00  0.00    -0.000 C 
BRANCH  24  25
ATOM     25  C   UNL     1      50.208  -1.267  19.476  1.00  0.00    -0.003 C 
ATOM     26  C   UNL     1      51.101  -0.027  19.473  1.00  0.00     0.004 C 
ENDBRANCH  24  25
ENDBRANCH  23  24
ENDBRANCH  22  23
ENDBRANCH  21  22
ENDBRANCH  20  21
ENDBRANCH  19  20
ENDBRANCH  18  19
ENDBRANCH  17  18
ENDBRANCH  16  17
ENDBRANCH  15  16
ENDBRANCH   1  15
TORSDOF 22
ENDMDL
MODEL 6
REMARK VINA RESULT:    -1.546      2.300      3.643
REMARK INTER + INTRA:          -4.520
REMARK INTER:                  -3.239
REMARK INTRA:                  -1.281
REMARK UNBOUND:                -0.986
REMARK SMILES CCCCCCCCCCCCCCCCCCCCCCCC(=O)[O-]
REMARK SMILES IDX 13 1 14 2 15 3 16 4 17 5 18 6 19 7 20 8 21 9 22 10 23 11
REMARK SMILES IDX 24 12 25 13 26 14 12 15 11 16 10 17 9 18 8 19 7 20 6 21 5 22
REMARK SMILES IDX 4 23 3 24 2 25 1 26
REMARK H PARENT
REMARK Flexibility Score: inf
ROOT
ATOM      1  C   UNL     1      54.732   1.962  23.934  1.00  0.00     0.000 C 
ENDROOT
BRANCH   1   2
ATOM      2  C   UNL     1      55.251   2.064  22.490  1.00  0.00     0.000 C 
BRANCH   2   3
ATOM      3  C   UNL     1      54.400   3.005  21.617  1.00  0.00     0.000 C 
BRANCH   3   4
ATOM      4  C   UNL     1      52.888   2.718  21.658  1.00  0.00     0.000 C 
BRANCH   4   5
ATOM      5  C   UNL     1      52.532   1.334  21.084  1.00  0.00     0.000 C 
BRANCH   5   6
ATOM      6  C   UNL     1      51.048   1.221  20.702  1.00  0.00     0.000 C 
BRANCH   6   7
ATOM      7  C   UNL     1      50.793   0.121  19.655  1.00  0.00     0.000 C 
BRANCH   7   8
ATOM      8  C   UNL     1      50.930  -1.295  20.238  1.00  0.00     0.000 C 
BRANCH   8   9
ATOM      9  C   UNL     1      49.889  -1.583  21.335  1.00  0.00     0.000 C 
BRANCH   9  10
ATOM     10  C   UNL     1      50.523  -2.048  22.658  1.00  0.00     0.006 C 
BRANCH  10  11
ATOM     11  C   UNL     1      49.919  -1.385  23.910  1.00  0.00     0.053 C 
BRANCH  11  12
ATOM     12  C   UNL     1      50.444  -0.002  24.145  1.00  0.00     0.041 C 
ATOM     13  O   UNL     1      51.200   0.235  25.125  1.00  0.00    -0.550 OA
ATOM     14  O   UNL     1      50.084   1.033  23.292  1.00  0.00    -0.550 OA
ENDBRANCH  11  12
ENDBRANCH  10  11
ENDBRANCH   9  10
ENDBRANCH   8   9
ENDBRANCH   7   8
ENDBRANCH   6   7
ENDBRANCH   5   6
ENDBRANCH   4   5
ENDBRANCH   3   4
ENDBRANCH   2   3
ENDBRANCH   1   2
BRANCH   1  15
ATOM     15  C   UNL     1      55.656   2.670  24.948  1.00  0.00     0.000 C 
BRANCH  15  16
ATOM     16  C   UNL     1      57.072   2.956  24.412  1.00  0.00     0.000 C 
BRANCH  16  17
ATOM     17  C   UNL     1      58.204   2.174  25.103  1.00  0.00     0.000 C 
BRANCH  17  18
ATOM     18  C   UNL     1      58.024   0.641  25.122  1.00  0.00    -0.000 C 
BRANCH  18  19
ATOM     19  C   UNL     1      59.226  -0.163  24.593  1.00  0.00    -0.000 C 
BRANCH  19  20
ATOM     20  C   UNL     1      59.214  -1.661  24.955  1.00  0.00    -0.000 C 
BRANCH  20  21
ATOM     21  C   UNL     1      58.264  -2.532  24.109  1.00  0.00    -0.000 C 
BRANCH  21  22
ATOM     22  C   UNL     1      58.707  -2.765  22.652  1.00  0.00    -0.000 C 
BRANCH  22  23
ATOM     23  C   UNL     1      57.686  -2.247  21.624  1.00  0.00    -0.000 C 
BRANCH  23  24
ATOM     24  C   UNL     1      56.870  -1.049  22.144  1.00  0.00    -0.000 C 
BRANCH  24  25
ATOM     25  C   UNL     1      57.349   0.328  21.651  1.00  0.00    -0.003 C 
ATOM     26  C   UNL     1      57.812   0.317  20.195  1.00  0.00     0.004 C 
ENDBRANCH  24  25
ENDBRANCH  23  24
ENDBRANCH  22  23
ENDBRANCH  21  22
ENDBRANCH  20  21
ENDBRANCH  19  20
ENDBRANCH  18  19
ENDBRANCH  17  18
ENDBRANCH  16  17
ENDBRANCH  15  16
ENDBRANCH   1  15
TORSDOF 22
ENDMDL
MODEL 7
REMARK VINA RESULT:    -1.333      2.031      2.948
REMARK INTER + INTRA:          -4.033
REMARK INTER:                  -2.494
REMARK INTRA:                  -1.539
REMARK UNBOUND:                -0.986
REMARK SMILES CCCCCCCCCCCCCCCCCCCCCCCC(=O)[O-]
REMARK SMILES IDX 13 1 14 2 15 3 16 4 17 5 18 6 19 7 20 8 21 9 22 10 23 11
REMARK SMILES IDX 24 12 25 13 26 14 12 15 11 16 10 17 9 18 8 19 7 20 6 21 5 22
REMARK SMILES IDX 4 23 3 24 2 25 1 26
REMARK H PARENT
REMARK Flexibility Score: inf
ROOT
ATOM      1  C   UNL     1      56.017   0.900  24.914  1.00  0.00     0.000 C 
ENDROOT
BRANCH   1   2
ATOM      2  C   UNL     1      55.559   1.721  23.695  1.00  0.00     0.000 C 
BRANCH   2   3
ATOM      3  C   UNL     1      54.539   2.814  24.064  1.00  0.00     0.000 C 
BRANCH   3   4
ATOM      4  C   UNL     1      53.138   2.607  23.458  1.00  0.00     0.000 C 
BRANCH   4   5
ATOM      5  C   UNL     1      52.265   1.653  24.294  1.00  0.00     0.000 C 
BRANCH   5   6
ATOM      6  C   UNL     1      50.772   2.005  24.220  1.00  0.00     0.000 C 
BRANCH   6   7
ATOM      7  C   UNL     1      49.879   0.758  24.084  1.00  0.00     0.000 C 
BRANCH   7   8
ATOM      8  C   UNL     1      50.693  -0.542  23.967  1.00  0.00     0.000 C 
BRANCH   8   9
ATOM      9  C   UNL     1      50.263  -1.400  22.764  1.00  0.00     0.000 C 
BRANCH   9  10
ATOM     10  C   UNL     1      51.405  -1.642  21.760  1.00  0.00     0.006 C 
BRANCH  10  11
ATOM     11  C   UNL     1      51.533  -0.552  20.681  1.00  0.00     0.053 C 
BRANCH  11  12
ATOM     12  C   UNL     1      50.464  -0.640  19.636  1.00  0.00     0.041 C 
ATOM     13  O   UNL     1      49.944   0.406  19.166  1.00  0.00    -0.550 OA
ATOM     14  O   UNL     1      50.026  -1.882  19.193  1.00  0.00    -0.550 OA
ENDBRANCH  11  12
ENDBRANCH  10  11
ENDBRANCH   9  10
ENDBRANCH   8   9
ENDBRANCH   7   8
ENDBRANCH   6   7
ENDBRANCH   5   6
ENDBRANCH   4   5
ENDBRANCH   3   4
ENDBRANCH   2   3
ENDBRANCH   1   2
BRANCH   1  15
ATOM     15  C   UNL     1      57.542   0.657  24.926  1.00  0.00     0.000 C 
BRANCH  15  16
ATOM     16  C   UNL     1      57.940  -0.821  25.102  1.00  0.00     0.000 C 
BRANCH  16  17
ATOM     17  C   UNL     1      58.140  -1.604  23.791  1.00  0.00     0.000 C 
BRANCH  17  18
ATOM     18  C   UNL     1      59.600  -1.695  23.299  1.00  0.00    -0.000 C 
BRANCH  18  19
ATOM     19  C   UNL     1      60.554  -2.471  24.228  1.00  0.00    -0.000 C 
BRANCH  19  20
ATOM     20  C   UNL     1      61.453  -1.590  25.116  1.00  0.00    -0.000 C 
BRANCH  20  21
ATOM     21  C   UNL     1      61.240  -0.070  24.961  1.00  0.00    -0.000 C 
BRANCH  21  22
ATOM     22  C   UNL     1      62.506   0.793  25.120  1.00  0.00    -0.000 C 
BRANCH  22  23
ATOM     23  C   UNL     1      63.806  -0.025  25.019  1.00  0.00    -0.000 C 
BRANCH  23  24
ATOM     24  C   UNL     1      65.058   0.859  24.873  1.00  0.00    -0.000 C 
BRANCH  24  25
ATOM     25  C   UNL     1      64.777   2.346  24.593  1.00  0.00    -0.003 C 
ATOM     26  C   UNL     1      65.758   2.964  23.598  1.00  0.00     0.004 C 
ENDBRANCH  24  25
ENDBRANCH  23  24
ENDBRANCH  22  23
ENDBRANCH  21  22
ENDBRANCH  20  21
ENDBRANCH  19  20
ENDBRANCH  18  19
ENDBRANCH  17  18
ENDBRANCH  16  17
ENDBRANCH  15  16
ENDBRANCH   1  15
TORSDOF 22
ENDMDL
MODEL 8
REMARK VINA RESULT:    -1.236      2.007      3.893
REMARK INTER + INTRA:          -3.812
REMARK INTER:                  -4.576
REMARK INTRA:                   0.765
REMARK UNBOUND:                -0.986
REMARK SMILES CCCCCCCCCCCCCCCCCCCCCCCC(=O)[O-]
REMARK SMILES IDX 13 1 14 2 15 3 16 4 17 5 18 6 19 7 20 8 21 9 22 10 23 11
REMARK SMILES IDX 24 12 25 13 26 14 12 15 11 16 10 17 9 18 8 19 7 20 6 21 5 22
REMARK SMILES IDX 4 23 3 24 2 25 1 26
REMARK H PARENT
REMARK Flexibility Score: inf
ROOT
ATOM      1  C   UNL     1      53.935   0.161  21.517  1.00  0.00     0.000 C 
ENDROOT
BRANCH   1   2
ATOM      2  C   UNL     1      53.508   1.123  20.395  1.00  0.00     0.000 C 
BRANCH   2   3
ATOM      3  C   UNL     1      52.040   1.569  20.521  1.00  0.00     0.000 C 
BRANCH   3   4
ATOM      4  C   UNL     1      51.080   0.889  19.527  1.00  0.00     0.000 C 
BRANCH   4   5
ATOM      5  C   UNL     1      51.043  -0.641  19.692  1.00  0.00     0.000 C 
BRANCH   5   6
ATOM      6  C   UNL     1      50.297  -1.078  20.962  1.00  0.00     0.000 C 
BRANCH   6   7
ATOM      7  C   UNL     1      51.233  -1.211  22.177  1.00  0.00     0.000 C 
BRANCH   7   8
ATOM      8  C   UNL     1      50.779  -0.352  23.370  1.00  0.00     0.000 C 
BRANCH   8   9
ATOM      9  C   UNL     1      49.875   0.818  22.943  1.00  0.00     0.000 C 
BRANCH   9  10
ATOM     10  C   UNL     1      50.638   2.149  22.808  1.00  0.00     0.006 C 
BRANCH  10  11
ATOM     11  C   UNL     1      51.105   2.742  24.149  1.00  0.00     0.053 C 
BRANCH  11  12
ATOM     12  C   UNL     1      52.437   2.213  24.586  1.00  0.00     0.041 C 
ATOM     13  O   UNL     1      52.613   0.975  24.735  1.00  0.00    -0.550 OA
ATOM     14  O   UNL     1      53.481   3.091  24.847  1.00  0.00    -0.550 OA
ENDBRANCH  11  12
ENDBRANCH  10  11
ENDBRANCH   9  10
ENDBRANCH   8   9
ENDBRANCH   7   8
ENDBRANCH   6   7
ENDBRANCH   5   6
ENDBRANCH   4   5
ENDBRANCH   3   4
ENDBRANCH   2   3
ENDBRANCH   1   2
BRANCH   1  15
ATOM     15  C   UNL     1      55.304   0.531  22.127  1.00  0.00     0.000 C 
BRANCH  15  16
ATOM     16  C   UNL     1      55.486   2.039  22.390  1.00  0.00     0.000 C 
BRANCH  16  17
ATOM     17  C   UNL     1      56.947   2.506  22.533  1.00  0.00     0.000 C 
BRANCH  17  18
ATOM     18  C   UNL     1      57.315   3.091  23.913  1.00  0.00    -0.000 C 
BRANCH  18  19
ATOM     19  C   UNL     1      56.988   2.184  25.114  1.00  0.00    -0.000 C 
BRANCH  19  20
ATOM     20  C   UNL     1      56.748   0.703  24.763  1.00  0.00    -0.000 C 
BRANCH  20  21
ATOM     21  C   UNL     1      57.960  -0.226  24.978  1.00  0.00    -0.000 C 
BRANCH  21  22
ATOM     22  C   UNL     1      58.223  -1.238  23.846  1.00  0.00    -0.000 C 
BRANCH  22  23
ATOM     23  C   UNL     1      59.545  -2.006  24.023  1.00  0.00    -0.000 C 
BRANCH  23  24
ATOM     24  C   UNL     1      60.449  -1.397  25.110  1.00  0.00    -0.000 C 
BRANCH  24  25
ATOM     25  C   UNL     1      61.933  -1.266  24.725  1.00  0.00    -0.003 C 
ATOM     26  C   UNL     1      62.714  -2.568  24.896  1.00  0.00     0.004 C 
ENDBRANCH  24  25
ENDBRANCH  23  24
ENDBRANCH  22  23
ENDBRANCH  21  22
ENDBRANCH  20  21
ENDBRANCH  19  20
ENDBRANCH  18  19
ENDBRANCH  17  18
ENDBRANCH  16  17
ENDBRANCH  15  16
ENDBRANCH   1  15
TORSDOF 22
ENDMDL
MODEL 9
REMARK VINA RESULT:    -1.229     19.680     22.982
REMARK INTER + INTRA:          -3.795
REMARK INTER:                  -2.891
REMARK INTRA:                  -0.904
REMARK UNBOUND:                -0.986
REMARK SMILES CCCCCCCCCCCCCCCCCCCCCCCC(=O)[O-]
REMARK SMILES IDX 13 1 14 2 15 3 16 4 17 5 18 6 19 7 20 8 21 9 22 10 23 11
REMARK SMILES IDX 24 12 25 13 26 14 12 15 11 16 10 17 9 18 8 19 7 20 6 21 5 22
REMARK SMILES IDX 4 23 3 24 2 25 1 26
REMARK H PARENT
REMARK Flexibility Score: inf
ROOT
ATOM      1  C   UNL     1      53.937 -16.250   6.418  1.00  0.00     0.000 C 
ENDROOT
BRANCH   1   2
ATOM      2  C   UNL     1      54.818 -15.062   5.995  1.00  0.00     0.000 C 
BRANCH   2   3
ATOM      3  C   UNL     1      56.323 -15.364   6.118  1.00  0.00     0.000 C 
BRANCH   3   4
ATOM      4  C   UNL     1      56.796 -16.582   5.303  1.00  0.00     0.000 C 
BRANCH   4   5
ATOM      5  C   UNL     1      58.331 -16.697   5.246  1.00  0.00     0.000 C 
BRANCH   5   6
ATOM      6  C   UNL     1      58.941 -17.112   6.594  1.00  0.00     0.000 C 
BRANCH   6   7
ATOM      7  C   UNL     1      58.676 -16.078   7.703  1.00  0.00     0.000 C 
BRANCH   7   8
ATOM      8  C   UNL     1      58.525 -16.724   9.090  1.00  0.00     0.000 C 
BRANCH   8   9
ATOM      9  C   UNL     1      57.058 -16.801   9.548  1.00  0.00     0.000 C 
BRANCH   9  10
ATOM     10  C   UNL     1      56.810 -16.089  10.891  1.00  0.00     0.006 C 
BRANCH  10  11
ATOM     11  C   UNL     1      56.760 -17.038  12.103  1.00  0.00     0.053 C 
BRANCH  11  12
ATOM     12  C   UNL     1      57.836 -16.755  13.106  1.00  0.00     0.041 C 
ATOM     13  O   UNL     1      59.048 -16.783  12.765  1.00  0.00    -0.550 OA
ATOM     14  O   UNL     1      57.501 -16.479  14.425  1.00  0.00    -0.550 OA
ENDBRANCH  11  12
ENDBRANCH  10  11
ENDBRANCH   9  10
ENDBRANCH   8   9
ENDBRANCH   7   8
ENDBRANCH   6   7
ENDBRANCH   5   6
ENDBRANCH   4   5
ENDBRANCH   3   4
ENDBRANCH   2   3
ENDBRANCH   1   2
BRANCH   1  15
ATOM     15  C   UNL     1      52.698 -16.422   5.513  1.00  0.00     0.000 C 
BRANCH  15  16
ATOM     16  C   UNL     1      51.469 -15.615   5.973  1.00  0.00     0.000 C 
BRANCH  16  17
ATOM     17  C   UNL     1      50.873 -16.046   7.326  1.00  0.00     0.000 C 
BRANCH  17  18
ATOM     18  C   UNL     1      50.614 -14.897   8.323  1.00  0.00    -0.000 C 
BRANCH  18  19
ATOM     19  C   UNL     1      49.885 -15.307   9.617  1.00  0.00    -0.000 C 
BRANCH  19  20
ATOM     20  C   UNL     1      50.226 -16.718  10.134  1.00  0.00    -0.000 C 
BRANCH  20  21
ATOM     21  C   UNL     1      49.875 -16.977  11.613  1.00  0.00    -0.000 C 
BRANCH  21  22
ATOM     22  C   UNL     1      51.082 -17.124  12.560  1.00  0.00    -0.000 C 
BRANCH  22  23
ATOM     23  C   UNL     1      50.946 -16.280  13.839  1.00  0.00    -0.000 C 
BRANCH  23  24
ATOM     24  C   UNL     1      51.116 -17.111  15.125  1.00  0.00    -0.000 C 
BRANCH  24  25
ATOM     25  C   UNL     1      49.995 -16.936  16.166  1.00  0.00    -0.003 C 
ATOM     26  C   UNL     1      50.505 -16.972  17.606  1.00  0.00     0.004 C 
ENDBRANCH  24  25
ENDBRANCH  23  24
ENDBRANCH  22  23
ENDBRANCH  21  22
ENDBRANCH  20  21
ENDBRANCH  19  20
ENDBRANCH  18  19
ENDBRANCH  17  18
ENDBRANCH  16  17
ENDBRANCH  15  16
ENDBRANCH   1  15
TORSDOF 22
ENDMDL
