MODEL 1
REMARK VINA RESULT:    -2.701      0.000      0.000
REMARK INTER + INTRA:          -3.410
REMARK INTER:                  -3.332
REMARK INTRA:                  -0.078
REMARK UNBOUND:                -0.078
REMARK SMILES CCCCCC(=O)[O-]
REMARK SMILES IDX 4 1 5 2 6 3 7 4 8 5 3 6 2 7 1 8
REMARK H PARENT
REMARK Flexibility Score: inf
ROOT
ATOM      1  C   UNL     1    -101.780 -27.765 -13.948  1.00  0.00     0.006 C 
ENDROOT
BRANCH   1   2
ATOM      2  C   UNL     1    -101.907 -27.473 -15.449  1.00  0.00     0.053 C 
BRANCH   2   3
ATOM      3  C   UNL     1    -102.996 -26.484 -15.734  1.00  0.00     0.041 C 
ATOM      4  O   UNL     1    -103.268 -26.165 -16.921  1.00  0.00    -0.550 OA
ATOM      5  O   UNL     1    -103.732 -25.941 -14.689  1.00  0.00    -0.550 OA
ENDBRANCH   2   3
ENDBRANCH   1   2
BRANCH   1   6
ATOM      6  C   UNL     1    -100.327 -27.672 -13.459  1.00  0.00     0.000 C 
BRANCH   6   7
ATOM      7  C   UNL     1     -99.871 -28.997 -12.838  1.00  0.00    -0.003 C 
ATOM      8  C   UNL     1     -98.417 -29.299 -13.188  1.00  0.00     0.004 C 
ENDBRANCH   6   7
ENDBRANCH   1   6
TORSDOF 4
ENDMDL
MODEL 2
REMARK VINA RESULT:    -2.676      1.754      2.629
REMARK INTER + INTRA:          -3.380
REMARK INTER:                  -3.300
REMARK INTRA:                  -0.079
REMARK UNBOUND:                -0.078
REMARK SMILES CCCCCC(=O)[O-]
REMARK SMILES IDX 4 1 5 2 6 3 7 4 8 5 3 6 2 7 1 8
REMARK H PARENT
REMARK Flexibility Score: inf
ROOT
ATOM      1  C   UNL     1    -102.686 -26.830 -15.632  1.00  0.00     0.006 C 
ENDROOT
BRANCH   1   2
ATOM      2  C   UNL     1    -103.461 -26.102 -16.738  1.00  0.00     0.053 C 
BRANCH   2   3
ATOM      3  C   UNL     1    -104.521 -25.204 -16.177  1.00  0.00     0.041 C 
ATOM      4  O   UNL     1    -104.218 -24.308 -15.346  1.00  0.00    -0.550 OA
ATOM      5  O   UNL     1    -105.838 -25.335 -16.598  1.00  0.00    -0.550 OA
ENDBRANCH   2   3
ENDBRANCH   1   2
BRANCH   1   6
ATOM      6  C   UNL     1    -101.920 -28.049 -16.165  1.00  0.00     0.000 C 
BRANCH   6   7
ATOM      7  C   UNL     1    -101.231 -28.807 -15.024  1.00  0.00    -0.003 C 
ATOM      8  C   UNL     1    -100.912 -27.878 -13.858  1.00  0.00     0.004 C 
ENDBRANCH   6   7
ENDBRANCH   1   6
TORSDOF 4
ENDMDL
MODEL 3
REMARK VINA RESULT:    -2.647      2.631      4.750
REMARK INTER + INTRA:          -3.344
REMARK INTER:                  -3.237
REMARK INTRA:                  -0.107
REMARK UNBOUND:                -0.078
REMARK SMILES CCCCCC(=O)[O-]
REMARK SMILES IDX 4 1 5 2 6 3 7 4 8 5 3 6 2 7 1 8
REMARK H PARENT
REMARK Flexibility Score: inf
ROOT
ATOM      1  C   UNL     1    -102.367 -27.227 -16.075  1.00  0.00     0.006 C 
ENDROOT
BRANCH   1   2
ATOM      2  C   UNL     1    -102.200 -27.364 -14.556  1.00  0.00     0.053 C 
BRANCH   2   3
ATOM      3  C   UNL     1    -100.964 -28.131 -14.199  1.00  0.00     0.041 C 
ATOM      4  O   UNL     1    -100.788 -29.294 -14.647  1.00  0.00    -0.550 OA
ATOM      5  O   UNL     1     -99.990 -27.547 -13.398  1.00  0.00    -0.550 OA
ENDBRANCH   2   3
ENDBRANCH   1   2
BRANCH   1   6
ATOM      6  C   UNL     1    -103.448 -26.203 -16.452  1.00  0.00     0.000 C 
BRANCH   6   7
ATOM      7  C   UNL     1    -104.000 -25.504 -15.204  1.00  0.00    -0.003 C 
ATOM      8  C   UNL     1    -104.577 -24.134 -15.549  1.00  0.00     0.004 C 
ENDBRANCH   6   7
ENDBRANCH   1   6
TORSDOF 4
ENDMDL
MODEL 4
REMARK VINA RESULT:    -2.639      3.308      4.513
REMARK INTER + INTRA:          -3.335
REMARK INTER:                  -3.116
REMARK INTRA:                  -0.219
REMARK UNBOUND:                -0.078
REMARK SMILES CCCCCC(=O)[O-]
REMARK SMILES IDX 4 1 5 2 6 3 7 4 8 5 3 6 2 7 1 8
REMARK H PARENT
REMARK Flexibility Score: inf
ROOT
ATOM      1  C   UNL     1    -101.589 -28.183 -13.893  1.00  0.00     0.006 C 
ENDROOT
BRANCH   1   2
ATOM      2  C   UNL     1    -100.184 -27.897 -13.347  1.00  0.00     0.053 C 
BRANCH   2   3
ATOM      3  C   UNL     1     -99.344 -29.136 -13.294  1.00  0.00     0.041 C 
ATOM      4  O   UNL     1     -99.316 -29.926 -14.274  1.00  0.00    -0.550 OA
ATOM      5  O   UNL     1     -98.566 -29.401 -12.174  1.00  0.00    -0.550 OA
ENDBRANCH   2   3
ENDBRANCH   1   2
BRANCH   1   6
ATOM      6  C   UNL     1    -101.953 -27.266 -15.070  1.00  0.00     0.000 C 
BRANCH   6   7
ATOM      7  C   UNL     1    -101.872 -28.023 -16.401  1.00  0.00    -0.003 C 
ATOM      8  C   UNL     1    -102.254 -29.489 -16.226  1.00  0.00     0.004 C 
ENDBRANCH   6   7
ENDBRANCH   1   6
TORSDOF 4
ENDMDL
MODEL 5
REMARK VINA RESULT:    -2.622      1.241      1.813
REMARK INTER + INTRA:          -3.313
REMARK INTER:                  -3.160
REMARK INTRA:                  -0.153
REMARK UNBOUND:                -0.078
REMARK SMILES CCCCCC(=O)[O-]
REMARK SMILES IDX 4 1 5 2 6 3 7 4 8 5 3 6 2 7 1 8
REMARK H PARENT
REMARK Flexibility Score: inf
ROOT
ATOM      1  C   UNL     1    -101.628 -27.429 -15.172  1.00  0.00     0.006 C 
ENDROOT
BRANCH   1   2
ATOM      2  C   UNL     1    -102.377 -27.849 -16.443  1.00  0.00     0.053 C 
BRANCH   2   3
ATOM      3  C   UNL     1    -103.546 -26.956 -16.721  1.00  0.00     0.041 C 
ATOM      4  O   UNL     1    -103.390 -25.707 -16.781  1.00  0.00    -0.550 OA
ATOM      5  O   UNL     1    -104.802 -27.504 -16.947  1.00  0.00    -0.550 OA
ENDBRANCH   2   3
ENDBRANCH   1   2
BRANCH   1   6
ATOM      6  C   UNL     1    -102.471 -27.635 -13.905  1.00  0.00     0.000 C 
BRANCH   6   7
ATOM      7  C   UNL     1    -101.587 -28.022 -12.713  1.00  0.00    -0.003 C 
ATOM      8  C   UNL     1    -100.132 -28.196 -13.139  1.00  0.00     0.004 C 
ENDBRANCH   6   7
ENDBRANCH   1   6
TORSDOF 4
ENDMDL
MODEL 6
REMARK VINA RESULT:    -2.620      2.903      4.770
REMARK INTER + INTRA:          -3.311
REMARK INTER:                  -3.223
REMARK INTRA:                  -0.088
REMARK UNBOUND:                -0.078
REMARK SMILES CCCCCC(=O)[O-]
REMARK SMILES IDX 4 1 5 2 6 3 7 4 8 5 3 6 2 7 1 8
REMARK H PARENT
REMARK Flexibility Score: inf
ROOT
ATOM      1  C   UNL     1    -102.606 -26.925 -15.765  1.00  0.00     0.006 C 
ENDROOT
BRANCH   1   2
ATOM      2  C   UNL     1    -101.992 -28.146 -16.461  1.00  0.00     0.053 C 
BRANCH   2   3
ATOM      3  C   UNL     1    -101.324 -29.067 -15.486  1.00  0.00     0.041 C 
ATOM      4  O   UNL     1    -101.592 -28.991 -14.258  1.00  0.00    -0.550 OA
ATOM      5  O   UNL     1    -100.431 -30.030 -15.938  1.00  0.00    -0.550 OA
ENDBRANCH   2   3
ENDBRANCH   1   2
BRANCH   1   6
ATOM      6  C   UNL     1    -103.499 -26.105 -16.708  1.00  0.00     0.000 C 
BRANCH   6   7
ATOM      7  C   UNL     1    -104.237 -25.000 -15.943  1.00  0.00    -0.003 C 
ATOM      8  C   UNL     1    -104.218 -25.262 -14.440  1.00  0.00     0.004 C 
ENDBRANCH   6   7
ENDBRANCH   1   6
TORSDOF 4
ENDMDL
MODEL 7
REMARK VINA RESULT:    -2.615      3.441      5.038
REMARK INTER + INTRA:          -3.305
REMARK INTER:                  -3.261
REMARK INTRA:                  -0.044
REMARK UNBOUND:                -0.078
REMARK SMILES CCCCCC(=O)[O-]
REMARK SMILES IDX 4 1 5 2 6 3 7 4 8 5 3 6 2 7 1 8
REMARK H PARENT
REMARK Flexibility Score: inf
ROOT
ATOM      1  C   UNL     1    -102.010 -28.113 -16.401  1.00  0.00     0.006 C 
ENDROOT
BRANCH   1   2
ATOM      2  C   UNL     1    -101.314 -29.084 -15.439  1.00  0.00     0.053 C 
BRANCH   2   3
ATOM      3  C   UNL     1    -100.839 -30.319 -16.142  1.00  0.00     0.041 C 
ATOM      4  O   UNL     1    -101.612 -30.946 -16.914  1.00  0.00    -0.550 OA
ATOM      5  O   UNL     1     -99.533 -30.759 -15.970  1.00  0.00    -0.550 OA
ENDBRANCH   2   3
ENDBRANCH   1   2
BRANCH   1   6
ATOM      6  C   UNL     1    -102.617 -26.906 -15.671  1.00  0.00     0.000 C 
BRANCH   6   7
ATOM      7  C   UNL     1    -103.464 -26.056 -16.624  1.00  0.00    -0.003 C 
ATOM      8  C   UNL     1    -104.237 -24.980 -15.866  1.00  0.00     0.004 C 
ENDBRANCH   6   7
ENDBRANCH   1   6
TORSDOF 4
ENDMDL
MODEL 8
REMARK VINA RESULT:    -2.584      2.732      4.081
REMARK INTER + INTRA:          -3.266
REMARK INTER:                  -3.148
REMARK INTRA:                  -0.118
REMARK UNBOUND:                -0.078
REMARK SMILES CCCCCC(=O)[O-]
REMARK SMILES IDX 4 1 5 2 6 3 7 4 8 5 3 6 2 7 1 8
REMARK H PARENT
REMARK Flexibility Score: inf
ROOT
ATOM      1  C   UNL     1    -103.909 -25.735 -15.315  1.00  0.00     0.006 C 
ENDROOT
BRANCH   1   2
ATOM      2  C   UNL     1    -104.481 -24.319 -15.469  1.00  0.00     0.053 C 
BRANCH   2   3
ATOM      3  C   UNL     1    -105.951 -24.341 -15.757  1.00  0.00     0.041 C 
ATOM      4  O   UNL     1    -106.660 -25.305 -15.364  1.00  0.00    -0.550 OA
ATOM      5  O   UNL     1    -106.543 -23.280 -16.430  1.00  0.00    -0.550 OA
ENDBRANCH   2   3
ENDBRANCH   1   2
BRANCH   1   6
ATOM      6  C   UNL     1    -103.310 -26.265 -16.626  1.00  0.00     0.000 C 
BRANCH   6   7
ATOM      7  C   UNL     1    -102.427 -27.491 -16.370  1.00  0.00    -0.003 C 
ATOM      8  C   UNL     1    -101.745 -27.405 -15.008  1.00  0.00     0.004 C 
ENDBRANCH   6   7
ENDBRANCH   1   6
TORSDOF 4
ENDMDL
MODEL 9
REMARK VINA RESULT:    -2.431      3.084      5.247
REMARK INTER + INTRA:          -3.077
REMARK INTER:                  -2.951
REMARK INTRA:                  -0.126
REMARK UNBOUND:                -0.078
REMARK SMILES CCCCCC(=O)[O-]
REMARK SMILES IDX 4 1 5 2 6 3 7 4 8 5 3 6 2 7 1 8
REMARK H PARENT
REMARK Flexibility Score: inf
ROOT
ATOM      1  C   UNL     1    -104.390 -25.976 -15.527  1.00  0.00     0.006 C 
ENDROOT
BRANCH   1   2
ATOM      2  C   UNL     1    -103.252 -26.249 -16.520  1.00  0.00     0.053 C 
BRANCH   2   3
ATOM      3  C   UNL     1    -102.357 -27.354 -16.051  1.00  0.00     0.041 C 
ATOM      4  O   UNL     1    -102.238 -28.407 -16.732  1.00  0.00    -0.550 OA
ATOM      5  O   UNL     1    -101.628 -27.208 -14.877  1.00  0.00    -0.550 OA
ENDBRANCH   2   3
ENDBRANCH   1   2
BRANCH   1   6
ATOM      6  C   UNL     1    -104.262 -24.598 -14.862  1.00  0.00     0.000 C 
BRANCH   6   7
ATOM      7  C   UNL     1    -105.193 -23.578 -15.526  1.00  0.00    -0.003 C 
ATOM      8  C   UNL     1    -106.405 -24.262 -16.151  1.00  0.00     0.004 C 
ENDBRANCH   6   7
ENDBRANCH   1   6
TORSDOF 4
ENDMDL
