MODEL 1
REMARK VINA RESULT:    -5.025      0.000      0.000
REMARK INTER + INTRA:          -5.025
REMARK INTER:                  -5.025
REMARK INTRA:                   0.000
REMARK UNBOUND:                 0.000
REMARK SMILES CC(C)=C1CC[C@@H](C)CC1=O
REMARK SMILES IDX 8 1 7 2 6 3 5 4 4 5 2 6 1 7 3 8 10 9 11 10 9 11
REMARK H PARENT
REMARK Flexibility Score: inf
ROOT
ATOM      1  C   UNL     1      15.853 -21.403 -27.693  1.00  0.00     0.008 C 
ATOM      2  C   UNL     1      17.039 -21.621 -26.747  1.00  0.00    -0.006 C 
ATOM      3  C   UNL     1      17.493 -23.089 -26.778  1.00  0.00     0.008 C 
ATOM      4  C   UNL     1      18.743 -23.304 -25.916  1.00  0.00     0.039 C 
ATOM      5  C   UNL     1      18.572 -22.775 -24.497  1.00  0.00    -0.006 C 
ATOM      6  C   UNL     1      19.197 -23.369 -23.438  1.00  0.00    -0.070 C 
ATOM      7  C   UNL     1      20.099 -24.566 -23.632  1.00  0.00     0.039 C 
ATOM      8  C   UNL     1      18.990 -22.888 -22.020  1.00  0.00     0.039 C 
ATOM      9  C   UNL     1      17.785 -21.514 -24.359  1.00  0.00     0.159 C 
ATOM     10  O   UNL     1      18.043 -20.677 -23.454  1.00  0.00    -0.295 OA
ATOM     11  C   UNL     1      16.663 -21.218 -25.313  1.00  0.00     0.084 C 
ENDROOT
TORSDOF 0
ENDMDL
MODEL 2
REMARK VINA RESULT:    -4.942      2.147      4.581
REMARK INTER + INTRA:          -4.942
REMARK INTER:                  -4.942
REMARK INTRA:                   0.000
REMARK UNBOUND:                 0.000
REMARK SMILES CC(C)=C1CC[C@@H](C)CC1=O
REMARK SMILES IDX 8 1 7 2 6 3 5 4 4 5 2 6 1 7 3 8 10 9 11 10 9 11
REMARK H PARENT
REMARK Flexibility Score: inf
ROOT
ATOM      1  C   UNL     1      20.348 -24.629 -23.325  1.00  0.00     0.008 C 
ATOM      2  C   UNL     1      19.363 -24.315 -24.457  1.00  0.00    -0.006 C 
ATOM      3  C   UNL     1      19.342 -22.807 -24.753  1.00  0.00     0.008 C 
ATOM      4  C   UNL     1      18.438 -22.486 -25.950  1.00  0.00     0.039 C 
ATOM      5  C   UNL     1      17.040 -23.072 -25.800  1.00  0.00    -0.006 C 
ATOM      6  C   UNL     1      15.948 -22.447 -26.330  1.00  0.00    -0.070 C 
ATOM      7  C   UNL     1      16.083 -21.156 -27.104  1.00  0.00     0.039 C 
ATOM      8  C   UNL     1      14.550 -22.988 -26.139  1.00  0.00     0.039 C 
ATOM      9  C   UNL     1      16.957 -24.413 -25.147  1.00  0.00     0.159 C 
ATOM     10  O   UNL     1      16.068 -25.244 -25.469  1.00  0.00    -0.295 OA
ATOM     11  C   UNL     1      17.951 -24.797 -24.089  1.00  0.00     0.084 C 
ENDROOT
TORSDOF 0
ENDMDL
MODEL 3
REMARK VINA RESULT:    -4.800      1.445      4.260
REMARK INTER + INTRA:          -4.800
REMARK INTER:                  -4.800
REMARK INTRA:                   0.000
REMARK UNBOUND:                 0.000
REMARK SMILES CC(C)=C1CC[C@@H](C)CC1=O
REMARK SMILES IDX 8 1 7 2 6 3 5 4 4 5 2 6 1 7 3 8 10 9 11 10 9 11
REMARK H PARENT
REMARK Flexibility Score: inf
ROOT
ATOM      1  C   UNL     1      20.171 -26.721 -22.894  1.00  0.00     0.008 C 
ATOM      2  C   UNL     1      19.253 -25.587 -23.365  1.00  0.00    -0.006 C 
ATOM      3  C   UNL     1      18.905 -25.757 -24.853  1.00  0.00     0.008 C 
ATOM      4  C   UNL     1      17.905 -24.689 -25.316  1.00  0.00     0.039 C 
ATOM      5  C   UNL     1      18.363 -23.275 -24.980  1.00  0.00    -0.006 C 
ATOM      6  C   UNL     1      18.042 -22.216 -25.780  1.00  0.00    -0.070 C 
ATOM      7  C   UNL     1      17.202 -22.401 -27.024  1.00  0.00     0.039 C 
ATOM      8  C   UNL     1      18.537 -20.819 -25.488  1.00  0.00     0.039 C 
ATOM      9  C   UNL     1      19.074 -23.109 -23.677  1.00  0.00     0.159 C 
ATOM     10  O   UNL     1      18.976 -22.046 -23.009  1.00  0.00    -0.295 OA
ATOM     11  C   UNL     1      19.922 -24.223 -23.135  1.00  0.00     0.084 C 
ENDROOT
TORSDOF 0
ENDMDL
MODEL 4
REMARK VINA RESULT:    -4.769      9.179     11.861
REMARK INTER + INTRA:          -4.769
REMARK INTER:                  -4.769
REMARK INTRA:                   0.000
REMARK UNBOUND:                 0.000
REMARK SMILES CC(C)=C1CC[C@@H](C)CC1=O
REMARK SMILES IDX 8 1 7 2 6 3 5 4 4 5 2 6 1 7 3 8 10 9 11 10 9 11
REMARK H PARENT
REMARK Flexibility Score: inf
ROOT
ATOM      1  C   UNL     1      20.868 -24.768 -17.395  1.00  0.00     0.008 C 
ATOM      2  C   UNL     1      21.039 -24.494 -15.896  1.00  0.00    -0.006 C 
ATOM      3  C   UNL     1      21.829 -25.629 -15.226  1.00  0.00     0.008 C 
ATOM      4  C   UNL     1      22.099 -25.322 -13.747  1.00  0.00     0.039 C 
ATOM      5  C   UNL     1      20.830 -24.963 -12.984  1.00  0.00    -0.006 C 
ATOM      6  C   UNL     1      20.686 -25.271 -11.662  1.00  0.00    -0.070 C 
ATOM      7  C   UNL     1      21.788 -25.966 -10.895  1.00  0.00     0.039 C 
ATOM      8  C   UNL     1      19.410 -24.972 -10.909  1.00  0.00     0.039 C 
ATOM      9  C   UNL     1      19.818 -24.161 -13.735  1.00  0.00     0.159 C 
ATOM     10  O   UNL     1      19.081 -23.325 -13.150  1.00  0.00    -0.295 OA
ATOM     11  C   UNL     1      19.669 -24.337 -15.219  1.00  0.00     0.084 C 
ENDROOT
TORSDOF 0
ENDMDL
MODEL 5
REMARK VINA RESULT:    -4.621      1.511      4.275
REMARK INTER + INTRA:          -4.621
REMARK INTER:                  -4.621
REMARK INTRA:                   0.000
REMARK UNBOUND:                 0.000
REMARK SMILES CC(C)=C1CC[C@@H](C)CC1=O
REMARK SMILES IDX 8 1 7 2 6 3 5 4 4 5 2 6 1 7 3 8 10 9 11 10 9 11
REMARK H PARENT
REMARK Flexibility Score: inf
ROOT
ATOM      1  C   UNL     1      20.357 -24.546 -23.477  1.00  0.00     0.008 C 
ATOM      2  C   UNL     1      19.161 -23.642 -23.799  1.00  0.00    -0.006 C 
ATOM      3  C   UNL     1      17.919 -24.485 -24.130  1.00  0.00     0.008 C 
ATOM      4  C   UNL     1      16.687 -23.599 -24.354  1.00  0.00     0.039 C 
ATOM      5  C   UNL     1      16.938 -22.499 -25.379  1.00  0.00    -0.006 C 
ATOM      6  C   UNL     1      15.937 -22.040 -26.186  1.00  0.00    -0.070 C 
ATOM      7  C   UNL     1      14.533 -22.590 -26.083  1.00  0.00     0.039 C 
ATOM      8  C   UNL     1      16.186 -20.990 -27.244  1.00  0.00     0.039 C 
ATOM      9  C   UNL     1      18.299 -21.886 -25.363  1.00  0.00     0.159 C 
ATOM     10  O   UNL     1      18.475 -20.676 -25.663  1.00  0.00    -0.295 OA
ATOM     11  C   UNL     1      19.492 -22.712 -24.975  1.00  0.00     0.084 C 
ENDROOT
TORSDOF 0
ENDMDL
MODEL 6
REMARK VINA RESULT:    -4.527      8.857     12.067
REMARK INTER + INTRA:          -4.527
REMARK INTER:                  -4.527
REMARK INTRA:                   0.000
REMARK UNBOUND:                 0.000
REMARK SMILES CC(C)=C1CC[C@@H](C)CC1=O
REMARK SMILES IDX 8 1 7 2 6 3 5 4 4 5 2 6 1 7 3 8 10 9 11 10 9 11
REMARK H PARENT
REMARK Flexibility Score: inf
ROOT
ATOM      1  C   UNL     1      19.730 -25.336 -10.502  1.00  0.00     0.008 C 
ATOM      2  C   UNL     1      20.116 -24.685 -11.836  1.00  0.00    -0.006 C 
ATOM      3  C   UNL     1      18.861 -24.245 -12.606  1.00  0.00     0.008 C 
ATOM      4  C   UNL     1      19.230 -23.500 -13.895  1.00  0.00     0.039 C 
ATOM      5  C   UNL     1      20.205 -24.285 -14.764  1.00  0.00    -0.006 C 
ATOM      6  C   UNL     1      20.182 -24.184 -16.126  1.00  0.00    -0.070 C 
ATOM      7  C   UNL     1      19.200 -23.274 -16.827  1.00  0.00     0.039 C 
ATOM      8  C   UNL     1      21.106 -25.000 -17.001  1.00  0.00     0.039 C 
ATOM      9  C   UNL     1      21.247 -25.069 -14.037  1.00  0.00     0.159 C 
ATOM     10  O   UNL     1      22.394 -25.246 -14.527  1.00  0.00    -0.295 OA
ATOM     11  C   UNL     1      20.942 -25.659 -12.690  1.00  0.00     0.084 C 
ENDROOT
TORSDOF 0
ENDMDL
MODEL 7
REMARK VINA RESULT:    -4.515      2.143      2.913
REMARK INTER + INTRA:          -4.515
REMARK INTER:                  -4.515
REMARK INTRA:                   0.000
REMARK UNBOUND:                 0.000
REMARK SMILES CC(C)=C1CC[C@@H](C)CC1=O
REMARK SMILES IDX 8 1 7 2 6 3 5 4 4 5 2 6 1 7 3 8 10 9 11 10 9 11
REMARK H PARENT
REMARK Flexibility Score: inf
ROOT
ATOM      1  C   UNL     1      17.270 -22.814 -27.123  1.00  0.00     0.008 C 
ATOM      2  C   UNL     1      17.747 -23.170 -25.710  1.00  0.00    -0.006 C 
ATOM      3  C   UNL     1      19.281 -23.133 -25.633  1.00  0.00     0.008 C 
ATOM      4  C   UNL     1      19.773 -23.386 -24.202  1.00  0.00     0.039 C 
ATOM      5  C   UNL     1      19.188 -24.658 -23.599  1.00  0.00    -0.006 C 
ATOM      6  C   UNL     1      19.891 -25.407 -22.701  1.00  0.00    -0.070 C 
ATOM      7  C   UNL     1      21.275 -24.995 -22.252  1.00  0.00     0.039 C 
ATOM      8  C   UNL     1      19.345 -26.699 -22.140  1.00  0.00     0.039 C 
ATOM      9  C   UNL     1      17.771 -24.962 -23.961  1.00  0.00     0.159 C 
ATOM     10  O   UNL     1      17.002 -25.550 -23.156  1.00  0.00    -0.295 OA
ATOM     11  C   UNL     1      17.235 -24.561 -25.305  1.00  0.00     0.084 C 
ENDROOT
TORSDOF 0
ENDMDL
MODEL 8
REMARK VINA RESULT:    -4.482      2.140      4.159
REMARK INTER + INTRA:          -4.482
REMARK INTER:                  -4.482
REMARK INTRA:                   0.000
REMARK UNBOUND:                 0.000
REMARK SMILES CC(C)=C1CC[C@@H](C)CC1=O
REMARK SMILES IDX 8 1 7 2 6 3 5 4 4 5 2 6 1 7 3 8 10 9 11 10 9 11
REMARK H PARENT
REMARK Flexibility Score: inf
ROOT
ATOM      1  C   UNL     1      18.491 -19.960 -19.918  1.00  0.00     0.008 C 
ATOM      2  C   UNL     1      18.229 -20.851 -21.138  1.00  0.00    -0.006 C 
ATOM      3  C   UNL     1      18.804 -22.258 -20.914  1.00  0.00     0.008 C 
ATOM      4  C   UNL     1      18.462 -23.193 -22.081  1.00  0.00     0.039 C 
ATOM      5  C   UNL     1      18.856 -22.609 -23.432  1.00  0.00    -0.006 C 
ATOM      6  C   UNL     1      19.248 -23.410 -24.465  1.00  0.00    -0.070 C 
ATOM      7  C   UNL     1      19.289 -24.915 -24.317  1.00  0.00     0.039 C 
ATOM      8  C   UNL     1      19.695 -22.840 -25.791  1.00  0.00     0.039 C 
ATOM      9  C   UNL     1      18.677 -21.134 -23.586  1.00  0.00     0.159 C 
ATOM     10  O   UNL     1      18.379 -20.624 -24.698  1.00  0.00    -0.295 OA
ATOM     11  C   UNL     1      18.845 -20.228 -22.400  1.00  0.00     0.084 C 
ENDROOT
TORSDOF 0
ENDMDL
