MODEL 1
REMARK VINA RESULT:    -7.435      0.000      0.000
REMARK INTER + INTRA:          -8.304
REMARK INTER:                  -8.304
REMARK INTRA:                   0.000
REMARK UNBOUND:                 0.000
REMARK SMILES Oc1cc(O)c2c(c1)CCc1cc(O)c(O)cc1-2
REMARK SMILES IDX 10 1 9 2 7 3 6 4 18 5 17 6 15 7 13 8 12 9 11 10 4 11 3 12
REMARK SMILES IDX 2 13 8 14 14 15 5 17 1 19 16 21
REMARK H PARENT 14 16 5 18 1 20 16 22
REMARK Flexibility Score: inf
ROOT
ATOM      1  C   UNL     1     -29.342  57.731   3.776  1.00  0.00     0.041 C 
ATOM      2  C   UNL     1     -28.202  58.739   3.957  1.00  0.00     0.041 C 
ATOM      3  C   UNL     1     -26.989  58.314   3.170  1.00  0.00    -0.032 A 
ATOM      4  C   UNL     1     -27.144  57.680   1.914  1.00  0.00     0.027 A 
ATOM      5  C   UNL     1     -28.535  57.481   1.393  1.00  0.00    -0.007 A 
ATOM      6  C   UNL     1     -28.823  57.371   0.019  1.00  0.00     0.059 A 
ATOM      7  C   UNL     1     -30.140  57.180  -0.425  1.00  0.00     0.158 A 
ATOM      8  C   UNL     1     -31.188  57.125   0.498  1.00  0.00     0.157 A 
ATOM      9  C   UNL     1     -30.924  57.292   1.862  1.00  0.00     0.054 A 
ATOM     10  C   UNL     1     -29.612  57.503   2.310  1.00  0.00    -0.036 A 
ATOM     11  C   UNL     1     -25.990  57.201   1.245  1.00  0.00     0.127 A 
ATOM     12  C   UNL     1     -24.717  57.473   1.767  1.00  0.00     0.093 A 
ATOM     13  C   UNL     1     -24.574  58.171   2.970  1.00  0.00     0.119 A 
ATOM     14  C   UNL     1     -25.707  58.582   3.670  1.00  0.00     0.050 A 
ENDROOT
BRANCH   8  15
ATOM     15  O   UNL     1     -32.491  56.917   0.051  1.00  0.00    -0.504 OA
ATOM     16  H   UNL     1     -33.242  57.552   0.294  1.00  0.00     0.293 HD
ENDBRANCH   8  15
BRANCH  11  17
ATOM     17  O   UNL     1     -26.096  56.423   0.093  1.00  0.00    -0.507 OA
ATOM     18  H   UNL     1     -26.668  56.708  -0.693  1.00  0.00     0.293 HD
ENDBRANCH  11  17
BRANCH  13  19
ATOM     19  O   UNL     1     -23.309  58.447   3.484  1.00  0.00    -0.508 OA
ATOM     20  H   UNL     1     -23.063  58.217   4.439  1.00  0.00     0.293 HD
ENDBRANCH  13  19
BRANCH   7  21
ATOM     21  O   UNL     1     -30.413  57.052  -1.787  1.00  0.00    -0.504 OA
ATOM     22  H   UNL     1     -30.596  57.859  -2.369  1.00  0.00     0.293 HD
ENDBRANCH   7  21
TORSDOF 4
ENDMDL
MODEL 2
REMARK VINA RESULT:    -7.427      1.405      2.837
REMARK INTER + INTRA:          -8.295
REMARK INTER:                  -8.295
REMARK INTRA:                   0.000
REMARK UNBOUND:                 0.000
REMARK SMILES Oc1cc(O)c2c(c1)CCc1cc(O)c(O)cc1-2
REMARK SMILES IDX 10 1 9 2 7 3 6 4 18 5 17 6 15 7 13 8 12 9 11 10 4 11 3 12
REMARK SMILES IDX 2 13 8 14 14 15 5 17 1 19 16 21
REMARK H PARENT 14 16 5 18 1 20 16 22
REMARK Flexibility Score: inf
ROOT
ATOM      1  C   UNL     1     -27.720  57.271  -0.635  1.00  0.00     0.041 C 
ATOM      2  C   UNL     1     -26.532  56.589   0.052  1.00  0.00     0.041 C 
ATOM      3  C   UNL     1     -26.225  57.258   1.368  1.00  0.00    -0.032 A 
ATOM      4  C   UNL     1     -27.277  57.764   2.169  1.00  0.00     0.027 A 
ATOM      5  C   UNL     1     -28.682  57.582   1.682  1.00  0.00    -0.007 A 
ATOM      6  C   UNL     1     -29.788  57.542   2.553  1.00  0.00     0.059 A 
ATOM      7  C   UNL     1     -31.089  57.376   2.054  1.00  0.00     0.158 A 
ATOM      8  C   UNL     1     -31.295  57.220   0.680  1.00  0.00     0.157 A 
ATOM      9  C   UNL     1     -30.201  57.199  -0.191  1.00  0.00     0.054 A 
ATOM     10  C   UNL     1     -28.897  57.345   0.304  1.00  0.00    -0.036 A 
ATOM     11  C   UNL     1     -26.951  58.477   3.349  1.00  0.00     0.127 A 
ATOM     12  C   UNL     1     -25.616  58.558   3.771  1.00  0.00     0.093 A 
ATOM     13  C   UNL     1     -24.592  57.985   3.011  1.00  0.00     0.119 A 
ATOM     14  C   UNL     1     -24.897  57.344   1.811  1.00  0.00     0.050 A 
ENDROOT
BRANCH   8  15
ATOM     15  O   UNL     1     -32.591  57.073   0.189  1.00  0.00    -0.504 OA
ATOM     16  H   UNL     1     -33.280  57.809   0.283  1.00  0.00     0.293 HD
ENDBRANCH   8  15
BRANCH  11  17
ATOM     17  O   UNL     1     -27.933  59.140   4.085  1.00  0.00    -0.507 OA
ATOM     18  H   UNL     1     -28.266  60.061   3.823  1.00  0.00     0.293 HD
ENDBRANCH  11  17
BRANCH  13  19
ATOM     19  O   UNL     1     -23.267  58.059   3.434  1.00  0.00    -0.508 OA
ATOM     20  H   UNL     1     -22.729  57.225   3.640  1.00  0.00     0.293 HD
ENDBRANCH  13  19
BRANCH   7  21
ATOM     21  O   UNL     1     -32.180  57.358   2.921  1.00  0.00    -0.504 OA
ATOM     22  H   UNL     1     -32.060  57.273   3.923  1.00  0.00     0.293 HD
ENDBRANCH   7  21
TORSDOF 4
ENDMDL
MODEL 3
REMARK VINA RESULT:    -7.110     10.189     13.548
REMARK INTER + INTRA:          -7.941
REMARK INTER:                  -7.941
REMARK INTRA:                   0.000
REMARK UNBOUND:                 0.000
REMARK SMILES Oc1cc(O)c2c(c1)CCc1cc(O)c(O)cc1-2
REMARK SMILES IDX 10 1 9 2 7 3 6 4 18 5 17 6 15 7 13 8 12 9 11 10 4 11 3 12
REMARK SMILES IDX 2 13 8 14 14 15 5 17 1 19 16 21
REMARK H PARENT 14 16 5 18 1 20 16 22
REMARK Flexibility Score: inf
ROOT
ATOM      1  C   UNL     1     -17.812  60.124  -2.027  1.00  0.00     0.041 C 
ATOM      2  C   UNL     1     -18.501  58.764  -2.186  1.00  0.00     0.041 C 
ATOM      3  C   UNL     1     -18.874  58.524  -3.627  1.00  0.00    -0.032 A 
ATOM      4  C   UNL     1     -18.029  58.987  -4.665  1.00  0.00     0.027 A 
ATOM      5  C   UNL     1     -16.758  59.681  -4.281  1.00  0.00    -0.007 A 
ATOM      6  C   UNL     1     -15.627  59.713  -5.121  1.00  0.00     0.059 A 
ATOM      7  C   UNL     1     -14.458  60.380  -4.724  1.00  0.00     0.158 A 
ATOM      8  C   UNL     1     -14.397  60.998  -3.472  1.00  0.00     0.157 A 
ATOM      9  C   UNL     1     -15.491  60.924  -2.604  1.00  0.00     0.054 A 
ATOM     10  C   UNL     1     -16.656  60.241  -2.987  1.00  0.00    -0.036 A 
ATOM     11  C   UNL     1     -18.456  58.837  -6.008  1.00  0.00     0.127 A 
ATOM     12  C   UNL     1     -19.631  58.127  -6.293  1.00  0.00     0.093 A 
ATOM     13  C   UNL     1     -20.417  57.606  -5.260  1.00  0.00     0.119 A 
ATOM     14  C   UNL     1     -20.041  57.812  -3.933  1.00  0.00     0.050 A 
ENDROOT
BRANCH   8  15
ATOM     15  O   UNL     1     -13.239  61.673  -3.091  1.00  0.00    -0.504 OA
ATOM     16  H   UNL     1     -12.618  61.303  -2.381  1.00  0.00     0.293 HD
ENDBRANCH   8  15
BRANCH  11  17
ATOM     17  O   UNL     1     -17.749  59.421  -7.058  1.00  0.00    -0.507 OA
ATOM     18  H   UNL     1     -18.143  59.499  -7.989  1.00  0.00     0.293 HD
ENDBRANCH  11  17
BRANCH  13  19
ATOM     19  O   UNL     1     -21.581  56.894  -5.543  1.00  0.00    -0.508 OA
ATOM     20  H   UNL     1     -22.441  57.365  -5.800  1.00  0.00     0.293 HD
ENDBRANCH  13  19
BRANCH   7  21
ATOM     21  O   UNL     1     -13.350  60.423  -5.570  1.00  0.00    -0.504 OA
ATOM     22  H   UNL     1     -12.735  61.227  -5.597  1.00  0.00     0.293 HD
ENDBRANCH   7  21
TORSDOF 4
ENDMDL
MODEL 4
REMARK VINA RESULT:    -6.890      2.813      4.433
REMARK INTER + INTRA:          -7.696
REMARK INTER:                  -7.696
REMARK INTRA:                   0.000
REMARK UNBOUND:                 0.000
REMARK SMILES Oc1cc(O)c2c(c1)CCc1cc(O)c(O)cc1-2
REMARK SMILES IDX 10 1 9 2 7 3 6 4 18 5 17 6 15 7 13 8 12 9 11 10 4 11 3 12
REMARK SMILES IDX 2 13 8 14 14 15 5 17 1 19 16 21
REMARK H PARENT 14 16 5 18 1 20 16 22
REMARK Flexibility Score: inf
ROOT
ATOM      1  C   UNL     1     -28.295  59.254   2.241  1.00  0.00     0.041 C 
ATOM      2  C   UNL     1     -27.919  58.638   3.594  1.00  0.00     0.041 C 
ATOM      3  C   UNL     1     -29.156  58.245   4.360  1.00  0.00    -0.032 A 
ATOM      4  C   UNL     1     -30.287  57.742   3.672  1.00  0.00     0.027 A 
ATOM      5  C   UNL     1     -30.194  57.587   2.185  1.00  0.00    -0.007 A 
ATOM      6  C   UNL     1     -30.973  56.657   1.468  1.00  0.00     0.059 A 
ATOM      7  C   UNL     1     -30.859  56.549   0.074  1.00  0.00     0.158 A 
ATOM      8  C   UNL     1     -29.944  57.349  -0.616  1.00  0.00     0.157 A 
ATOM      9  C   UNL     1     -29.122  58.234   0.089  1.00  0.00     0.054 A 
ATOM     10  C   UNL     1     -29.218  58.333   1.485  1.00  0.00    -0.036 A 
ATOM     11  C   UNL     1     -31.469  57.479   4.407  1.00  0.00     0.127 A 
ATOM     12  C   UNL     1     -31.464  57.594   5.805  1.00  0.00     0.093 A 
ATOM     13  C   UNL     1     -30.315  58.017   6.481  1.00  0.00     0.119 A 
ATOM     14  C   UNL     1     -29.169  58.347   5.758  1.00  0.00     0.050 A 
ENDROOT
BRANCH   8  15
ATOM     15  O   UNL     1     -29.848  57.248  -2.003  1.00  0.00    -0.504 OA
ATOM     16  H   UNL     1     -30.170  57.991  -2.612  1.00  0.00     0.293 HD
ENDBRANCH   8  15
BRANCH  11  17
ATOM     17  O   UNL     1     -32.659  57.144   3.762  1.00  0.00    -0.507 OA
ATOM     18  H   UNL     1     -33.156  56.285   3.969  1.00  0.00     0.293 HD
ENDBRANCH  11  17
BRANCH  13  19
ATOM     19  O   UNL     1     -30.307  58.124   7.870  1.00  0.00    -0.508 OA
ATOM     20  H   UNL     1     -29.824  57.449   8.451  1.00  0.00     0.293 HD
ENDBRANCH  13  19
BRANCH   7  21
ATOM     21  O   UNL     1     -31.648  55.640  -0.629  1.00  0.00    -0.504 OA
ATOM     22  H   UNL     1     -31.262  55.055  -1.360  1.00  0.00     0.293 HD
ENDBRANCH   7  21
TORSDOF 4
ENDMDL
MODEL 5
REMARK VINA RESULT:    -6.791     10.269     12.332
REMARK INTER + INTRA:          -7.585
REMARK INTER:                  -7.585
REMARK INTRA:                   0.000
REMARK UNBOUND:                 0.000
REMARK SMILES Oc1cc(O)c2c(c1)CCc1cc(O)c(O)cc1-2
REMARK SMILES IDX 10 1 9 2 7 3 6 4 18 5 17 6 15 7 13 8 12 9 11 10 4 11 3 12
REMARK SMILES IDX 2 13 8 14 14 15 5 17 1 19 16 21
REMARK H PARENT 14 16 5 18 1 20 16 22
REMARK Flexibility Score: inf
ROOT
ATOM      1  C   UNL     1     -15.164  61.108  -3.215  1.00  0.00     0.041 C 
ATOM      2  C   UNL     1     -14.810  60.602  -1.812  1.00  0.00     0.041 C 
ATOM      3  C   UNL     1     -16.049  60.492  -0.960  1.00  0.00    -0.032 A 
ATOM      4  C   UNL     1     -17.276  60.089  -1.541  1.00  0.00     0.027 A 
ATOM      5  C   UNL     1     -17.286  59.752  -3.001  1.00  0.00    -0.007 A 
ATOM      6  C   UNL     1     -18.230  58.875  -3.570  1.00  0.00     0.059 A 
ATOM      7  C   UNL     1     -18.207  58.591  -4.944  1.00  0.00     0.158 A 
ATOM      8  C   UNL     1     -17.223  59.158  -5.758  1.00  0.00     0.157 A 
ATOM      9  C   UNL     1     -16.245  59.984  -5.197  1.00  0.00     0.054 A 
ATOM     10  C   UNL     1     -16.250  60.257  -3.820  1.00  0.00    -0.036 A 
ATOM     11  C   UNL     1     -18.443  60.094  -0.737  1.00  0.00     0.127 A 
ATOM     12  C   UNL     1     -18.347  60.368   0.635  1.00  0.00     0.093 A 
ATOM     13  C   UNL     1     -17.114  60.687   1.213  1.00  0.00     0.119 A 
ATOM     14  C   UNL     1     -15.973  60.755   0.415  1.00  0.00     0.050 A 
ENDROOT
BRANCH   8  15
ATOM     15  O   UNL     1     -17.217  58.885  -7.125  1.00  0.00    -0.504 OA
ATOM     16  H   UNL     1     -17.302  59.623  -7.813  1.00  0.00     0.293 HD
ENDBRANCH   8  15
BRANCH  11  17
ATOM     17  O   UNL     1     -19.702  59.872  -1.294  1.00  0.00    -0.507 OA
ATOM     18  H   UNL     1     -19.819  59.369  -2.166  1.00  0.00     0.293 HD
ENDBRANCH  11  17
BRANCH  13  19
ATOM     19  O   UNL     1     -17.017  60.951   2.577  1.00  0.00    -0.508 OA
ATOM     20  H   UNL     1     -17.798  61.328   3.101  1.00  0.00     0.293 HD
ENDBRANCH  13  19
BRANCH   7  21
ATOM     21  O   UNL     1     -19.157  57.736  -5.503  1.00  0.00    -0.504 OA
ATOM     22  H   UNL     1     -19.985  57.456  -4.992  1.00  0.00     0.293 HD
ENDBRANCH   7  21
TORSDOF 4
ENDMDL
MODEL 6
REMARK VINA RESULT:    -6.791      3.006      4.484
REMARK INTER + INTRA:          -7.585
REMARK INTER:                  -7.585
REMARK INTRA:                   0.000
REMARK UNBOUND:                 0.000
REMARK SMILES Oc1cc(O)c2c(c1)CCc1cc(O)c(O)cc1-2
REMARK SMILES IDX 10 1 9 2 7 3 6 4 18 5 17 6 15 7 13 8 12 9 11 10 4 11 3 12
REMARK SMILES IDX 2 13 8 14 14 15 5 17 1 19 16 21
REMARK H PARENT 14 16 5 18 1 20 16 22
REMARK Flexibility Score: inf
ROOT
ATOM      1  C   UNL     1     -27.459  56.068   1.193  1.00  0.00     0.041 C 
ATOM      2  C   UNL     1     -26.517  56.875   0.292  1.00  0.00     0.041 C 
ATOM      3  C   UNL     1     -27.083  56.988  -1.101  1.00  0.00    -0.032 A 
ATOM      4  C   UNL     1     -28.481  57.113  -1.290  1.00  0.00     0.027 A 
ATOM      5  C   UNL     1     -29.355  57.160  -0.074  1.00  0.00    -0.007 A 
ATOM      6  C   UNL     1     -30.617  57.786  -0.070  1.00  0.00     0.059 A 
ATOM      7  C   UNL     1     -31.405  57.802   1.090  1.00  0.00     0.158 A 
ATOM      8  C   UNL     1     -30.929  57.218   2.267  1.00  0.00     0.157 A 
ATOM      9  C   UNL     1     -29.653  56.645   2.294  1.00  0.00     0.054 A 
ATOM     10  C   UNL     1     -28.852  56.643   1.142  1.00  0.00    -0.036 A 
ATOM     11  C   UNL     1     -28.991  57.115  -2.612  1.00  0.00     0.127 A 
ATOM     12  C   UNL     1     -28.109  57.124  -3.702  1.00  0.00     0.093 A 
ATOM     13  C   UNL     1     -26.726  57.080  -3.500  1.00  0.00     0.119 A 
ATOM     14  C   UNL     1     -26.218  57.005  -2.204  1.00  0.00     0.050 A 
ENDROOT
BRANCH   8  15
ATOM     15  O   UNL     1     -31.724  57.222   3.412  1.00  0.00    -0.504 OA
ATOM     16  H   UNL     1     -32.275  56.414   3.678  1.00  0.00     0.293 HD
ENDBRANCH   8  15
BRANCH  11  17
ATOM     17  O   UNL     1     -30.363  57.065  -2.855  1.00  0.00    -0.507 OA
ATOM     18  H   UNL     1     -30.757  57.330  -3.751  1.00  0.00     0.293 HD
ENDBRANCH  11  17
BRANCH  13  19
ATOM     19  O   UNL     1     -25.849  57.097  -4.583  1.00  0.00    -0.508 OA
ATOM     20  H   UNL     1     -24.972  56.591  -4.562  1.00  0.00     0.293 HD
ENDBRANCH  13  19
BRANCH   7  21
ATOM     21  O   UNL     1     -32.662  58.406   1.080  1.00  0.00    -0.504 OA
ATOM     22  H   UNL     1     -32.777  59.389   0.869  1.00  0.00     0.293 HD
ENDBRANCH   7  21
TORSDOF 4
ENDMDL
MODEL 7
REMARK VINA RESULT:    -6.742     10.002     12.563
REMARK INTER + INTRA:          -7.530
REMARK INTER:                  -7.530
REMARK INTRA:                   0.000
REMARK UNBOUND:                 0.000
REMARK SMILES Oc1cc(O)c2c(c1)CCc1cc(O)c(O)cc1-2
REMARK SMILES IDX 10 1 9 2 7 3 6 4 18 5 17 6 15 7 13 8 12 9 11 10 4 11 3 12
REMARK SMILES IDX 2 13 8 14 14 15 5 17 1 19 16 21
REMARK H PARENT 14 16 5 18 1 20 16 22
REMARK Flexibility Score: inf
ROOT
ATOM      1  C   UNL     1     -14.920  60.395  -1.563  1.00  0.00     0.041 C 
ATOM      2  C   UNL     1     -15.174  60.982  -2.956  1.00  0.00     0.041 C 
ATOM      3  C   UNL     1     -16.243  60.199  -3.675  1.00  0.00    -0.032 A 
ATOM      4  C   UNL     1     -17.336  59.661  -2.952  1.00  0.00     0.027 A 
ATOM      5  C   UNL     1     -17.402  59.924  -1.479  1.00  0.00    -0.007 A 
ATOM      6  C   UNL     1     -18.615  59.926  -0.762  1.00  0.00     0.059 A 
ATOM      7  C   UNL     1     -18.632  60.171   0.619  1.00  0.00     0.158 A 
ATOM      8  C   UNL     1     -17.440  60.445   1.294  1.00  0.00     0.157 A 
ATOM      9  C   UNL     1     -16.235  60.505   0.586  1.00  0.00     0.054 A 
ATOM     10  C   UNL     1     -16.214  60.280  -0.799  1.00  0.00    -0.036 A 
ATOM     11  C   UNL     1     -18.269  58.844  -3.638  1.00  0.00     0.127 A 
ATOM     12  C   UNL     1     -18.173  58.689  -5.028  1.00  0.00     0.093 A 
ATOM     13  C   UNL     1     -17.133  59.291  -5.743  1.00  0.00     0.119 A 
ATOM     14  C   UNL     1     -16.169  60.037  -5.065  1.00  0.00     0.050 A 
ENDROOT
BRANCH   8  15
ATOM     15  O   UNL     1     -17.461  60.671   2.669  1.00  0.00    -0.504 OA
ATOM     16  H   UNL     1     -17.700  61.577   3.055  1.00  0.00     0.293 HD
ENDBRANCH   8  15
BRANCH  11  17
ATOM     17  O   UNL     1     -19.264  58.153  -2.948  1.00  0.00    -0.507 OA
ATOM     18  H   UNL     1     -19.948  58.633  -2.373  1.00  0.00     0.293 HD
ENDBRANCH  11  17
BRANCH  13  19
ATOM     19  O   UNL     1     -17.042  59.143  -7.125  1.00  0.00    -0.508 OA
ATOM     20  H   UNL     1     -17.840  59.304  -7.729  1.00  0.00     0.293 HD
ENDBRANCH  13  19
BRANCH   7  21
ATOM     21  O   UNL     1     -19.835  60.152   1.324  1.00  0.00    -0.504 OA
ATOM     22  H   UNL     1     -19.930  60.603   2.225  1.00  0.00     0.293 HD
ENDBRANCH   7  21
TORSDOF 4
ENDMDL
MODEL 8
REMARK VINA RESULT:    -6.613     10.119     12.419
REMARK INTER + INTRA:          -7.386
REMARK INTER:                  -7.386
REMARK INTRA:                   0.000
REMARK UNBOUND:                 0.000
REMARK SMILES Oc1cc(O)c2c(c1)CCc1cc(O)c(O)cc1-2
REMARK SMILES IDX 10 1 9 2 7 3 6 4 18 5 17 6 15 7 13 8 12 9 11 10 4 11 3 12
REMARK SMILES IDX 2 13 8 14 14 15 5 17 1 19 16 21
REMARK H PARENT 14 16 5 18 1 20 16 22
REMARK Flexibility Score: inf
ROOT
ATOM      1  C   UNL     1     -18.080  59.099  -1.894  1.00  0.00     0.041 C 
ATOM      2  C   UNL     1     -17.439  60.492  -1.899  1.00  0.00     0.041 C 
ATOM      3  C   UNL     1     -16.367  60.579  -2.956  1.00  0.00    -0.032 A 
ATOM      4  C   UNL     1     -16.529  59.898  -4.187  1.00  0.00     0.027 A 
ATOM      5  C   UNL     1     -17.797  59.130  -4.406  1.00  0.00    -0.007 A 
ATOM      6  C   UNL     1     -18.315  58.870  -5.690  1.00  0.00     0.059 A 
ATOM      7  C   UNL     1     -19.503  58.141  -5.849  1.00  0.00     0.158 A 
ATOM      8  C   UNL     1     -20.202  57.690  -4.727  1.00  0.00     0.157 A 
ATOM      9  C   UNL     1     -19.731  57.991  -3.445  1.00  0.00     0.054 A 
ATOM     10  C   UNL     1     -18.553  58.736  -3.278  1.00  0.00    -0.036 A 
ATOM     11  C   UNL     1     -15.461  59.915  -5.119  1.00  0.00     0.127 A 
ATOM     12  C   UNL     1     -14.327  60.701  -4.869  1.00  0.00     0.093 A 
ATOM     13  C   UNL     1     -14.214  61.433  -3.683  1.00  0.00     0.119 A 
ATOM     14  C   UNL     1     -15.229  61.364  -2.729  1.00  0.00     0.050 A 
ENDROOT
BRANCH   8  15
ATOM     15  O   UNL     1     -21.372  56.952  -4.893  1.00  0.00    -0.504 OA
ATOM     16  H   UNL     1     -22.023  56.811  -4.130  1.00  0.00     0.293 HD
ENDBRANCH   8  15
BRANCH  11  17
ATOM     17  O   UNL     1     -15.497  59.127  -6.269  1.00  0.00    -0.507 OA
ATOM     18  H   UNL     1     -14.693  59.038  -6.880  1.00  0.00     0.293 HD
ENDBRANCH  11  17
BRANCH  13  19
ATOM     19  O   UNL     1     -13.091  62.220  -3.439  1.00  0.00    -0.508 OA
ATOM     20  H   UNL     1     -13.123  63.005  -2.798  1.00  0.00     0.293 HD
ENDBRANCH  13  19
BRANCH   7  21
ATOM     21  O   UNL     1     -19.998  57.871  -7.125  1.00  0.00    -0.504 OA
ATOM     22  H   UNL     1     -19.733  57.036  -7.631  1.00  0.00     0.293 HD
ENDBRANCH   7  21
TORSDOF 4
ENDMDL
MODEL 9
REMARK VINA RESULT:    -6.493      9.910     13.507
REMARK INTER + INTRA:          -7.252
REMARK INTER:                  -7.252
REMARK INTRA:                   0.000
REMARK UNBOUND:                 0.000
REMARK SMILES Oc1cc(O)c2c(c1)CCc1cc(O)c(O)cc1-2
REMARK SMILES IDX 10 1 9 2 7 3 6 4 18 5 17 6 15 7 13 8 12 9 11 10 4 11 3 12
REMARK SMILES IDX 2 13 8 14 14 15 5 17 1 19 16 21
REMARK H PARENT 14 16 5 18 1 20 16 22
REMARK Flexibility Score: inf
ROOT
ATOM      1  C   UNL     1     -16.347  58.797  -6.547  1.00  0.00     0.041 C 
ATOM      2  C   UNL     1     -17.771  59.021  -7.070  1.00  0.00     0.041 C 
ATOM      3  C   UNL     1     -18.787  58.606  -6.037  1.00  0.00    -0.032 A 
ATOM      4  C   UNL     1     -18.525  58.814  -4.661  1.00  0.00     0.027 A 
ATOM      5  C   UNL     1     -17.238  59.480  -4.282  1.00  0.00    -0.007 A 
ATOM      6  C   UNL     1     -17.081  60.202  -3.083  1.00  0.00     0.059 A 
ATOM      7  C   UNL     1     -15.856  60.806  -2.765  1.00  0.00     0.158 A 
ATOM      8  C   UNL     1     -14.782  60.720  -3.655  1.00  0.00     0.157 A 
ATOM      9  C   UNL     1     -14.941  60.056  -4.876  1.00  0.00     0.054 A 
ATOM     10  C   UNL     1     -16.170  59.467  -5.209  1.00  0.00    -0.036 A 
ATOM     11  C   UNL     1     -19.452  58.321  -3.710  1.00  0.00     0.127 A 
ATOM     12  C   UNL     1     -20.663  57.757  -4.140  1.00  0.00     0.093 A 
ATOM     13  C   UNL     1     -20.944  57.629  -5.503  1.00  0.00     0.119 A 
ATOM     14  C   UNL     1     -20.005  58.046  -6.446  1.00  0.00     0.050 A 
ENDROOT
BRANCH   8  15
ATOM     15  O   UNL     1     -13.562  61.307  -3.325  1.00  0.00    -0.504 OA
ATOM     16  H   UNL     1     -13.476  62.306  -3.181  1.00  0.00     0.293 HD
ENDBRANCH   8  15
BRANCH  11  17
ATOM     17  O   UNL     1     -19.167  58.346  -2.345  1.00  0.00    -0.507 OA
ATOM     18  H   UNL     1     -18.259  58.628  -1.995  1.00  0.00     0.293 HD
ENDBRANCH  11  17
BRANCH  13  19
ATOM     19  O   UNL     1     -22.149  57.076  -5.931  1.00  0.00    -0.508 OA
ATOM     20  H   UNL     1     -23.033  57.339  -5.509  1.00  0.00     0.293 HD
ENDBRANCH  13  19
BRANCH   7  21
ATOM     21  O   UNL     1     -15.703  61.502  -1.566  1.00  0.00    -0.504 OA
ATOM     22  H   UNL     1     -15.201  62.380  -1.522  1.00  0.00     0.293 HD
ENDBRANCH   7  21
TORSDOF 4
ENDMDL
