MODEL 1
REMARK VINA RESULT:     0.272      0.000      0.000
REMARK INTER + INTRA:          -1.452
REMARK INTER:                   0.590
REMARK INTRA:                  -2.042
REMARK UNBOUND:                -2.042
REMARK SMILES CCCCCCCCCCCCCCCCCCCCCC(=O)[O-]
REMARK SMILES IDX 12 1 11 2 10 3 9 4 8 5 7 6 6 7 5 8 4 9 3 10 2 11 1 12 13 13
REMARK SMILES IDX 14 14 15 15 16 16 17 17 18 18 19 19 20 20 21 21 22 22 23 23
REMARK SMILES IDX 24 24
REMARK H PARENT
REMARK Flexibility Score: inf
ROOT
ATOM      1  C   UNL     1       4.988 -36.640  24.583  1.00  0.00     0.000 C 
ENDROOT
BRANCH   1   2
ATOM      2  C   UNL     1       5.395 -37.814  25.493  1.00  0.00     0.000 C 
BRANCH   2   3
ATOM      3  C   UNL     1       5.366 -39.171  24.768  1.00  0.00     0.000 C 
BRANCH   3   4
ATOM      4  C   UNL     1       5.241 -39.021  23.242  1.00  0.00    -0.000 C 
BRANCH   4   5
ATOM      5  C   UNL     1       5.762 -40.245  22.476  1.00  0.00    -0.000 C 
BRANCH   5   6
ATOM      6  C   UNL     1       5.768 -39.980  20.965  1.00  0.00    -0.000 C 
BRANCH   6   7
ATOM      7  C   UNL     1       5.587 -38.485  20.664  1.00  0.00    -0.000 C 
BRANCH   7   8
ATOM      8  C   UNL     1       4.594 -38.227  19.521  1.00  0.00    -0.000 C 
BRANCH   8   9
ATOM      9  C   UNL     1       3.273 -37.606  20.010  1.00  0.00    -0.000 C 
BRANCH   9  10
ATOM     10  C   UNL     1       2.039 -38.377  19.497  1.00  0.00    -0.000 C 
BRANCH  10  11
ATOM     11  C   UNL     1       0.818 -37.480  19.236  1.00  0.00    -0.003 C 
ATOM     12  C   UNL     1       0.020 -37.896  18.002  1.00  0.00     0.004 C 
ENDBRANCH  10  11
ENDBRANCH   9  10
ENDBRANCH   8   9
ENDBRANCH   7   8
ENDBRANCH   6   7
ENDBRANCH   5   6
ENDBRANCH   4   5
ENDBRANCH   3   4
ENDBRANCH   2   3
ENDBRANCH   1   2
BRANCH   1  13
ATOM     13  C   UNL     1       5.941 -35.430  24.608  1.00  0.00     0.000 C 
BRANCH  13  14
ATOM     14  C   UNL     1       6.125 -34.704  23.261  1.00  0.00     0.000 C 
BRANCH  14  15
ATOM     15  C   UNL     1       6.004 -35.626  22.029  1.00  0.00     0.000 C 
BRANCH  15  16
ATOM     16  C   UNL     1       5.388 -34.913  20.810  1.00  0.00     0.000 C 
BRANCH  16  17
ATOM     17  C   UNL     1       6.124 -35.242  19.501  1.00  0.00     0.000 C 
BRANCH  17  18
ATOM     18  C   UNL     1       5.754 -34.277  18.359  1.00  0.00     0.000 C 
BRANCH  18  19
ATOM     19  C   UNL     1       4.338 -34.518  17.809  1.00  0.00     0.000 C 
BRANCH  19  20
ATOM     20  C   UNL     1       4.107 -35.904  17.173  1.00  0.00     0.006 C 
BRANCH  20  21
ATOM     21  C   UNL     1       2.735 -36.066  16.492  1.00  0.00     0.053 C 
BRANCH  21  22
ATOM     22  C   UNL     1       2.795 -36.908  15.252  1.00  0.00     0.041 C 
ATOM     23  O   UNL     1       2.053 -36.646  14.266  1.00  0.00    -0.550 OA
ATOM     24  O   UNL     1       3.650 -38.003  15.194  1.00  0.00    -0.550 OA
ENDBRANCH  21  22
ENDBRANCH  20  21
ENDBRANCH  19  20
ENDBRANCH  18  19
ENDBRANCH  17  18
ENDBRANCH  16  17
ENDBRANCH  15  16
ENDBRANCH  14  15
ENDBRANCH  13  14
ENDBRANCH   1  13
TORSDOF 20
ENDMDL
MODEL 2
REMARK VINA RESULT:     0.532      1.118      2.693
REMARK INTER + INTRA:          -0.889
REMARK INTER:                   0.924
REMARK INTRA:                  -1.813
REMARK UNBOUND:                -2.042
REMARK SMILES CCCCCCCCCCCCCCCCCCCCCC(=O)[O-]
REMARK SMILES IDX 12 1 11 2 10 3 9 4 8 5 7 6 6 7 5 8 4 9 3 10 2 11 1 12 13 13
REMARK SMILES IDX 14 14 15 15 16 16 17 17 18 18 19 19 20 20 21 21 22 22 23 23
REMARK SMILES IDX 24 24
REMARK H PARENT
REMARK Flexibility Score: inf
ROOT
ATOM      1  C   UNL     1       4.729 -34.937  23.132  1.00  0.00     0.000 C 
ENDROOT
BRANCH   1   2
ATOM      2  C   UNL     1       6.059 -34.627  23.844  1.00  0.00     0.000 C 
BRANCH   2   3
ATOM      3  C   UNL     1       6.076 -35.098  25.309  1.00  0.00     0.000 C 
BRANCH   3   4
ATOM      4  C   UNL     1       5.912 -36.621  25.441  1.00  0.00    -0.000 C 
BRANCH   4   5
ATOM      5  C   UNL     1       6.100 -37.360  24.108  1.00  0.00    -0.000 C 
BRANCH   5   6
ATOM      6  C   UNL     1       5.568 -38.796  24.202  1.00  0.00    -0.000 C 
BRANCH   6   7
ATOM      7  C   UNL     1       5.661 -39.510  22.845  1.00  0.00    -0.000 C 
BRANCH   7   8
ATOM      8  C   UNL     1       5.382 -38.571  21.661  1.00  0.00    -0.000 C 
BRANCH   8   9
ATOM      9  C   UNL     1       4.157 -39.002  20.836  1.00  0.00    -0.000 C 
BRANCH   9  10
ATOM     10  C   UNL     1       3.420 -37.799  20.210  1.00  0.00    -0.000 C 
BRANCH  10  11
ATOM     11  C   UNL     1       2.621 -38.156  18.946  1.00  0.00    -0.003 C 
ATOM     12  C   UNL     1       1.126 -37.875  19.082  1.00  0.00     0.004 C 
ENDBRANCH  10  11
ENDBRANCH   9  10
ENDBRANCH   8   9
ENDBRANCH   7   8
ENDBRANCH   6   7
ENDBRANCH   5   6
ENDBRANCH   4   5
ENDBRANCH   3   4
ENDBRANCH   2   3
ENDBRANCH   1   2
BRANCH   1  13
ATOM     13  C   UNL     1       4.768 -34.832  21.595  1.00  0.00     0.000 C 
BRANCH  13  14
ATOM     14  C   UNL     1       6.125 -35.163  20.943  1.00  0.00     0.000 C 
BRANCH  14  15
ATOM     15  C   UNL     1       6.012 -35.759  19.525  1.00  0.00     0.000 C 
BRANCH  15  16
ATOM     16  C   UNL     1       5.666 -34.701  18.459  1.00  0.00     0.000 C 
BRANCH  16  17
ATOM     17  C   UNL     1       4.187 -34.746  18.042  1.00  0.00     0.000 C 
BRANCH  17  18
ATOM     18  C   UNL     1       3.908 -35.821  16.975  1.00  0.00     0.000 C 
BRANCH  18  19
ATOM     19  C   UNL     1       2.560 -35.618  16.262  1.00  0.00     0.000 C 
BRANCH  19  20
ATOM     20  C   UNL     1       1.994 -36.868  15.559  1.00  0.00     0.006 C 
BRANCH  20  21
ATOM     21  C   UNL     1       2.579 -37.125  14.157  1.00  0.00     0.053 C 
BRANCH  21  22
ATOM     22  C   UNL     1       3.912 -37.812  14.199  1.00  0.00     0.041 C 
ATOM     23  O   UNL     1       3.992 -39.031  14.517  1.00  0.00    -0.550 OA
ATOM     24  O   UNL     1       5.072 -37.100  13.916  1.00  0.00    -0.550 OA
ENDBRANCH  21  22
ENDBRANCH  20  21
ENDBRANCH  19  20
ENDBRANCH  18  19
ENDBRANCH  17  18
ENDBRANCH  16  17
ENDBRANCH  15  16
ENDBRANCH  14  15
ENDBRANCH  13  14
ENDBRANCH   1  13
TORSDOF 20
ENDMDL
MODEL 3
REMARK VINA RESULT:     0.584      1.607      4.517
REMARK INTER + INTRA:          -0.775
REMARK INTER:                   0.252
REMARK INTRA:                  -1.027
REMARK UNBOUND:                -2.042
REMARK SMILES CCCCCCCCCCCCCCCCCCCCCC(=O)[O-]
REMARK SMILES IDX 12 1 11 2 10 3 9 4 8 5 7 6 6 7 5 8 4 9 3 10 2 11 1 12 13 13
REMARK SMILES IDX 14 14 15 15 16 16 17 17 18 18 19 19 20 20 21 21 22 22 23 23
REMARK SMILES IDX 24 24
REMARK H PARENT
REMARK Flexibility Score: inf
ROOT
ATOM      1  C   UNL     1       5.738 -35.557  24.660  1.00  0.00     0.000 C 
ENDROOT
BRANCH   1   2
ATOM      2  C   UNL     1       6.122 -34.851  23.347  1.00  0.00     0.000 C 
BRANCH   2   3
ATOM      3  C   UNL     1       5.265 -35.305  22.151  1.00  0.00     0.000 C 
BRANCH   3   4
ATOM      4  C   UNL     1       6.108 -35.587  20.896  1.00  0.00    -0.000 C 
BRANCH   4   5
ATOM      5  C   UNL     1       6.055 -34.445  19.871  1.00  0.00    -0.000 C 
BRANCH   5   6
ATOM      6  C   UNL     1       5.803 -34.989  18.460  1.00  0.00    -0.000 C 
BRANCH   6   7
ATOM      7  C   UNL     1       4.355 -35.479  18.305  1.00  0.00    -0.000 C 
BRANCH   7   8
ATOM      8  C   UNL     1       3.802 -35.254  16.890  1.00  0.00    -0.000 C 
BRANCH   8   9
ATOM      9  C   UNL     1       3.076 -36.492  16.333  1.00  0.00    -0.000 C 
BRANCH   9  10
ATOM     10  C   UNL     1       2.769 -36.361  14.825  1.00  0.00    -0.000 C 
BRANCH  10  11
ATOM     11  C   UNL     1       3.693 -37.207  13.934  1.00  0.00    -0.003 C 
ATOM     12  C   UNL     1       4.068 -38.549  14.559  1.00  0.00     0.004 C 
ENDBRANCH  10  11
ENDBRANCH   9  10
ENDBRANCH   8   9
ENDBRANCH   7   8
ENDBRANCH   6   7
ENDBRANCH   5   6
ENDBRANCH   4   5
ENDBRANCH   3   4
ENDBRANCH   2   3
ENDBRANCH   1   2
BRANCH   1  13
ATOM     13  C   UNL     1       6.111 -37.050  24.736  1.00  0.00     0.000 C 
BRANCH  13  14
ATOM     14  C   UNL     1       5.024 -38.029  24.249  1.00  0.00     0.000 C 
BRANCH  14  15
ATOM     15  C   UNL     1       5.561 -39.422  23.861  1.00  0.00     0.000 C 
BRANCH  15  16
ATOM     16  C   UNL     1       4.970 -39.941  22.537  1.00  0.00     0.000 C 
BRANCH  16  17
ATOM     17  C   UNL     1       6.037 -40.127  21.446  1.00  0.00     0.000 C 
BRANCH  17  18
ATOM     18  C   UNL     1       5.996 -39.012  20.384  1.00  0.00     0.000 C 
BRANCH  18  19
ATOM     19  C   UNL     1       4.768 -38.098  20.526  1.00  0.00     0.000 C 
BRANCH  19  20
ATOM     20  C   UNL     1       3.560 -38.479  19.647  1.00  0.00     0.006 C 
BRANCH  20  21
ATOM     21  C   UNL     1       2.250 -37.760  20.026  1.00  0.00     0.053 C 
BRANCH  21  22
ATOM     22  C   UNL     1       1.187 -37.896  18.977  1.00  0.00     0.041 C 
ATOM     23  O   UNL     1       0.030 -37.434  19.178  1.00  0.00    -0.550 OA
ATOM     24  O   UNL     1       1.462 -38.560  17.788  1.00  0.00    -0.550 OA
ENDBRANCH  21  22
ENDBRANCH  20  21
ENDBRANCH  19  20
ENDBRANCH  18  19
ENDBRANCH  17  18
ENDBRANCH  16  17
ENDBRANCH  15  16
ENDBRANCH  14  15
ENDBRANCH  13  14
ENDBRANCH   1  13
TORSDOF 20
ENDMDL
MODEL 4
REMARK VINA RESULT:     0.613      2.555      6.459
REMARK INTER + INTRA:          -0.712
REMARK INTER:                  -0.032
REMARK INTRA:                  -0.680
REMARK UNBOUND:                -2.042
REMARK SMILES CCCCCCCCCCCCCCCCCCCCCC(=O)[O-]
REMARK SMILES IDX 12 1 11 2 10 3 9 4 8 5 7 6 6 7 5 8 4 9 3 10 2 11 1 12 13 13
REMARK SMILES IDX 14 14 15 15 16 16 17 17 18 18 19 19 20 20 21 21 22 22 23 23
REMARK SMILES IDX 24 24
REMARK H PARENT
REMARK Flexibility Score: inf
ROOT
ATOM      1  C   UNL     1       4.729 -38.692  20.438  1.00  0.00     0.000 C 
ENDROOT
BRANCH   1   2
ATOM      2  C   UNL     1       4.926 -37.604  19.366  1.00  0.00     0.000 C 
BRANCH   2   3
ATOM      3  C   UNL     1       3.992 -37.781  18.156  1.00  0.00     0.000 C 
BRANCH   3   4
ATOM      4  C   UNL     1       2.507 -37.788  18.553  1.00  0.00    -0.000 C 
BRANCH   4   5
ATOM      5  C   UNL     1       1.569 -37.512  17.370  1.00  0.00    -0.000 C 
BRANCH   5   6
ATOM      6  C   UNL     1       2.117 -36.380  16.492  1.00  0.00    -0.000 C 
BRANCH   6   7
ATOM      7  C   UNL     1       1.554 -36.463  15.065  1.00  0.00    -0.000 C 
BRANCH   7   8
ATOM      8  C   UNL     1       2.648 -36.686  14.010  1.00  0.00    -0.000 C 
BRANCH   8   9
ATOM      9  C   UNL     1       3.993 -37.110  14.628  1.00  0.00    -0.000 C 
BRANCH   9  10
ATOM     10  C   UNL     1       4.634 -38.295  13.875  1.00  0.00    -0.000 C 
BRANCH  10  11
ATOM     11  C   UNL     1       4.497 -39.638  14.611  1.00  0.00    -0.003 C 
ATOM     12  C   UNL     1       5.286 -40.767  13.952  1.00  0.00     0.004 C 
ENDBRANCH  10  11
ENDBRANCH   9  10
ENDBRANCH   8   9
ENDBRANCH   7   8
ENDBRANCH   6   7
ENDBRANCH   5   6
ENDBRANCH   4   5
ENDBRANCH   3   4
ENDBRANCH   2   3
ENDBRANCH   1   2
BRANCH   1  13
ATOM     13  C   UNL     1       5.937 -38.926  21.365  1.00  0.00     0.000 C 
BRANCH  13  14
ATOM     14  C   UNL     1       5.759 -40.040  22.416  1.00  0.00     0.000 C 
BRANCH  14  15
ATOM     15  C   UNL     1       4.503 -39.877  23.297  1.00  0.00     0.000 C 
BRANCH  15  16
ATOM     16  C   UNL     1       4.832 -39.385  24.719  1.00  0.00     0.000 C 
BRANCH  16  17
ATOM     17  C   UNL     1       5.786 -38.179  24.720  1.00  0.00     0.000 C 
BRANCH  17  18
ATOM     18  C   UNL     1       5.206 -36.970  25.477  1.00  0.00     0.000 C 
BRANCH  18  19
ATOM     19  C   UNL     1       6.063 -35.702  25.321  1.00  0.00     0.000 C 
BRANCH  19  20
ATOM     20  C   UNL     1       6.125 -35.121  23.894  1.00  0.00     0.006 C 
BRANCH  20  21
ATOM     21  C   UNL     1       5.516 -36.035  22.813  1.00  0.00     0.053 C 
BRANCH  21  22
ATOM     22  C   UNL     1       5.042 -35.278  21.609  1.00  0.00     0.041 C 
ATOM     23  O   UNL     1       5.872 -34.777  20.802  1.00  0.00    -0.550 OA
ATOM     24  O   UNL     1       3.681 -35.096  21.392  1.00  0.00    -0.550 OA
ENDBRANCH  21  22
ENDBRANCH  20  21
ENDBRANCH  19  20
ENDBRANCH  18  19
ENDBRANCH  17  18
ENDBRANCH  16  17
ENDBRANCH  15  16
ENDBRANCH  14  15
ENDBRANCH  13  14
ENDBRANCH   1  13
TORSDOF 20
ENDMDL
MODEL 5
REMARK VINA RESULT:     1.067      1.773      4.183
REMARK INTER + INTRA:           0.272
REMARK INTER:                   2.137
REMARK INTRA:                  -1.865
REMARK UNBOUND:                -2.042
REMARK SMILES CCCCCCCCCCCCCCCCCCCCCC(=O)[O-]
REMARK SMILES IDX 12 1 11 2 10 3 9 4 8 5 7 6 6 7 5 8 4 9 3 10 2 11 1 12 13 13
REMARK SMILES IDX 14 14 15 15 16 16 17 17 18 18 19 19 20 20 21 21 22 22 23 23
REMARK SMILES IDX 24 24
REMARK H PARENT
REMARK Flexibility Score: inf
ROOT
ATOM      1  C   UNL     1       5.041 -35.473  22.327  1.00  0.00     0.000 C 
ENDROOT
BRANCH   1   2
ATOM      2  C   UNL     1       6.083 -34.510  22.927  1.00  0.00     0.000 C 
BRANCH   2   3
ATOM      3  C   UNL     1       6.041 -34.466  24.465  1.00  0.00     0.000 C 
BRANCH   3   4
ATOM      4  C   UNL     1       6.124 -35.865  25.096  1.00  0.00    -0.000 C 
BRANCH   4   5
ATOM      5  C   UNL     1       4.828 -36.279  25.808  1.00  0.00    -0.000 C 
BRANCH   5   6
ATOM      6  C   UNL     1       4.601 -37.791  25.692  1.00  0.00    -0.000 C 
BRANCH   6   7
ATOM      7  C   UNL     1       5.335 -38.369  24.473  1.00  0.00    -0.000 C 
BRANCH   7   8
ATOM      8  C   UNL     1       4.957 -39.832  24.193  1.00  0.00    -0.000 C 
BRANCH   8   9
ATOM      9  C   UNL     1       5.207 -40.240  22.730  1.00  0.00    -0.000 C 
BRANCH   9  10
ATOM     10  C   UNL     1       5.762 -39.074  21.884  1.00  0.00    -0.000 C 
BRANCH  10  11
ATOM     11  C   UNL     1       6.033 -39.450  20.419  1.00  0.00    -0.003 C 
ATOM     12  C   UNL     1       5.142 -38.699  19.432  1.00  0.00     0.004 C 
ENDBRANCH  10  11
ENDBRANCH   9  10
ENDBRANCH   8   9
ENDBRANCH   7   8
ENDBRANCH   6   7
ENDBRANCH   5   6
ENDBRANCH   4   5
ENDBRANCH   3   4
ENDBRANCH   2   3
ENDBRANCH   1   2
BRANCH   1  13
ATOM     13  C   UNL     1       4.828 -35.344  20.806  1.00  0.00     0.000 C 
BRANCH  13  14
ATOM     14  C   UNL     1       5.986 -35.861  19.930  1.00  0.00     0.000 C 
BRANCH  14  15
ATOM     15  C   UNL     1       6.031 -35.239  18.518  1.00  0.00     0.000 C 
BRANCH  15  16
ATOM     16  C   UNL     1       4.932 -34.182  18.298  1.00  0.00     0.000 C 
BRANCH  16  17
ATOM     17  C   UNL     1       3.968 -34.561  17.161  1.00  0.00     0.000 C 
BRANCH  17  18
ATOM     18  C   UNL     1       4.124 -36.028  16.720  1.00  0.00     0.000 C 
BRANCH  18  19
ATOM     19  C   UNL     1       2.949 -36.520  15.857  1.00  0.00     0.000 C 
BRANCH  19  20
ATOM     20  C   UNL     1       1.908 -37.385  16.595  1.00  0.00     0.006 C 
BRANCH  20  21
ATOM     21  C   UNL     1       2.290 -37.731  18.047  1.00  0.00     0.053 C 
BRANCH  21  22
ATOM     22  C   UNL     1       1.095 -37.938  18.931  1.00  0.00     0.041 C 
ATOM     23  O   UNL     1       0.035 -38.437  18.463  1.00  0.00    -0.550 OA
ATOM     24  O   UNL     1       1.141 -37.552  20.265  1.00  0.00    -0.550 OA
ENDBRANCH  21  22
ENDBRANCH  20  21
ENDBRANCH  19  20
ENDBRANCH  18  19
ENDBRANCH  17  18
ENDBRANCH  16  17
ENDBRANCH  15  16
ENDBRANCH  14  15
ENDBRANCH  13  14
ENDBRANCH   1  13
TORSDOF 20
ENDMDL
MODEL 6
REMARK VINA RESULT:     1.068      3.247      6.640
REMARK INTER + INTRA:           0.275
REMARK INTER:                   0.560
REMARK INTRA:                  -0.285
REMARK UNBOUND:                -2.042
REMARK SMILES CCCCCCCCCCCCCCCCCCCCCC(=O)[O-]
REMARK SMILES IDX 12 1 11 2 10 3 9 4 8 5 7 6 6 7 5 8 4 9 3 10 2 11 1 12 13 13
REMARK SMILES IDX 14 14 15 15 16 16 17 17 18 18 19 19 20 20 21 21 22 22 23 23
REMARK SMILES IDX 24 24
REMARK H PARENT
REMARK Flexibility Score: inf
ROOT
ATOM      1  C   UNL     1       2.726 -37.635  20.059  1.00  0.00     0.000 C 
ENDROOT
BRANCH   1   2
ATOM      2  C   UNL     1       1.309 -37.598  19.458  1.00  0.00     0.000 C 
BRANCH   2   3
ATOM      3  C   UNL     1       1.290 -37.916  17.952  1.00  0.00     0.000 C 
BRANCH   3   4
ATOM      4  C   UNL     1       1.251 -36.648  17.083  1.00  0.00    -0.000 C 
BRANCH   4   5
ATOM      5  C   UNL     1       1.809 -36.872  15.671  1.00  0.00    -0.000 C 
BRANCH   5   6
ATOM      6  C   UNL     1       3.289 -37.271  15.726  1.00  0.00    -0.000 C 
BRANCH   6   7
ATOM      7  C   UNL     1       3.538 -38.583  14.967  1.00  0.00    -0.000 C 
BRANCH   7   8
ATOM      8  C   UNL     1       4.857 -38.570  14.180  1.00  0.00    -0.000 C 
BRANCH   8   9
ATOM      9  C   UNL     1       5.380 -39.986  13.875  1.00  0.00    -0.000 C 
BRANCH   9  10
ATOM     10  C   UNL     1       4.898 -41.023  14.912  1.00  0.00    -0.000 C 
BRANCH  10  11
ATOM     11  C   UNL     1       5.731 -42.315  14.923  1.00  0.00    -0.003 C 
ATOM     12  C   UNL     1       5.631 -43.083  16.239  1.00  0.00     0.004 C 
ENDBRANCH  10  11
ENDBRANCH   9  10
ENDBRANCH   8   9
ENDBRANCH   7   8
ENDBRANCH   6   7
ENDBRANCH   5   6
ENDBRANCH   4   5
ENDBRANCH   3   4
ENDBRANCH   2   3
ENDBRANCH   1   2
BRANCH   1  13
ATOM     13  C   UNL     1       3.872 -37.429  19.050  1.00  0.00     0.000 C 
BRANCH  13  14
ATOM     14  C   UNL     1       4.757 -36.191  19.297  1.00  0.00     0.000 C 
BRANCH  14  15
ATOM     15  C   UNL     1       5.311 -36.092  20.734  1.00  0.00     0.000 C 
BRANCH  15  16
ATOM     16  C   UNL     1       4.335 -35.397  21.702  1.00  0.00     0.000 C 
BRANCH  16  17
ATOM     17  C   UNL     1       5.059 -34.645  22.831  1.00  0.00     0.000 C 
BRANCH  17  18
ATOM     18  C   UNL     1       4.994 -35.394  24.175  1.00  0.00     0.000 C 
BRANCH  18  19
ATOM     19  C   UNL     1       6.062 -36.495  24.297  1.00  0.00     0.000 C 
BRANCH  19  20
ATOM     20  C   UNL     1       6.125 -37.482  23.114  1.00  0.00     0.006 C 
BRANCH  20  21
ATOM     21  C   UNL     1       5.005 -38.541  23.114  1.00  0.00     0.053 C 
BRANCH  21  22
ATOM     22  C   UNL     1       5.346 -39.751  22.296  1.00  0.00     0.041 C 
ATOM     23  O   UNL     1       4.972 -40.897  22.666  1.00  0.00    -0.550 OA
ATOM     24  O   UNL     1       6.106 -39.618  21.140  1.00  0.00    -0.550 OA
ENDBRANCH  21  22
ENDBRANCH  20  21
ENDBRANCH  19  20
ENDBRANCH  18  19
ENDBRANCH  17  18
ENDBRANCH  16  17
ENDBRANCH  15  16
ENDBRANCH  14  15
ENDBRANCH  13  14
ENDBRANCH   1  13
TORSDOF 20
ENDMDL
MODEL 7
REMARK VINA RESULT:     1.828      2.931      6.470
REMARK INTER + INTRA:           1.924
REMARK INTER:                   2.162
REMARK INTRA:                  -0.239
REMARK UNBOUND:                -2.042
REMARK SMILES CCCCCCCCCCCCCCCCCCCCCC(=O)[O-]
REMARK SMILES IDX 12 1 11 2 10 3 9 4 8 5 7 6 6 7 5 8 4 9 3 10 2 11 1 12 13 13
REMARK SMILES IDX 14 14 15 15 16 16 17 17 18 18 19 19 20 20 21 21 22 22 23 23
REMARK SMILES IDX 24 24
REMARK H PARENT
REMARK Flexibility Score: inf
ROOT
ATOM      1  C   UNL     1       4.885 -37.290  20.969  1.00  0.00     0.000 C 
ENDROOT
BRANCH   1   2
ATOM      2  C   UNL     1       4.463 -36.020  20.208  1.00  0.00     0.000 C 
BRANCH   2   3
ATOM      3  C   UNL     1       5.660 -35.246  19.627  1.00  0.00     0.000 C 
BRANCH   3   4
ATOM      4  C   UNL     1       5.277 -34.404  18.399  1.00  0.00    -0.000 C 
BRANCH   4   5
ATOM      5  C   UNL     1       5.031 -35.254  17.144  1.00  0.00    -0.000 C 
BRANCH   5   6
ATOM      6  C   UNL     1       3.529 -35.467  16.916  1.00  0.00    -0.000 C 
BRANCH   6   7
ATOM      7  C   UNL     1       3.252 -35.973  15.493  1.00  0.00    -0.000 C 
BRANCH   7   8
ATOM      8  C   UNL     1       2.374 -37.234  15.473  1.00  0.00    -0.000 C 
BRANCH   8   9
ATOM      9  C   UNL     1       1.503 -37.370  16.735  1.00  0.00    -0.000 C 
BRANCH   9  10
ATOM     10  C   UNL     1       2.306 -37.888  17.947  1.00  0.00    -0.000 C 
BRANCH  10  11
ATOM     11  C   UNL     1       1.465 -38.032  19.226  1.00  0.00    -0.003 C 
ATOM     12  C   UNL     1      -0.038 -38.041  18.959  1.00  0.00     0.004 C 
ENDBRANCH  10  11
ENDBRANCH   9  10
ENDBRANCH   8   9
ENDBRANCH   7   8
ENDBRANCH   6   7
ENDBRANCH   5   6
ENDBRANCH   4   5
ENDBRANCH   3   4
ENDBRANCH   2   3
ENDBRANCH   1   2
BRANCH   1  13
ATOM     13  C   UNL     1       5.626 -38.345  20.125  1.00  0.00     0.000 C 
BRANCH  13  14
ATOM     14  C   UNL     1       5.843 -39.708  20.810  1.00  0.00     0.000 C 
BRANCH  14  15
ATOM     15  C   UNL     1       4.993 -39.915  22.081  1.00  0.00     0.000 C 
BRANCH  15  16
ATOM     16  C   UNL     1       5.826 -39.835  23.374  1.00  0.00     0.000 C 
BRANCH  16  17
ATOM     17  C   UNL     1       5.813 -38.430  23.998  1.00  0.00     0.000 C 
BRANCH  17  18
ATOM     18  C   UNL     1       4.868 -38.331  25.210  1.00  0.00     0.000 C 
BRANCH  18  19
ATOM     19  C   UNL     1       5.190 -37.135  26.122  1.00  0.00     0.000 C 
BRANCH  19  20
ATOM     20  C   UNL     1       6.036 -36.022  25.472  1.00  0.00     0.006 C 
BRANCH  20  21
ATOM     21  C   UNL     1       5.757 -35.811  23.971  1.00  0.00     0.053 C 
BRANCH  21  22
ATOM     22  C   UNL     1       5.437 -34.385  23.632  1.00  0.00     0.041 C 
ATOM     23  O   UNL     1       4.566 -34.117  22.759  1.00  0.00    -0.550 OA
ATOM     24  O   UNL     1       6.124 -33.351  24.256  1.00  0.00    -0.550 OA
ENDBRANCH  21  22
ENDBRANCH  20  21
ENDBRANCH  19  20
ENDBRANCH  18  19
ENDBRANCH  17  18
ENDBRANCH  16  17
ENDBRANCH  15  16
ENDBRANCH  14  15
ENDBRANCH  13  14
ENDBRANCH   1  13
TORSDOF 20
ENDMDL
MODEL 8
REMARK VINA RESULT:     1.837      3.838      7.134
REMARK INTER + INTRA:           1.942
REMARK INTER:                   2.893
REMARK INTRA:                  -0.951
REMARK UNBOUND:                -2.042
REMARK SMILES CCCCCCCCCCCCCCCCCCCCCC(=O)[O-]
REMARK SMILES IDX 12 1 11 2 10 3 9 4 8 5 7 6 6 7 5 8 4 9 3 10 2 11 1 12 13 13
REMARK SMILES IDX 14 14 15 15 16 16 17 17 18 18 19 19 20 20 21 21 22 22 23 23
REMARK SMILES IDX 24 24
REMARK H PARENT
REMARK Flexibility Score: inf
ROOT
ATOM      1  C   UNL     1       6.125 -35.891  21.987  1.00  0.00     0.000 C 
ENDROOT
BRANCH   1   2
ATOM      2  C   UNL     1       5.940 -34.658  21.083  1.00  0.00     0.000 C 
BRANCH   2   3
ATOM      3  C   UNL     1       4.809 -34.835  20.054  1.00  0.00     0.000 C 
BRANCH   3   4
ATOM      4  C   UNL     1       5.312 -34.741  18.604  1.00  0.00    -0.000 C 
BRANCH   4   5
ATOM      5  C   UNL     1       4.565 -35.683  17.649  1.00  0.00    -0.000 C 
BRANCH   5   6
ATOM      6  C   UNL     1       3.656 -36.641  18.428  1.00  0.00    -0.000 C 
BRANCH   6   7
ATOM      7  C   UNL     1       3.083 -37.731  17.510  1.00  0.00    -0.000 C 
BRANCH   7   8
ATOM      8  C   UNL     1       1.794 -37.289  16.799  1.00  0.00    -0.000 C 
BRANCH   8   9
ATOM      9  C   UNL     1       2.045 -36.209  15.732  1.00  0.00    -0.000 C 
BRANCH   9  10
ATOM     10  C   UNL     1       2.434 -36.816  14.366  1.00  0.00    -0.000 C 
BRANCH  10  11
ATOM     11  C   UNL     1       3.926 -37.168  14.251  1.00  0.00    -0.003 C 
ATOM     12  C   UNL     1       4.197 -38.668  14.340  1.00  0.00     0.004 C 
ENDBRANCH  10  11
ENDBRANCH   9  10
ENDBRANCH   8   9
ENDBRANCH   7   8
ENDBRANCH   6   7
ENDBRANCH   5   6
ENDBRANCH   4   5
ENDBRANCH   3   4
ENDBRANCH   2   3
ENDBRANCH   1   2
BRANCH   1  13
ATOM     13  C   UNL     1       5.221 -37.093  21.649  1.00  0.00     0.000 C 
BRANCH  13  14
ATOM     14  C   UNL     1       5.776 -38.059  20.584  1.00  0.00     0.000 C 
BRANCH  14  15
ATOM     15  C   UNL     1       5.369 -39.532  20.799  1.00  0.00     0.000 C 
BRANCH  15  16
ATOM     16  C   UNL     1       5.779 -40.068  22.184  1.00  0.00     0.000 C 
BRANCH  16  17
ATOM     17  C   UNL     1       4.728 -39.772  23.266  1.00  0.00     0.000 C 
BRANCH  17  18
ATOM     18  C   UNL     1       5.362 -39.340  24.601  1.00  0.00     0.000 C 
BRANCH  18  19
ATOM     19  C   UNL     1       5.522 -37.814  24.720  1.00  0.00     0.000 C 
BRANCH  19  20
ATOM     20  C   UNL     1       4.645 -37.144  25.797  1.00  0.00     0.006 C 
BRANCH  20  21
ATOM     21  C   UNL     1       3.829 -38.133  26.653  1.00  0.00     0.053 C 
BRANCH  21  22
ATOM     22  C   UNL     1       2.499 -37.580  27.073  1.00  0.00     0.041 C 
ATOM     23  O   UNL     1       1.465 -38.300  27.024  1.00  0.00    -0.550 OA
ATOM     24  O   UNL     1       2.395 -36.258  27.490  1.00  0.00    -0.550 OA
ENDBRANCH  21  22
ENDBRANCH  20  21
ENDBRANCH  19  20
ENDBRANCH  18  19
ENDBRANCH  17  18
ENDBRANCH  16  17
ENDBRANCH  15  16
ENDBRANCH  14  15
ENDBRANCH  13  14
ENDBRANCH   1  13
TORSDOF 20
ENDMDL
