MODEL 1
REMARK VINA RESULT:     2.080      0.000      0.000
REMARK INTER + INTRA:           2.159
REMARK INTER:                   2.627
REMARK INTRA:                  -0.468
REMARK UNBOUND:                -0.468
REMARK SMILES O=C(C=Cc1ccc(O)cc1)c1ccc(O)cc1O
REMARK SMILES IDX 4 1 3 2 5 3 6 4 7 5 8 6 11 7 10 8 9 9 2 11 1 12 12 13 18 14
REMARK SMILES IDX 13 15 17 16 14 17 15 18 19 19 16 21
REMARK H PARENT 9 10 19 20 16 22
REMARK Flexibility Score: inf
ROOT
ATOM      1  C   UNL     1      19.321  13.516  11.874  1.00  0.00     0.012 C 
ATOM      2  C   UNL     1      19.840  12.286  11.990  1.00  0.00     0.053 C 
ENDROOT
BRANCH   1   3
ATOM      3  C   UNL     1      20.132  14.731  11.612  1.00  0.00    -0.025 A 
ATOM      4  C   UNL     1      21.516  14.682  11.850  1.00  0.00     0.012 A 
ATOM      5  C   UNL     1      22.317  15.805  11.627  1.00  0.00     0.047 A 
ATOM      6  C   UNL     1      21.743  16.999  11.172  1.00  0.00     0.115 A 
ATOM      7  C   UNL     1      19.561  15.941  11.169  1.00  0.00     0.012 A 
ATOM      8  C   UNL     1      20.365  17.064  10.947  1.00  0.00     0.047 A 
BRANCH   6   9
ATOM      9  O   UNL     1      22.532  18.125  10.946  1.00  0.00    -0.508 OA
ATOM     10  H   UNL     1      22.376  18.727  10.146  1.00  0.00     0.293 HD
ENDBRANCH   6   9
ENDBRANCH   1   3
BRANCH   2  11
ATOM     11  C   UNL     1      19.003  11.099  12.268  1.00  0.00     0.189 C 
ATOM     12  O   UNL     1      17.868  11.243  12.801  1.00  0.00    -0.289 OA
BRANCH  11  13
ATOM     13  C   UNL     1      19.492   9.732  11.977  1.00  0.00     0.064 A 
ATOM     14  C   UNL     1      18.856   8.584  12.501  1.00  0.00     0.130 A 
ATOM     15  C   UNL     1      20.638   9.572  11.177  1.00  0.00     0.020 A 
ATOM     16  C   UNL     1      19.347   7.308  12.187  1.00  0.00     0.093 A 
ATOM     17  C   UNL     1      21.122   8.297  10.875  1.00  0.00     0.047 A 
ATOM     18  C   UNL     1      20.475   7.163  11.375  1.00  0.00     0.119 A 
BRANCH  14  19
ATOM     19  O   UNL     1      17.758   8.708  13.353  1.00  0.00    -0.507 OA
ATOM     20  H   UNL     1      16.879   9.100  13.036  1.00  0.00     0.293 HD
ENDBRANCH  14  19
BRANCH  18  21
ATOM     21  O   UNL     1      20.947   5.886  11.077  1.00  0.00    -0.508 OA
ATOM     22  H   UNL     1      20.404   5.057  11.290  1.00  0.00     0.293 HD
ENDBRANCH  18  21
ENDBRANCH  11  13
ENDBRANCH   2  11
TORSDOF 6
ENDMDL
MODEL 2
REMARK VINA RESULT:     3.405      1.568      2.516
REMARK INTER + INTRA:           3.832
REMARK INTER:                   3.576
REMARK INTRA:                   0.256
REMARK UNBOUND:                -0.468
REMARK SMILES O=C(C=Cc1ccc(O)cc1)c1ccc(O)cc1O
REMARK SMILES IDX 4 1 3 2 5 3 6 4 7 5 8 6 11 7 10 8 9 9 2 11 1 12 12 13 18 14
REMARK SMILES IDX 13 15 17 16 14 17 15 18 19 19 16 21
REMARK H PARENT 9 10 19 20 16 22
REMARK Flexibility Score: inf
ROOT
ATOM      1  C   UNL     1      21.181  12.374  11.604  1.00  0.00     0.012 C 
ATOM      2  C   UNL     1      20.545  11.344  11.029  1.00  0.00     0.053 C 
ENDROOT
BRANCH   1   3
ATOM      3  C   UNL     1      20.788  13.792  11.419  1.00  0.00    -0.025 A 
ATOM      4  C   UNL     1      19.434  14.140  11.559  1.00  0.00     0.012 A 
ATOM      5  C   UNL     1      19.017  15.462  11.383  1.00  0.00     0.047 A 
ATOM      6  C   UNL     1      19.947  16.455  11.052  1.00  0.00     0.115 A 
ATOM      7  C   UNL     1      21.715  14.796  11.071  1.00  0.00     0.012 A 
ATOM      8  C   UNL     1      21.294  16.118  10.895  1.00  0.00     0.047 A 
BRANCH   6   9
ATOM      9  O   UNL     1      19.543  17.777  10.875  1.00  0.00    -0.508 OA
ATOM     10  H   UNL     1      20.180  18.483  10.529  1.00  0.00     0.293 HD
ENDBRANCH   6   9
ENDBRANCH   1   3
BRANCH   2  11
ATOM     11  C   UNL     1      20.976   9.943  11.224  1.00  0.00     0.189 C 
ATOM     12  O   UNL     1      22.136   9.588  10.875  1.00  0.00    -0.289 OA
BRANCH  11  13
ATOM     13  C   UNL     1      20.050   8.928  11.779  1.00  0.00     0.064 A 
ATOM     14  C   UNL     1      18.929   9.289  12.559  1.00  0.00     0.130 A 
ATOM     15  C   UNL     1      20.310   7.566  11.545  1.00  0.00     0.020 A 
ATOM     16  C   UNL     1      18.072   8.295  13.053  1.00  0.00     0.093 A 
ATOM     17  C   UNL     1      19.453   6.583  12.046  1.00  0.00     0.047 A 
ATOM     18  C   UNL     1      18.330   6.945  12.796  1.00  0.00     0.119 A 
BRANCH  14  19
ATOM     19  O   UNL     1      18.680  10.627  12.868  1.00  0.00    -0.507 OA
ATOM     20  H   UNL     1      18.490  10.929  13.816  1.00  0.00     0.293 HD
ENDBRANCH  14  19
BRANCH  18  21
ATOM     21  O   UNL     1      17.466   5.973  13.298  1.00  0.00    -0.508 OA
ATOM     22  H   UNL     1      17.666   5.482  14.161  1.00  0.00     0.293 HD
ENDBRANCH  18  21
ENDBRANCH  11  13
ENDBRANCH   2  11
TORSDOF 6
ENDMDL
