MODEL 1
REMARK VINA RESULT:    -5.715      0.000      0.000
REMARK INTER + INTRA:          -6.519
REMARK INTER:                  -6.383
REMARK INTRA:                  -0.136
REMARK UNBOUND:                -0.136
REMARK SMILES O=C([O-])C=Cc1ccccc1
REMARK SMILES IDX 4 1 5 2 2 3 1 4 3 5 6 6 7 7 11 8 8 9 10 10 9 11
REMARK H PARENT
REMARK Flexibility Score: inf
ROOT
ATOM      1  C   UNL     1     -39.475  56.946  33.725  1.00  0.00     0.025 C 
ATOM      2  C   UNL     1     -39.676  56.321  32.554  1.00  0.00     0.010 C 
ENDROOT
BRANCH   1   3
ATOM      3  C   UNL     1     -39.193  56.209  34.969  1.00  0.00     0.064 C 
ATOM      4  O   UNL     1     -40.120  55.875  35.754  1.00  0.00    -0.545 OA
ATOM      5  O   UNL     1     -37.881  55.876  35.281  1.00  0.00    -0.545 OA
ENDBRANCH   1   3
BRANCH   2   6
ATOM      6  C   UNL     1     -39.964  57.005  31.264  1.00  0.00    -0.026 A 
ATOM      7  C   UNL     1     -40.955  58.003  31.250  1.00  0.00     0.008 A 
ATOM      8  C   UNL     1     -39.296  56.699  30.058  1.00  0.00     0.008 A 
ATOM      9  C   UNL     1     -41.270  58.681  30.068  1.00  0.00     0.001 A 
ATOM     10  C   UNL     1     -39.616  57.381  28.879  1.00  0.00     0.001 A 
ATOM     11  C   UNL     1     -40.601  58.369  28.883  1.00  0.00     0.000 A 
ENDBRANCH   2   6
TORSDOF 2
ENDMDL
MODEL 2
REMARK VINA RESULT:    -5.657      4.146      5.473
REMARK INTER + INTRA:          -6.454
REMARK INTER:                  -6.325
REMARK INTRA:                  -0.129
REMARK UNBOUND:                -0.136
REMARK SMILES O=C([O-])C=Cc1ccccc1
REMARK SMILES IDX 4 1 5 2 2 3 1 4 3 5 6 6 7 7 11 8 8 9 10 10 9 11
REMARK H PARENT
REMARK Flexibility Score: inf
ROOT
ATOM      1  C   UNL     1     -37.442  56.918  28.295  1.00  0.00     0.025 C 
ATOM      2  C   UNL     1     -38.779  57.014  28.359  1.00  0.00     0.010 C 
ENDROOT
BRANCH   1   3
ATOM      3  C   UNL     1     -36.731  56.704  27.022  1.00  0.00     0.064 C 
ATOM      4  O   UNL     1     -37.116  57.261  25.958  1.00  0.00    -0.545 OA
ATOM      5  O   UNL     1     -35.618  55.875  26.994  1.00  0.00    -0.545 OA
ENDBRANCH   1   3
BRANCH   2   6
ATOM      6  C   UNL     1     -39.556  57.229  29.610  1.00  0.00    -0.026 A 
ATOM      7  C   UNL     1     -40.515  58.258  29.627  1.00  0.00     0.008 A 
ATOM      8  C   UNL     1     -39.378  56.453  30.777  1.00  0.00     0.008 A 
ATOM      9  C   UNL     1     -41.276  58.508  30.773  1.00  0.00     0.001 A 
ATOM     10  C   UNL     1     -40.144  56.707  31.920  1.00  0.00     0.001 A 
ATOM     11  C   UNL     1     -41.090  57.733  31.919  1.00  0.00     0.000 A 
ENDBRANCH   2   6
TORSDOF 2
ENDMDL
MODEL 3
REMARK VINA RESULT:    -5.569      4.568      5.965
REMARK INTER + INTRA:          -6.356
REMARK INTER:                  -6.216
REMARK INTRA:                  -0.140
REMARK UNBOUND:                -0.136
REMARK SMILES O=C([O-])C=Cc1ccccc1
REMARK SMILES IDX 4 1 5 2 2 3 1 4 3 5 6 6 7 7 11 8 8 9 10 10 9 11
REMARK H PARENT
REMARK Flexibility Score: inf
ROOT
ATOM      1  C   UNL     1     -42.083  59.161  28.533  1.00  0.00     0.025 C 
ATOM      2  C   UNL     1     -40.850  58.781  28.902  1.00  0.00     0.010 C 
ENDROOT
BRANCH   1   3
ATOM      3  C   UNL     1     -42.325  59.976  27.329  1.00  0.00     0.064 C 
ATOM      4  O   UNL     1     -43.476  60.411  27.056  1.00  0.00    -0.545 OA
ATOM      5  O   UNL     1     -41.265  60.271  26.482  1.00  0.00    -0.545 OA
ENDBRANCH   1   3
BRANCH   2   6
ATOM      6  C   UNL     1     -40.537  57.959  30.103  1.00  0.00    -0.026 A 
ATOM      7  C   UNL     1     -41.230  58.238  31.295  1.00  0.00     0.008 A 
ATOM      8  C   UNL     1     -39.581  56.920  30.104  1.00  0.00     0.008 A 
ATOM      9  C   UNL     1     -40.980  57.500  32.457  1.00  0.00     0.001 A 
ATOM     10  C   UNL     1     -39.336  56.185  31.270  1.00  0.00     0.001 A 
ATOM     11  C   UNL     1     -40.033  56.475  32.443  1.00  0.00     0.000 A 
ENDBRANCH   2   6
TORSDOF 2
ENDMDL
MODEL 4
REMARK VINA RESULT:    -5.541      4.580      6.151
REMARK INTER + INTRA:          -6.324
REMARK INTER:                  -6.194
REMARK INTRA:                  -0.130
REMARK UNBOUND:                -0.136
REMARK SMILES O=C([O-])C=Cc1ccccc1
REMARK SMILES IDX 4 1 5 2 2 3 1 4 3 5 6 6 7 7 11 8 8 9 10 10 9 11
REMARK H PARENT
REMARK Flexibility Score: inf
ROOT
ATOM      1  C   UNL     1     -42.128  59.169  28.526  1.00  0.00     0.025 C 
ATOM      2  C   UNL     1     -40.895  58.859  28.957  1.00  0.00     0.010 C 
ENDROOT
BRANCH   1   3
ATOM      3  C   UNL     1     -42.355  59.985  27.321  1.00  0.00     0.064 C 
ATOM      4  O   UNL     1     -43.510  60.380  27.007  1.00  0.00    -0.545 OA
ATOM      5  O   UNL     1     -41.277  60.325  26.515  1.00  0.00    -0.545 OA
ENDBRANCH   1   3
BRANCH   2   6
ATOM      6  C   UNL     1     -40.597  58.041  30.164  1.00  0.00    -0.026 A 
ATOM      7  C   UNL     1     -39.648  57.009  30.048  1.00  0.00     0.008 A 
ATOM      8  C   UNL     1     -41.220  58.249  31.414  1.00  0.00     0.008 A 
ATOM      9  C   UNL     1     -39.326  56.207  31.147  1.00  0.00     0.001 A 
ATOM     10  C   UNL     1     -40.893  57.443  32.511  1.00  0.00     0.001 A 
ATOM     11  C   UNL     1     -39.948  56.424  32.378  1.00  0.00     0.000 A 
ENDBRANCH   2   6
TORSDOF 2
ENDMDL
MODEL 5
REMARK VINA RESULT:    -5.490      4.560      6.047
REMARK INTER + INTRA:          -6.267
REMARK INTER:                  -6.134
REMARK INTRA:                  -0.133
REMARK UNBOUND:                -0.136
REMARK SMILES O=C([O-])C=Cc1ccccc1
REMARK SMILES IDX 4 1 5 2 2 3 1 4 3 5 6 6 7 7 11 8 8 9 10 10 9 11
REMARK H PARENT
REMARK Flexibility Score: inf
ROOT
ATOM      1  C   UNL     1     -41.079  58.937  28.000  1.00  0.00     0.025 C 
ATOM      2  C   UNL     1     -41.411  58.940  29.300  1.00  0.00     0.010 C 
ENDROOT
BRANCH   1   3
ATOM      3  C   UNL     1     -41.708  59.847  27.027  1.00  0.00     0.064 C 
ATOM      4  O   UNL     1     -41.204  60.035  25.888  1.00  0.00    -0.545 OA
ATOM      5  O   UNL     1     -42.878  60.511  27.373  1.00  0.00    -0.545 OA
ENDBRANCH   1   3
BRANCH   2   6
ATOM      6  C   UNL     1     -40.816  58.049  30.332  1.00  0.00    -0.026 A 
ATOM      7  C   UNL     1     -41.247  58.196  31.664  1.00  0.00     0.008 A 
ATOM      8  C   UNL     1     -39.842  57.068  30.042  1.00  0.00     0.008 A 
ATOM      9  C   UNL     1     -40.723  57.387  32.678  1.00  0.00     0.001 A 
ATOM     10  C   UNL     1     -39.323  56.262  31.061  1.00  0.00     0.001 A 
ATOM     11  C   UNL     1     -39.762  56.421  32.376  1.00  0.00     0.000 A 
ENDBRANCH   2   6
TORSDOF 2
ENDMDL
MODEL 6
REMARK VINA RESULT:    -5.481      4.857      6.537
REMARK INTER + INTRA:          -6.258
REMARK INTER:                  -6.118
REMARK INTRA:                  -0.140
REMARK UNBOUND:                -0.136
REMARK SMILES O=C([O-])C=Cc1ccccc1
REMARK SMILES IDX 4 1 5 2 2 3 1 4 3 5 6 6 7 7 11 8 8 9 10 10 9 11
REMARK H PARENT
REMARK Flexibility Score: inf
ROOT
ATOM      1  C   UNL     1     -40.634  58.260  27.089  1.00  0.00     0.025 C 
ATOM      2  C   UNL     1     -40.732  58.870  28.280  1.00  0.00     0.010 C 
ENDROOT
BRANCH   1   3
ATOM      3  C   UNL     1     -40.808  58.986  25.819  1.00  0.00     0.064 C 
ATOM      4  O   UNL     1     -39.847  59.141  25.018  1.00  0.00    -0.545 OA
ATOM      5  O   UNL     1     -42.054  59.509  25.499  1.00  0.00    -0.545 OA
ENDBRANCH   1   3
BRANCH   2   6
ATOM      6  C   UNL     1     -40.568  58.196  29.597  1.00  0.00    -0.026 A 
ATOM      7  C   UNL     1     -39.643  57.140  29.690  1.00  0.00     0.008 A 
ATOM      8  C   UNL     1     -41.293  58.563  30.752  1.00  0.00     0.008 A 
ATOM      9  C   UNL     1     -39.445  56.468  30.901  1.00  0.00     0.001 A 
ATOM     10  C   UNL     1     -41.090  57.887  31.960  1.00  0.00     0.001 A 
ATOM     11  C   UNL     1     -40.169  56.842  32.035  1.00  0.00     0.000 A 
ENDBRANCH   2   6
TORSDOF 2
ENDMDL
MODEL 7
REMARK VINA RESULT:    -5.390     15.681     16.336
REMARK INTER + INTRA:          -6.156
REMARK INTER:                  -6.015
REMARK INTRA:                  -0.141
REMARK UNBOUND:                -0.136
REMARK SMILES O=C([O-])C=Cc1ccccc1
REMARK SMILES IDX 4 1 5 2 2 3 1 4 3 5 6 6 7 7 11 8 8 9 10 10 9 11
REMARK H PARENT
REMARK Flexibility Score: inf
ROOT
ATOM      1  C   UNL     1     -28.544  67.691  33.719  1.00  0.00     0.025 C 
ATOM      2  C   UNL     1     -29.593  68.495  33.487  1.00  0.00     0.010 C 
ENDROOT
BRANCH   1   3
ATOM      3  C   UNL     1     -27.984  66.813  32.676  1.00  0.00     0.064 C 
ATOM      4  O   UNL     1     -28.722  66.047  32.001  1.00  0.00    -0.545 OA
ATOM      5  O   UNL     1     -26.616  66.830  32.433  1.00  0.00    -0.545 OA
ENDBRANCH   1   3
BRANCH   2   6
ATOM      6  C   UNL     1     -30.205  69.404  34.494  1.00  0.00    -0.026 A 
ATOM      7  C   UNL     1     -29.366  69.982  35.463  1.00  0.00     0.008 A 
ATOM      8  C   UNL     1     -31.584  69.711  34.525  1.00  0.00     0.008 A 
ATOM      9  C   UNL     1     -29.884  70.844  36.435  1.00  0.00     0.001 A 
ATOM     10  C   UNL     1     -32.095  70.574  35.500  1.00  0.00     0.001 A 
ATOM     11  C   UNL     1     -31.248  71.139  36.453  1.00  0.00     0.000 A 
ENDBRANCH   2   6
TORSDOF 2
ENDMDL
MODEL 8
REMARK VINA RESULT:    -5.228      2.337      3.417
REMARK INTER + INTRA:          -5.975
REMARK INTER:                  -5.830
REMARK INTRA:                  -0.146
REMARK UNBOUND:                -0.136
REMARK SMILES O=C([O-])C=Cc1ccccc1
REMARK SMILES IDX 4 1 5 2 2 3 1 4 3 5 6 6 7 7 11 8 8 9 10 10 9 11
REMARK H PARENT
REMARK Flexibility Score: inf
ROOT
ATOM      1  C   UNL     1     -40.954  57.648  31.059  1.00  0.00     0.025 C 
ATOM      2  C   UNL     1     -40.474  58.082  29.884  1.00  0.00     0.010 C 
ENDROOT
BRANCH   1   3
ATOM      3  C   UNL     1     -40.133  56.867  32.002  1.00  0.00     0.064 C 
ATOM      4  O   UNL     1     -39.434  55.895  31.609  1.00  0.00    -0.545 OA
ATOM      5  O   UNL     1     -40.131  57.209  33.348  1.00  0.00    -0.545 OA
ENDBRANCH   1   3
BRANCH   2   6
ATOM      6  C   UNL     1     -41.248  58.873  28.889  1.00  0.00    -0.026 A 
ATOM      7  C   UNL     1     -42.533  59.316  29.250  1.00  0.00     0.008 A 
ATOM      8  C   UNL     1     -40.757  59.197  27.605  1.00  0.00     0.008 A 
ATOM      9  C   UNL     1     -43.309  60.063  28.357  1.00  0.00     0.001 A 
ATOM     10  C   UNL     1     -41.538  59.945  26.717  1.00  0.00     0.001 A 
ATOM     11  C   UNL     1     -42.811  60.377  27.092  1.00  0.00     0.000 A 
ENDBRANCH   2   6
TORSDOF 2
ENDMDL
MODEL 9
REMARK VINA RESULT:    -5.190      2.136      3.518
REMARK INTER + INTRA:          -5.932
REMARK INTER:                  -5.801
REMARK INTRA:                  -0.132
REMARK UNBOUND:                -0.136
REMARK SMILES O=C([O-])C=Cc1ccccc1
REMARK SMILES IDX 4 1 5 2 2 3 1 4 3 5 6 6 7 7 11 8 8 9 10 10 9 11
REMARK H PARENT
REMARK Flexibility Score: inf
ROOT
ATOM      1  C   UNL     1     -41.339  57.280  31.241  1.00  0.00     0.025 C 
ATOM      2  C   UNL     1     -40.688  58.054  30.357  1.00  0.00     0.010 C 
ENDROOT
BRANCH   1   3
ATOM      3  C   UNL     1     -40.641  56.579  32.332  1.00  0.00     0.064 C 
ATOM      4  O   UNL     1     -39.383  56.569  32.403  1.00  0.00    -0.545 OA
ATOM      5  O   UNL     1     -41.383  55.917  33.301  1.00  0.00    -0.545 OA
ENDBRANCH   1   3
BRANCH   2   6
ATOM      6  C   UNL     1     -41.332  58.788  29.234  1.00  0.00    -0.026 A 
ATOM      7  C   UNL     1     -40.615  58.918  28.030  1.00  0.00     0.008 A 
ATOM      8  C   UNL     1     -42.621  59.358  29.318  1.00  0.00     0.008 A 
ATOM      9  C   UNL     1     -41.168  59.597  26.939  1.00  0.00     0.001 A 
ATOM     10  C   UNL     1     -43.168  60.036  28.223  1.00  0.00     0.001 A 
ATOM     11  C   UNL     1     -42.443  60.156  27.036  1.00  0.00     0.000 A 
ENDBRANCH   2   6
TORSDOF 2
ENDMDL
