MODEL 1
REMARK VINA RESULT:    -2.429      0.000      0.000
REMARK INTER + INTRA:          -4.479
REMARK INTER:                  -3.566
REMARK INTRA:                  -0.913
REMARK UNBOUND:                -0.913
REMARK SMILES CCCCCCCCCC=O
REMARK SMILES IDX 6 1 5 2 4 3 3 4 2 5 1 6 7 7 8 8 9 9 10 10 11 11
REMARK H PARENT
REMARK Flexibility Score: inf
ROOT
ATOM      1  C   UNL     1     108.023 111.722 104.831  1.00  0.00     0.000 C 
ENDROOT
BRANCH   1   2
ATOM      2  C   UNL     1     108.851 112.602 103.879  1.00  0.00     0.000 C 
BRANCH   2   3
ATOM      3  C   UNL     1     110.358 112.538 104.173  1.00  0.00    -0.000 C 
BRANCH   3   4
ATOM      4  C   UNL     1     110.617 112.055 105.604  1.00  0.00    -0.000 C 
BRANCH   4   5
ATOM      5  C   UNL     1     111.680 110.950 105.629  1.00  0.00    -0.003 C 
ATOM      6  C   UNL     1     111.984 110.447 104.220  1.00  0.00     0.004 C 
ENDBRANCH   4   5
ENDBRANCH   3   4
ENDBRANCH   2   3
ENDBRANCH   1   2
BRANCH   1   7
ATOM      7  C   UNL     1     107.343 110.548 104.109  1.00  0.00     0.000 C 
BRANCH   7   8
ATOM      8  C   UNL     1     108.253 109.314 103.975  1.00  0.00     0.008 C 
BRANCH   8   9
ATOM      9  C   UNL     1     108.480 108.564 105.300  1.00  0.00     0.072 C 
BRANCH   9  10
ATOM     10  C   UNL     1     107.952 107.158 105.267  1.00  0.00     0.224 C 
ATOM     11  O   UNL     1     108.200 106.437 104.315  1.00  0.00    -0.303 OA
ENDBRANCH   9  10
ENDBRANCH   8   9
ENDBRANCH   7   8
ENDBRANCH   1   7
TORSDOF 8
ENDMDL
MODEL 2
REMARK VINA RESULT:    -2.321      2.338      3.436
REMARK INTER + INTRA:          -4.319
REMARK INTER:                  -3.682
REMARK INTRA:                  -0.637
REMARK UNBOUND:                -0.913
REMARK SMILES CCCCCCCCCC=O
REMARK SMILES IDX 6 1 5 2 4 3 3 4 2 5 1 6 7 7 8 8 9 9 10 10 11 11
REMARK H PARENT
REMARK Flexibility Score: inf
ROOT
ATOM      1  C   UNL     1     107.821 108.744 103.937  1.00  0.00     0.000 C 
ENDROOT
BRANCH   1   2
ATOM      2  C   UNL     1     107.414 110.226 103.876  1.00  0.00     0.000 C 
BRANCH   2   3
ATOM      3  C   UNL     1     108.345 111.130 104.697  1.00  0.00    -0.000 C 
BRANCH   3   4
ATOM      4  C   UNL     1     107.643 112.439 105.077  1.00  0.00    -0.000 C 
BRANCH   4   5
ATOM      5  C   UNL     1     106.909 112.302 106.416  1.00  0.00    -0.003 C 
ATOM      6  C   UNL     1     107.579 111.259 107.307  1.00  0.00     0.004 C 
ENDBRANCH   4   5
ENDBRANCH   3   4
ENDBRANCH   2   3
ENDBRANCH   1   2
BRANCH   1   7
ATOM      7  C   UNL     1     109.033 108.501 104.850  1.00  0.00     0.000 C 
BRANCH   7   8
ATOM      8  C   UNL     1     108.676 107.731 106.133  1.00  0.00     0.008 C 
BRANCH   8   9
ATOM      9  C   UNL     1     107.404 106.871 106.008  1.00  0.00     0.072 C 
BRANCH   9  10
ATOM     10  C   UNL     1     106.863 106.440 107.341  1.00  0.00     0.224 C 
ATOM     11  O   UNL     1     107.563 106.520 108.337  1.00  0.00    -0.303 OA
ENDBRANCH   9  10
ENDBRANCH   8   9
ENDBRANCH   7   8
ENDBRANCH   1   7
TORSDOF 8
ENDMDL
MODEL 3
REMARK VINA RESULT:    -2.320      2.599      4.545
REMARK INTER + INTRA:          -4.318
REMARK INTER:                  -3.325
REMARK INTRA:                  -0.993
REMARK UNBOUND:                -0.913
REMARK SMILES CCCCCCCCCC=O
REMARK SMILES IDX 6 1 5 2 4 3 3 4 2 5 1 6 7 7 8 8 9 9 10 10 11 11
REMARK H PARENT
REMARK Flexibility Score: inf
ROOT
ATOM      1  C   UNL     1     107.873 109.725 107.085  1.00  0.00     0.000 C 
ENDROOT
BRANCH   1   2
ATOM      2  C   UNL     1     109.316 109.205 107.205  1.00  0.00     0.000 C 
BRANCH   2   3
ATOM      3  C   UNL     1     109.519 107.854 106.503  1.00  0.00    -0.000 C 
BRANCH   3   4
ATOM      4  C   UNL     1     108.177 107.255 106.068  1.00  0.00    -0.000 C 
BRANCH   4   5
ATOM      5  C   UNL     1     108.190 106.900 104.577  1.00  0.00    -0.003 C 
ATOM      6  C   UNL     1     109.481 107.370 103.910  1.00  0.00     0.004 C 
ENDBRANCH   4   5
ENDBRANCH   3   4
ENDBRANCH   2   3
ENDBRANCH   1   2
BRANCH   1   7
ATOM      7  C   UNL     1     107.776 111.009 106.245  1.00  0.00     0.000 C 
BRANCH   7   8
ATOM      8  C   UNL     1     107.663 110.734 104.735  1.00  0.00     0.008 C 
BRANCH   8   9
ATOM      9  C   UNL     1     108.934 111.090 103.942  1.00  0.00     0.072 C 
BRANCH   9  10
ATOM     10  C   UNL     1     109.622 112.316 104.471  1.00  0.00     0.224 C 
ATOM     11  O   UNL     1     110.579 112.782 103.875  1.00  0.00    -0.303 OA
ENDBRANCH   9  10
ENDBRANCH   8   9
ENDBRANCH   7   8
ENDBRANCH   1   7
TORSDOF 8
ENDMDL
MODEL 4
REMARK VINA RESULT:    -2.318      2.733      4.912
REMARK INTER + INTRA:          -4.315
REMARK INTER:                  -3.745
REMARK INTRA:                  -0.570
REMARK UNBOUND:                -0.913
REMARK SMILES CCCCCCCCCC=O
REMARK SMILES IDX 6 1 5 2 4 3 3 4 2 5 1 6 7 7 8 8 9 9 10 10 11 11
REMARK H PARENT
REMARK Flexibility Score: inf
ROOT
ATOM      1  C   UNL     1     107.996 110.880 105.150  1.00  0.00     0.000 C 
ENDROOT
BRANCH   1   2
ATOM      2  C   UNL     1     107.631 109.773 104.146  1.00  0.00     0.000 C 
BRANCH   2   3
ATOM      3  C   UNL     1     108.795 108.805 103.882  1.00  0.00    -0.000 C 
BRANCH   3   4
ATOM      4  C   UNL     1     109.065 107.926 105.108  1.00  0.00    -0.000 C 
BRANCH   4   5
ATOM      5  C   UNL     1     107.839 107.071 105.454  1.00  0.00    -0.003 C 
ATOM      6  C   UNL     1     107.628 106.996 106.964  1.00  0.00     0.004 C 
ENDBRANCH   4   5
ENDBRANCH   3   4
ENDBRANCH   2   3
ENDBRANCH   1   2
BRANCH   1   7
ATOM      7  C   UNL     1     108.025 112.275 104.506  1.00  0.00     0.000 C 
BRANCH   7   8
ATOM      8  C   UNL     1     109.386 112.619 103.876  1.00  0.00     0.008 C 
BRANCH   8   9
ATOM      9  C   UNL     1     110.592 112.086 104.672  1.00  0.00     0.072 C 
BRANCH   9  10
ATOM     10  C   UNL     1     111.879 112.763 104.297  1.00  0.00     0.224 C 
ATOM     11  O   UNL     1     111.872 113.930 103.943  1.00  0.00    -0.303 OA
ENDBRANCH   9  10
ENDBRANCH   8   9
ENDBRANCH   7   8
ENDBRANCH   1   7
TORSDOF 8
ENDMDL
MODEL 5
REMARK VINA RESULT:    -2.281      2.703      4.238
REMARK INTER + INTRA:          -4.260
REMARK INTER:                  -3.551
REMARK INTRA:                  -0.710
REMARK UNBOUND:                -0.913
REMARK SMILES CCCCCCCCCC=O
REMARK SMILES IDX 6 1 5 2 4 3 3 4 2 5 1 6 7 7 8 8 9 9 10 10 11 11
REMARK H PARENT
REMARK Flexibility Score: inf
ROOT
ATOM      1  C   UNL     1     112.539 110.739 103.878  1.00  0.00     0.000 C 
ENDROOT
BRANCH   1   2
ATOM      2  C   UNL     1     111.841 111.599 104.945  1.00  0.00     0.000 C 
BRANCH   2   3
ATOM      3  C   UNL     1     110.923 112.669 104.336  1.00  0.00    -0.000 C 
BRANCH   3   4
ATOM      4  C   UNL     1     109.542 112.087 104.012  1.00  0.00    -0.000 C 
BRANCH   4   5
ATOM      5  C   UNL     1     108.929 111.407 105.242  1.00  0.00    -0.003 C 
ATOM      6  C   UNL     1     108.387 110.023 104.894  1.00  0.00     0.004 C 
ENDBRANCH   4   5
ENDBRANCH   3   4
ENDBRANCH   2   3
ENDBRANCH   1   2
BRANCH   1   7
ATOM      7  C   UNL     1     112.141 109.256 103.963  1.00  0.00     0.000 C 
BRANCH   7   8
ATOM      8  C   UNL     1     112.176 108.704 105.399  1.00  0.00     0.008 C 
BRANCH   8   9
ATOM      9  C   UNL     1     113.358 107.755 105.671  1.00  0.00     0.072 C 
BRANCH   9  10
ATOM     10  C   UNL     1     113.345 107.199 107.066  1.00  0.00     0.224 C 
ATOM     11  O   UNL     1     113.710 106.053 107.269  1.00  0.00    -0.303 OA
ENDBRANCH   9  10
ENDBRANCH   8   9
ENDBRANCH   7   8
ENDBRANCH   1   7
TORSDOF 8
ENDMDL
MODEL 6
REMARK VINA RESULT:    -2.259      2.187      3.735
REMARK INTER + INTRA:          -4.229
REMARK INTER:                  -3.265
REMARK INTRA:                  -0.964
REMARK UNBOUND:                -0.913
REMARK SMILES CCCCCCCCCC=O
REMARK SMILES IDX 6 1 5 2 4 3 3 4 2 5 1 6 7 7 8 8 9 9 10 10 11 11
REMARK H PARENT
REMARK Flexibility Score: inf
ROOT
ATOM      1  C   UNL     1     108.351 108.425 105.373  1.00  0.00     0.000 C 
ENDROOT
BRANCH   1   2
ATOM      2  C   UNL     1     108.134 108.921 103.934  1.00  0.00     0.000 C 
BRANCH   2   3
ATOM      3  C   UNL     1     107.391 110.264 103.875  1.00  0.00    -0.000 C 
BRANCH   3   4
ATOM      4  C   UNL     1     108.019 111.281 104.836  1.00  0.00    -0.000 C 
BRANCH   4   5
ATOM      5  C   UNL     1     109.304 111.873 104.248  1.00  0.00    -0.003 C 
ATOM      6  C   UNL     1     110.401 111.970 105.305  1.00  0.00     0.004 C 
ENDBRANCH   4   5
ENDBRANCH   3   4
ENDBRANCH   2   3
ENDBRANCH   1   2
BRANCH   1   7
ATOM      7  C   UNL     1     109.834 108.184 105.698  1.00  0.00     0.000 C 
BRANCH   7   8
ATOM      8  C   UNL     1     110.742 108.257 104.459  1.00  0.00     0.008 C 
BRANCH   8   9
ATOM      9  C   UNL     1     112.174 108.734 104.765  1.00  0.00     0.072 C 
BRANCH   9  10
ATOM     10  C   UNL     1     112.628 108.353 106.145  1.00  0.00     0.224 C 
ATOM     11  O   UNL     1     113.389 107.411 106.297  1.00  0.00    -0.303 OA
ENDBRANCH   9  10
ENDBRANCH   8   9
ENDBRANCH   7   8
ENDBRANCH   1   7
TORSDOF 8
ENDMDL
MODEL 7
REMARK VINA RESULT:    -2.253      1.808      2.203
REMARK INTER + INTRA:          -4.221
REMARK INTER:                  -3.289
REMARK INTRA:                  -0.931
REMARK UNBOUND:                -0.913
REMARK SMILES CCCCCCCCCC=O
REMARK SMILES IDX 6 1 5 2 4 3 3 4 2 5 1 6 7 7 8 8 9 9 10 10 11 11
REMARK H PARENT
REMARK Flexibility Score: inf
ROOT
ATOM      1  C   UNL     1     108.111 110.017 105.279  1.00  0.00     0.000 C 
ENDROOT
BRANCH   1   2
ATOM      2  C   UNL     1     109.061 111.168 104.906  1.00  0.00     0.000 C 
BRANCH   2   3
ATOM      3  C   UNL     1     110.441 111.036 105.567  1.00  0.00    -0.000 C 
BRANCH   3   4
ATOM      4  C   UNL     1     111.401 110.238 104.678  1.00  0.00    -0.000 C 
BRANCH   4   5
ATOM      5  C   UNL     1     111.689 108.858 105.279  1.00  0.00    -0.003 C 
ATOM      6  C   UNL     1     111.498 107.754 104.241  1.00  0.00     0.004 C 
ENDBRANCH   4   5
ENDBRANCH   3   4
ENDBRANCH   2   3
ENDBRANCH   1   2
BRANCH   1   7
ATOM      7  C   UNL     1     107.875 109.043 104.113  1.00  0.00     0.000 C 
BRANCH   7   8
ATOM      8  C   UNL     1     107.752 107.578 104.567  1.00  0.00     0.008 C 
BRANCH   8   9
ATOM      9  C   UNL     1     108.128 107.352 106.043  1.00  0.00     0.072 C 
BRANCH   9  10
ATOM     10  C   UNL     1     107.081 106.580 106.795  1.00  0.00     0.224 C 
ATOM     11  O   UNL     1     107.229 106.353 107.984  1.00  0.00    -0.303 OA
ENDBRANCH   9  10
ENDBRANCH   8   9
ENDBRANCH   7   8
ENDBRANCH   1   7
TORSDOF 8
ENDMDL
MODEL 8
REMARK VINA RESULT:    -2.247      1.038      2.910
REMARK INTER + INTRA:          -4.211
REMARK INTER:                  -3.223
REMARK INTRA:                  -0.988
REMARK UNBOUND:                -0.913
REMARK SMILES CCCCCCCCCC=O
REMARK SMILES IDX 6 1 5 2 4 3 3 4 2 5 1 6 7 7 8 8 9 9 10 10 11 11
REMARK H PARENT
REMARK Flexibility Score: inf
ROOT
ATOM      1  C   UNL     1     111.590 110.616 105.773  1.00  0.00     0.000 C 
ENDROOT
BRANCH   1   2
ATOM      2  C   UNL     1     111.190 112.001 105.240  1.00  0.00     0.000 C 
BRANCH   2   3
ATOM      3  C   UNL     1     110.441 111.928 103.901  1.00  0.00    -0.000 C 
BRANCH   3   4
ATOM      4  C   UNL     1     109.023 112.497 104.034  1.00  0.00    -0.000 C 
BRANCH   4   5
ATOM      5  C   UNL     1     107.998 111.377 104.245  1.00  0.00    -0.003 C 
ATOM      6  C   UNL     1     107.584 111.277 105.711  1.00  0.00     0.004 C 
ENDBRANCH   4   5
ENDBRANCH   3   4
ENDBRANCH   2   3
ENDBRANCH   1   2
BRANCH   1   7
ATOM      7  C   UNL     1     111.186 109.477 104.823  1.00  0.00     0.000 C 
BRANCH   7   8
ATOM      8  C   UNL     1     110.165 108.508 105.444  1.00  0.00     0.008 C 
BRANCH   8   9
ATOM      9  C   UNL     1     109.235 107.841 104.413  1.00  0.00     0.072 C 
BRANCH   9  10
ATOM     10  C   UNL     1     107.892 107.491 104.986  1.00  0.00     0.224 C 
ATOM     11  O   UNL     1     107.768 106.497 105.683  1.00  0.00    -0.303 OA
ENDBRANCH   9  10
ENDBRANCH   8   9
ENDBRANCH   7   8
ENDBRANCH   1   7
TORSDOF 8
ENDMDL
