MODEL 1
REMARK VINA RESULT:    -4.071      0.000      0.000
REMARK INTER + INTRA:          -4.756
REMARK INTER:                  -4.548
REMARK INTRA:                  -0.208
REMARK UNBOUND:                -0.208
REMARK SMILES CC(C)c1ccc(C(=O)[O-])cc1
REMARK SMILES IDX 7 1 6 2 11 3 5 4 12 5 4 6 8 7 9 8 10 9 2 10 1 11 3 12
REMARK H PARENT
REMARK Flexibility Score: inf
ROOT
ATOM      1  C   UNL     1     171.939 184.576  32.747  1.00  0.00    -0.003 A 
ATOM      2  C   UNL     1     171.771 185.843  33.332  1.00  0.00     0.010 A 
ATOM      3  C   UNL     1     171.020 184.148  31.775  1.00  0.00     0.010 A 
ATOM      4  C   UNL     1     170.707 186.665  32.950  1.00  0.00     0.004 A 
ATOM      5  C   UNL     1     169.955 184.970  31.393  1.00  0.00     0.004 A 
ATOM      6  C   UNL     1     169.787 186.237  31.975  1.00  0.00    -0.045 A 
ENDROOT
BRANCH   1   7
ATOM      7  C   UNL     1     173.064 183.702  33.148  1.00  0.00     0.071 C 
ATOM      8  O   UNL     1     173.242 183.403  34.359  1.00  0.00    -0.545 OA
ATOM      9  O   UNL     1     173.941 183.199  32.194  1.00  0.00    -0.545 OA
ENDBRANCH   1   7
BRANCH   6  10
ATOM     10  C   UNL     1     168.627 187.118  31.552  1.00  0.00     0.013 C 
ATOM     11  C   UNL     1     167.578 187.225  32.666  1.00  0.00     0.012 C 
ATOM     12  C   UNL     1     167.997 186.614  30.248  1.00  0.00     0.012 C 
ENDBRANCH   6  10
TORSDOF 2
ENDMDL
MODEL 2
REMARK VINA RESULT:    -4.059      0.139      1.405
REMARK INTER + INTRA:          -4.742
REMARK INTER:                  -4.535
REMARK INTRA:                  -0.207
REMARK UNBOUND:                -0.208
REMARK SMILES CC(C)c1ccc(C(=O)[O-])cc1
REMARK SMILES IDX 7 1 6 2 11 3 5 4 12 5 4 6 8 7 9 8 10 9 2 10 1 11 3 12
REMARK H PARENT
REMARK Flexibility Score: inf
ROOT
ATOM      1  C   UNL     1     171.842 184.619  32.681  1.00  0.00    -0.003 A 
ATOM      2  C   UNL     1     170.933 184.176  31.704  1.00  0.00     0.010 A 
ATOM      3  C   UNL     1     171.665 185.891  33.248  1.00  0.00     0.010 A 
ATOM      4  C   UNL     1     169.868 184.990  31.306  1.00  0.00     0.004 A 
ATOM      5  C   UNL     1     170.600 186.705  32.851  1.00  0.00     0.004 A 
ATOM      6  C   UNL     1     169.690 186.264  31.876  1.00  0.00    -0.045 A 
ENDROOT
BRANCH   1   7
ATOM      7  C   UNL     1     172.971 183.761  33.105  1.00  0.00     0.071 C 
ATOM      8  O   UNL     1     173.143 183.484  34.322  1.00  0.00    -0.545 OA
ATOM      9  O   UNL     1     173.858 183.249  32.165  1.00  0.00    -0.545 OA
ENDBRANCH   1   7
BRANCH   6  10
ATOM     10  C   UNL     1     168.539 187.157  31.453  1.00  0.00     0.013 C 
ATOM     11  C   UNL     1     167.452 187.207  32.534  1.00  0.00     0.012 C 
ATOM     12  C   UNL     1     167.957 186.710  30.107  1.00  0.00     0.012 C 
ENDBRANCH   6  10
TORSDOF 2
ENDMDL
MODEL 3
REMARK VINA RESULT:    -3.987      3.169      5.040
REMARK INTER + INTRA:          -4.661
REMARK INTER:                  -4.449
REMARK INTRA:                  -0.212
REMARK UNBOUND:                -0.208
REMARK SMILES CC(C)c1ccc(C(=O)[O-])cc1
REMARK SMILES IDX 7 1 6 2 11 3 5 4 12 5 4 6 8 7 9 8 10 9 2 10 1 11 3 12
REMARK H PARENT
REMARK Flexibility Score: inf
ROOT
ATOM      1  C   UNL     1     169.422 186.294  31.611  1.00  0.00    -0.003 A 
ATOM      2  C   UNL     1     170.097 186.871  32.701  1.00  0.00     0.010 A 
ATOM      3  C   UNL     1     169.845 185.042  31.135  1.00  0.00     0.010 A 
ATOM      4  C   UNL     1     171.171 186.207  33.302  1.00  0.00     0.004 A 
ATOM      5  C   UNL     1     170.919 184.378  31.735  1.00  0.00     0.004 A 
ATOM      6  C   UNL     1     171.594 184.953  32.825  1.00  0.00    -0.045 A 
ENDROOT
BRANCH   1   7
ATOM      7  C   UNL     1     168.286 186.992  30.972  1.00  0.00     0.071 C 
ATOM      8  O   UNL     1     167.614 187.843  31.614  1.00  0.00    -0.545 OA
ATOM      9  O   UNL     1     167.943 186.720  29.652  1.00  0.00    -0.545 OA
ENDBRANCH   1   7
BRANCH   6  10
ATOM     10  C   UNL     1     172.758 184.222  33.467  1.00  0.00     0.013 C 
ATOM     11  C   UNL     1     173.384 183.216  32.493  1.00  0.00     0.012 C 
ATOM     12  C   UNL     1     172.329 183.535  34.769  1.00  0.00     0.012 C 
ENDBRANCH   6  10
TORSDOF 2
ENDMDL
MODEL 4
REMARK VINA RESULT:    -3.898      1.067      2.076
REMARK INTER + INTRA:          -4.562
REMARK INTER:                  -4.357
REMARK INTRA:                  -0.205
REMARK UNBOUND:                -0.208
REMARK SMILES CC(C)c1ccc(C(=O)[O-])cc1
REMARK SMILES IDX 7 1 6 2 11 3 5 4 12 5 4 6 8 7 9 8 10 9 2 10 1 11 3 12
REMARK H PARENT
REMARK Flexibility Score: inf
ROOT
ATOM      1  C   UNL     1     171.916 184.283  32.713  1.00  0.00    -0.003 A 
ATOM      2  C   UNL     1     170.897 184.283  31.743  1.00  0.00     0.010 A 
ATOM      3  C   UNL     1     172.001 185.359  33.611  1.00  0.00     0.010 A 
ATOM      4  C   UNL     1     169.983 185.339  31.676  1.00  0.00     0.004 A 
ATOM      5  C   UNL     1     171.087 186.415  33.544  1.00  0.00     0.004 A 
ATOM      6  C   UNL     1     170.068 186.417  32.576  1.00  0.00    -0.045 A 
ENDROOT
BRANCH   1   7
ATOM      7  C   UNL     1     172.885 183.168  32.788  1.00  0.00     0.071 C 
ATOM      8  O   UNL     1     173.947 183.196  32.110  1.00  0.00    -0.545 OA
ATOM      9  O   UNL     1     172.638 182.073  33.607  1.00  0.00    -0.545 OA
ENDBRANCH   1   7
BRANCH   6  10
ATOM     10  C   UNL     1     169.083 187.569  32.515  1.00  0.00     0.013 C 
ATOM     11  C   UNL     1     169.630 188.804  33.242  1.00  0.00     0.012 C 
ATOM     12  C   UNL     1     167.717 187.159  33.077  1.00  0.00     0.012 C 
ENDBRANCH   6  10
TORSDOF 2
ENDMDL
MODEL 5
REMARK VINA RESULT:    -3.768      3.559      5.161
REMARK INTER + INTRA:          -4.417
REMARK INTER:                  -4.204
REMARK INTRA:                  -0.213
REMARK UNBOUND:                -0.208
REMARK SMILES CC(C)c1ccc(C(=O)[O-])cc1
REMARK SMILES IDX 7 1 6 2 11 3 5 4 12 5 4 6 8 7 9 8 10 9 2 10 1 11 3 12
REMARK H PARENT
REMARK Flexibility Score: inf
ROOT
ATOM      1  C   UNL     1     168.719 185.700  30.963  1.00  0.00    -0.003 A 
ATOM      2  C   UNL     1     168.299 185.403  32.272  1.00  0.00     0.010 A 
ATOM      3  C   UNL     1     169.975 185.245  30.532  1.00  0.00     0.010 A 
ATOM      4  C   UNL     1     169.120 184.664  33.129  1.00  0.00     0.004 A 
ATOM      5  C   UNL     1     170.796 184.507  31.389  1.00  0.00     0.004 A 
ATOM      6  C   UNL     1     170.378 184.208  32.697  1.00  0.00    -0.045 A 
ENDROOT
BRANCH   1   7
ATOM      7  C   UNL     1     167.853 186.482  30.052  1.00  0.00     0.071 C 
ATOM      8  O   UNL     1     167.362 185.949  29.022  1.00  0.00    -0.545 OA
ATOM      9  O   UNL     1     167.571 187.816  30.321  1.00  0.00    -0.545 OA
ENDBRANCH   1   7
BRANCH   6  10
ATOM     10  C   UNL     1     171.279 183.406  33.616  1.00  0.00     0.013 C 
ATOM     11  C   UNL     1     170.863 183.574  35.083  1.00  0.00     0.012 C 
ATOM     12  C   UNL     1     172.752 183.783  33.415  1.00  0.00     0.012 C 
ENDBRANCH   6  10
TORSDOF 2
ENDMDL
MODEL 6
REMARK VINA RESULT:    -3.752     20.954     22.112
REMARK INTER + INTRA:          -4.399
REMARK INTER:                  -4.177
REMARK INTRA:                  -0.221
REMARK UNBOUND:                -0.208
REMARK SMILES CC(C)c1ccc(C(=O)[O-])cc1
REMARK SMILES IDX 7 1 6 2 11 3 5 4 12 5 4 6 8 7 9 8 10 9 2 10 1 11 3 12
REMARK H PARENT
REMARK Flexibility Score: inf
ROOT
ATOM      1  C   UNL     1     161.793 169.925  20.708  1.00  0.00    -0.003 A 
ATOM      2  C   UNL     1     162.747 168.942  20.393  1.00  0.00     0.010 A 
ATOM      3  C   UNL     1     161.406 170.840  19.715  1.00  0.00     0.010 A 
ATOM      4  C   UNL     1     163.301 168.876  19.111  1.00  0.00     0.004 A 
ATOM      5  C   UNL     1     161.960 170.774  18.433  1.00  0.00     0.004 A 
ATOM      6  C   UNL     1     162.913 169.792  18.116  1.00  0.00    -0.045 A 
ENDROOT
BRANCH   1   7
ATOM      7  C   UNL     1     161.204 169.999  22.063  1.00  0.00     0.071 C 
ATOM      8  O   UNL     1     161.575 169.204  22.967  1.00  0.00    -0.545 OA
ATOM      9  O   UNL     1     160.232 170.948  22.358  1.00  0.00    -0.545 OA
ENDBRANCH   1   7
BRANCH   6  10
ATOM     10  C   UNL     1     163.506 169.732  16.722  1.00  0.00     0.013 C 
ATOM     11  C   UNL     1     164.976 169.294  16.764  1.00  0.00     0.012 C 
ATOM     12  C   UNL     1     163.351 171.074  15.997  1.00  0.00     0.012 C 
ENDBRANCH   6  10
TORSDOF 2
ENDMDL
MODEL 7
REMARK VINA RESULT:    -3.746     21.387     22.533
REMARK INTER + INTRA:          -4.392
REMARK INTER:                  -4.176
REMARK INTRA:                  -0.216
REMARK UNBOUND:                -0.208
REMARK SMILES CC(C)c1ccc(C(=O)[O-])cc1
REMARK SMILES IDX 7 1 6 2 11 3 5 4 12 5 4 6 8 7 9 8 10 9 2 10 1 11 3 12
REMARK H PARENT
REMARK Flexibility Score: inf
ROOT
ATOM      1  C   UNL     1     162.267 169.690  19.835  1.00  0.00    -0.003 A 
ATOM      2  C   UNL     1     161.634 170.629  19.001  1.00  0.00     0.010 A 
ATOM      3  C   UNL     1     163.277 168.876  19.298  1.00  0.00     0.010 A 
ATOM      4  C   UNL     1     162.007 170.750  17.659  1.00  0.00     0.004 A 
ATOM      5  C   UNL     1     163.651 168.997  17.956  1.00  0.00     0.004 A 
ATOM      6  C   UNL     1     163.020 169.935  17.121  1.00  0.00    -0.045 A 
ENDROOT
BRANCH   1   7
ATOM      7  C   UNL     1     161.875 169.558  21.255  1.00  0.00     0.071 C 
ATOM      8  O   UNL     1     160.798 170.062  21.672  1.00  0.00    -0.545 OA
ATOM      9  O   UNL     1     162.691 168.876  22.150  1.00  0.00    -0.545 OA
ENDBRANCH   1   7
BRANCH   6  10
ATOM     10  C   UNL     1     163.435 170.056  15.668  1.00  0.00     0.013 C 
ATOM     11  C   UNL     1     164.930 170.376  15.543  1.00  0.00     0.012 C 
ATOM     12  C   UNL     1     162.585 171.101  14.935  1.00  0.00     0.012 C 
ENDBRANCH   6  10
TORSDOF 2
ENDMDL
MODEL 8
REMARK VINA RESULT:    -3.730      4.057      5.390
REMARK INTER + INTRA:          -4.375
REMARK INTER:                  -4.172
REMARK INTRA:                  -0.202
REMARK UNBOUND:                -0.208
REMARK SMILES CC(C)c1ccc(C(=O)[O-])cc1
REMARK SMILES IDX 7 1 6 2 11 3 5 4 12 5 4 6 8 7 9 8 10 9 2 10 1 11 3 12
REMARK H PARENT
REMARK Flexibility Score: inf
ROOT
ATOM      1  C   UNL     1     166.961 184.694  31.789  1.00  0.00    -0.003 A 
ATOM      2  C   UNL     1     167.729 184.257  32.883  1.00  0.00     0.010 A 
ATOM      3  C   UNL     1     167.600 185.371  30.737  1.00  0.00     0.010 A 
ATOM      4  C   UNL     1     169.107 184.492  32.921  1.00  0.00     0.004 A 
ATOM      5  C   UNL     1     168.978 185.606  30.775  1.00  0.00     0.004 A 
ATOM      6  C   UNL     1     169.747 185.169  31.867  1.00  0.00    -0.045 A 
ENDROOT
BRANCH   1   7
ATOM      7  C   UNL     1     165.503 184.448  31.744  1.00  0.00     0.071 C 
ATOM      8  O   UNL     1     164.767 184.784  32.709  1.00  0.00    -0.545 OA
ATOM      9  O   UNL     1     164.925 183.842  30.635  1.00  0.00    -0.545 OA
ENDBRANCH   1   7
BRANCH   6  10
ATOM     10  C   UNL     1     171.240 185.431  31.896  1.00  0.00     0.013 C 
ATOM     11  C   UNL     1     172.021 184.146  32.202  1.00  0.00     0.012 C 
ATOM     12  C   UNL     1     171.589 186.539  32.896  1.00  0.00     0.012 C 
ENDBRANCH   6  10
TORSDOF 2
ENDMDL
MODEL 9
REMARK VINA RESULT:    -3.590      1.384      2.259
REMARK INTER + INTRA:          -4.219
REMARK INTER:                  -4.010
REMARK INTRA:                  -0.208
REMARK UNBOUND:                -0.208
REMARK SMILES CC(C)c1ccc(C(=O)[O-])cc1
REMARK SMILES IDX 7 1 6 2 11 3 5 4 12 5 4 6 8 7 9 8 10 9 2 10 1 11 3 12
REMARK H PARENT
REMARK Flexibility Score: inf
ROOT
ATOM      1  C   UNL     1     172.479 183.505  33.606  1.00  0.00    -0.003 A 
ATOM      2  C   UNL     1     172.246 183.533  32.220  1.00  0.00     0.010 A 
ATOM      3  C   UNL     1     171.626 184.230  34.454  1.00  0.00     0.010 A 
ATOM      4  C   UNL     1     171.180 184.270  31.695  1.00  0.00     0.004 A 
ATOM      5  C   UNL     1     170.560 184.967  33.929  1.00  0.00     0.004 A 
ATOM      6  C   UNL     1     170.325 184.996  32.544  1.00  0.00    -0.045 A 
ENDROOT
BRANCH   1   7
ATOM      7  C   UNL     1     173.606 182.727  34.166  1.00  0.00     0.071 C 
ATOM      8  O   UNL     1     173.396 181.645  34.776  1.00  0.00    -0.545 OA
ATOM      9  O   UNL     1     174.912 183.180  34.028  1.00  0.00    -0.545 OA
ENDBRANCH   1   7
BRANCH   6  10
ATOM     10  C   UNL     1     169.165 185.800  31.988  1.00  0.00     0.013 C 
ATOM     11  C   UNL     1     169.050 185.627  30.468  1.00  0.00     0.012 C 
ATOM     12  C   UNL     1     169.287 187.281  32.366  1.00  0.00     0.012 C 
ENDBRANCH   6  10
TORSDOF 2
ENDMDL
