MODEL 1
REMARK VINA RESULT:    -4.789      0.000      0.000
REMARK INTER + INTRA:         -14.175
REMARK INTER:                 -10.947
REMARK INTRA:                  -3.228
REMARK UNBOUND:                -3.228
REMARK SMILES CCCCCCCCCCCCCCCCCCCCCCCC(=O)[O-]
REMARK SMILES IDX 13 1 14 2 15 3 16 4 17 5 18 6 19 7 20 8 21 9 22 10 23 11
REMARK SMILES IDX 24 12 25 13 26 14 12 15 11 16 10 17 9 18 8 19 7 20 6 21 5 22
REMARK SMILES IDX 4 23 3 24 2 25 1 26
REMARK H PARENT
REMARK Flexibility Score: inf
ROOT
ATOM      1  C   UNL     1      60.060  27.886  12.992  1.00  0.00     0.000 C 
ENDROOT
BRANCH   1   2
ATOM      2  C   UNL     1      59.231  28.803  12.067  1.00  0.00     0.000 C 
BRANCH   2   3
ATOM      3  C   UNL     1      59.483  28.570  10.564  1.00  0.00     0.000 C 
BRANCH   3   4
ATOM      4  C   UNL     1      60.393  29.612   9.885  1.00  0.00     0.000 C 
BRANCH   4   5
ATOM      5  C   UNL     1      61.494  29.028   8.974  1.00  0.00     0.000 C 
BRANCH   5   6
ATOM      6  C   UNL     1      62.927  29.156   9.520  1.00  0.00     0.000 C 
BRANCH   6   7
ATOM      7  C   UNL     1      63.610  30.465   9.097  1.00  0.00     0.000 C 
BRANCH   7   8
ATOM      8  C   UNL     1      64.768  30.814  10.045  1.00  0.00     0.000 C 
BRANCH   8   9
ATOM      9  C   UNL     1      65.445  32.145   9.682  1.00  0.00     0.000 C 
BRANCH   9  10
ATOM     10  C   UNL     1      66.079  32.834  10.903  1.00  0.00     0.006 C 
BRANCH  10  11
ATOM     11  C   UNL     1      65.025  33.395  11.864  1.00  0.00     0.053 C 
BRANCH  11  12
ATOM     12  C   UNL     1      65.650  34.040  13.064  1.00  0.00     0.041 C 
ATOM     13  O   UNL     1      66.126  35.204  12.980  1.00  0.00    -0.550 OA
ATOM     14  O   UNL     1      65.678  33.370  14.283  1.00  0.00    -0.550 OA
ENDBRANCH  11  12
ENDBRANCH  10  11
ENDBRANCH   9  10
ENDBRANCH   8   9
ENDBRANCH   7   8
ENDBRANCH   6   7
ENDBRANCH   5   6
ENDBRANCH   4   5
ENDBRANCH   3   4
ENDBRANCH   2   3
ENDBRANCH   1   2
BRANCH   1  15
ATOM     15  C   UNL     1      61.165  28.649  13.744  1.00  0.00     0.000 C 
BRANCH  15  16
ATOM     16  C   UNL     1      62.484  28.728  12.954  1.00  0.00     0.000 C 
BRANCH  16  17
ATOM     17  C   UNL     1      63.467  29.813  13.433  1.00  0.00     0.000 C 
BRANCH  17  18
ATOM     18  C   UNL     1      62.795  31.185  13.611  1.00  0.00    -0.000 C 
BRANCH  18  19
ATOM     19  C   UNL     1      61.915  31.585  12.413  1.00  0.00    -0.000 C 
BRANCH  19  20
ATOM     20  C   UNL     1      60.578  32.263  12.775  1.00  0.00    -0.000 C 
BRANCH  20  21
ATOM     21  C   UNL     1      60.223  32.261  14.275  1.00  0.00    -0.000 C 
BRANCH  21  22
ATOM     22  C   UNL     1      60.404  33.615  14.986  1.00  0.00    -0.000 C 
BRANCH  22  23
ATOM     23  C   UNL     1      61.475  33.572  16.090  1.00  0.00    -0.000 C 
BRANCH  23  24
ATOM     24  C   UNL     1      61.103  34.438  17.304  1.00  0.00    -0.000 C 
BRANCH  24  25
ATOM     25  C   UNL     1      61.724  33.918  18.610  1.00  0.00    -0.003 C 
ATOM     26  C   UNL     1      60.663  33.294  19.513  1.00  0.00     0.004 C 
ENDBRANCH  24  25
ENDBRANCH  23  24
ENDBRANCH  22  23
ENDBRANCH  21  22
ENDBRANCH  20  21
ENDBRANCH  19  20
ENDBRANCH  18  19
ENDBRANCH  17  18
ENDBRANCH  16  17
ENDBRANCH  15  16
ENDBRANCH   1  15
TORSDOF 22
ENDMDL
MODEL 2
REMARK VINA RESULT:    -4.763      1.865      5.619
REMARK INTER + INTRA:         -14.116
REMARK INTER:                 -10.766
REMARK INTRA:                  -3.351
REMARK UNBOUND:                -3.228
REMARK SMILES CCCCCCCCCCCCCCCCCCCCCCCC(=O)[O-]
REMARK SMILES IDX 13 1 14 2 15 3 16 4 17 5 18 6 19 7 20 8 21 9 22 10 23 11
REMARK SMILES IDX 24 12 25 13 26 14 12 15 11 16 10 17 9 18 8 19 7 20 6 21 5 22
REMARK SMILES IDX 4 23 3 24 2 25 1 26
REMARK H PARENT
REMARK Flexibility Score: inf
ROOT
ATOM      1  C   UNL     1      59.871  27.864  12.994  1.00  0.00     0.000 C 
ENDROOT
BRANCH   1   2
ATOM      2  C   UNL     1      61.359  28.227  12.797  1.00  0.00     0.000 C 
BRANCH   2   3
ATOM      3  C   UNL     1      61.915  29.195  13.859  1.00  0.00     0.000 C 
BRANCH   3   4
ATOM      4  C   UNL     1      60.870  30.114  14.517  1.00  0.00     0.000 C 
BRANCH   4   5
ATOM      5  C   UNL     1      60.458  31.345  13.680  1.00  0.00     0.000 C 
BRANCH   5   6
ATOM      6  C   UNL     1      59.675  32.424  14.451  1.00  0.00     0.000 C 
BRANCH   6   7
ATOM      7  C   UNL     1      60.576  33.552  14.975  1.00  0.00     0.000 C 
BRANCH   7   8
ATOM      8  C   UNL     1      61.337  33.108  16.234  1.00  0.00     0.000 C 
BRANCH   8   9
ATOM      9  C   UNL     1      61.295  34.164  17.350  1.00  0.00     0.000 C 
BRANCH   9  10
ATOM     10  C   UNL     1      62.370  33.927  18.425  1.00  0.00     0.006 C 
BRANCH  10  11
ATOM     11  C   UNL     1      63.731  33.572  17.813  1.00  0.00     0.053 C 
BRANCH  11  12
ATOM     12  C   UNL     1      64.797  34.545  18.220  1.00  0.00     0.041 C 
ATOM     13  O   UNL     1      64.568  35.785  18.186  1.00  0.00    -0.550 OA
ATOM     14  O   UNL     1      66.030  34.085  18.668  1.00  0.00    -0.550 OA
ENDBRANCH  11  12
ENDBRANCH  10  11
ENDBRANCH   9  10
ENDBRANCH   8   9
ENDBRANCH   7   8
ENDBRANCH   6   7
ENDBRANCH   5   6
ENDBRANCH   4   5
ENDBRANCH   3   4
ENDBRANCH   2   3
ENDBRANCH   1   2
BRANCH   1  15
ATOM     15  C   UNL     1      59.004  28.242  11.781  1.00  0.00     0.000 C 
BRANCH  15  16
ATOM     16  C   UNL     1      59.662  29.306  10.882  1.00  0.00     0.000 C 
BRANCH  16  17
ATOM     17  C   UNL     1      59.714  28.951   9.384  1.00  0.00     0.000 C 
BRANCH  17  18
ATOM     18  C   UNL     1      61.104  28.467   8.937  1.00  0.00    -0.000 C 
BRANCH  18  19
ATOM     19  C   UNL     1      62.190  29.550   9.068  1.00  0.00    -0.000 C 
BRANCH  19  20
ATOM     20  C   UNL     1      63.506  29.087   9.724  1.00  0.00    -0.000 C 
BRANCH  20  21
ATOM     21  C   UNL     1      63.995  29.954  10.902  1.00  0.00    -0.000 C 
BRANCH  21  22
ATOM     22  C   UNL     1      63.177  31.234  11.150  1.00  0.00    -0.000 C 
BRANCH  22  23
ATOM     23  C   UNL     1      63.986  32.333  11.861  1.00  0.00    -0.000 C 
BRANCH  23  24
ATOM     24  C   UNL     1      63.862  32.257  13.391  1.00  0.00    -0.000 C 
BRANCH  24  25
ATOM     25  C   UNL     1      64.246  33.576  14.080  1.00  0.00    -0.003 C 
ATOM     26  C   UNL     1      65.585  34.096  13.563  1.00  0.00     0.004 C 
ENDBRANCH  24  25
ENDBRANCH  23  24
ENDBRANCH  22  23
ENDBRANCH  21  22
ENDBRANCH  20  21
ENDBRANCH  19  20
ENDBRANCH  18  19
ENDBRANCH  17  18
ENDBRANCH  16  17
ENDBRANCH  15  16
ENDBRANCH   1  15
TORSDOF 22
ENDMDL
MODEL 3
REMARK VINA RESULT:    -4.707      1.621      3.106
REMARK INTER + INTRA:         -13.988
REMARK INTER:                 -10.318
REMARK INTRA:                  -3.670
REMARK UNBOUND:                -3.228
REMARK SMILES CCCCCCCCCCCCCCCCCCCCCCCC(=O)[O-]
REMARK SMILES IDX 13 1 14 2 15 3 16 4 17 5 18 6 19 7 20 8 21 9 22 10 23 11
REMARK SMILES IDX 24 12 25 13 26 14 12 15 11 16 10 17 9 18 8 19 7 20 6 21 5 22
REMARK SMILES IDX 4 23 3 24 2 25 1 26
REMARK H PARENT
REMARK Flexibility Score: inf
ROOT
ATOM      1  C   UNL     1      60.370  29.821   9.854  1.00  0.00     0.000 C 
ENDROOT
BRANCH   1   2
ATOM      2  C   UNL     1      61.030  28.553   9.273  1.00  0.00     0.000 C 
BRANCH   2   3
ATOM      3  C   UNL     1      62.563  28.646   9.144  1.00  0.00     0.000 C 
BRANCH   3   4
ATOM      4  C   UNL     1      63.121  30.074   8.994  1.00  0.00     0.000 C 
BRANCH   4   5
ATOM      5  C   UNL     1      64.318  30.411   9.909  1.00  0.00     0.000 C 
BRANCH   5   6
ATOM      6  C   UNL     1      64.113  31.630  10.827  1.00  0.00     0.000 C 
BRANCH   6   7
ATOM      7  C   UNL     1      65.285  32.620  10.773  1.00  0.00     0.000 C 
BRANCH   7   8
ATOM      8  C   UNL     1      65.223  33.611  11.946  1.00  0.00     0.000 C 
BRANCH   8   9
ATOM      9  C   UNL     1      64.481  33.036  13.163  1.00  0.00     0.000 C 
BRANCH   9  10
ATOM     10  C   UNL     1      64.847  33.760  14.470  1.00  0.00     0.006 C 
BRANCH  10  11
ATOM     11  C   UNL     1      64.798  32.825  15.685  1.00  0.00     0.053 C 
BRANCH  11  12
ATOM     12  C   UNL     1      64.904  33.580  16.975  1.00  0.00     0.041 C 
ATOM     13  O   UNL     1      65.387  33.021  17.997  1.00  0.00    -0.550 OA
ATOM     14  O   UNL     1      64.501  34.909  17.043  1.00  0.00    -0.550 OA
ENDBRANCH  11  12
ENDBRANCH  10  11
ENDBRANCH   9  10
ENDBRANCH   8   9
ENDBRANCH   7   8
ENDBRANCH   6   7
ENDBRANCH   5   6
ENDBRANCH   4   5
ENDBRANCH   3   4
ENDBRANCH   2   3
ENDBRANCH   1   2
BRANCH   1  15
ATOM     15  C   UNL     1      59.847  29.613  11.286  1.00  0.00     0.000 C 
BRANCH  15  16
ATOM     16  C   UNL     1      60.184  28.220  11.851  1.00  0.00     0.000 C 
BRANCH  16  17
ATOM     17  C   UNL     1      61.093  28.224  13.094  1.00  0.00     0.000 C 
BRANCH  17  18
ATOM     18  C   UNL     1      62.370  29.056  12.892  1.00  0.00    -0.000 C 
BRANCH  18  19
ATOM     19  C   UNL     1      62.500  30.214  13.898  1.00  0.00    -0.000 C 
BRANCH  19  20
ATOM     20  C   UNL     1      61.570  30.128  15.125  1.00  0.00    -0.000 C 
BRANCH  20  21
ATOM     21  C   UNL     1      60.376  31.102  15.116  1.00  0.00    -0.000 C 
BRANCH  21  22
ATOM     22  C   UNL     1      60.407  32.158  13.996  1.00  0.00    -0.000 C 
BRANCH  22  23
ATOM     23  C   UNL     1      60.506  33.597  14.532  1.00  0.00    -0.000 C 
BRANCH  23  24
ATOM     24  C   UNL     1      61.425  33.706  15.759  1.00  0.00    -0.000 C 
BRANCH  24  25
ATOM     25  C   UNL     1      60.750  34.421  16.940  1.00  0.00    -0.003 C 
ATOM     26  C   UNL     1      61.273  33.894  18.274  1.00  0.00     0.004 C 
ENDBRANCH  24  25
ENDBRANCH  23  24
ENDBRANCH  22  23
ENDBRANCH  21  22
ENDBRANCH  20  21
ENDBRANCH  19  20
ENDBRANCH  18  19
ENDBRANCH  17  18
ENDBRANCH  16  17
ENDBRANCH  15  16
ENDBRANCH   1  15
TORSDOF 22
ENDMDL
MODEL 4
REMARK VINA RESULT:    -4.545      1.617      6.397
REMARK INTER + INTRA:         -13.617
REMARK INTER:                  -9.801
REMARK INTRA:                  -3.816
REMARK UNBOUND:                -3.228
REMARK SMILES CCCCCCCCCCCCCCCCCCCCCCCC(=O)[O-]
REMARK SMILES IDX 13 1 14 2 15 3 16 4 17 5 18 6 19 7 20 8 21 9 22 10 23 11
REMARK SMILES IDX 24 12 25 13 26 14 12 15 11 16 10 17 9 18 8 19 7 20 6 21 5 22
REMARK SMILES IDX 4 23 3 24 2 25 1 26
REMARK H PARENT
REMARK Flexibility Score: inf
ROOT
ATOM      1  C   UNL     1      59.980  32.477  14.242  1.00  0.00     0.000 C 
ENDROOT
BRANCH   1   2
ATOM      2  C   UNL     1      60.375  33.778  14.973  1.00  0.00     0.000 C 
BRANCH   2   3
ATOM      3  C   UNL     1      61.003  33.551  16.362  1.00  0.00     0.000 C 
BRANCH   3   4
ATOM      4  C   UNL     1      62.533  33.711  16.422  1.00  0.00     0.000 C 
BRANCH   4   5
ATOM      5  C   UNL     1      63.120  33.893  17.838  1.00  0.00     0.000 C 
BRANCH   5   6
ATOM      6  C   UNL     1      64.482  34.609  17.892  1.00  0.00     0.000 C 
BRANCH   6   7
ATOM      7  C   UNL     1      65.666  33.650  17.700  1.00  0.00     0.000 C 
BRANCH   7   8
ATOM      8  C   UNL     1      66.492  34.036  16.463  1.00  0.00     0.000 C 
BRANCH   8   9
ATOM      9  C   UNL     1      66.342  33.023  15.316  1.00  0.00     0.000 C 
BRANCH   9  10
ATOM     10  C   UNL     1      65.299  33.465  14.275  1.00  0.00     0.006 C 
BRANCH  10  11
ATOM     11  C   UNL     1      65.687  34.779  13.588  1.00  0.00     0.053 C 
BRANCH  11  12
ATOM     12  C   UNL     1      65.895  34.598  12.114  1.00  0.00     0.041 C 
ATOM     13  O   UNL     1      66.010  35.605  11.364  1.00  0.00    -0.550 OA
ATOM     14  O   UNL     1      65.995  33.321  11.574  1.00  0.00    -0.550 OA
ENDBRANCH  11  12
ENDBRANCH  10  11
ENDBRANCH   9  10
ENDBRANCH   8   9
ENDBRANCH   7   8
ENDBRANCH   6   7
ENDBRANCH   5   6
ENDBRANCH   4   5
ENDBRANCH   3   4
ENDBRANCH   2   3
ENDBRANCH   1   2
BRANCH   1  15
ATOM     15  C   UNL     1      60.621  32.364  12.848  1.00  0.00     0.000 C 
BRANCH  15  16
ATOM     16  C   UNL     1      62.161  32.338  12.895  1.00  0.00     0.000 C 
BRANCH  16  17
ATOM     17  C   UNL     1      62.832  31.510  11.784  1.00  0.00     0.000 C 
BRANCH  17  18
ATOM     18  C   UNL     1      63.760  30.416  12.338  1.00  0.00    -0.000 C 
BRANCH  18  19
ATOM     19  C   UNL     1      63.177  29.699  13.570  1.00  0.00    -0.000 C 
BRANCH  19  20
ATOM     20  C   UNL     1      62.208  28.540  13.261  1.00  0.00    -0.000 C 
BRANCH  20  21
ATOM     21  C   UNL     1      60.749  28.765  13.704  1.00  0.00    -0.000 C 
BRANCH  21  22
ATOM     22  C   UNL     1      59.704  28.649  12.579  1.00  0.00    -0.000 C 
BRANCH  22  23
ATOM     23  C   UNL     1      60.338  28.482  11.188  1.00  0.00    -0.000 C 
BRANCH  23  24
ATOM     24  C   UNL     1      59.971  29.628  10.232  1.00  0.00    -0.000 C 
BRANCH  24  25
ATOM     25  C   UNL     1      60.918  29.715   9.025  1.00  0.00    -0.003 C 
ATOM     26  C   UNL     1      62.104  28.767   9.188  1.00  0.00     0.004 C 
ENDBRANCH  24  25
ENDBRANCH  23  24
ENDBRANCH  22  23
ENDBRANCH  21  22
ENDBRANCH  20  21
ENDBRANCH  19  20
ENDBRANCH  18  19
ENDBRANCH  17  18
ENDBRANCH  16  17
ENDBRANCH  15  16
ENDBRANCH   1  15
TORSDOF 22
ENDMDL
MODEL 5
REMARK VINA RESULT:    -4.481      2.856      7.042
REMARK INTER + INTRA:         -13.472
REMARK INTER:                  -9.989
REMARK INTRA:                  -3.483
REMARK UNBOUND:                -3.228
REMARK SMILES CCCCCCCCCCCCCCCCCCCCCCCC(=O)[O-]
REMARK SMILES IDX 13 1 14 2 15 3 16 4 17 5 18 6 19 7 20 8 21 9 22 10 23 11
REMARK SMILES IDX 24 12 25 13 26 14 12 15 11 16 10 17 9 18 8 19 7 20 6 21 5 22
REMARK SMILES IDX 4 23 3 24 2 25 1 26
REMARK H PARENT
REMARK Flexibility Score: inf
ROOT
ATOM      1  C   UNL     1      60.158  32.507  14.577  1.00  0.00     0.000 C 
ENDROOT
BRANCH   1   2
ATOM      2  C   UNL     1      60.615  33.840  15.207  1.00  0.00     0.000 C 
BRANCH   2   3
ATOM      3  C   UNL     1      60.996  33.732  16.697  1.00  0.00     0.000 C 
BRANCH   3   4
ATOM      4  C   UNL     1      62.500  33.870  16.999  1.00  0.00     0.000 C 
BRANCH   4   5
ATOM      5  C   UNL     1      63.422  33.855  15.761  1.00  0.00     0.000 C 
BRANCH   5   6
ATOM      6  C   UNL     1      64.557  32.815  15.807  1.00  0.00     0.000 C 
BRANCH   6   7
ATOM      7  C   UNL     1      65.951  33.450  15.699  1.00  0.00     0.000 C 
BRANCH   7   8
ATOM      8  C   UNL     1      66.631  33.519  17.076  1.00  0.00     0.000 C 
BRANCH   8   9
ATOM      9  C   UNL     1      66.810  34.963  17.572  1.00  0.00     0.000 C 
BRANCH   9  10
ATOM     10  C   UNL     1      65.579  35.477  18.339  1.00  0.00     0.006 C 
BRANCH  10  11
ATOM     11  C   UNL     1      65.771  35.404  19.858  1.00  0.00     0.053 C 
BRANCH  11  12
ATOM     12  C   UNL     1      64.979  34.286  20.468  1.00  0.00     0.041 C 
ATOM     13  O   UNL     1      65.556  33.411  21.168  1.00  0.00    -0.550 OA
ATOM     14  O   UNL     1      63.601  34.228  20.290  1.00  0.00    -0.550 OA
ENDBRANCH  11  12
ENDBRANCH  10  11
ENDBRANCH   9  10
ENDBRANCH   8   9
ENDBRANCH   7   8
ENDBRANCH   6   7
ENDBRANCH   5   6
ENDBRANCH   4   5
ENDBRANCH   3   4
ENDBRANCH   2   3
ENDBRANCH   1   2
BRANCH   1  15
ATOM     15  C   UNL     1      60.589  32.370  13.107  1.00  0.00     0.000 C 
BRANCH  15  16
ATOM     16  C   UNL     1      62.118  32.306  12.933  1.00  0.00     0.000 C 
BRANCH  16  17
ATOM     17  C   UNL     1      62.604  31.453  11.747  1.00  0.00     0.000 C 
BRANCH  17  18
ATOM     18  C   UNL     1      63.629  30.385  12.164  1.00  0.00    -0.000 C 
BRANCH  18  19
ATOM     19  C   UNL     1      63.209  29.606  13.424  1.00  0.00    -0.000 C 
BRANCH  19  20
ATOM     20  C   UNL     1      62.193  28.470  13.188  1.00  0.00    -0.000 C 
BRANCH  20  21
ATOM     21  C   UNL     1      60.770  28.738  13.715  1.00  0.00    -0.000 C 
BRANCH  21  22
ATOM     22  C   UNL     1      59.663  28.700  12.646  1.00  0.00    -0.000 C 
BRANCH  22  23
ATOM     23  C   UNL     1      60.208  28.454  11.229  1.00  0.00    -0.000 C 
BRANCH  23  24
ATOM     24  C   UNL     1      59.821  29.571  10.246  1.00  0.00    -0.000 C 
BRANCH  24  25
ATOM     25  C   UNL     1      60.701  29.579   8.987  1.00  0.00    -0.003 C 
ATOM     26  C   UNL     1      61.987  28.786   9.209  1.00  0.00     0.004 C 
ENDBRANCH  24  25
ENDBRANCH  23  24
ENDBRANCH  22  23
ENDBRANCH  21  22
ENDBRANCH  20  21
ENDBRANCH  19  20
ENDBRANCH  18  19
ENDBRANCH  17  18
ENDBRANCH  16  17
ENDBRANCH  15  16
ENDBRANCH   1  15
TORSDOF 22
ENDMDL
MODEL 6
REMARK VINA RESULT:    -4.477      9.858     13.588
REMARK INTER + INTRA:         -13.463
REMARK INTER:                 -10.371
REMARK INTRA:                  -3.092
REMARK UNBOUND:                -3.228
REMARK SMILES CCCCCCCCCCCCCCCCCCCCCCCC(=O)[O-]
REMARK SMILES IDX 13 1 14 2 15 3 16 4 17 5 18 6 19 7 20 8 21 9 22 10 23 11
REMARK SMILES IDX 24 12 25 13 26 14 12 15 11 16 10 17 9 18 8 19 7 20 6 21 5 22
REMARK SMILES IDX 4 23 3 24 2 25 1 26
REMARK H PARENT
REMARK Flexibility Score: inf
ROOT
ATOM      1  C   UNL     1      60.799  27.924  28.571  1.00  0.00     0.000 C 
ENDROOT
BRANCH   1   2
ATOM      2  C   UNL     1      61.951  27.152  27.894  1.00  0.00     0.000 C 
BRANCH   2   3
ATOM      3  C   UNL     1      61.663  26.746  26.436  1.00  0.00     0.000 C 
BRANCH   3   4
ATOM      4  C   UNL     1      60.857  27.773  25.619  1.00  0.00     0.000 C 
BRANCH   4   5
ATOM      5  C   UNL     1      61.526  29.155  25.456  1.00  0.00     0.000 C 
BRANCH   5   6
ATOM      6  C   UNL     1      62.866  29.143  24.697  1.00  0.00     0.000 C 
BRANCH   6   7
ATOM      7  C   UNL     1      62.842  28.233  23.461  1.00  0.00     0.000 C 
BRANCH   7   8
ATOM      8  C   UNL     1      63.763  27.017  23.655  1.00  0.00     0.000 C 
BRANCH   8   9
ATOM      9  C   UNL     1      64.421  26.563  22.342  1.00  0.00     0.000 C 
BRANCH   9  10
ATOM     10  C   UNL     1      65.872  26.092  22.545  1.00  0.00     0.006 C 
BRANCH  10  11
ATOM     11  C   UNL     1      66.510  25.602  21.239  1.00  0.00     0.053 C 
BRANCH  11  12
ATOM     12  C   UNL     1      66.227  26.531  20.097  1.00  0.00     0.041 C 
ATOM     13  O   UNL     1      66.541  27.749  20.179  1.00  0.00    -0.550 OA
ATOM     14  O   UNL     1      65.645  26.047  18.930  1.00  0.00    -0.550 OA
ENDBRANCH  11  12
ENDBRANCH  10  11
ENDBRANCH   9  10
ENDBRANCH   8   9
ENDBRANCH   7   8
ENDBRANCH   6   7
ENDBRANCH   5   6
ENDBRANCH   4   5
ENDBRANCH   3   4
ENDBRANCH   2   3
ENDBRANCH   1   2
BRANCH   1  15
ATOM     15  C   UNL     1      61.245  29.292  29.117  1.00  0.00     0.000 C 
BRANCH  15  16
ATOM     16  C   UNL     1      62.776  29.465  29.125  1.00  0.00     0.000 C 
BRANCH  16  17
ATOM     17  C   UNL     1      63.303  30.631  28.268  1.00  0.00     0.000 C 
BRANCH  17  18
ATOM     18  C   UNL     1      64.488  31.361  28.924  1.00  0.00    -0.000 C 
BRANCH  18  19
ATOM     19  C   UNL     1      65.818  31.140  28.180  1.00  0.00    -0.000 C 
BRANCH  19  20
ATOM     20  C   UNL     1      65.894  29.855  27.332  1.00  0.00    -0.000 C 
BRANCH  20  21
ATOM     21  C   UNL     1      66.952  29.866  26.211  1.00  0.00    -0.000 C 
BRANCH  21  22
ATOM     22  C   UNL     1      66.585  29.043  24.963  1.00  0.00    -0.000 C 
BRANCH  22  23
ATOM     23  C   UNL     1      67.034  29.711  23.652  1.00  0.00    -0.000 C 
BRANCH  23  24
ATOM     24  C   UNL     1      65.850  30.211  22.810  1.00  0.00    -0.000 C 
BRANCH  24  25
ATOM     25  C   UNL     1      65.769  31.744  22.758  1.00  0.00    -0.003 C 
ATOM     26  C   UNL     1      64.327  32.224  22.908  1.00  0.00     0.004 C 
ENDBRANCH  24  25
ENDBRANCH  23  24
ENDBRANCH  22  23
ENDBRANCH  21  22
ENDBRANCH  20  21
ENDBRANCH  19  20
ENDBRANCH  18  19
ENDBRANCH  17  18
ENDBRANCH  16  17
ENDBRANCH  15  16
ENDBRANCH   1  15
TORSDOF 22
ENDMDL
MODEL 7
REMARK VINA RESULT:    -4.464      2.729      5.990
REMARK INTER + INTRA:         -13.433
REMARK INTER:                 -10.147
REMARK INTRA:                  -3.286
REMARK UNBOUND:                -3.228
REMARK SMILES CCCCCCCCCCCCCCCCCCCCCCCC(=O)[O-]
REMARK SMILES IDX 13 1 14 2 15 3 16 4 17 5 18 6 19 7 20 8 21 9 22 10 23 11
REMARK SMILES IDX 24 12 25 13 26 14 12 15 11 16 10 17 9 18 8 19 7 20 6 21 5 22
REMARK SMILES IDX 4 23 3 24 2 25 1 26
REMARK H PARENT
REMARK Flexibility Score: inf
ROOT
ATOM      1  C   UNL     1      60.782  32.340  13.641  1.00  0.00     0.000 C 
ENDROOT
BRANCH   1   2
ATOM      2  C   UNL     1      61.663  31.184  14.160  1.00  0.00     0.000 C 
BRANCH   2   3
ATOM      3  C   UNL     1      62.772  30.752  13.181  1.00  0.00     0.000 C 
BRANCH   3   4
ATOM      4  C   UNL     1      62.837  31.559  11.870  1.00  0.00     0.000 C 
BRANCH   4   5
ATOM      5  C   UNL     1      64.085  31.297  10.999  1.00  0.00     0.000 C 
BRANCH   5   6
ATOM      6  C   UNL     1      64.015  30.031  10.126  1.00  0.00     0.000 C 
BRANCH   6   7
ATOM      7  C   UNL     1      62.974  30.140   9.002  1.00  0.00     0.000 C 
BRANCH   7   8
ATOM      8  C   UNL     1      61.977  28.973   9.061  1.00  0.00     0.000 C 
BRANCH   8   9
ATOM      9  C   UNL     1      60.515  29.442   8.965  1.00  0.00     0.000 C 
BRANCH   9  10
ATOM     10  C   UNL     1      59.604  28.736   9.984  1.00  0.00     0.006 C 
BRANCH  10  11
ATOM     11  C   UNL     1      59.710  29.355  11.383  1.00  0.00     0.053 C 
BRANCH  11  12
ATOM     12  C   UNL     1      59.662  28.313  12.460  1.00  0.00     0.041 C 
ATOM     13  O   UNL     1      60.729  27.908  12.996  1.00  0.00    -0.550 OA
ATOM     14  O   UNL     1      58.439  27.813  12.894  1.00  0.00    -0.550 OA
ENDBRANCH  11  12
ENDBRANCH  10  11
ENDBRANCH   9  10
ENDBRANCH   8   9
ENDBRANCH   7   8
ENDBRANCH   6   7
ENDBRANCH   5   6
ENDBRANCH   4   5
ENDBRANCH   3   4
ENDBRANCH   2   3
ENDBRANCH   1   2
BRANCH   1  15
ATOM     15  C   UNL     1      60.387  33.328  14.754  1.00  0.00     0.000 C 
BRANCH  15  16
ATOM     16  C   UNL     1      61.549  33.644  15.715  1.00  0.00     0.000 C 
BRANCH  16  17
ATOM     17  C   UNL     1      61.133  33.905  17.174  1.00  0.00     0.000 C 
BRANCH  17  18
ATOM     18  C   UNL     1      62.327  33.888  18.143  1.00  0.00    -0.000 C 
BRANCH  18  19
ATOM     19  C   UNL     1      63.627  34.415  17.508  1.00  0.00    -0.000 C 
BRANCH  19  20
ATOM     20  C   UNL     1      64.821  33.440  17.544  1.00  0.00    -0.000 C 
BRANCH  20  21
ATOM     21  C   UNL     1      65.753  33.493  16.317  1.00  0.00    -0.000 C 
BRANCH  21  22
ATOM     22  C   UNL     1      65.188  32.839  15.043  1.00  0.00    -0.000 C 
BRANCH  22  23
ATOM     23  C   UNL     1      64.775  33.866  13.975  1.00  0.00    -0.000 C 
BRANCH  23  24
ATOM     24  C   UNL     1      65.608  35.156  14.046  1.00  0.00    -0.000 C 
BRANCH  24  25
ATOM     25  C   UNL     1      66.396  35.421  12.754  1.00  0.00    -0.003 C 
ATOM     26  C   UNL     1      65.949  34.482  11.636  1.00  0.00     0.004 C 
ENDBRANCH  24  25
ENDBRANCH  23  24
ENDBRANCH  22  23
ENDBRANCH  21  22
ENDBRANCH  20  21
ENDBRANCH  19  20
ENDBRANCH  18  19
ENDBRANCH  17  18
ENDBRANCH  16  17
ENDBRANCH  15  16
ENDBRANCH   1  15
TORSDOF 22
ENDMDL
MODEL 8
REMARK VINA RESULT:    -4.382      3.142      5.475
REMARK INTER + INTRA:         -13.245
REMARK INTER:                  -9.863
REMARK INTRA:                  -3.383
REMARK UNBOUND:                -3.228
REMARK SMILES CCCCCCCCCCCCCCCCCCCCCCCC(=O)[O-]
REMARK SMILES IDX 13 1 14 2 15 3 16 4 17 5 18 6 19 7 20 8 21 9 22 10 23 11
REMARK SMILES IDX 24 12 25 13 26 14 12 15 11 16 10 17 9 18 8 19 7 20 6 21 5 22
REMARK SMILES IDX 4 23 3 24 2 25 1 26
REMARK H PARENT
REMARK Flexibility Score: inf
ROOT
ATOM      1  C   UNL     1      60.143  31.718  12.929  1.00  0.00     0.000 C 
ENDROOT
BRANCH   1   2
ATOM      2  C   UNL     1      61.501  32.403  12.662  1.00  0.00     0.000 C 
BRANCH   2   3
ATOM      3  C   UNL     1      62.682  31.423  12.526  1.00  0.00     0.000 C 
BRANCH   3   4
ATOM      4  C   UNL     1      63.948  32.011  11.875  1.00  0.00     0.000 C 
BRANCH   4   5
ATOM      5  C   UNL     1      64.592  31.132  10.781  1.00  0.00     0.000 C 
BRANCH   5   6
ATOM      6  C   UNL     1      63.628  30.651   9.681  1.00  0.00     0.000 C 
BRANCH   6   7
ATOM      7  C   UNL     1      63.427  29.128   9.690  1.00  0.00     0.000 C 
BRANCH   7   8
ATOM      8  C   UNL     1      62.009  28.758   9.230  1.00  0.00     0.000 C 
BRANCH   8   9
ATOM      9  C   UNL     1      60.950  29.758   9.722  1.00  0.00     0.000 C 
BRANCH   9  10
ATOM     10  C   UNL     1      59.811  29.075  10.498  1.00  0.00     0.006 C 
BRANCH  10  11
ATOM     11  C   UNL     1      60.315  27.910  11.359  1.00  0.00     0.053 C 
BRANCH  11  12
ATOM     12  C   UNL     1      59.780  27.977  12.758  1.00  0.00     0.041 C 
ATOM     13  O   UNL     1      60.496  28.440  13.686  1.00  0.00    -0.550 OA
ATOM     14  O   UNL     1      58.482  27.560  13.030  1.00  0.00    -0.550 OA
ENDBRANCH  11  12
ENDBRANCH  10  11
ENDBRANCH   9  10
ENDBRANCH   8   9
ENDBRANCH   7   8
ENDBRANCH   6   7
ENDBRANCH   5   6
ENDBRANCH   4   5
ENDBRANCH   3   4
ENDBRANCH   2   3
ENDBRANCH   1   2
BRANCH   1  15
ATOM     15  C   UNL     1      59.559  32.080  14.306  1.00  0.00     0.000 C 
BRANCH  15  16
ATOM     16  C   UNL     1      60.273  33.275  14.966  1.00  0.00     0.000 C 
BRANCH  16  17
ATOM     17  C   UNL     1      61.049  32.940  16.252  1.00  0.00     0.000 C 
BRANCH  17  18
ATOM     18  C   UNL     1      62.133  33.981  16.580  1.00  0.00    -0.000 C 
BRANCH  18  19
ATOM     19  C   UNL     1      63.389  33.841  15.700  1.00  0.00    -0.000 C 
BRANCH  19  20
ATOM     20  C   UNL     1      64.144  32.503  15.838  1.00  0.00    -0.000 C 
BRANCH  20  21
ATOM     21  C   UNL     1      65.638  32.547  15.461  1.00  0.00    -0.000 C 
BRANCH  21  22
ATOM     22  C   UNL     1      66.610  32.316  16.632  1.00  0.00    -0.000 C 
BRANCH  22  23
ATOM     23  C   UNL     1      66.721  33.532  17.567  1.00  0.00    -0.000 C 
BRANCH  23  24
ATOM     24  C   UNL     1      65.949  33.337  18.882  1.00  0.00    -0.000 C 
BRANCH  24  25
ATOM     25  C   UNL     1      65.237  34.618  19.343  1.00  0.00    -0.003 C 
ATOM     26  C   UNL     1      65.341  35.715  18.287  1.00  0.00     0.004 C 
ENDBRANCH  24  25
ENDBRANCH  23  24
ENDBRANCH  22  23
ENDBRANCH  21  22
ENDBRANCH  20  21
ENDBRANCH  19  20
ENDBRANCH  18  19
ENDBRANCH  17  18
ENDBRANCH  16  17
ENDBRANCH  15  16
ENDBRANCH   1  15
TORSDOF 22
ENDMDL
MODEL 9
REMARK VINA RESULT:    -4.364      2.171      5.870
REMARK INTER + INTRA:         -13.205
REMARK INTER:                 -10.110
REMARK INTRA:                  -3.095
REMARK UNBOUND:                -3.228
REMARK SMILES CCCCCCCCCCCCCCCCCCCCCCCC(=O)[O-]
REMARK SMILES IDX 13 1 14 2 15 3 16 4 17 5 18 6 19 7 20 8 21 9 22 10 23 11
REMARK SMILES IDX 24 12 25 13 26 14 12 15 11 16 10 17 9 18 8 19 7 20 6 21 5 22
REMARK SMILES IDX 4 23 3 24 2 25 1 26
REMARK H PARENT
REMARK Flexibility Score: inf
ROOT
ATOM      1  C   UNL     1      59.991  27.920  12.996  1.00  0.00     0.000 C 
ENDROOT
BRANCH   1   2
ATOM      2  C   UNL     1      61.243  28.799  13.199  1.00  0.00     0.000 C 
BRANCH   2   3
ATOM      3  C   UNL     1      61.136  29.780  14.384  1.00  0.00     0.000 C 
BRANCH   3   4
ATOM      4  C   UNL     1      60.424  31.109  14.070  1.00  0.00     0.000 C 
BRANCH   4   5
ATOM      5  C   UNL     1      61.262  32.130  13.271  1.00  0.00     0.000 C 
BRANCH   5   6
ATOM      6  C   UNL     1      62.170  33.036  14.124  1.00  0.00     0.000 C 
BRANCH   6   7
ATOM      7  C   UNL     1      63.649  32.627  14.058  1.00  0.00     0.000 C 
BRANCH   7   8
ATOM      8  C   UNL     1      64.503  33.497  14.992  1.00  0.00     0.000 C 
BRANCH   8   9
ATOM      9  C   UNL     1      64.788  32.811  16.338  1.00  0.00     0.000 C 
BRANCH   9  10
ATOM     10  C   UNL     1      64.586  33.757  17.535  1.00  0.00     0.006 C 
BRANCH  10  11
ATOM     11  C   UNL     1      63.308  34.594  17.402  1.00  0.00     0.053 C 
BRANCH  11  12
ATOM     12  C   UNL     1      62.142  33.945  18.086  1.00  0.00     0.041 C 
ATOM     13  O   UNL     1      62.074  33.934  19.345  1.00  0.00    -0.550 OA
ATOM     14  O   UNL     1      61.117  33.381  17.335  1.00  0.00    -0.550 OA
ENDBRANCH  11  12
ENDBRANCH  10  11
ENDBRANCH   9  10
ENDBRANCH   8   9
ENDBRANCH   7   8
ENDBRANCH   6   7
ENDBRANCH   5   6
ENDBRANCH   4   5
ENDBRANCH   3   4
ENDBRANCH   2   3
ENDBRANCH   1   2
BRANCH   1  15
ATOM     15  C   UNL     1      59.244  28.247  11.690  1.00  0.00     0.000 C 
BRANCH  15  16
ATOM     16  C   UNL     1      59.822  29.475  10.961  1.00  0.00     0.000 C 
BRANCH  16  17
ATOM     17  C   UNL     1      59.833  29.374   9.425  1.00  0.00     0.000 C 
BRANCH  17  18
ATOM     18  C   UNL     1      61.152  28.803   8.877  1.00  0.00    -0.000 C 
BRANCH  18  19
ATOM     19  C   UNL     1      62.367  29.699   9.177  1.00  0.00    -0.000 C 
BRANCH  19  20
ATOM     20  C   UNL     1      63.379  29.123  10.188  1.00  0.00    -0.000 C 
BRANCH  20  21
ATOM     21  C   UNL     1      64.018  30.152  11.141  1.00  0.00    -0.000 C 
BRANCH  21  22
ATOM     22  C   UNL     1      63.954  31.612  10.657  1.00  0.00    -0.000 C 
BRANCH  22  23
ATOM     23  C   UNL     1      65.190  32.027   9.840  1.00  0.00    -0.000 C 
BRANCH  23  24
ATOM     24  C   UNL     1      66.286  32.660  10.711  1.00  0.00    -0.000 C 
BRANCH  24  25
ATOM     25  C   UNL     1      65.955  34.104  11.118  1.00  0.00    -0.003 C 
ATOM     26  C   UNL     1      66.634  34.473  12.435  1.00  0.00     0.004 C 
ENDBRANCH  24  25
ENDBRANCH  23  24
ENDBRANCH  22  23
ENDBRANCH  21  22
ENDBRANCH  20  21
ENDBRANCH  19  20
ENDBRANCH  18  19
ENDBRANCH  17  18
ENDBRANCH  16  17
ENDBRANCH  15  16
ENDBRANCH   1  15
TORSDOF 22
ENDMDL
