MODEL 1
REMARK VINA RESULT:    21.740      0.000      0.000
REMARK INTER + INTRA:          27.488
REMARK INTER:                  26.824
REMARK INTRA:                   0.664
REMARK UNBOUND:                 0.664
REMARK SMILES C=C1[C@@H]2CC[C@H]3[C@@H]2C(C)(C)CCC[C@@]13C
REMARK SMILES IDX 14 1 6 2 7 3 3 4 2 5 1 6 4 7 5 8 15 9 8 10 9 11 10 12 11 13
REMARK SMILES IDX 13 15 12 16
REMARK H PARENT
REMARK Flexibility Score: 80.00
ROOT
ATOM      1  C   UNL     1      -0.375   5.482 -10.464  1.00  0.00    -0.008 C 
ATOM      2  C   UNL     1      -0.003   4.587  -9.225  1.00  0.00     0.003 C 
ATOM      3  C   UNL     1       0.812   5.540  -8.338  1.00  0.00     0.006 C 
ATOM      4  C   UNL     1       1.818   5.867  -9.443  1.00  0.00     0.019 C 
ATOM      5  C   UNL     1       0.910   6.271 -10.572  1.00  0.00    -0.068 C 
ATOM      6  C   UNL     1       1.238   7.126 -11.548  1.00  0.00     0.009 C 
ATOM      7  C   UNL     1       2.348   4.466  -9.804  1.00  0.00     0.008 C 
ATOM      8  C   UNL     1       1.110   3.567  -9.594  1.00  0.00     0.005 C 
ATOM      9  C   UNL     1      -0.621   4.662 -11.758  1.00  0.00     0.016 C 
ENDROOT
BRANCH   3  10
ATOM     10  C   UNL     1       0.064   6.745  -7.611  1.00  0.00    -0.032 C 
ATOM     11  C   UNL     1       0.438   8.159  -8.139  1.00  0.00     0.011 C 
ATOM     12  C   UNL     1       0.533   6.748  -6.127  1.00  0.00     0.011 C 
BRANCH  10  13
ATOM     13  C   UNL     1      -1.489   6.568  -7.565  1.00  0.00     0.007 CG0
ATOM     14  G   UNL     1      -2.297   6.310  -8.863  1.00  0.00     0.000 G0
ENDBRANCH  10  13
ENDBRANCH   3  10
BRANCH   1  15
ATOM     15  C   UNL     1      -1.593   6.437 -10.213  1.00  0.00     0.011 C 
BRANCH  15  16
ATOM     16  C   UNL     1      -2.301   6.318  -8.857  1.00  0.00     0.001 CG0
ATOM     17  G   UNL     1      -1.491   6.575  -7.561  1.00  0.00     0.000 G0
ENDBRANCH  15  16
ENDBRANCH   1  15
TORSDOF 0
ENDMDL
MODEL 2
REMARK VINA RESULT:    24.722      1.080      3.163
REMARK INTER + INTRA:          31.168
REMARK INTER:                  30.484
REMARK INTRA:                   0.683
REMARK UNBOUND:                 0.664
REMARK SMILES C=C1[C@@H]2CC[C@H]3[C@@H]2C(C)(C)CCC[C@@]13C
REMARK SMILES IDX 14 1 6 2 7 3 3 4 2 5 1 6 4 7 5 8 15 9 8 10 9 11 10 12 11 13
REMARK SMILES IDX 13 15 12 16
REMARK H PARENT
REMARK Flexibility Score: 80.00
ROOT
ATOM      1  C   UNL     1       1.384   5.747  -9.229  1.00  0.00    -0.008 C 
ATOM      2  C   UNL     1       0.569   6.847 -10.004  1.00  0.00     0.003 C 
ATOM      3  C   UNL     1      -0.890   6.423  -9.779  1.00  0.00     0.006 C 
ATOM      4  C   UNL     1      -0.672   5.017 -10.342  1.00  0.00     0.019 C 
ATOM      5  C   UNL     1       0.516   4.551  -9.546  1.00  0.00    -0.068 C 
ATOM      6  C   UNL     1       0.785   3.273  -9.251  1.00  0.00     0.009 C 
ATOM      7  C   UNL     1      -0.141   5.329 -11.755  1.00  0.00     0.008 C 
ATOM      8  C   UNL     1       0.665   6.628 -11.539  1.00  0.00     0.005 C 
ATOM      9  C   UNL     1       2.818   5.543  -9.787  1.00  0.00     0.016 C 
ENDROOT
BRANCH   3  10
ATOM     10  C   UNL     1      -1.520   6.567  -8.322  1.00  0.00    -0.032 C 
ATOM     11  C   UNL     1      -1.831   5.221  -7.608  1.00  0.00     0.011 C 
ATOM     12  C   UNL     1      -2.909   7.249  -8.488  1.00  0.00     0.011 C 
BRANCH  10  13
ATOM     13  C   UNL     1      -0.694   7.509  -7.385  1.00  0.00     0.007 CG0
ATOM     14  G   UNL     1       0.818   7.262  -7.146  1.00  0.00     0.000 G0
ENDBRANCH  10  13
ENDBRANCH   3  10
BRANCH   1  15
ATOM     15  C   UNL     1       1.457   5.985  -7.681  1.00  0.00     0.011 C 
BRANCH  15  16
ATOM     16  C   UNL     1       0.802   7.264  -7.143  1.00  0.00     0.001 CG0
ATOM     17  G   UNL     1      -0.708   7.501  -7.402  1.00  0.00     0.000 G0
ENDBRANCH  15  16
ENDBRANCH   1  15
TORSDOF 0
ENDMDL
