MODEL 1
REMARK VINA RESULT:     6.993      0.000      0.000
REMARK INTER + INTRA:           7.535
REMARK INTER:                   8.015
REMARK INTRA:                  -0.479
REMARK UNBOUND:                -0.479
REMARK SMILES C=C(C)[C@@H]1CC[C@@]2(C(=O)[O-])CC[C@@]3(C)[C@H](CC[C@@H]4[C@]5(C)CC[C@H](O)C(C)(C)[C@H]5CC[C@@]43C)[C@@H]12
REMARK SMILES IDX 7 1 6 2 33 3 11 4 5 5 15 6 4 7 12 8 16 9 13 10 17 11 31 12
REMARK SMILES IDX 14 13 18 14 30 15 32 16 19 17 29 18 21 19 20 20 28 21 22 22
REMARK SMILES IDX 25 23 23 24 26 25 27 26 8 27 9 28 10 29 2 30 3 31 1 32 24 33
REMARK H PARENT 24 34
REMARK Flexibility Score: inf
ROOT
ATOM      1  C   UNL     1     -11.026  13.162 -31.348  1.00  0.00     0.014 C 
ATOM      2  C   UNL     1      -9.875  13.548 -32.299  1.00  0.00     0.014 C 
ATOM      3  C   UNL     1     -12.143  12.685 -32.315  1.00  0.00     0.012 C 
ATOM      4  C   UNL     1     -11.437  14.417 -30.522  1.00  0.00     0.014 C 
ATOM      5  C   UNL     1     -10.533  14.064 -33.575  1.00  0.00     0.009 C 
ATOM      6  C   UNL     1     -13.614  12.767 -31.762  1.00  0.00     0.000 C 
ATOM      7  C   UNL     1     -11.895  13.360 -33.689  1.00  0.00     0.018 C 
ATOM      8  C   UNL     1     -12.862  14.360 -29.937  1.00  0.00     0.008 C 
ATOM      9  C   UNL     1     -13.837  11.532 -30.879  1.00  0.00     0.005 C 
ATOM     10  C   UNL     1     -13.994  14.090 -30.990  1.00  0.00    -0.024 C 
ATOM     11  C   UNL     1     -15.266  11.408 -30.420  1.00  0.00     0.005 C 
ATOM     12  C   UNL     1     -15.468  13.991 -30.273  1.00  0.00    -0.024 C 
ATOM     13  C   UNL     1     -14.002  15.278 -32.013  1.00  0.00     0.012 C 
ATOM     14  C   UNL     1     -15.724  12.592 -29.531  1.00  0.00     0.002 C 
ATOM     15  C   UNL     1     -16.604  14.182 -31.334  1.00  0.00     0.008 C 
ATOM     16  C   UNL     1     -15.573  15.167 -29.240  1.00  0.00     0.012 C 
ATOM     17  C   UNL     1     -17.229  12.366 -28.984  1.00  0.00    -0.026 C 
ATOM     18  C   UNL     1     -18.039  14.005 -30.811  1.00  0.00     0.005 C 
ATOM     19  C   UNL     1     -17.456  10.890 -28.490  1.00  0.00     0.010 C 
ATOM     20  C   UNL     1     -17.459  13.288 -27.736  1.00  0.00     0.012 C 
ATOM     21  C   UNL     1     -18.254  12.627 -30.154  1.00  0.00     0.003 C 
ATOM     22  C   UNL     1     -18.916  10.559 -28.125  1.00  0.00     0.033 C 
ATOM     23  C   UNL     1     -19.771  12.275 -29.847  1.00  0.00    -0.006 C 
ATOM     24  C   UNL     1     -19.866  10.814 -29.305  1.00  0.00     0.120 C 
ATOM     25  C   UNL     1     -20.608  12.341 -31.157  1.00  0.00     0.014 C 
ATOM     26  C   UNL     1     -20.451  13.247 -28.849  1.00  0.00     0.014 C 
ENDROOT
BRANCH   1  27
ATOM     27  C   UNL     1     -10.565  12.029 -30.432  1.00  0.00     0.048 C 
ATOM     28  O   UNL     1      -9.875  11.069 -30.871  1.00  0.00    -0.550 OA
ATOM     29  O   UNL     1     -10.905  12.039 -29.083  1.00  0.00    -0.550 OA
ENDBRANCH   1  27
BRANCH   7  30
ATOM     30  C   UNL     1     -11.953  12.352 -34.841  1.00  0.00    -0.077 C 
ATOM     31  C   UNL     1     -10.855  11.338 -35.055  1.00  0.00     0.039 C 
ATOM     32  C   UNL     1     -13.033  12.284 -35.638  1.00  0.00     0.008 C 
ENDBRANCH   7  30
BRANCH  24  33
ATOM     33  O   UNL     1     -19.566   9.896 -30.331  1.00  0.00    -0.393 OA
ATOM     34  H   UNL     1     -19.120  10.397 -31.062  1.00  0.00     0.210 HD
ENDBRANCH  24  33
TORSDOF 3
ENDMDL
MODEL 2
REMARK VINA RESULT:     7.911      2.257      7.671
REMARK INTER + INTRA:           8.588
REMARK INTER:                   9.080
REMARK INTRA:                  -0.492
REMARK UNBOUND:                -0.479
REMARK SMILES C=C(C)[C@@H]1CC[C@@]2(C(=O)[O-])CC[C@@]3(C)[C@H](CC[C@@H]4[C@]5(C)CC[C@H](O)C(C)(C)[C@H]5CC[C@@]43C)[C@@H]12
REMARK SMILES IDX 7 1 6 2 33 3 11 4 5 5 15 6 4 7 12 8 16 9 13 10 17 11 31 12
REMARK SMILES IDX 14 13 18 14 30 15 32 16 19 17 29 18 21 19 20 20 28 21 22 22
REMARK SMILES IDX 25 23 23 24 26 25 27 26 8 27 9 28 10 29 2 30 3 31 1 32 24 33
REMARK H PARENT 24 34
REMARK Flexibility Score: inf
ROOT
ATOM      1  C   UNL     1     -17.019  11.125 -27.216  1.00  0.00     0.014 C 
ATOM      2  C   UNL     1     -18.403  10.529 -26.892  1.00  0.00     0.014 C 
ATOM      3  C   UNL     1     -17.274  11.934 -28.517  1.00  0.00     0.012 C 
ATOM      4  C   UNL     1     -16.005   9.961 -27.417  1.00  0.00     0.014 C 
ATOM      5  C   UNL     1     -19.086  10.284 -28.234  1.00  0.00     0.009 C 
ATOM      6  C   UNL     1     -16.016  12.186 -29.430  1.00  0.00     0.000 C 
ATOM      7  C   UNL     1     -18.510  11.313 -29.220  1.00  0.00     0.018 C 
ATOM      8  C   UNL     1     -14.756  10.333 -28.240  1.00  0.00     0.008 C 
ATOM      9  C   UNL     1     -15.251  13.373 -28.831  1.00  0.00     0.005 C 
ATOM     10  C   UNL     1     -15.060  10.950 -29.651  1.00  0.00    -0.024 C 
ATOM     11  C   UNL     1     -14.112  13.820 -29.707  1.00  0.00     0.005 C 
ATOM     12  C   UNL     1     -13.676  11.367 -30.432  1.00  0.00    -0.024 C 
ATOM     13  C   UNL     1     -15.823   9.876 -30.500  1.00  0.00     0.012 C 
ATOM     14  C   UNL     1     -13.025  12.731 -29.895  1.00  0.00     0.002 C 
ATOM     15  C   UNL     1     -13.947  11.540 -31.965  1.00  0.00     0.008 C 
ATOM     16  C   UNL     1     -12.658  10.187 -30.256  1.00  0.00     0.012 C 
ATOM     17  C   UNL     1     -11.779  13.290 -30.761  1.00  0.00    -0.026 C 
ATOM     18  C   UNL     1     -12.755  12.036 -32.800  1.00  0.00     0.005 C 
ATOM     19  C   UNL     1     -11.358  14.737 -30.313  1.00  0.00     0.010 C 
ATOM     20  C   UNL     1     -10.534  12.371 -30.507  1.00  0.00     0.012 C 
ATOM     21  C   UNL     1     -12.196  13.375 -32.280  1.00  0.00     0.003 C 
ATOM     22  C   UNL     1     -10.298  15.398 -31.215  1.00  0.00     0.033 C 
ATOM     23  C   UNL     1     -11.156  14.075 -33.253  1.00  0.00    -0.006 C 
ATOM     24  C   UNL     1     -10.764  15.472 -32.677  1.00  0.00     0.120 C 
ATOM     25  C   UNL     1     -11.806  14.312 -34.646  1.00  0.00     0.014 C 
ATOM     26  C   UNL     1      -9.875  13.238 -33.508  1.00  0.00     0.014 C 
ENDROOT
BRANCH   1  27
ATOM     27  C   UNL     1     -16.583  12.041 -26.073  1.00  0.00     0.048 C 
ATOM     28  O   UNL     1     -17.377  12.877 -25.562  1.00  0.00    -0.550 OA
ATOM     29  O   UNL     1     -15.287  11.965 -25.572  1.00  0.00    -0.550 OA
ENDBRANCH   1  27
BRANCH   7  30
ATOM     30  C   UNL     1     -19.528  12.381 -29.633  1.00  0.00    -0.077 C 
ATOM     31  C   UNL     1     -20.934  12.011 -30.040  1.00  0.00     0.039 C 
ATOM     32  C   UNL     1     -19.221  13.687 -29.554  1.00  0.00     0.008 C 
ENDBRANCH   7  30
BRANCH  24  33
ATOM     33  O   UNL     1     -11.860  16.354 -32.756  1.00  0.00    -0.393 OA
ATOM     34  H   UNL     1     -12.479  16.003 -33.447  1.00  0.00     0.210 HD
ENDBRANCH  24  33
TORSDOF 3
ENDMDL
MODEL 3
REMARK VINA RESULT:     8.389      2.208      3.636
REMARK INTER + INTRA:           9.136
REMARK INTER:                   9.431
REMARK INTRA:                  -0.295
REMARK UNBOUND:                -0.479
REMARK SMILES C=C(C)[C@@H]1CC[C@@]2(C(=O)[O-])CC[C@@]3(C)[C@H](CC[C@@H]4[C@]5(C)CC[C@H](O)C(C)(C)[C@H]5CC[C@@]43C)[C@@H]12
REMARK SMILES IDX 7 1 6 2 33 3 11 4 5 5 15 6 4 7 12 8 16 9 13 10 17 11 31 12
REMARK SMILES IDX 14 13 18 14 30 15 32 16 19 17 29 18 21 19 20 20 28 21 22 22
REMARK SMILES IDX 25 23 23 24 26 25 27 26 8 27 9 28 10 29 2 30 3 31 1 32 24 33
REMARK H PARENT 24 34
REMARK Flexibility Score: inf
ROOT
ATOM      1  C   UNL     1     -10.848  13.510 -33.287  1.00  0.00     0.014 C 
ATOM      2  C   UNL     1      -9.875  14.501 -33.956  1.00  0.00     0.014 C 
ATOM      3  C   UNL     1     -12.010  14.421 -32.806  1.00  0.00     0.012 C 
ATOM      4  C   UNL     1     -10.113  12.799 -32.113  1.00  0.00     0.014 C 
ATOM      5  C   UNL     1     -10.012  15.814 -33.191  1.00  0.00     0.009 C 
ATOM      6  C   UNL     1     -12.871  13.867 -31.610  1.00  0.00     0.000 C 
ATOM      7  C   UNL     1     -11.441  15.853 -32.627  1.00  0.00     0.018 C 
ATOM      8  C   UNL     1     -11.044  12.200 -31.042  1.00  0.00     0.008 C 
ATOM      9  C   UNL     1     -13.880  12.873 -32.199  1.00  0.00     0.005 C 
ATOM     10  C   UNL     1     -12.066  13.216 -30.419  1.00  0.00    -0.024 C 
ATOM     11  C   UNL     1     -14.875  12.394 -31.176  1.00  0.00     0.005 C 
ATOM     12  C   UNL     1     -13.053  12.481 -29.330  1.00  0.00    -0.024 C 
ATOM     13  C   UNL     1     -11.254  14.343 -29.692  1.00  0.00     0.012 C 
ATOM     14  C   UNL     1     -14.218  11.612 -30.009  1.00  0.00     0.002 C 
ATOM     15  C   UNL     1     -13.731  13.546 -28.403  1.00  0.00     0.008 C 
ATOM     16  C   UNL     1     -12.160  11.558 -28.428  1.00  0.00     0.012 C 
ATOM     17  C   UNL     1     -15.333  11.036 -28.989  1.00  0.00    -0.026 C 
ATOM     18  C   UNL     1     -14.765  12.998 -27.405  1.00  0.00     0.005 C 
ATOM     19  C   UNL     1     -16.555  10.407 -29.753  1.00  0.00     0.010 C 
ATOM     20  C   UNL     1     -14.697   9.876 -28.147  1.00  0.00     0.012 C 
ATOM     21  C   UNL     1     -15.894  12.217 -28.107  1.00  0.00     0.003 C 
ATOM     22  C   UNL     1     -17.733  10.003 -28.846  1.00  0.00     0.033 C 
ATOM     23  C   UNL     1     -17.129  11.868 -27.174  1.00  0.00    -0.006 C 
ATOM     24  C   UNL     1     -18.250  11.194 -28.025  1.00  0.00     0.120 C 
ATOM     25  C   UNL     1     -17.724  13.172 -26.568  1.00  0.00     0.014 C 
ATOM     26  C   UNL     1     -16.768  10.957 -25.971  1.00  0.00     0.014 C 
ENDROOT
BRANCH   1  27
ATOM     27  C   UNL     1     -11.332  12.498 -34.325  1.00  0.00     0.048 C 
ATOM     28  O   UNL     1     -10.604  11.539 -34.696  1.00  0.00    -0.550 OA
ATOM     29  O   UNL     1     -12.601  12.623 -34.883  1.00  0.00    -0.550 OA
ENDBRANCH   1  27
BRANCH   7  30
ATOM     30  C   UNL     1     -12.323  16.908 -33.303  1.00  0.00    -0.077 C 
ATOM     31  C   UNL     1     -13.752  17.131 -32.873  1.00  0.00     0.039 C 
ATOM     32  C   UNL     1     -11.813  17.729 -34.237  1.00  0.00     0.008 C 
ENDBRANCH   7  30
BRANCH  24  33
ATOM     33  O   UNL     1     -18.821  12.134 -28.906  1.00  0.00    -0.393 OA
ATOM     34  H   UNL     1     -18.297  12.974 -28.830  1.00  0.00     0.210 HD
ENDBRANCH  24  33
TORSDOF 3
ENDMDL
MODEL 4
REMARK VINA RESULT:     8.578      2.728      8.191
REMARK INTER + INTRA:           9.352
REMARK INTER:                   9.420
REMARK INTRA:                  -0.067
REMARK UNBOUND:                -0.479
REMARK SMILES C=C(C)[C@@H]1CC[C@@]2(C(=O)[O-])CC[C@@]3(C)[C@H](CC[C@@H]4[C@]5(C)CC[C@H](O)C(C)(C)[C@H]5CC[C@@]43C)[C@@H]12
REMARK SMILES IDX 7 1 6 2 33 3 11 4 5 5 15 6 4 7 12 8 16 9 13 10 17 11 31 12
REMARK SMILES IDX 14 13 18 14 30 15 32 16 19 17 29 18 21 19 20 20 28 21 22 22
REMARK SMILES IDX 25 23 23 24 26 25 27 26 8 27 9 28 10 29 2 30 3 31 1 32 24 33
REMARK H PARENT 24 34
REMARK Flexibility Score: inf
ROOT
ATOM      1  C   UNL     1     -20.841  10.961 -28.895  1.00  0.00     0.014 C 
ATOM      2  C   UNL     1     -22.279  11.158 -29.416  1.00  0.00     0.014 C 
ATOM      3  C   UNL     1     -20.206  12.369 -29.061  1.00  0.00     0.012 C 
ATOM      4  C   UNL     1     -20.138   9.875 -29.761  1.00  0.00     0.014 C 
ATOM      5  C   UNL     1     -22.194  12.214 -30.514  1.00  0.00     0.009 C 
ATOM      6  C   UNL     1     -18.637  12.407 -29.180  1.00  0.00     0.000 C 
ATOM      7  C   UNL     1     -20.990  13.108 -30.177  1.00  0.00     0.018 C 
ATOM      8  C   UNL     1     -18.598   9.932 -29.733  1.00  0.00     0.008 C 
ATOM      9  C   UNL     1     -18.072  12.309 -27.757  1.00  0.00     0.005 C 
ATOM     10  C   UNL     1     -17.985  11.323 -30.123  1.00  0.00    -0.024 C 
ATOM     11  C   UNL     1     -16.579  12.501 -27.721  1.00  0.00     0.005 C 
ATOM     12  C   UNL     1     -16.346  11.307 -30.013  1.00  0.00    -0.024 C 
ATOM     13  C   UNL     1     -18.395  11.640 -31.603  1.00  0.00     0.012 C 
ATOM     14  C   UNL     1     -15.806  11.410 -28.506  1.00  0.00     0.002 C 
ATOM     15  C   UNL     1     -15.734  12.502 -30.820  1.00  0.00     0.008 C 
ATOM     16  C   UNL     1     -15.839   9.975 -30.669  1.00  0.00     0.012 C 
ATOM     17  C   UNL     1     -14.208  11.602 -28.356  1.00  0.00    -0.026 C 
ATOM     18  C   UNL     1     -14.209  12.667 -30.712  1.00  0.00     0.005 C 
ATOM     19  C   UNL     1     -13.794  11.932 -26.876  1.00  0.00     0.010 C 
ATOM     20  C   UNL     1     -13.499  10.252 -28.721  1.00  0.00     0.012 C 
ATOM     21  C   UNL     1     -13.742  12.816 -29.250  1.00  0.00     0.003 C 
ATOM     22  C   UNL     1     -12.310  12.304 -26.698  1.00  0.00     0.033 C 
ATOM     23  C   UNL     1     -12.229  13.265 -29.087  1.00  0.00    -0.006 C 
ATOM     24  C   UNL     1     -11.917  13.501 -27.576  1.00  0.00     0.120 C 
ATOM     25  C   UNL     1     -11.991  14.612 -29.828  1.00  0.00     0.014 C 
ATOM     26  C   UNL     1     -11.208  12.258 -29.679  1.00  0.00     0.014 C 
ENDROOT
BRANCH   1  27
ATOM     27  C   UNL     1     -20.889  10.546 -27.425  1.00  0.00     0.048 C 
ATOM     28  O   UNL     1     -21.953  10.627 -26.754  1.00  0.00    -0.550 OA
ATOM     29  O   UNL     1     -19.743  10.067 -26.798  1.00  0.00    -0.550 OA
ENDBRANCH   1  27
BRANCH   7  30
ATOM     30  C   UNL     1     -21.397  14.522 -29.749  1.00  0.00    -0.077 C 
ATOM     31  C   UNL     1     -22.610  15.203 -30.334  1.00  0.00     0.039 C 
ATOM     32  C   UNL     1     -20.733  15.158 -28.768  1.00  0.00     0.008 C 
ENDBRANCH   7  30
BRANCH  24  33
ATOM     33  O   UNL     1     -12.601  14.643 -27.113  1.00  0.00    -0.393 OA
ATOM     34  H   UNL     1     -13.011  14.414 -26.239  1.00  0.00     0.210 HD
ENDBRANCH  24  33
TORSDOF 3
ENDMDL
