MODEL 1
REMARK VINA RESULT:    -4.362      0.000      0.000
REMARK INTER + INTRA:          -4.362
REMARK INTER:                  -4.362
REMARK INTRA:                   0.000
REMARK UNBOUND:                 0.000
REMARK SMILES C=C1CCC[C@@]2(C)C=C3OC(=O)C(C)=C3C[C@H]12
REMARK SMILES IDX 14 1 13 2 15 3 16 4 17 5 2 6 1 7 3 8 4 9 5 10 6 11 8 12 9 13
REMARK SMILES IDX 10 14 11 15 12 16 7 17
REMARK H PARENT
REMARK Flexibility Score: inf
ROOT
ATOM      1  C   UNL     1      38.818 -31.124   9.904  1.00  0.00     0.053 C 
ATOM      2  C   UNL     1      39.712 -31.632  10.991  1.00  0.00     0.041 C 
ATOM      3  C   UNL     1      41.026 -31.450  11.084  1.00  0.00     0.005 C 
ATOM      4  C   UNL     1      41.961 -30.775  10.125  1.00  0.00     0.049 C 
ATOM      5  C   UNL     1      43.251 -30.367  10.893  1.00  0.00     0.029 C 
ATOM      6  C   UNL     1      44.357 -29.736  10.058  1.00  0.00    -0.073 C 
ATOM      7  C   UNL     1      44.267 -29.528   8.731  1.00  0.00     0.008 C 
ATOM      8  C   UNL     1      45.575 -29.263  10.819  1.00  0.00     0.031 C 
ATOM      9  C   UNL     1      46.125 -30.376  11.721  1.00  0.00     0.005 C 
ATOM     10  C   UNL     1      45.027 -31.015  12.594  1.00  0.00     0.012 C 
ATOM     11  C   UNL     1      43.829 -31.546  11.761  1.00  0.00    -0.004 C 
ATOM     12  C   UNL     1      42.755 -32.063  12.711  1.00  0.00     0.027 C 
ATOM     13  C   UNL     1      41.478 -32.047  12.331  1.00  0.00     0.131 C 
ATOM     14  O   UNL     1      40.400 -32.566  13.032  1.00  0.00    -0.423 OA
ATOM     15  C   UNL     1      39.301 -32.314  12.221  1.00  0.00     0.339 C 
ATOM     16  O   UNL     1      38.119 -32.632  12.521  1.00  0.00    -0.246 OA
ATOM     17  C   UNL     1      44.278 -32.735  10.875  1.00  0.00     0.016 C 
ENDROOT
TORSDOF 0
ENDMDL
MODEL 2
REMARK VINA RESULT:    -4.079      2.037      5.024
REMARK INTER + INTRA:          -4.079
REMARK INTER:                  -4.079
REMARK INTRA:                   0.000
REMARK UNBOUND:                 0.000
REMARK SMILES C=C1CCC[C@@]2(C)C=C3OC(=O)C(C)=C3C[C@H]12
REMARK SMILES IDX 14 1 13 2 15 3 16 4 17 5 2 6 1 7 3 8 4 9 5 10 6 11 8 12 9 13
REMARK SMILES IDX 10 14 11 15 12 16 7 17
REMARK H PARENT
REMARK Flexibility Score: inf
ROOT
ATOM      1  C   UNL     1      44.998 -31.210   9.774  1.00  0.00     0.053 C 
ATOM      2  C   UNL     1      44.128 -31.906  10.772  1.00  0.00     0.041 C 
ATOM      3  C   UNL     1      42.842 -31.664  11.006  1.00  0.00     0.005 C 
ATOM      4  C   UNL     1      41.949 -30.616  10.411  1.00  0.00     0.049 C 
ATOM      5  C   UNL     1      40.470 -31.057  10.598  1.00  0.00     0.029 C 
ATOM      6  C   UNL     1      39.411 -30.071  10.125  1.00  0.00    -0.073 C 
ATOM      7  C   UNL     1      39.694 -28.876   9.574  1.00  0.00     0.008 C 
ATOM      8  C   UNL     1      37.976 -30.537  10.228  1.00  0.00     0.031 C 
ATOM      9  C   UNL     1      37.667 -31.050  11.641  1.00  0.00     0.005 C 
ATOM     10  C   UNL     1      38.713 -32.069  12.134  1.00  0.00     0.012 C 
ATOM     11  C   UNL     1      40.164 -31.519  12.071  1.00  0.00    -0.004 C 
ATOM     12  C   UNL     1      41.131 -32.625  12.478  1.00  0.00     0.027 C 
ATOM     13  C   UNL     1      42.375 -32.618  12.000  1.00  0.00     0.131 C 
ATOM     14  O   UNL     1      43.397 -33.490  12.344  1.00  0.00    -0.423 OA
ATOM     15  C   UNL     1      44.487 -33.067  11.592  1.00  0.00     0.339 C 
ATOM     16  O   UNL     1      45.617 -33.622  11.621  1.00  0.00    -0.246 OA
ATOM     17  C   UNL     1      40.339 -30.355  13.079  1.00  0.00     0.016 C 
ENDROOT
TORSDOF 0
ENDMDL
MODEL 3
REMARK VINA RESULT:    -4.058      1.827      3.157
REMARK INTER + INTRA:          -4.058
REMARK INTER:                  -4.058
REMARK INTRA:                   0.000
REMARK UNBOUND:                 0.000
REMARK SMILES C=C1CCC[C@@]2(C)C=C3OC(=O)C(C)=C3C[C@H]12
REMARK SMILES IDX 14 1 13 2 15 3 16 4 17 5 2 6 1 7 3 8 4 9 5 10 6 11 8 12 9 13
REMARK SMILES IDX 10 14 11 15 12 16 7 17
REMARK H PARENT
REMARK Flexibility Score: inf
ROOT
ATOM      1  C   UNL     1      37.916 -32.456  12.731  1.00  0.00     0.053 C 
ATOM      2  C   UNL     1      38.635 -31.522  11.811  1.00  0.00     0.041 C 
ATOM      3  C   UNL     1      39.948 -31.464  11.609  1.00  0.00     0.005 C 
ATOM      4  C   UNL     1      41.047 -32.239  12.274  1.00  0.00     0.049 C 
ATOM      5  C   UNL     1      42.305 -32.200  11.363  1.00  0.00     0.029 C 
ATOM      6  C   UNL     1      43.556 -32.870  11.917  1.00  0.00    -0.073 C 
ATOM      7  C   UNL     1      43.612 -33.469  13.121  1.00  0.00     0.008 C 
ATOM      8  C   UNL     1      44.754 -32.906  10.995  1.00  0.00     0.031 C 
ATOM      9  C   UNL     1      45.068 -31.507  10.449  1.00  0.00     0.005 C 
ATOM     10  C   UNL     1      43.822 -30.817   9.860  1.00  0.00     0.012 C 
ATOM     11  C   UNL     1      42.642 -30.744  10.868  1.00  0.00    -0.004 C 
ATOM     12  C   UNL     1      41.429 -30.142  10.168  1.00  0.00     0.027 C 
ATOM     13  C   UNL     1      40.205 -30.465  10.582  1.00  0.00     0.131 C 
ATOM     14  O   UNL     1      39.009 -29.936  10.120  1.00  0.00    -0.423 OA
ATOM     15  C   UNL     1      38.029 -30.580  10.865  1.00  0.00     0.339 C 
ATOM     16  O   UNL     1      36.794 -30.374  10.728  1.00  0.00    -0.246 OA
ATOM     17  C   UNL     1      43.006 -29.812  12.051  1.00  0.00     0.016 C 
ENDROOT
TORSDOF 0
ENDMDL
MODEL 4
REMARK VINA RESULT:    -3.815      2.523      5.824
REMARK INTER + INTRA:          -3.815
REMARK INTER:                  -3.815
REMARK INTRA:                   0.000
REMARK UNBOUND:                 0.000
REMARK SMILES C=C1CCC[C@@]2(C)C=C3OC(=O)C(C)=C3C[C@H]12
REMARK SMILES IDX 14 1 13 2 15 3 16 4 17 5 2 6 1 7 3 8 4 9 5 10 6 11 8 12 9 13
REMARK SMILES IDX 10 14 11 15 12 16 7 17
REMARK H PARENT
REMARK Flexibility Score: inf
ROOT
ATOM      1  C   UNL     1      43.802 -33.185  11.149  1.00  0.00     0.053 C 
ATOM      2  C   UNL     1      43.145 -31.965  10.584  1.00  0.00     0.041 C 
ATOM      3  C   UNL     1      41.892 -31.572  10.795  1.00  0.00     0.005 C 
ATOM      4  C   UNL     1      40.802 -32.250  11.570  1.00  0.00     0.049 C 
ATOM      5  C   UNL     1      39.731 -31.190  11.953  1.00  0.00     0.029 C 
ATOM      6  C   UNL     1      38.498 -31.714  12.678  1.00  0.00    -0.073 C 
ATOM      7  C   UNL     1      38.305 -33.010  12.986  1.00  0.00     0.008 C 
ATOM      8  C   UNL     1      37.498 -30.671  13.125  1.00  0.00     0.031 C 
ATOM      9  C   UNL     1      37.109 -29.749  11.961  1.00  0.00     0.005 C 
ATOM     10  C   UNL     1      38.342 -29.187  11.226  1.00  0.00     0.012 C 
ATOM     11  C   UNL     1      39.304 -30.300  10.727  1.00  0.00    -0.004 C 
ATOM     12  C   UNL     1      40.535 -29.649  10.107  1.00  0.00     0.027 C 
ATOM     13  C   UNL     1      41.697 -30.300  10.117  1.00  0.00     0.131 C 
ATOM     14  O   UNL     1      42.878 -29.892   9.515  1.00  0.00    -0.423 OA
ATOM     15  C   UNL     1      43.784 -30.907   9.797  1.00  0.00     0.339 C 
ATOM     16  O   UNL     1      44.987 -30.898   9.424  1.00  0.00    -0.246 OA
ATOM     17  C   UNL     1      38.619 -31.144   9.623  1.00  0.00     0.016 C 
ENDROOT
TORSDOF 0
ENDMDL
MODEL 5
REMARK VINA RESULT:    -3.420      2.332      5.458
REMARK INTER + INTRA:          -3.420
REMARK INTER:                  -3.420
REMARK INTRA:                   0.000
REMARK UNBOUND:                 0.000
REMARK SMILES C=C1CCC[C@@]2(C)C=C3OC(=O)C(C)=C3C[C@H]12
REMARK SMILES IDX 14 1 13 2 15 3 16 4 17 5 2 6 1 7 3 8 4 9 5 10 6 11 8 12 9 13
REMARK SMILES IDX 10 14 11 15 12 16 7 17
REMARK H PARENT
REMARK Flexibility Score: inf
ROOT
ATOM      1  C   UNL     1      44.339 -30.565  13.086  1.00  0.00     0.053 C 
ATOM      2  C   UNL     1      43.612 -31.289  11.997  1.00  0.00     0.041 C 
ATOM      3  C   UNL     1      42.330 -31.154  11.674  1.00  0.00     0.005 C 
ATOM      4  C   UNL     1      41.268 -30.324  12.332  1.00  0.00     0.049 C 
ATOM      5  C   UNL     1      40.113 -30.097  11.316  1.00  0.00     0.029 C 
ATOM      6  C   UNL     1      38.901 -29.337  11.838  1.00  0.00    -0.073 C 
ATOM      7  C   UNL     1      38.792 -28.875  13.097  1.00  0.00     0.008 C 
ATOM      8  C   UNL     1      37.816 -29.043  10.826  1.00  0.00     0.031 C 
ATOM      9  C   UNL     1      37.397 -30.319  10.084  1.00  0.00     0.005 C 
ATOM     10  C   UNL     1      38.607 -31.094   9.526  1.00  0.00     0.012 C 
ATOM     11  C   UNL     1      39.660 -31.431  10.616  1.00  0.00    -0.004 C 
ATOM     12  C   UNL     1      40.859 -32.102   9.956  1.00  0.00     0.027 C 
ATOM     13  C   UNL     1      42.064 -31.989  10.513  1.00  0.00     0.131 C 
ATOM     14  O   UNL     1      43.230 -32.613  10.095  1.00  0.00    -0.423 OA
ATOM     15  C   UNL     1      44.197 -32.188  10.998  1.00  0.00     0.339 C 
ATOM     16  O   UNL     1      45.407 -32.536  10.945  1.00  0.00    -0.246 OA
ATOM     17  C   UNL     1      39.070 -32.436  11.638  1.00  0.00     0.016 C 
ENDROOT
TORSDOF 0
ENDMDL
MODEL 6
REMARK VINA RESULT:    -3.415      2.968      4.721
REMARK INTER + INTRA:          -3.415
REMARK INTER:                  -3.415
REMARK INTRA:                   0.000
REMARK UNBOUND:                 0.000
REMARK SMILES C=C1CCC[C@@]2(C)C=C3OC(=O)C(C)=C3C[C@H]12
REMARK SMILES IDX 14 1 13 2 15 3 16 4 17 5 2 6 1 7 3 8 4 9 5 10 6 11 8 12 9 13
REMARK SMILES IDX 10 14 11 15 12 16 7 17
REMARK H PARENT
REMARK Flexibility Score: inf
ROOT
ATOM      1  C   UNL     1      36.497 -30.983   7.599  1.00  0.00     0.053 C 
ATOM      2  C   UNL     1      36.476 -30.363   8.960  1.00  0.00     0.041 C 
ATOM      3  C   UNL     1      37.477 -30.340   9.835  1.00  0.00     0.005 C 
ATOM      4  C   UNL     1      38.836 -30.968   9.739  1.00  0.00     0.049 C 
ATOM      5  C   UNL     1      39.788 -30.244  10.732  1.00  0.00     0.029 C 
ATOM      6  C   UNL     1      41.201 -30.803  10.834  1.00  0.00    -0.073 C 
ATOM      7  C   UNL     1      41.640 -31.860  10.127  1.00  0.00     0.008 C 
ATOM      8  C   UNL     1      42.151 -30.047  11.735  1.00  0.00     0.031 C 
ATOM      9  C   UNL     1      41.536 -29.833  13.125  1.00  0.00     0.005 C 
ATOM     10  C   UNL     1      40.113 -29.245  13.049  1.00  0.00     0.012 C 
ATOM     11  C   UNL     1      39.158 -30.094  12.166  1.00  0.00    -0.004 C 
ATOM     12  C   UNL     1      37.813 -29.385  12.069  1.00  0.00     0.027 C 
ATOM     13  C   UNL     1      37.048 -29.573  10.994  1.00  0.00     0.131 C 
ATOM     14  O   UNL     1      35.766 -29.082  10.795  1.00  0.00    -0.423 OA
ATOM     15  C   UNL     1      35.399 -29.557   9.542  1.00  0.00     0.339 C 
ATOM     16  O   UNL     1      34.290 -29.313   8.996  1.00  0.00    -0.246 OA
ATOM     17  C   UNL     1      38.908 -31.475  12.823  1.00  0.00     0.016 C 
ENDROOT
TORSDOF 0
ENDMDL
MODEL 7
REMARK VINA RESULT:    -3.074      2.030      2.680
REMARK INTER + INTRA:          -3.074
REMARK INTER:                  -3.074
REMARK INTRA:                   0.000
REMARK UNBOUND:                 0.000
REMARK SMILES C=C1CCC[C@@]2(C)C=C3OC(=O)C(C)=C3C[C@H]12
REMARK SMILES IDX 14 1 13 2 15 3 16 4 17 5 2 6 1 7 3 8 4 9 5 10 6 11 8 12 9 13
REMARK SMILES IDX 10 14 11 15 12 16 7 17
REMARK H PARENT
REMARK Flexibility Score: inf
ROOT
ATOM      1  C   UNL     1      39.236 -32.471   9.541  1.00  0.00     0.053 C 
ATOM      2  C   UNL     1      39.749 -31.166  10.062  1.00  0.00     0.041 C 
ATOM      3  C   UNL     1      40.983 -30.913  10.488  1.00  0.00     0.005 C 
ATOM      4  C   UNL     1      42.147 -31.847  10.633  1.00  0.00     0.049 C 
ATOM      5  C   UNL     1      43.456 -31.009  10.662  1.00  0.00     0.029 C 
ATOM      6  C   UNL     1      44.746 -31.788  10.887  1.00  0.00    -0.073 C 
ATOM      7  C   UNL     1      44.795 -33.121  11.058  1.00  0.00     0.008 C 
ATOM      8  C   UNL     1      46.025 -30.983  10.829  1.00  0.00     0.031 C 
ATOM      9  C   UNL     1      45.946 -29.760  11.752  1.00  0.00     0.005 C 
ATOM     10  C   UNL     1      44.659 -28.941  11.527  1.00  0.00     0.012 C 
ATOM     11  C   UNL     1      43.370 -29.798  11.662  1.00  0.00    -0.004 C 
ATOM     12  C   UNL     1      42.162 -28.932  11.324  1.00  0.00     0.027 C 
ATOM     13  C   UNL     1      41.063 -29.502  10.833  1.00  0.00     0.131 C 
ATOM     14  O   UNL     1      39.855 -28.875  10.566  1.00  0.00    -0.423 OA
ATOM     15  C   UNL     1      39.033 -29.887  10.085  1.00  0.00     0.339 C 
ATOM     16  O   UNL     1      37.841 -29.709   9.719  1.00  0.00    -0.246 OA
ATOM     17  C   UNL     1      43.201 -30.281  13.125  1.00  0.00     0.016 C 
ENDROOT
TORSDOF 0
ENDMDL
MODEL 8
REMARK VINA RESULT:    -3.069      1.866      2.296
REMARK INTER + INTRA:          -3.069
REMARK INTER:                  -3.069
REMARK INTRA:                   0.000
REMARK UNBOUND:                 0.000
REMARK SMILES C=C1CCC[C@@]2(C)C=C3OC(=O)C(C)=C3C[C@H]12
REMARK SMILES IDX 14 1 13 2 15 3 16 4 17 5 2 6 1 7 3 8 4 9 5 10 6 11 8 12 9 13
REMARK SMILES IDX 10 14 11 15 12 16 7 17
REMARK H PARENT
REMARK Flexibility Score: inf
ROOT
ATOM      1  C   UNL     1      38.260 -31.081   9.291  1.00  0.00     0.053 C 
ATOM      2  C   UNL     1      38.846 -30.723  10.620  1.00  0.00     0.041 C 
ATOM      3  C   UNL     1      40.073 -31.004  11.046  1.00  0.00     0.005 C 
ATOM      4  C   UNL     1      41.155 -31.795  10.372  1.00  0.00     0.049 C 
ATOM      5  C   UNL     1      42.521 -31.410  11.006  1.00  0.00     0.029 C 
ATOM      6  C   UNL     1      43.735 -32.177  10.499  1.00  0.00    -0.073 C 
ATOM      7  C   UNL     1      43.673 -33.141   9.562  1.00  0.00     0.008 C 
ATOM      8  C   UNL     1      45.073 -31.744  11.054  1.00  0.00     0.031 C 
ATOM      9  C   UNL     1      45.043 -31.700  12.587  1.00  0.00     0.005 C 
ATOM     10  C   UNL     1      43.835 -30.907  13.125  1.00  0.00     0.012 C 
ATOM     11  C   UNL     1      42.480 -31.434  12.579  1.00  0.00    -0.004 C 
ATOM     12  C   UNL     1      41.359 -30.531  13.080  1.00  0.00     0.027 C 
ATOM     13  C   UNL     1      40.244 -30.407  12.362  1.00  0.00     0.131 C 
ATOM     14  O   UNL     1      39.102 -29.707  12.722  1.00  0.00    -0.423 OA
ATOM     15  C   UNL     1      38.229 -29.888  11.655  1.00  0.00     0.339 C 
ATOM     16  O   UNL     1      37.073 -29.390  11.603  1.00  0.00    -0.246 OA
ATOM     17  C   UNL     1      42.203 -32.860  13.117  1.00  0.00     0.016 C 
ENDROOT
TORSDOF 0
ENDMDL
MODEL 9
REMARK VINA RESULT:    -2.992      2.734      6.486
REMARK INTER + INTRA:          -2.992
REMARK INTER:                  -2.992
REMARK INTRA:                   0.000
REMARK UNBOUND:                 0.000
REMARK SMILES C=C1CCC[C@@]2(C)C=C3OC(=O)C(C)=C3C[C@H]12
REMARK SMILES IDX 14 1 13 2 15 3 16 4 17 5 2 6 1 7 3 8 4 9 5 10 6 11 8 12 9 13
REMARK SMILES IDX 10 14 11 15 12 16 7 17
REMARK H PARENT
REMARK Flexibility Score: inf
ROOT
ATOM      1  C   UNL     1      41.767 -29.636   9.741  1.00  0.00     0.053 C 
ATOM      2  C   UNL     1      41.087 -30.193  10.952  1.00  0.00     0.041 C 
ATOM      3  C   UNL     1      39.777 -30.221  11.181  1.00  0.00     0.005 C 
ATOM      4  C   UNL     1      38.657 -29.659  10.358  1.00  0.00     0.049 C 
ATOM      5  C   UNL     1      37.338 -30.380  10.757  1.00  0.00     0.029 C 
ATOM      6  C   UNL     1      36.069 -29.880  10.078  1.00  0.00    -0.073 C 
ATOM      7  C   UNL     1      36.046 -28.876   9.182  1.00  0.00     0.008 C 
ATOM      8  C   UNL     1      34.801 -30.636  10.402  1.00  0.00     0.031 C 
ATOM      9  C   UNL     1      34.608 -30.760  11.919  1.00  0.00     0.005 C 
ATOM     10  C   UNL     1      35.872 -31.287  12.627  1.00  0.00     0.012 C 
ATOM     11  C   UNL     1      37.134 -30.437  12.316  1.00  0.00    -0.004 C 
ATOM     12  C   UNL     1      38.344 -31.089  12.973  1.00  0.00     0.027 C 
ATOM     13  C   UNL     1      39.554 -30.916  12.440  1.00  0.00     0.131 C 
ATOM     14  O   UNL     1      40.759 -31.358  12.964  1.00  0.00    -0.423 OA
ATOM     15  C   UNL     1      41.716 -30.923  12.055  1.00  0.00     0.339 C 
ATOM     16  O   UNL     1      42.951 -31.142  12.178  1.00  0.00    -0.246 OA
ATOM     17  C   UNL     1      36.985 -29.018  12.921  1.00  0.00     0.016 C 
ENDROOT
TORSDOF 0
ENDMDL
