MODEL 1
REMARK VINA RESULT:    -4.266      0.000      0.000
REMARK INTER + INTRA:          -6.061
REMARK INTER:                  -5.513
REMARK INTRA:                  -0.548
REMARK UNBOUND:                -0.548
REMARK SMILES CCO[C@H]1O[C@@H](CO)[C@H](O)[C@@H](O)[C@@H]1O
REMARK SMILES IDX 4 1 13 2 11 3 9 4 6 5 5 6 3 7 2 8 1 9 14 10 12 12 7 14 8 15
REMARK SMILES IDX 10 17
REMARK H PARENT 14 11 12 13 8 16 10 18
REMARK Flexibility Score: inf
ROOT
ATOM      1  C   UNL     1      61.077 -40.552  34.216  1.00  0.00     0.281 C 
ATOM      2  C   UNL     1      60.298 -39.215  34.138  1.00  0.00     0.202 C 
ATOM      3  C   UNL     1      58.783 -39.430  33.890  1.00  0.00     0.179 C 
ATOM      4  C   UNL     1      58.359 -40.877  34.190  1.00  0.00     0.177 C 
ATOM      5  C   UNL     1      59.243 -41.838  33.350  1.00  0.00     0.178 C 
ATOM      6  O   UNL     1      60.622 -41.483  33.246  1.00  0.00    -0.341 OA
ENDROOT
BRANCH   1   7
ATOM      7  O   UNL     1      60.975 -41.116  35.516  1.00  0.00    -0.350 OA
BRANCH   7   8
ATOM      8  C   UNL     1      61.805 -40.440  36.435  1.00  0.00     0.160 C 
ATOM      9  C   UNL     1      60.999 -40.103  37.679  1.00  0.00     0.035 C 
ENDBRANCH   7   8
ENDBRANCH   1   7
BRANCH   2  10
ATOM     10  O   UNL     1      60.839 -38.429  33.107  1.00  0.00    -0.385 OA
ATOM     11  H   UNL     1      60.338 -38.657  32.280  1.00  0.00     0.211 HD
ENDBRANCH   2  10
BRANCH   3  12
ATOM     12  O   UNL     1      58.020 -38.513  34.636  1.00  0.00    -0.387 OA
ATOM     13  H   UNL     1      57.660 -37.836  34.004  1.00  0.00     0.211 HD
ENDBRANCH   3  12
BRANCH   5  14
ATOM     14  C   UNL     1      59.097 -43.303  33.794  1.00  0.00     0.191 C 
BRANCH  14  15
ATOM     15  O   UNL     1      58.744 -43.396  35.148  1.00  0.00    -0.394 OA
ATOM     16  H   UNL     1      58.692 -44.364  35.365  1.00  0.00     0.210 HD
ENDBRANCH  14  15
ENDBRANCH   5  14
BRANCH   4  17
ATOM     17  O   UNL     1      57.009 -41.063  33.843  1.00  0.00    -0.387 OA
ATOM     18  H   UNL     1      56.682 -40.199  33.477  1.00  0.00     0.211 HD
ENDBRANCH   4  17
TORSDOF 7
ENDMDL
MODEL 2
REMARK VINA RESULT:    -4.239     11.145     12.976
REMARK INTER + INTRA:          -6.026
REMARK INTER:                  -5.532
REMARK INTRA:                  -0.494
REMARK UNBOUND:                -0.548
REMARK SMILES CCO[C@H]1O[C@@H](CO)[C@H](O)[C@@H](O)[C@@H]1O
REMARK SMILES IDX 4 1 13 2 11 3 9 4 6 5 5 6 3 7 2 8 1 9 14 10 12 12 7 14 8 15
REMARK SMILES IDX 10 17
REMARK H PARENT 14 11 12 13 8 16 10 18
REMARK Flexibility Score: inf
ROOT
ATOM      1  C   UNL     1      56.645 -39.587  47.177  1.00  0.00     0.281 C 
ATOM      2  C   UNL     1      56.139 -40.593  46.111  1.00  0.00     0.202 C 
ATOM      3  C   UNL     1      57.298 -41.218  45.294  1.00  0.00     0.179 C 
ATOM      4  C   UNL     1      58.654 -41.018  45.989  1.00  0.00     0.177 C 
ATOM      5  C   UNL     1      58.860 -39.502  46.251  1.00  0.00     0.178 C 
ATOM      6  O   UNL     1      57.703 -38.782  46.678  1.00  0.00    -0.341 OA
ENDROOT
BRANCH   1   7
ATOM      7  O   UNL     1      57.066 -40.269  48.349  1.00  0.00    -0.350 OA
BRANCH   7   8
ATOM      8  C   UNL     1      55.998 -40.977  48.942  1.00  0.00     0.160 C 
ATOM      9  C   UNL     1      55.251 -40.049  49.887  1.00  0.00     0.035 C 
ENDBRANCH   7   8
ENDBRANCH   1   7
BRANCH   2  10
ATOM     10  O   UNL     1      55.250 -39.935  45.246  1.00  0.00    -0.385 OA
ATOM     11  H   UNL     1      55.790 -39.292  44.714  1.00  0.00     0.211 HD
ENDBRANCH   2  10
BRANCH   3  12
ATOM     12  O   UNL     1      57.053 -42.580  45.042  1.00  0.00    -0.387 OA
ATOM     13  H   UNL     1      56.531 -42.641  44.199  1.00  0.00     0.211 HD
ENDBRANCH   3  12
BRANCH   5  14
ATOM     14  C   UNL     1      60.042 -39.227  47.195  1.00  0.00     0.191 C 
BRANCH  14  15
ATOM     15  O   UNL     1      60.546 -40.415  47.745  1.00  0.00    -0.394 OA
ATOM     16  H   UNL     1      60.008 -41.158  47.364  1.00  0.00     0.210 HD
ENDBRANCH  14  15
ENDBRANCH   5  14
BRANCH   4  17
ATOM     17  O   UNL     1      59.690 -41.492  45.164  1.00  0.00    -0.387 OA
ATOM     18  H   UNL     1      60.448 -41.731  45.759  1.00  0.00     0.211 HD
ENDBRANCH   4  17
TORSDOF 7
ENDMDL
MODEL 3
REMARK VINA RESULT:    -4.170     11.348     13.368
REMARK INTER + INTRA:          -5.937
REMARK INTER:                  -5.509
REMARK INTRA:                  -0.429
REMARK UNBOUND:                -0.548
REMARK SMILES CCO[C@H]1O[C@@H](CO)[C@H](O)[C@@H](O)[C@@H]1O
REMARK SMILES IDX 4 1 13 2 11 3 9 4 6 5 5 6 3 7 2 8 1 9 14 10 12 12 7 14 8 15
REMARK SMILES IDX 10 17
REMARK H PARENT 14 11 12 13 8 16 10 18
REMARK Flexibility Score: inf
ROOT
ATOM      1  C   UNL     1      58.397 -40.663  46.348  1.00  0.00     0.281 C 
ATOM      2  C   UNL     1      59.130 -42.004  46.091  1.00  0.00     0.202 C 
ATOM      3  C   UNL     1      60.576 -42.002  46.650  1.00  0.00     0.179 C 
ATOM      4  C   UNL     1      60.790 -40.865  47.663  1.00  0.00     0.177 C 
ATOM      5  C   UNL     1      60.410 -39.520  46.988  1.00  0.00     0.178 C 
ATOM      6  O   UNL     1      59.254 -39.549  46.150  1.00  0.00    -0.341 OA
ENDROOT
BRANCH   1   7
ATOM      7  O   UNL     1      57.856 -40.632  47.661  1.00  0.00    -0.350 OA
BRANCH   7   8
ATOM      8  C   UNL     1      56.975 -41.712  47.879  1.00  0.00     0.160 C 
ATOM      9  C   UNL     1      55.670 -41.182  48.452  1.00  0.00     0.035 C 
ENDBRANCH   7   8
ENDBRANCH   1   7
BRANCH   2  10
ATOM     10  O   UNL     1      59.158 -42.253  44.709  1.00  0.00    -0.385 OA
ATOM     11  H   UNL     1      59.875 -42.924  44.553  1.00  0.00     0.211 HD
ENDBRANCH   2  10
BRANCH   3  12
ATOM     12  O   UNL     1      60.894 -43.250  47.215  1.00  0.00    -0.387 OA
ATOM     13  H   UNL     1      61.602 -43.102  47.895  1.00  0.00     0.211 HD
ENDBRANCH   3  12
BRANCH   5  14
ATOM     14  C   UNL     1      60.311 -38.366  47.999  1.00  0.00     0.191 C 
BRANCH  14  15
ATOM     15  O   UNL     1      61.579 -37.965  48.445  1.00  0.00    -0.394 OA
ATOM     16  H   UNL     1      61.751 -38.451  49.294  1.00  0.00     0.210 HD
ENDBRANCH  14  15
ENDBRANCH   5  14
BRANCH   4  17
ATOM     17  O   UNL     1      62.138 -40.823  48.058  1.00  0.00    -0.387 OA
ATOM     18  H   UNL     1      62.250 -41.493  48.782  1.00  0.00     0.211 HD
ENDBRANCH   4  17
TORSDOF 7
ENDMDL
MODEL 4
REMARK VINA RESULT:    -4.136     11.090     12.401
REMARK INTER + INTRA:          -5.893
REMARK INTER:                  -5.411
REMARK INTRA:                  -0.481
REMARK UNBOUND:                -0.548
REMARK SMILES CCO[C@H]1O[C@@H](CO)[C@H](O)[C@@H](O)[C@@H]1O
REMARK SMILES IDX 4 1 13 2 11 3 9 4 6 5 5 6 3 7 2 8 1 9 14 10 12 12 7 14 8 15
REMARK SMILES IDX 10 17
REMARK H PARENT 14 11 12 13 8 16 10 18
REMARK Flexibility Score: inf
ROOT
ATOM      1  C   UNL     1      58.823 -39.577  47.446  1.00  0.00     0.281 C 
ATOM      2  C   UNL     1      59.802 -40.509  46.687  1.00  0.00     0.202 C 
ATOM      3  C   UNL     1      59.064 -41.596  45.865  1.00  0.00     0.179 C 
ATOM      4  C   UNL     1      57.580 -41.247  45.667  1.00  0.00     0.177 C 
ATOM      5  C   UNL     1      56.935 -41.011  47.059  1.00  0.00     0.178 C 
ATOM      6  O   UNL     1      57.736 -40.301  48.004  1.00  0.00    -0.341 OA
ENDROOT
BRANCH   1   7
ATOM      7  O   UNL     1      58.335 -38.556  46.587  1.00  0.00    -0.350 OA
BRANCH   7   8
ATOM      8  C   UNL     1      59.384 -37.957  45.856  1.00  0.00     0.160 C 
ATOM      9  C   UNL     1      59.401 -36.465  46.142  1.00  0.00     0.035 C 
ENDBRANCH   7   8
ENDBRANCH   1   7
BRANCH   2  10
ATOM     10  O   UNL     1      60.664 -41.118  47.613  1.00  0.00    -0.385 OA
ATOM     11  H   UNL     1      61.528 -40.629  47.566  1.00  0.00     0.211 HD
ENDBRANCH   2  10
BRANCH   3  12
ATOM     12  O   UNL     1      59.704 -41.809  44.631  1.00  0.00    -0.387 OA
ATOM     13  H   UNL     1      59.714 -40.944  44.144  1.00  0.00     0.211 HD
ENDBRANCH   3  12
BRANCH   5  14
ATOM     14  C   UNL     1      55.538 -40.376  46.955  1.00  0.00     0.191 C 
BRANCH  14  15
ATOM     15  O   UNL     1      55.243 -39.999  45.637  1.00  0.00    -0.394 OA
ATOM     16  H   UNL     1      55.970 -39.389  45.344  1.00  0.00     0.210 HD
ENDBRANCH  14  15
ENDBRANCH   5  14
BRANCH   4  17
ATOM     17  O   UNL     1      56.920 -42.308  45.022  1.00  0.00    -0.387 OA
ATOM     18  H   UNL     1      56.102 -41.930  44.606  1.00  0.00     0.211 HD
ENDBRANCH   4  17
TORSDOF 7
ENDMDL
MODEL 5
REMARK VINA RESULT:    -4.006      1.664      3.523
REMARK INTER + INTRA:          -5.725
REMARK INTER:                  -5.123
REMARK INTRA:                  -0.602
REMARK UNBOUND:                -0.548
REMARK SMILES CCO[C@H]1O[C@@H](CO)[C@H](O)[C@@H](O)[C@@H]1O
REMARK SMILES IDX 4 1 13 2 11 3 9 4 6 5 5 6 3 7 2 8 1 9 14 10 12 12 7 14 8 15
REMARK SMILES IDX 10 17
REMARK H PARENT 14 11 12 13 8 16 10 18
REMARK Flexibility Score: inf
ROOT
ATOM      1  C   UNL     1      60.436 -40.892  32.734  1.00  0.00     0.281 C 
ATOM      2  C   UNL     1      61.660 -40.526  33.610  1.00  0.00     0.202 C 
ATOM      3  C   UNL     1      61.252 -40.076  35.036  1.00  0.00     0.179 C 
ATOM      4  C   UNL     1      59.808 -40.486  35.369  1.00  0.00     0.177 C 
ATOM      5  C   UNL     1      58.866 -39.921  34.271  1.00  0.00     0.178 C 
ATOM      6  O   UNL     1      59.359 -39.988  32.933  1.00  0.00    -0.341 OA
ENDROOT
BRANCH   1   7
ATOM      7  O   UNL     1      60.008 -42.220  32.999  1.00  0.00    -0.350 OA
BRANCH   7   8
ATOM      8  C   UNL     1      59.297 -42.758  31.905  1.00  0.00     0.160 C 
ATOM      9  C   UNL     1      58.692 -44.092  32.313  1.00  0.00     0.035 C 
ENDBRANCH   7   8
ENDBRANCH   1   7
BRANCH   2  10
ATOM     10  O   UNL     1      62.385 -39.501  32.980  1.00  0.00    -0.385 OA
ATOM     11  H   UNL     1      61.811 -38.690  33.000  1.00  0.00     0.211 HD
ENDBRANCH   2  10
BRANCH   3  12
ATOM     12  O   UNL     1      62.153 -40.573  35.994  1.00  0.00    -0.387 OA
ATOM     13  H   UNL     1      62.364 -41.513  35.751  1.00  0.00     0.211 HD
ENDBRANCH   3  12
BRANCH   5  14
ATOM     14  C   UNL     1      57.451 -40.517  34.353  1.00  0.00     0.191 C 
BRANCH  14  15
ATOM     15  O   UNL     1      57.477 -41.840  34.819  1.00  0.00    -0.394 OA
ATOM     16  H   UNL     1      57.825 -42.398  34.075  1.00  0.00     0.210 HD
ENDBRANCH  14  15
ENDBRANCH   5  14
BRANCH   4  17
ATOM     17  O   UNL     1      59.435 -39.960  36.618  1.00  0.00    -0.387 OA
ATOM     18  H   UNL     1      58.443 -39.944  36.641  1.00  0.00     0.211 HD
ENDBRANCH   4  17
TORSDOF 7
ENDMDL
MODEL 6
REMARK VINA RESULT:    -3.929      1.844      4.417
REMARK INTER + INTRA:          -5.626
REMARK INTER:                  -4.998
REMARK INTRA:                  -0.628
REMARK UNBOUND:                -0.548
REMARK SMILES CCO[C@H]1O[C@@H](CO)[C@H](O)[C@@H](O)[C@@H]1O
REMARK SMILES IDX 4 1 13 2 11 3 9 4 6 5 5 6 3 7 2 8 1 9 14 10 12 12 7 14 8 15
REMARK SMILES IDX 10 17
REMARK H PARENT 14 11 12 13 8 16 10 18
REMARK Flexibility Score: inf
ROOT
ATOM      1  C   UNL     1      59.287 -41.991  31.917  1.00  0.00     0.281 C 
ATOM      2  C   UNL     1      58.898 -43.144  32.877  1.00  0.00     0.202 C 
ATOM      3  C   UNL     1      59.443 -42.925  34.311  1.00  0.00     0.179 C 
ATOM      4  C   UNL     1      59.868 -41.466  34.541  1.00  0.00     0.177 C 
ATOM      5  C   UNL     1      60.894 -41.069  33.445  1.00  0.00     0.178 C 
ATOM      6  O   UNL     1      60.622 -41.557  32.131  1.00  0.00    -0.341 OA
ENDROOT
BRANCH   1   7
ATOM      7  O   UNL     1      58.392 -40.897  32.059  1.00  0.00    -0.350 OA
BRANCH   7   8
ATOM      8  C   UNL     1      57.051 -41.334  32.101  1.00  0.00     0.160 C 
ATOM      9  C   UNL     1      56.313 -40.570  33.189  1.00  0.00     0.035 C 
ENDBRANCH   7   8
ENDBRANCH   1   7
BRANCH   2  10
ATOM     10  O   UNL     1      59.390 -44.355  32.363  1.00  0.00    -0.385 OA
ATOM     11  H   UNL     1      58.679 -44.726  31.776  1.00  0.00     0.211 HD
ENDBRANCH   2  10
BRANCH   3  12
ATOM     12  O   UNL     1      58.501 -43.336  35.272  1.00  0.00    -0.387 OA
ATOM     13  H   UNL     1      58.237 -44.268  35.055  1.00  0.00     0.211 HD
ENDBRANCH   3  12
BRANCH   5  14
ATOM     14  C   UNL     1      61.156 -39.554  33.411  1.00  0.00     0.191 C 
BRANCH  14  15
ATOM     15  O   UNL     1      60.024 -38.829  33.811  1.00  0.00    -0.394 OA
ATOM     16  H   UNL     1      60.200 -37.878  33.587  1.00  0.00     0.210 HD
ENDBRANCH  14  15
ENDBRANCH   5  14
BRANCH   4  17
ATOM     17  O   UNL     1      60.464 -41.333  35.807  1.00  0.00    -0.387 OA
ATOM     18  H   UNL     1      60.692 -42.248  36.117  1.00  0.00     0.211 HD
ENDBRANCH   4  17
TORSDOF 7
ENDMDL
MODEL 7
REMARK VINA RESULT:    -3.927      1.686      3.290
REMARK INTER + INTRA:          -5.623
REMARK INTER:                  -5.161
REMARK INTRA:                  -0.461
REMARK UNBOUND:                -0.548
REMARK SMILES CCO[C@H]1O[C@@H](CO)[C@H](O)[C@@H](O)[C@@H]1O
REMARK SMILES IDX 4 1 13 2 11 3 9 4 6 5 5 6 3 7 2 8 1 9 14 10 12 12 7 14 8 15
REMARK SMILES IDX 10 17
REMARK H PARENT 14 11 12 13 8 16 10 18
REMARK Flexibility Score: inf
ROOT
ATOM      1  C   UNL     1      61.102 -40.732  33.184  1.00  0.00     0.281 C 
ATOM      2  C   UNL     1      59.618 -40.644  32.744  1.00  0.00     0.202 C 
ATOM      3  C   UNL     1      58.659 -40.430  33.942  1.00  0.00     0.179 C 
ATOM      4  C   UNL     1      59.414 -39.950  35.193  1.00  0.00     0.177 C 
ATOM      5  C   UNL     1      60.546 -40.965  35.509  1.00  0.00     0.178 C 
ATOM      6  O   UNL     1      61.250 -41.483  34.381  1.00  0.00    -0.341 OA
ENDROOT
BRANCH   1   7
ATOM      7  O   UNL     1      61.652 -39.434  33.354  1.00  0.00    -0.350 OA
BRANCH   7   8
ATOM      8  C   UNL     1      61.525 -38.665  32.177  1.00  0.00     0.160 C 
ATOM      9  C   UNL     1      60.961 -37.299  32.534  1.00  0.00     0.035 C 
ENDBRANCH   7   8
ENDBRANCH   1   7
BRANCH   2  10
ATOM     10  O   UNL     1      59.271 -41.824  32.065  1.00  0.00    -0.385 OA
ATOM     11  H   UNL     1      58.366 -42.082  32.385  1.00  0.00     0.211 HD
ENDBRANCH   2  10
BRANCH   3  12
ATOM     12  O   UNL     1      57.626 -39.539  33.601  1.00  0.00    -0.387 OA
ATOM     13  H   UNL     1      57.249 -39.834  32.732  1.00  0.00     0.211 HD
ENDBRANCH   3  12
BRANCH   5  14
ATOM     14  C   UNL     1      61.534 -40.429  36.559  1.00  0.00     0.191 C 
BRANCH  14  15
ATOM     15  O   UNL     1      61.014 -40.540  37.857  1.00  0.00    -0.394 OA
ATOM     16  H   UNL     1      60.231 -41.147  37.801  1.00  0.00     0.210 HD
ENDBRANCH  14  15
ENDBRANCH   5  14
BRANCH   4  17
ATOM     17  O   UNL     1      58.533 -39.881  36.287  1.00  0.00    -0.387 OA
ATOM     18  H   UNL     1      58.485 -38.928  36.560  1.00  0.00     0.211 HD
ENDBRANCH   4  17
TORSDOF 7
ENDMDL
MODEL 8
REMARK VINA RESULT:    -3.812      1.804      3.967
REMARK INTER + INTRA:          -5.475
REMARK INTER:                  -4.900
REMARK INTRA:                  -0.575
REMARK UNBOUND:                -0.548
REMARK SMILES CCO[C@H]1O[C@@H](CO)[C@H](O)[C@@H](O)[C@@H]1O
REMARK SMILES IDX 4 1 13 2 11 3 9 4 6 5 5 6 3 7 2 8 1 9 14 10 12 12 7 14 8 15
REMARK SMILES IDX 10 17
REMARK H PARENT 14 11 12 13 8 16 10 18
REMARK Flexibility Score: inf
ROOT
ATOM      1  C   UNL     1      57.508 -40.382  33.757  1.00  0.00     0.281 C 
ATOM      2  C   UNL     1      56.737 -41.631  33.261  1.00  0.00     0.202 C 
ATOM      3  C   UNL     1      57.602 -42.916  33.313  1.00  0.00     0.179 C 
ATOM      4  C   UNL     1      58.838 -42.732  34.207  1.00  0.00     0.177 C 
ATOM      5  C   UNL     1      59.635 -41.497  33.705  1.00  0.00     0.178 C 
ATOM      6  O   UNL     1      58.851 -40.376  33.295  1.00  0.00    -0.341 OA
ENDROOT
BRANCH   1   7
ATOM      7  O   UNL     1      57.482 -40.307  35.175  1.00  0.00    -0.350 OA
BRANCH   7   8
ATOM      8  C   UNL     1      57.273 -38.982  35.615  1.00  0.00     0.160 C 
ATOM      9  C   UNL     1      55.887 -38.529  35.185  1.00  0.00     0.035 C 
ENDBRANCH   7   8
ENDBRANCH   1   7
BRANCH   2  10
ATOM     10  O   UNL     1      56.299 -41.407  31.945  1.00  0.00    -0.385 OA
ATOM     11  H   UNL     1      55.929 -42.269  31.616  1.00  0.00     0.211 HD
ENDBRANCH   2  10
BRANCH   3  12
ATOM     12  O   UNL     1      56.834 -44.018  33.731  1.00  0.00    -0.387 OA
ATOM     13  H   UNL     1      57.233 -44.361  34.573  1.00  0.00     0.211 HD
ENDBRANCH   3  12
BRANCH   5  14
ATOM     14  C   UNL     1      60.720 -41.058  34.702  1.00  0.00     0.191 C 
BRANCH  14  15
ATOM     15  O   UNL     1      60.318 -41.276  36.027  1.00  0.00    -0.394 OA
ATOM     16  H   UNL     1      60.515 -42.226  36.234  1.00  0.00     0.210 HD
ENDBRANCH  14  15
ENDBRANCH   5  14
BRANCH   4  17
ATOM     17  O   UNL     1      59.657 -43.873  34.135  1.00  0.00    -0.387 OA
ATOM     18  H   UNL     1      59.464 -44.314  33.266  1.00  0.00     0.211 HD
ENDBRANCH   4  17
TORSDOF 7
ENDMDL
MODEL 9
REMARK VINA RESULT:    -3.785     12.085     13.550
REMARK INTER + INTRA:          -5.440
REMARK INTER:                  -4.844
REMARK INTRA:                  -0.595
REMARK UNBOUND:                -0.548
REMARK SMILES CCO[C@H]1O[C@@H](CO)[C@H](O)[C@@H](O)[C@@H]1O
REMARK SMILES IDX 4 1 13 2 11 3 9 4 6 5 5 6 3 7 2 8 1 9 14 10 12 12 7 14 8 15
REMARK SMILES IDX 10 17
REMARK H PARENT 14 11 12 13 8 16 10 18
REMARK Flexibility Score: inf
ROOT
ATOM      1  C   UNL     1      57.351 -38.713  47.196  1.00  0.00     0.281 C 
ATOM      2  C   UNL     1      56.353 -38.549  48.370  1.00  0.00     0.202 C 
ATOM      3  C   UNL     1      55.631 -39.875  48.719  1.00  0.00     0.179 C 
ATOM      4  C   UNL     1      56.356 -41.091  48.120  1.00  0.00     0.177 C 
ATOM      5  C   UNL     1      56.503 -40.877  46.589  1.00  0.00     0.178 C 
ATOM      6  O   UNL     1      56.828 -39.549  46.175  1.00  0.00    -0.341 OA
ENDROOT
BRANCH   1   7
ATOM      7  O   UNL     1      58.590 -39.231  47.660  1.00  0.00    -0.350 OA
BRANCH   7   8
ATOM      8  C   UNL     1      59.643 -38.908  46.777  1.00  0.00     0.160 C 
ATOM      9  C   UNL     1      60.932 -39.528  47.293  1.00  0.00     0.035 C 
ENDBRANCH   7   8
ENDBRANCH   1   7
BRANCH   2  10
ATOM     10  O   UNL     1      55.405 -37.569  48.033  1.00  0.00    -0.385 OA
ATOM     11  H   UNL     1      55.860 -36.927  47.426  1.00  0.00     0.211 HD
ENDBRANCH   2  10
BRANCH   3  12
ATOM     12  O   UNL     1      55.481 -40.010  50.112  1.00  0.00    -0.387 OA
ATOM     13  H   UNL     1      54.879 -40.783  50.276  1.00  0.00     0.211 HD
ENDBRANCH   3  12
BRANCH   5  14
ATOM     14  C   UNL     1      57.465 -41.890  45.947  1.00  0.00     0.191 C 
BRANCH  14  15
ATOM     15  O   UNL     1      58.483 -42.265  46.835  1.00  0.00    -0.394 OA
ATOM     16  H   UNL     1      59.288 -42.451  46.286  1.00  0.00     0.210 HD
ENDBRANCH  14  15
ENDBRANCH   5  14
BRANCH   4  17
ATOM     17  O   UNL     1      55.611 -42.259  48.357  1.00  0.00    -0.387 OA
ATOM     18  H   UNL     1      55.992 -42.687  49.168  1.00  0.00     0.211 HD
ENDBRANCH   4  17
TORSDOF 7
ENDMDL
