MODEL 1
REMARK VINA RESULT:    -4.541      0.000      0.000
REMARK INTER + INTRA:          -4.727
REMARK INTER:                  -5.204
REMARK INTRA:                   0.477
REMARK UNBOUND:                 0.477
REMARK SMILES C=C(C)[C@H]1CC[C@@]2(C(=O)[O-])CC[C@@]3(C)[C@H](CC[C@H]4[C@@]5(C)CC[C@H](O)C(C)(C)[C@@H]5CC[C@]43C)[C@H]12
REMARK SMILES IDX 7 1 6 2 33 3 11 4 5 5 15 6 4 7 12 8 16 9 13 10 17 11 31 12
REMARK SMILES IDX 14 13 18 14 30 15 32 16 19 17 29 18 21 19 20 20 28 21 22 22
REMARK SMILES IDX 25 23 23 24 26 25 27 26 8 27 9 28 10 29 2 30 3 31 1 32 24 33
REMARK H PARENT 24 34
REMARK Flexibility Score: inf
ROOT
ATOM      1  C   UNL     1       3.708 -17.364  -7.117  1.00  0.00     0.014 C 
ATOM      2  C   UNL     1       3.195 -15.981  -6.685  1.00  0.00     0.014 C 
ATOM      3  C   UNL     1       5.222 -17.095  -7.177  1.00  0.00     0.012 C 
ATOM      4  C   UNL     1       3.267 -17.814  -8.532  1.00  0.00     0.014 C 
ATOM      5  C   UNL     1       4.261 -15.440  -5.702  1.00  0.00     0.009 C 
ATOM      6  C   UNL     1       6.116 -18.299  -7.607  1.00  0.00     0.000 C 
ATOM      7  C   UNL     1       5.549 -16.273  -5.930  1.00  0.00     0.018 C 
ATOM      8  C   UNL     1       4.112 -19.027  -9.032  1.00  0.00     0.008 C 
ATOM      9  C   UNL     1       6.163 -19.411  -6.534  1.00  0.00     0.005 C 
ATOM     10  C   UNL     1       5.680 -18.822  -9.043  1.00  0.00    -0.024 C 
ATOM     11  C   UNL     1       7.050 -20.581  -6.925  1.00  0.00     0.005 C 
ATOM     12  C   UNL     1       6.534 -20.153  -9.451  1.00  0.00    -0.024 C 
ATOM     13  C   UNL     1       5.979 -17.709 -10.112  1.00  0.00     0.012 C 
ATOM     14  C   UNL     1       6.641 -21.227  -8.269  1.00  0.00     0.002 C 
ATOM     15  C   UNL     1       6.030 -20.816 -10.804  1.00  0.00     0.008 C 
ATOM     16  C   UNL     1       8.019 -19.712  -9.769  1.00  0.00     0.012 C 
ATOM     17  C   UNL     1       5.620 -22.479  -8.181  1.00  0.00    -0.026 C 
ATOM     18  C   UNL     1       5.676 -22.307 -10.723  1.00  0.00     0.005 C 
ATOM     19  C   UNL     1       4.607 -22.421  -6.991  1.00  0.00     0.010 C 
ATOM     20  C   UNL     1       6.510 -23.753  -7.954  1.00  0.00     0.012 C 
ATOM     21  C   UNL     1       4.776 -22.553  -9.500  1.00  0.00     0.003 C 
ATOM     22  C   UNL     1       3.574 -23.569  -7.000  1.00  0.00     0.033 C 
ATOM     23  C   UNL     1       3.711 -23.714  -9.611  1.00  0.00    -0.006 C 
ATOM     24  C   UNL     1       2.802 -23.660  -8.332  1.00  0.00     0.120 C 
ATOM     25  C   UNL     1       4.350 -25.114  -9.821  1.00  0.00     0.014 C 
ATOM     26  C   UNL     1       2.780 -23.451 -10.832  1.00  0.00     0.014 C 
ENDROOT
BRANCH   1  27
ATOM     27  C   UNL     1       3.233 -18.368  -6.057  1.00  0.00     0.048 C 
ATOM     28  O   UNL     1       3.669 -18.312  -4.875  1.00  0.00    -0.550 OA
ATOM     29  O   UNL     1       2.386 -19.418  -6.390  1.00  0.00    -0.550 OA
ENDBRANCH   1  27
BRANCH   7  30
ATOM     30  C   UNL     1       6.807 -15.422  -6.092  1.00  0.00    -0.077 C 
ATOM     31  C   UNL     1       6.863 -13.990  -5.621  1.00  0.00     0.039 C 
ATOM     32  C   UNL     1       7.877 -15.928  -6.724  1.00  0.00     0.008 C 
ENDBRANCH   7  30
BRANCH  24  33
ATOM     33  O   UNL     1       1.875 -24.720  -8.302  1.00  0.00    -0.393 OA
ATOM     34  H   UNL     1       1.503 -24.781  -7.384  1.00  0.00     0.210 HD
ENDBRANCH  24  33
TORSDOF 3
ENDMDL
MODEL 2
REMARK VINA RESULT:    -4.275      1.908      6.986
REMARK INTER + INTRA:          -4.422
REMARK INTER:                  -4.717
REMARK INTRA:                   0.295
REMARK UNBOUND:                 0.477
REMARK SMILES C=C(C)[C@H]1CC[C@@]2(C(=O)[O-])CC[C@@]3(C)[C@H](CC[C@H]4[C@@]5(C)CC[C@H](O)C(C)(C)[C@@H]5CC[C@]43C)[C@H]12
REMARK SMILES IDX 7 1 6 2 33 3 11 4 5 5 15 6 4 7 12 8 16 9 13 10 17 11 31 12
REMARK SMILES IDX 14 13 18 14 30 15 32 16 19 17 29 18 21 19 20 20 28 21 22 22
REMARK SMILES IDX 25 23 23 24 26 25 27 26 8 27 9 28 10 29 2 30 3 31 1 32 24 33
REMARK H PARENT 24 34
REMARK Flexibility Score: inf
ROOT
ATOM      1  C   UNL     1       2.782 -22.423 -10.165  1.00  0.00     0.014 C 
ATOM      2  C   UNL     1       1.875 -23.475 -10.824  1.00  0.00     0.014 C 
ATOM      3  C   UNL     1       4.169 -22.998 -10.503  1.00  0.00     0.012 C 
ATOM      4  C   UNL     1       2.682 -22.348  -8.621  1.00  0.00     0.014 C 
ATOM      5  C   UNL     1       2.612 -23.895 -12.119  1.00  0.00     0.009 C 
ATOM      6  C   UNL     1       5.393 -22.189  -9.975  1.00  0.00     0.000 C 
ATOM      7  C   UNL     1       4.089 -23.448 -11.963  1.00  0.00     0.018 C 
ATOM      8  C   UNL     1       3.873 -21.542  -8.014  1.00  0.00     0.008 C 
ATOM      9  C   UNL     1       5.565 -20.836 -10.703  1.00  0.00     0.005 C 
ATOM     10  C   UNL     1       5.321 -22.052  -8.393  1.00  0.00    -0.024 C 
ATOM     11  C   UNL     1       6.768 -20.046 -10.219  1.00  0.00     0.005 C 
ATOM     12  C   UNL     1       6.536 -21.111  -7.843  1.00  0.00    -0.024 C 
ATOM     13  C   UNL     1       5.479 -23.475  -7.743  1.00  0.00     0.012 C 
ATOM     14  C   UNL     1       6.740 -19.772  -8.696  1.00  0.00     0.002 C 
ATOM     15  C   UNL     1       6.422 -20.805  -6.289  1.00  0.00     0.008 C 
ATOM     16  C   UNL     1       7.889 -21.918  -7.978  1.00  0.00     0.012 C 
ATOM     17  C   UNL     1       6.070 -18.374  -8.233  1.00  0.00    -0.026 C 
ATOM     18  C   UNL     1       6.452 -19.321  -5.897  1.00  0.00     0.005 C 
ATOM     19  C   UNL     1       4.913 -17.860  -9.151  1.00  0.00     0.010 C 
ATOM     20  C   UNL     1       7.213 -17.298  -8.303  1.00  0.00     0.012 C 
ATOM     21  C   UNL     1       5.476 -18.537  -6.791  1.00  0.00     0.003 C 
ATOM     22  C   UNL     1       4.220 -16.586  -8.620  1.00  0.00     0.033 C 
ATOM     23  C   UNL     1       4.771 -17.275  -6.154  1.00  0.00    -0.006 C 
ATOM     24  C   UNL     1       3.701 -16.752  -7.177  1.00  0.00     0.120 C 
ATOM     25  C   UNL     1       5.770 -16.166  -5.727  1.00  0.00     0.014 C 
ATOM     26  C   UNL     1       3.993 -17.705  -4.875  1.00  0.00     0.014 C 
ENDROOT
BRANCH   1  27
ATOM     27  C   UNL     1       2.429 -21.070 -10.798  1.00  0.00     0.048 C 
ATOM     28  O   UNL     1       2.600 -20.871 -12.031  1.00  0.00    -0.550 OA
ATOM     29  O   UNL     1       2.002 -20.002 -10.018  1.00  0.00    -0.550 OA
ENDBRANCH   1  27
BRANCH   7  30
ATOM     30  C   UNL     1       5.098 -24.543 -12.302  1.00  0.00    -0.077 C 
ATOM     31  C   UNL     1       5.277 -25.047 -13.713  1.00  0.00     0.039 C 
ATOM     32  C   UNL     1       5.806 -25.125 -11.322  1.00  0.00     0.008 C 
ENDBRANCH   7  30
BRANCH  24  33
ATOM     33  O   UNL     1       3.081 -15.570  -6.729  1.00  0.00    -0.393 OA
ATOM     34  H   UNL     1       3.721 -15.085  -6.146  1.00  0.00     0.210 HD
ENDBRANCH  24  33
TORSDOF 3
ENDMDL
MODEL 3
REMARK VINA RESULT:    -4.080      2.339      4.337
REMARK INTER + INTRA:          -4.200
REMARK INTER:                  -4.906
REMARK INTRA:                   0.706
REMARK UNBOUND:                 0.477
REMARK SMILES C=C(C)[C@H]1CC[C@@]2(C(=O)[O-])CC[C@@]3(C)[C@H](CC[C@H]4[C@@]5(C)CC[C@H](O)C(C)(C)[C@@H]5CC[C@]43C)[C@H]12
REMARK SMILES IDX 7 1 6 2 33 3 11 4 5 5 15 6 4 7 12 8 16 9 13 10 17 11 31 12
REMARK SMILES IDX 14 13 18 14 30 15 32 16 19 17 29 18 21 19 20 20 28 21 22 22
REMARK SMILES IDX 25 23 23 24 26 25 27 26 8 27 9 28 10 29 2 30 3 31 1 32 24 33
REMARK H PARENT 24 34
REMARK Flexibility Score: inf
ROOT
ATOM      1  C   UNL     1       5.331 -16.862  -5.930  1.00  0.00     0.014 C 
ATOM      2  C   UNL     1       5.299 -15.433  -5.364  1.00  0.00     0.014 C 
ATOM      3  C   UNL     1       4.035 -16.863  -6.761  1.00  0.00     0.012 C 
ATOM      4  C   UNL     1       5.199 -17.988  -4.875  1.00  0.00     0.014 C 
ATOM      5  C   UNL     1       4.713 -14.558  -6.498  1.00  0.00     0.009 C 
ATOM      6  C   UNL     1       3.700 -18.192  -7.506  1.00  0.00     0.000 C 
ATOM      7  C   UNL     1       4.007 -15.519  -7.490  1.00  0.00     0.018 C 
ATOM      8  C   UNL     1       4.871 -19.359  -5.545  1.00  0.00     0.008 C 
ATOM      9  C   UNL     1       4.673 -18.477  -8.672  1.00  0.00     0.005 C 
ATOM     10  C   UNL     1       3.587 -19.391  -6.467  1.00  0.00    -0.024 C 
ATOM     11  C   UNL     1       4.346 -19.755  -9.425  1.00  0.00     0.005 C 
ATOM     12  C   UNL     1       3.348 -20.804  -7.248  1.00  0.00    -0.024 C 
ATOM     13  C   UNL     1       2.353 -19.144  -5.526  1.00  0.00     0.012 C 
ATOM     14  C   UNL     1       4.311 -21.003  -8.512  1.00  0.00     0.002 C 
ATOM     15  C   UNL     1       3.389 -22.059  -6.276  1.00  0.00     0.008 C 
ATOM     16  C   UNL     1       1.875 -20.811  -7.824  1.00  0.00     0.012 C 
ATOM     17  C   UNL     1       5.691 -21.839  -8.390  1.00  0.00    -0.026 C 
ATOM     18  C   UNL     1       4.369 -23.174  -6.667  1.00  0.00     0.005 C 
ATOM     19  C   UNL     1       6.994 -20.983  -8.509  1.00  0.00     0.010 C 
ATOM     20  C   UNL     1       5.700 -22.846  -9.596  1.00  0.00     0.012 C 
ATOM     21  C   UNL     1       5.739 -22.558  -6.997  1.00  0.00     0.003 C 
ATOM     22  C   UNL     1       8.289 -21.789  -8.275  1.00  0.00     0.033 C 
ATOM     23  C   UNL     1       7.017 -23.430  -6.679  1.00  0.00    -0.006 C 
ATOM     24  C   UNL     1       8.285 -22.538  -6.927  1.00  0.00     0.120 C 
ATOM     25  C   UNL     1       7.066 -24.759  -7.481  1.00  0.00     0.014 C 
ATOM     26  C   UNL     1       7.025 -23.809  -5.168  1.00  0.00     0.014 C 
ENDROOT
BRANCH   1  27
ATOM     27  C   UNL     1       6.645 -17.003  -6.712  1.00  0.00     0.048 C 
ATOM     28  O   UNL     1       6.990 -18.115  -7.197  1.00  0.00    -0.550 OA
ATOM     29  O   UNL     1       7.530 -15.939  -6.828  1.00  0.00    -0.550 OA
ENDBRANCH   1  27
BRANCH   7  30
ATOM     30  C   UNL     1       2.594 -15.079  -7.868  1.00  0.00    -0.077 C 
ATOM     31  C   UNL     1       1.887 -13.965  -7.134  1.00  0.00     0.039 C 
ATOM     32  C   UNL     1       1.928 -15.730  -8.833  1.00  0.00     0.008 C 
ENDBRANCH   7  30
BRANCH  24  33
ATOM     33  O   UNL     1       9.479 -23.264  -6.753  1.00  0.00    -0.393 OA
ATOM     34  H   UNL     1      10.236 -22.689  -7.036  1.00  0.00     0.210 HD
ENDBRANCH  24  33
TORSDOF 3
ENDMDL
MODEL 4
REMARK VINA RESULT:    -3.345     10.591     13.640
REMARK INTER + INTRA:          -3.357
REMARK INTER:                  -3.665
REMARK INTRA:                   0.308
REMARK UNBOUND:                 0.477
REMARK SMILES C=C(C)[C@H]1CC[C@@]2(C(=O)[O-])CC[C@@]3(C)[C@H](CC[C@H]4[C@@]5(C)CC[C@H](O)C(C)(C)[C@@H]5CC[C@]43C)[C@H]12
REMARK SMILES IDX 7 1 6 2 33 3 11 4 5 5 15 6 4 7 12 8 16 9 13 10 17 11 31 12
REMARK SMILES IDX 14 13 18 14 30 15 32 16 19 17 29 18 21 19 20 20 28 21 22 22
REMARK SMILES IDX 25 23 23 24 26 25 27 26 8 27 9 28 10 29 2 30 3 31 1 32 24 33
REMARK H PARENT 24 34
REMARK Flexibility Score: inf
ROOT
ATOM      1  C   UNL     1       6.463  -8.585 -14.903  1.00  0.00     0.014 C 
ATOM      2  C   UNL     1       6.702  -8.789 -16.408  1.00  0.00     0.014 C 
ATOM      3  C   UNL     1       7.791  -9.116 -14.333  1.00  0.00     0.012 C 
ATOM      4  C   UNL     1       5.328  -9.446 -14.298  1.00  0.00     0.014 C 
ATOM      5  C   UNL     1       8.203  -8.479 -16.628  1.00  0.00     0.009 C 
ATOM      6  C   UNL     1       7.931  -9.084 -12.780  1.00  0.00     0.000 C 
ATOM      7  C   UNL     1       8.887  -8.553 -15.238  1.00  0.00     0.018 C 
ATOM      8  C   UNL     1       5.394  -9.458 -12.738  1.00  0.00     0.008 C 
ATOM      9  C   UNL     1       8.049  -7.646 -12.227  1.00  0.00     0.005 C 
ATOM     10  C   UNL     1       6.765  -9.929 -12.106  1.00  0.00    -0.024 C 
ATOM     11  C   UNL     1       8.212  -7.598 -10.718  1.00  0.00     0.005 C 
ATOM     12  C   UNL     1       6.838  -9.808 -10.479  1.00  0.00    -0.024 C 
ATOM     13  C   UNL     1       6.937 -11.444 -12.486  1.00  0.00     0.012 C 
ATOM     14  C   UNL     1       7.066  -8.310  -9.962  1.00  0.00     0.002 C 
ATOM     15  C   UNL     1       5.603 -10.497  -9.755  1.00  0.00     0.008 C 
ATOM     16  C   UNL     1       8.089 -10.633  -9.975  1.00  0.00     0.012 C 
ATOM     17  C   UNL     1       5.821  -7.382  -9.510  1.00  0.00    -0.026 C 
ATOM     18  C   UNL     1       4.826  -9.610  -8.773  1.00  0.00     0.005 C 
ATOM     19  C   UNL     1       5.513  -6.181 -10.463  1.00  0.00     0.010 C 
ATOM     20  C   UNL     1       6.218  -6.766  -8.120  1.00  0.00     0.012 C 
ATOM     21  C   UNL     1       4.522  -8.257  -9.438  1.00  0.00     0.003 C 
ATOM     22  C   UNL     1       4.252  -5.383 -10.067  1.00  0.00     0.033 C 
ATOM     23  C   UNL     1       3.184  -7.530  -9.014  1.00  0.00    -0.006 C 
ATOM     24  C   UNL     1       3.001  -6.277  -9.941  1.00  0.00     0.120 C 
ATOM     25  C   UNL     1       3.141  -7.160  -7.507  1.00  0.00     0.014 C 
ATOM     26  C   UNL     1       1.973  -8.470  -9.288  1.00  0.00     0.014 C 
ENDROOT
BRANCH   1  27
ATOM     27  C   UNL     1       6.179  -7.090 -14.696  1.00  0.00     0.048 C 
ATOM     28  O   UNL     1       5.627  -6.679 -13.639  1.00  0.00    -0.550 OA
ATOM     29  O   UNL     1       6.436  -6.164 -15.699  1.00  0.00    -0.550 OA
ENDBRANCH   1  27
BRANCH   7  30
ATOM     30  C   UNL     1      10.159  -9.399 -15.226  1.00  0.00    -0.077 C 
ATOM     31  C   UNL     1      10.117 -10.889 -14.992  1.00  0.00     0.039 C 
ATOM     32  C   UNL     1      11.355  -8.807 -15.365  1.00  0.00     0.008 C 
ENDBRANCH   7  30
BRANCH  24  33
ATOM     33  O   UNL     1       1.875  -5.514  -9.575  1.00  0.00    -0.393 OA
ATOM     34  H   UNL     1       1.263  -5.471 -10.354  1.00  0.00     0.210 HD
ENDBRANCH  24  33
TORSDOF 3
ENDMDL
MODEL 5
REMARK VINA RESULT:    -3.216      9.048     13.065
REMARK INTER + INTRA:          -3.209
REMARK INTER:                  -3.330
REMARK INTRA:                   0.122
REMARK UNBOUND:                 0.477
REMARK SMILES C=C(C)[C@H]1CC[C@@]2(C(=O)[O-])CC[C@@]3(C)[C@H](CC[C@H]4[C@@]5(C)CC[C@H](O)C(C)(C)[C@@H]5CC[C@]43C)[C@H]12
REMARK SMILES IDX 7 1 6 2 33 3 11 4 5 5 15 6 4 7 12 8 16 9 13 10 17 11 31 12
REMARK SMILES IDX 14 13 18 14 30 15 32 16 19 17 29 18 21 19 20 20 28 21 22 22
REMARK SMILES IDX 25 23 23 24 26 25 27 26 8 27 9 28 10 29 2 30 3 31 1 32 24 33
REMARK H PARENT 24 34
REMARK Flexibility Score: inf
ROOT
ATOM      1  C   UNL     1       6.504  -8.571 -13.317  1.00  0.00     0.014 C 
ATOM      2  C   UNL     1       6.919  -8.523 -14.797  1.00  0.00     0.014 C 
ATOM      3  C   UNL     1       5.451  -7.449 -13.286  1.00  0.00     0.012 C 
ATOM      4  C   UNL     1       7.616  -8.182 -12.312  1.00  0.00     0.014 C 
ATOM      5  C   UNL     1       5.620  -8.205 -15.575  1.00  0.00     0.009 C 
ATOM      6  C   UNL     1       4.783  -7.174 -11.903  1.00  0.00     0.000 C 
ATOM      7  C   UNL     1       4.608  -7.633 -14.548  1.00  0.00     0.018 C 
ATOM      8  C   UNL     1       7.027  -7.899 -10.895  1.00  0.00     0.008 C 
ATOM      9  C   UNL     1       3.850  -8.323 -11.460  1.00  0.00     0.005 C 
ATOM     10  C   UNL     1       5.890  -6.803 -10.823  1.00  0.00    -0.024 C 
ATOM     11  C   UNL     1       3.172  -8.061 -10.126  1.00  0.00     0.005 C 
ATOM     12  C   UNL     1       5.212  -6.625  -9.348  1.00  0.00    -0.024 C 
ATOM     13  C   UNL     1       6.558  -5.436 -11.216  1.00  0.00     0.012 C 
ATOM     14  C   UNL     1       4.174  -7.787  -8.981  1.00  0.00     0.002 C 
ATOM     15  C   UNL     1       6.288  -6.414  -8.199  1.00  0.00     0.008 C 
ATOM     16  C   UNL     1       4.376  -5.283  -9.344  1.00  0.00     0.012 C 
ATOM     17  C   UNL     1       4.628  -9.069  -8.104  1.00  0.00    -0.026 C 
ATOM     18  C   UNL     1       6.191  -7.379  -7.009  1.00  0.00     0.005 C 
ATOM     19  C   UNL     1       4.673 -10.421  -8.888  1.00  0.00     0.010 C 
ATOM     20  C   UNL     1       3.543  -9.234  -6.980  1.00  0.00     0.012 C 
ATOM     21  C   UNL     1       6.066  -8.821  -7.531  1.00  0.00     0.003 C 
ATOM     22  C   UNL     1       5.218 -11.602  -8.056  1.00  0.00     0.033 C 
ATOM     23  C   UNL     1       6.695  -9.965  -6.642  1.00  0.00    -0.006 C 
ATOM     24  C   UNL     1       6.606 -11.308  -7.450  1.00  0.00     0.120 C 
ATOM     25  C   UNL     1       6.043 -10.078  -5.237  1.00  0.00     0.014 C 
ATOM     26  C   UNL     1       8.210  -9.677  -6.420  1.00  0.00     0.014 C 
ENDROOT
BRANCH   1  27
ATOM     27  C   UNL     1       5.997  -9.993 -13.041  1.00  0.00     0.048 C 
ATOM     28  O   UNL     1       6.099 -10.502 -11.892  1.00  0.00    -0.550 OA
ATOM     29  O   UNL     1       5.498 -10.789 -14.066  1.00  0.00    -0.550 OA
ENDBRANCH   1  27
BRANCH   7  30
ATOM     30  C   UNL     1       3.935  -6.341 -15.007  1.00  0.00    -0.077 C 
ATOM     31  C   UNL     1       4.647  -5.012 -14.947  1.00  0.00     0.039 C 
ATOM     32  C   UNL     1       2.658  -6.363 -15.418  1.00  0.00     0.008 C 
ENDBRANCH   7  30
BRANCH  24  33
ATOM     33  O   UNL     1       7.065 -12.405  -6.696  1.00  0.00    -0.393 OA
ATOM     34  H   UNL     1       8.055 -12.428  -6.751  1.00  0.00     0.210 HD
ENDBRANCH  24  33
TORSDOF 3
ENDMDL
MODEL 6
REMARK VINA RESULT:    -2.257     10.764     13.832
REMARK INTER + INTRA:          -2.110
REMARK INTER:                  -2.040
REMARK INTRA:                  -0.070
REMARK UNBOUND:                 0.477
REMARK SMILES C=C(C)[C@H]1CC[C@@]2(C(=O)[O-])CC[C@@]3(C)[C@H](CC[C@H]4[C@@]5(C)CC[C@H](O)C(C)(C)[C@@H]5CC[C@]43C)[C@H]12
REMARK SMILES IDX 7 1 6 2 33 3 11 4 5 5 15 6 4 7 12 8 16 9 13 10 17 11 31 12
REMARK SMILES IDX 14 13 18 14 30 15 32 16 19 17 29 18 21 19 20 20 28 21 22 22
REMARK SMILES IDX 25 23 23 24 26 25 27 26 8 27 9 28 10 29 2 30 3 31 1 32 24 33
REMARK H PARENT 24 34
REMARK Flexibility Score: inf
ROOT
ATOM      1  C   UNL     1       6.943  -6.406  -9.699  1.00  0.00     0.014 C 
ATOM      2  C   UNL     1       7.149  -5.836  -8.286  1.00  0.00     0.014 C 
ATOM      3  C   UNL     1       6.376  -7.797  -9.359  1.00  0.00     0.012 C 
ATOM      4  C   UNL     1       8.241  -6.627 -10.512  1.00  0.00     0.014 C 
ATOM      5  C   UNL     1       5.961  -6.372  -7.452  1.00  0.00     0.009 C 
ATOM      6  C   UNL     1       6.040  -8.715 -10.575  1.00  0.00     0.000 C 
ATOM      7  C   UNL     1       5.365  -7.572  -8.234  1.00  0.00     0.018 C 
ATOM      8  C   UNL     1       7.985  -7.533 -11.757  1.00  0.00     0.008 C 
ATOM      9  C   UNL     1       4.822  -8.206 -11.379  1.00  0.00     0.005 C 
ATOM     10  C   UNL     1       7.337  -8.946 -11.465  1.00  0.00    -0.024 C 
ATOM     11  C   UNL     1       4.465  -9.102 -12.552  1.00  0.00     0.005 C 
ATOM     12  C   UNL     1       6.969  -9.811 -12.799  1.00  0.00    -0.024 C 
ATOM     13  C   UNL     1       8.394  -9.761 -10.636  1.00  0.00     0.012 C 
ATOM     14  C   UNL     1       5.640  -9.308 -13.537  1.00  0.00     0.002 C 
ATOM     15  C   UNL     1       8.189  -9.936 -13.808  1.00  0.00     0.008 C 
ATOM     16  C   UNL     1       6.679 -11.303 -12.360  1.00  0.00     0.012 C 
ATOM     17  C   UNL     1       5.713  -8.285 -14.788  1.00  0.00    -0.026 C 
ATOM     18  C   UNL     1       7.909  -9.495 -15.251  1.00  0.00     0.005 C 
ATOM     19  C   UNL     1       5.166  -6.849 -14.499  1.00  0.00     0.010 C 
ATOM     20  C   UNL     1       4.799  -8.900 -15.908  1.00  0.00     0.012 C 
ATOM     21  C   UNL     1       7.206  -8.127 -15.241  1.00  0.00     0.003 C 
ATOM     22  C   UNL     1       5.355  -5.866 -15.675  1.00  0.00     0.033 C 
ATOM     23  C   UNL     1       7.493  -7.160 -16.457  1.00  0.00    -0.006 C 
ATOM     24  C   UNL     1       6.822  -5.777 -16.142  1.00  0.00     0.120 C 
ATOM     25  C   UNL     1       7.034  -7.741 -17.822  1.00  0.00     0.014 C 
ATOM     26  C   UNL     1       9.025  -6.900 -16.564  1.00  0.00     0.014 C 
ENDROOT
BRANCH   1  27
ATOM     27  C   UNL     1       5.998  -5.445 -10.435  1.00  0.00     0.048 C 
ATOM     28  O   UNL     1       6.357  -4.882 -11.505  1.00  0.00    -0.550 OA
ATOM     29  O   UNL     1       4.765  -5.097  -9.897  1.00  0.00    -0.550 OA
ENDBRANCH   1  27
BRANCH   7  30
ATOM     30  C   UNL     1       5.148  -8.815  -7.374  1.00  0.00    -0.077 C 
ATOM     31  C   UNL     1       6.305  -9.650  -6.880  1.00  0.00     0.039 C 
ATOM     32  C   UNL     1       3.901  -9.224  -7.095  1.00  0.00     0.008 C 
ENDBRANCH   7  30
BRANCH  24  33
ATOM     33  O   UNL     1       6.951  -4.875 -17.217  1.00  0.00    -0.393 OA
ATOM     34  H   UNL     1       6.059  -4.764 -17.638  1.00  0.00     0.210 HD
ENDBRANCH  24  33
TORSDOF 3
ENDMDL
MODEL 7
REMARK VINA RESULT:    -2.194     10.700     14.212
REMARK INTER + INTRA:          -2.037
REMARK INTER:                  -2.177
REMARK INTRA:                   0.140
REMARK UNBOUND:                 0.477
REMARK SMILES C=C(C)[C@H]1CC[C@@]2(C(=O)[O-])CC[C@@]3(C)[C@H](CC[C@H]4[C@@]5(C)CC[C@H](O)C(C)(C)[C@@H]5CC[C@]43C)[C@H]12
REMARK SMILES IDX 7 1 6 2 33 3 11 4 5 5 15 6 4 7 12 8 16 9 13 10 17 11 31 12
REMARK SMILES IDX 14 13 18 14 30 15 32 16 19 17 29 18 21 19 20 20 28 21 22 22
REMARK SMILES IDX 25 23 23 24 26 25 27 26 8 27 9 28 10 29 2 30 3 31 1 32 24 33
REMARK H PARENT 24 34
REMARK Flexibility Score: inf
ROOT
ATOM      1  C   UNL     1       4.233  -6.905 -15.598  1.00  0.00     0.014 C 
ATOM      2  C   UNL     1       3.403  -6.363 -16.773  1.00  0.00     0.014 C 
ATOM      3  C   UNL     1       5.289  -7.728 -16.359  1.00  0.00     0.012 C 
ATOM      4  C   UNL     1       3.481  -7.880 -14.659  1.00  0.00     0.014 C 
ATOM      5  C   UNL     1       4.426  -6.078 -17.899  1.00  0.00     0.009 C 
ATOM      6  C   UNL     1       6.344  -8.468 -15.480  1.00  0.00     0.000 C 
ATOM      7  C   UNL     1       5.715  -6.864 -17.546  1.00  0.00     0.018 C 
ATOM      8  C   UNL     1       4.472  -8.657 -13.736  1.00  0.00     0.008 C 
ATOM      9  C   UNL     1       7.324  -7.494 -14.789  1.00  0.00     0.005 C 
ATOM     10  C   UNL     1       5.619  -9.461 -14.471  1.00  0.00    -0.024 C 
ATOM     11  C   UNL     1       8.374  -8.200 -13.949  1.00  0.00     0.005 C 
ATOM     12  C   UNL     1       6.707 -10.155 -13.471  1.00  0.00    -0.024 C 
ATOM     13  C   UNL     1       4.914 -10.604 -15.287  1.00  0.00     0.012 C 
ATOM     14  C   UNL     1       7.765  -9.118 -12.863  1.00  0.00     0.002 C 
ATOM     15  C   UNL     1       6.026 -11.032 -12.335  1.00  0.00     0.008 C 
ATOM     16  C   UNL     1       7.554 -11.197 -14.305  1.00  0.00     0.012 C 
ATOM     17  C   UNL     1       7.544  -8.454 -11.405  1.00  0.00    -0.026 C 
ATOM     18  C   UNL     1       6.434 -10.692 -10.895  1.00  0.00     0.005 C 
ATOM     19  C   UNL     1       7.221  -6.925 -11.419  1.00  0.00     0.010 C 
ATOM     20  C   UNL     1       8.905  -8.622 -10.638  1.00  0.00     0.012 C 
ATOM     21  C   UNL     1       6.349  -9.170 -10.685  1.00  0.00     0.003 C 
ATOM     22  C   UNL     1       6.904  -6.346 -10.023  1.00  0.00     0.033 C 
ATOM     23  C   UNL     1       5.968  -8.663  -9.239  1.00  0.00    -0.006 C 
ATOM     24  C   UNL     1       5.767  -7.108  -9.310  1.00  0.00     0.120 C 
ATOM     25  C   UNL     1       7.001  -9.074  -8.155  1.00  0.00     0.014 C 
ATOM     26  C   UNL     1       4.598  -9.272  -8.818  1.00  0.00     0.014 C 
ENDROOT
BRANCH   1  27
ATOM     27  C   UNL     1       4.748  -5.688 -14.816  1.00  0.00     0.048 C 
ATOM     28  O   UNL     1       4.214  -5.350 -13.725  1.00  0.00    -0.550 OA
ATOM     29  O   UNL     1       5.750  -4.875 -15.331  1.00  0.00    -0.550 OA
ENDBRANCH   1  27
BRANCH   7  30
ATOM     30  C   UNL     1       6.269  -7.684 -18.709  1.00  0.00    -0.077 C 
ATOM     31  C   UNL     1       7.066  -7.048 -19.821  1.00  0.00     0.039 C 
ATOM     32  C   UNL     1       5.995  -8.996 -18.790  1.00  0.00     0.008 C 
ENDBRANCH   7  30
BRANCH  24  33
ATOM     33  O   UNL     1       5.512  -6.553  -8.041  1.00  0.00    -0.393 OA
ATOM     34  H   UNL     1       6.351  -6.143  -7.707  1.00  0.00     0.210 HD
ENDBRANCH  24  33
TORSDOF 3
ENDMDL
