MODEL 1
REMARK VINA RESULT:    -3.578      0.000      0.000
REMARK INTER + INTRA:          -7.062
REMARK INTER:                  -6.507
REMARK INTRA:                  -0.556
REMARK UNBOUND:                -0.556
REMARK SMILES CCCCCCCCCCCCCC[C@@H](C)C(=O)[O-]
REMARK SMILES IDX 9 1 10 2 11 3 12 4 13 5 14 6 15 7 16 8 17 9 18 10 19 11 8 12
REMARK SMILES IDX 7 13 6 14 5 15 4 16 3 17 2 18 1 19
REMARK H PARENT
REMARK Flexibility Score: inf
ROOT
ATOM      1  C   UNL     1      -3.140   4.931  -1.769  1.00  0.00     0.000 C 
ENDROOT
BRANCH   1   2
ATOM      2  C   UNL     1      -3.564   4.864  -3.244  1.00  0.00     0.000 C 
BRANCH   2   3
ATOM      3  C   UNL     1      -4.858   5.646  -3.533  1.00  0.00     0.000 C 
BRANCH   3   4
ATOM      4  C   UNL     1      -5.280   5.680  -5.013  1.00  0.00     0.000 C 
BRANCH   4   5
ATOM      5  C   UNL     1      -6.662   6.314  -5.229  1.00  0.00     0.001 C 
BRANCH   5   6
ATOM      6  C   UNL     1      -7.037   6.321  -6.720  1.00  0.00     0.009 C 
BRANCH   6   7
ATOM      7  C   UNL     1      -7.509   7.706  -7.210  1.00  0.00     0.032 C 
ATOM      8  C   UNL     1      -6.354   8.710  -7.325  1.00  0.00     0.014 C 
BRANCH   7   9
ATOM      9  C   UNL     1      -8.200   7.572  -8.541  1.00  0.00     0.044 C 
ATOM     10  O   UNL     1      -7.610   7.902  -9.604  1.00  0.00    -0.550 OA
ATOM     11  O   UNL     1      -9.498   7.083  -8.602  1.00  0.00    -0.550 OA
ENDBRANCH   7   9
ENDBRANCH   6   7
ENDBRANCH   5   6
ENDBRANCH   4   5
ENDBRANCH   3   4
ENDBRANCH   2   3
ENDBRANCH   1   2
BRANCH   1  12
ATOM     12  C   UNL     1      -2.765   3.542  -1.240  1.00  0.00     0.000 C 
BRANCH  12  13
ATOM     13  C   UNL     1      -3.429   3.272   0.119  1.00  0.00    -0.000 C 
BRANCH  13  14
ATOM     14  C   UNL     1      -3.945   1.831   0.252  1.00  0.00    -0.000 C 
BRANCH  14  15
ATOM     15  C   UNL     1      -3.094   0.824  -0.541  1.00  0.00    -0.000 C 
BRANCH  15  16
ATOM     16  C   UNL     1      -3.841  -0.490  -0.835  1.00  0.00    -0.000 C 
BRANCH  16  17
ATOM     17  C   UNL     1      -3.486  -1.157  -2.177  1.00  0.00    -0.000 C 
BRANCH  17  18
ATOM     18  C   UNL     1      -4.059  -2.574  -2.312  1.00  0.00    -0.003 C 
ATOM     19  C   UNL     1      -3.719  -3.424  -1.090  1.00  0.00     0.004 C 
ENDBRANCH  17  18
ENDBRANCH  16  17
ENDBRANCH  15  16
ENDBRANCH  14  15
ENDBRANCH  13  14
ENDBRANCH  12  13
ENDBRANCH   1  12
TORSDOF 14
ENDMDL
MODEL 2
REMARK VINA RESULT:    -3.531      1.149      1.468
REMARK INTER + INTRA:          -6.977
REMARK INTER:                  -6.522
REMARK INTRA:                  -0.454
REMARK UNBOUND:                -0.556
REMARK SMILES CCCCCCCCCCCCCC[C@@H](C)C(=O)[O-]
REMARK SMILES IDX 9 1 10 2 11 3 12 4 13 5 14 6 15 7 16 8 17 9 18 10 19 11 8 12
REMARK SMILES IDX 7 13 6 14 5 15 4 16 3 17 2 18 1 19
REMARK H PARENT
REMARK Flexibility Score: inf
ROOT
ATOM      1  C   UNL     1      -2.954   4.280  -1.953  1.00  0.00     0.000 C 
ENDROOT
BRANCH   1   2
ATOM      2  C   UNL     1      -3.964   5.367  -2.349  1.00  0.00     0.000 C 
BRANCH   2   3
ATOM      3  C   UNL     1      -4.414   5.261  -3.818  1.00  0.00     0.000 C 
BRANCH   3   4
ATOM      4  C   UNL     1      -5.658   6.094  -4.177  1.00  0.00     0.000 C 
BRANCH   4   5
ATOM      5  C   UNL     1      -6.210   5.777  -5.575  1.00  0.00     0.001 C 
BRANCH   5   6
ATOM      6  C   UNL     1      -6.923   6.999  -6.174  1.00  0.00     0.009 C 
BRANCH   6   7
ATOM      7  C   UNL     1      -6.999   6.949  -7.715  1.00  0.00     0.032 C 
ATOM      8  C   UNL     1      -8.385   6.524  -8.219  1.00  0.00     0.014 C 
BRANCH   7   9
ATOM      9  C   UNL     1      -6.639   8.293  -8.291  1.00  0.00     0.044 C 
ATOM     10  O   UNL     1      -6.572   8.457  -9.538  1.00  0.00    -0.550 OA
ATOM     11  O   UNL     1      -6.376   9.362  -7.444  1.00  0.00    -0.550 OA
ENDBRANCH   7   9
ENDBRANCH   6   7
ENDBRANCH   5   6
ENDBRANCH   4   5
ENDBRANCH   3   4
ENDBRANCH   2   3
ENDBRANCH   1   2
BRANCH   1  12
ATOM     12  C   UNL     1      -3.092   3.913  -0.470  1.00  0.00     0.000 C 
BRANCH  12  13
ATOM     13  C   UNL     1      -2.519   2.516  -0.192  1.00  0.00    -0.000 C 
BRANCH  13  14
ATOM     14  C   UNL     1      -3.579   1.408  -0.292  1.00  0.00    -0.000 C 
BRANCH  14  15
ATOM     15  C   UNL     1      -2.981   0.055  -0.713  1.00  0.00    -0.000 C 
BRANCH  15  16
ATOM     16  C   UNL     1      -4.052  -0.972  -1.124  1.00  0.00    -0.000 C 
BRANCH  16  17
ATOM     17  C   UNL     1      -3.802  -1.675  -2.471  1.00  0.00    -0.000 C 
BRANCH  17  18
ATOM     18  C   UNL     1      -3.790  -3.205  -2.355  1.00  0.00    -0.003 C 
ATOM     19  C   UNL     1      -3.771  -3.646  -0.894  1.00  0.00     0.004 C 
ENDBRANCH  17  18
ENDBRANCH  16  17
ENDBRANCH  15  16
ENDBRANCH  14  15
ENDBRANCH  13  14
ENDBRANCH  12  13
ENDBRANCH   1  12
TORSDOF 14
ENDMDL
MODEL 3
REMARK VINA RESULT:    -3.204      1.417      2.371
REMARK INTER + INTRA:          -6.382
REMARK INTER:                  -5.541
REMARK INTRA:                  -0.841
REMARK UNBOUND:                -0.556
REMARK SMILES CCCCCCCCCCCCCC[C@@H](C)C(=O)[O-]
REMARK SMILES IDX 9 1 10 2 11 3 12 4 13 5 14 6 15 7 16 8 17 9 18 10 19 11 8 12
REMARK SMILES IDX 7 13 6 14 5 15 4 16 3 17 2 18 1 19
REMARK H PARENT
REMARK Flexibility Score: inf
ROOT
ATOM      1  C   UNL     1      -3.720   4.890  -3.775  1.00  0.00     0.000 C 
ENDROOT
BRANCH   1   2
ATOM      2  C   UNL     1      -4.995   5.616  -3.320  1.00  0.00     0.000 C 
BRANCH   2   3
ATOM      3  C   UNL     1      -5.667   6.416  -4.451  1.00  0.00     0.000 C 
BRANCH   3   4
ATOM      4  C   UNL     1      -6.408   5.564  -5.498  1.00  0.00     0.000 C 
BRANCH   4   5
ATOM      5  C   UNL     1      -7.395   6.380  -6.346  1.00  0.00     0.001 C 
BRANCH   5   6
ATOM      6  C   UNL     1      -6.883   6.536  -7.787  1.00  0.00     0.009 C 
BRANCH   6   7
ATOM      7  C   UNL     1      -7.479   7.768  -8.501  1.00  0.00     0.032 C 
ATOM      8  C   UNL     1      -8.972   7.597  -8.813  1.00  0.00     0.014 C 
BRANCH   7   9
ATOM      9  C   UNL     1      -7.273   8.999  -7.660  1.00  0.00     0.044 C 
ATOM     10  O   UNL     1      -6.117   9.469  -7.487  1.00  0.00    -0.550 OA
ATOM     11  O   UNL     1      -8.363   9.623  -7.066  1.00  0.00    -0.550 OA
ENDBRANCH   7   9
ENDBRANCH   6   7
ENDBRANCH   5   6
ENDBRANCH   4   5
ENDBRANCH   3   4
ENDBRANCH   2   3
ENDBRANCH   1   2
BRANCH   1  12
ATOM     12  C   UNL     1      -2.873   4.457  -2.572  1.00  0.00     0.000 C 
BRANCH  12  13
ATOM     13  C   UNL     1      -3.250   5.258  -1.317  1.00  0.00    -0.000 C 
BRANCH  13  14
ATOM     14  C   UNL     1      -2.940   4.503  -0.015  1.00  0.00    -0.000 C 
BRANCH  14  15
ATOM     15  C   UNL     1      -2.924   2.976  -0.208  1.00  0.00    -0.000 C 
BRANCH  15  16
ATOM     16  C   UNL     1      -3.990   2.254   0.635  1.00  0.00    -0.000 C 
BRANCH  16  17
ATOM     17  C   UNL     1      -4.306   0.814   0.196  1.00  0.00    -0.000 C 
BRANCH  17  18
ATOM     18  C   UNL     1      -3.236   0.221  -0.731  1.00  0.00    -0.003 C 
ATOM     19  C   UNL     1      -3.742  -1.045  -1.417  1.00  0.00     0.004 C 
ENDBRANCH  17  18
ENDBRANCH  16  17
ENDBRANCH  15  16
ENDBRANCH  14  15
ENDBRANCH  13  14
ENDBRANCH  12  13
ENDBRANCH   1  12
TORSDOF 14
ENDMDL
MODEL 4
REMARK VINA RESULT:    -3.105      4.819      9.242
REMARK INTER + INTRA:          -6.202
REMARK INTER:                  -5.415
REMARK INTRA:                  -0.787
REMARK UNBOUND:                -0.556
REMARK SMILES CCCCCCCCCCCCCC[C@@H](C)C(=O)[O-]
REMARK SMILES IDX 9 1 10 2 11 3 12 4 13 5 14 6 15 7 16 8 17 9 18 10 19 11 8 12
REMARK SMILES IDX 7 13 6 14 5 15 4 16 3 17 2 18 1 19
REMARK H PARENT
REMARK Flexibility Score: inf
ROOT
ATOM      1  C   UNL     1      -2.916   4.539  -0.001  1.00  0.00     0.000 C 
ENDROOT
BRANCH   1   2
ATOM      2  C   UNL     1      -3.035   3.018  -0.184  1.00  0.00     0.000 C 
BRANCH   2   3
ATOM      3  C   UNL     1      -4.104   2.385   0.725  1.00  0.00     0.000 C 
BRANCH   3   4
ATOM      4  C   UNL     1      -4.401   0.901   0.442  1.00  0.00     0.000 C 
BRANCH   4   5
ATOM      5  C   UNL     1      -3.807   0.413  -0.888  1.00  0.00     0.001 C 
BRANCH   5   6
ATOM      6  C   UNL     1      -3.343  -1.048  -0.779  1.00  0.00     0.009 C 
BRANCH   6   7
ATOM      7  C   UNL     1      -3.984  -1.959  -1.848  1.00  0.00     0.032 C 
ATOM      8  C   UNL     1      -3.306  -1.819  -3.218  1.00  0.00     0.014 C 
BRANCH   7   9
ATOM      9  C   UNL     1      -3.929  -3.395  -1.399  1.00  0.00     0.044 C 
ATOM     10  O   UNL     1      -3.890  -4.328  -2.244  1.00  0.00    -0.550 OA
ATOM     11  O   UNL     1      -3.922  -3.697  -0.043  1.00  0.00    -0.550 OA
ENDBRANCH   7   9
ENDBRANCH   6   7
ENDBRANCH   5   6
ENDBRANCH   4   5
ENDBRANCH   3   4
ENDBRANCH   2   3
ENDBRANCH   1   2
BRANCH   1  12
ATOM     12  C   UNL     1      -3.321   5.281  -1.280  1.00  0.00     0.000 C 
BRANCH  12  13
ATOM     13  C   UNL     1      -2.934   4.476  -2.530  1.00  0.00    -0.000 C 
BRANCH  13  14
ATOM     14  C   UNL     1      -3.753   4.871  -3.768  1.00  0.00    -0.000 C 
BRANCH  14  15
ATOM     15  C   UNL     1      -4.975   5.738  -3.417  1.00  0.00    -0.000 C 
BRANCH  15  16
ATOM     16  C   UNL     1      -5.595   6.426  -4.646  1.00  0.00    -0.000 C 
BRANCH  16  17
ATOM     17  C   UNL     1      -6.794   5.691  -5.271  1.00  0.00    -0.000 C 
BRANCH  17  18
ATOM     18  C   UNL     1      -7.430   6.462  -6.436  1.00  0.00    -0.003 C 
ATOM     19  C   UNL     1      -6.871   5.993  -7.777  1.00  0.00     0.004 C 
ENDBRANCH  17  18
ENDBRANCH  16  17
ENDBRANCH  15  16
ENDBRANCH  14  15
ENDBRANCH  13  14
ENDBRANCH  12  13
ENDBRANCH   1  12
TORSDOF 14
ENDMDL
MODEL 5
REMARK VINA RESULT:    -2.974      4.765      9.594
REMARK INTER + INTRA:          -5.964
REMARK INTER:                  -5.345
REMARK INTRA:                  -0.620
REMARK UNBOUND:                -0.556
REMARK SMILES CCCCCCCCCCCCCC[C@@H](C)C(=O)[O-]
REMARK SMILES IDX 9 1 10 2 11 3 12 4 13 5 14 6 15 7 16 8 17 9 18 10 19 11 8 12
REMARK SMILES IDX 7 13 6 14 5 15 4 16 3 17 2 18 1 19
REMARK H PARENT
REMARK Flexibility Score: inf
ROOT
ATOM      1  C   UNL     1      -3.107   4.937  -1.258  1.00  0.00     0.000 C 
ENDROOT
BRANCH   1   2
ATOM      2  C   UNL     1      -3.329   4.003  -0.058  1.00  0.00     0.000 C 
BRANCH   2   3
ATOM      3  C   UNL     1      -2.638   2.638  -0.224  1.00  0.00     0.000 C 
BRANCH   3   4
ATOM      4  C   UNL     1      -3.558   1.417  -0.040  1.00  0.00     0.000 C 
BRANCH   4   5
ATOM      5  C   UNL     1      -3.219   0.261  -0.992  1.00  0.00     0.001 C 
BRANCH   5   6
ATOM      6  C   UNL     1      -4.034  -0.995  -0.643  1.00  0.00     0.009 C 
BRANCH   6   7
ATOM      7  C   UNL     1      -4.180  -1.962  -1.838  1.00  0.00     0.032 C 
ATOM      8  C   UNL     1      -3.220  -1.622  -2.986  1.00  0.00     0.014 C 
BRANCH   7   9
ATOM      9  C   UNL     1      -3.947  -3.378  -1.384  1.00  0.00     0.044 C 
ATOM     10  O   UNL     1      -3.879  -4.316  -2.222  1.00  0.00    -0.550 OA
ATOM     11  O   UNL     1      -3.808  -3.658  -0.030  1.00  0.00    -0.550 OA
ENDBRANCH   7   9
ENDBRANCH   6   7
ENDBRANCH   5   6
ENDBRANCH   4   5
ENDBRANCH   3   4
ENDBRANCH   2   3
ENDBRANCH   1   2
BRANCH   1  12
ATOM     12  C   UNL     1      -3.391   4.213  -2.579  1.00  0.00     0.000 C 
BRANCH  12  13
ATOM     13  C   UNL     1      -3.737   5.213  -3.692  1.00  0.00    -0.000 C 
BRANCH  13  14
ATOM     14  C   UNL     1      -5.225   5.597  -3.704  1.00  0.00    -0.000 C 
BRANCH  14  15
ATOM     15  C   UNL     1      -5.634   6.338  -4.989  1.00  0.00    -0.000 C 
BRANCH  15  16
ATOM     16  C   UNL     1      -7.004   5.890  -5.529  1.00  0.00    -0.000 C 
BRANCH  16  17
ATOM     17  C   UNL     1      -7.149   5.934  -7.061  1.00  0.00    -0.000 C 
BRANCH  17  18
ATOM     18  C   UNL     1      -7.153   7.363  -7.622  1.00  0.00    -0.003 C 
ATOM     19  C   UNL     1      -8.272   7.550  -8.643  1.00  0.00     0.004 C 
ENDBRANCH  17  18
ENDBRANCH  16  17
ENDBRANCH  15  16
ENDBRANCH  14  15
ENDBRANCH  13  14
ENDBRANCH  12  13
ENDBRANCH   1  12
TORSDOF 14
ENDMDL
MODEL 6
REMARK VINA RESULT:    -2.946      4.460      9.907
REMARK INTER + INTRA:          -5.913
REMARK INTER:                  -4.900
REMARK INTRA:                  -1.013
REMARK UNBOUND:                -0.556
REMARK SMILES CCCCCCCCCCCCCC[C@@H](C)C(=O)[O-]
REMARK SMILES IDX 9 1 10 2 11 3 12 4 13 5 14 6 15 7 16 8 17 9 18 10 19 11 8 12
REMARK SMILES IDX 7 13 6 14 5 15 4 16 3 17 2 18 1 19
REMARK H PARENT
REMARK Flexibility Score: inf
ROOT
ATOM      1  C   UNL     1      -5.577   6.416  -4.539  1.00  0.00     0.000 C 
ENDROOT
BRANCH   1   2
ATOM      2  C   UNL     1      -5.033   5.551  -3.391  1.00  0.00     0.000 C 
BRANCH   2   3
ATOM      3  C   UNL     1      -3.632   4.982  -3.680  1.00  0.00     0.000 C 
BRANCH   3   4
ATOM      4  C   UNL     1      -2.972   4.251  -2.497  1.00  0.00     0.000 C 
BRANCH   4   5
ATOM      5  C   UNL     1      -3.070   5.032  -1.178  1.00  0.00     0.001 C 
BRANCH   5   6
ATOM      6  C   UNL     1      -3.002   4.083   0.029  1.00  0.00     0.009 C 
BRANCH   6   7
ATOM      7  C   UNL     1      -2.794   2.609  -0.383  1.00  0.00     0.032 C 
ATOM      8  C   UNL     1      -1.423   2.070   0.047  1.00  0.00     0.014 C 
BRANCH   7   9
ATOM      9  C   UNL     1      -3.884   1.754   0.205  1.00  0.00     0.044 C 
ATOM     10  O   UNL     1      -4.558   2.162   1.188  1.00  0.00    -0.550 OA
ATOM     11  O   UNL     1      -4.151   0.502  -0.336  1.00  0.00    -0.550 OA
ENDBRANCH   7   9
ENDBRANCH   6   7
ENDBRANCH   5   6
ENDBRANCH   4   5
ENDBRANCH   3   4
ENDBRANCH   2   3
ENDBRANCH   1   2
BRANCH   1  12
ATOM     12  C   UNL     1      -6.541   5.615  -5.423  1.00  0.00     0.000 C 
BRANCH  12  13
ATOM     13  C   UNL     1      -7.397   6.550  -6.291  1.00  0.00    -0.000 C 
BRANCH  13  14
ATOM     14  C   UNL     1      -7.436   6.120  -7.765  1.00  0.00    -0.000 C 
BRANCH  14  15
ATOM     15  C   UNL     1      -8.509   6.873  -8.571  1.00  0.00    -0.000 C 
BRANCH  15  16
ATOM     16  C   UNL     1      -8.021   8.238  -9.089  1.00  0.00    -0.000 C 
BRANCH  16  17
ATOM     17  C   UNL     1      -8.567   9.460  -8.327  1.00  0.00    -0.000 C 
BRANCH  17  18
ATOM     18  C   UNL     1      -7.564  10.033  -7.316  1.00  0.00    -0.003 C 
ATOM     19  C   UNL     1      -6.127   9.763  -7.754  1.00  0.00     0.004 C 
ENDBRANCH  17  18
ENDBRANCH  16  17
ENDBRANCH  15  16
ENDBRANCH  14  15
ENDBRANCH  13  14
ENDBRANCH  12  13
ENDBRANCH   1  12
TORSDOF 14
ENDMDL
MODEL 7
REMARK VINA RESULT:    -2.798      2.413      3.494
REMARK INTER + INTRA:          -5.645
REMARK INTER:                  -4.855
REMARK INTRA:                  -0.789
REMARK UNBOUND:                -0.556
REMARK SMILES CCCCCCCCCCCCCC[C@@H](C)C(=O)[O-]
REMARK SMILES IDX 9 1 10 2 11 3 12 4 13 5 14 6 15 7 16 8 17 9 18 10 19 11 8 12
REMARK SMILES IDX 7 13 6 14 5 15 4 16 3 17 2 18 1 19
REMARK H PARENT
REMARK Flexibility Score: inf
ROOT
ATOM      1  C   UNL     1      -5.095   5.567  -3.524  1.00  0.00     0.000 C 
ENDROOT
BRANCH   1   2
ATOM      2  C   UNL     1      -5.635   6.514  -4.606  1.00  0.00     0.000 C 
BRANCH   2   3
ATOM      3  C   UNL     1      -6.756   5.883  -5.452  1.00  0.00     0.000 C 
BRANCH   3   4
ATOM      4  C   UNL     1      -6.536   5.948  -6.974  1.00  0.00     0.000 C 
BRANCH   4   5
ATOM      5  C   UNL     1      -7.785   6.408  -7.742  1.00  0.00     0.001 C 
BRANCH   5   6
ATOM      6  C   UNL     1      -7.805   7.937  -7.890  1.00  0.00     0.009 C 
BRANCH   6   7
ATOM      7  C   UNL     1      -7.204   8.414  -9.230  1.00  0.00     0.032 C 
ATOM      8  C   UNL     1      -8.139   9.370  -9.983  1.00  0.00     0.014 C 
BRANCH   7   9
ATOM      9  C   UNL     1      -5.879   9.086  -8.989  1.00  0.00     0.044 C 
ATOM     10  O   UNL     1      -4.913   8.895  -9.773  1.00  0.00    -0.550 OA
ATOM     11  O   UNL     1      -5.716   9.922  -7.891  1.00  0.00    -0.550 OA
ENDBRANCH   7   9
ENDBRANCH   6   7
ENDBRANCH   5   6
ENDBRANCH   4   5
ENDBRANCH   3   4
ENDBRANCH   2   3
ENDBRANCH   1   2
BRANCH   1  12
ATOM     12  C   UNL     1      -3.767   4.935  -3.958  1.00  0.00     0.000 C 
BRANCH  12  13
ATOM     13  C   UNL     1      -3.034   4.316  -2.759  1.00  0.00    -0.000 C 
BRANCH  13  14
ATOM     14  C   UNL     1      -3.212   5.132  -1.469  1.00  0.00    -0.000 C 
BRANCH  14  15
ATOM     15  C   UNL     1      -2.946   4.299  -0.203  1.00  0.00    -0.000 C 
BRANCH  15  16
ATOM     16  C   UNL     1      -2.135   3.022  -0.484  1.00  0.00    -0.000 C 
BRANCH  16  17
ATOM     17  C   UNL     1      -2.639   1.755   0.230  1.00  0.00    -0.000 C 
BRANCH  17  18
ATOM     18  C   UNL     1      -4.160   1.573   0.125  1.00  0.00    -0.003 C 
ATOM     19  C   UNL     1      -4.849   1.941   1.436  1.00  0.00     0.004 C 
ENDBRANCH  17  18
ENDBRANCH  16  17
ENDBRANCH  15  16
ENDBRANCH  14  15
ENDBRANCH  13  14
ENDBRANCH  12  13
ENDBRANCH   1  12
TORSDOF 14
ENDMDL
MODEL 8
REMARK VINA RESULT:    -2.169      4.265      9.406
REMARK INTER + INTRA:          -4.499
REMARK INTER:                  -3.834
REMARK INTRA:                  -0.665
REMARK UNBOUND:                -0.556
REMARK SMILES CCCCCCCCCCCCCC[C@@H](C)C(=O)[O-]
REMARK SMILES IDX 9 1 10 2 11 3 12 4 13 5 14 6 15 7 16 8 17 9 18 10 19 11 8 12
REMARK SMILES IDX 7 13 6 14 5 15 4 16 3 17 2 18 1 19
REMARK H PARENT
REMARK Flexibility Score: inf
ROOT
ATOM      1  C   UNL     1      -3.973   4.885  -4.018  1.00  0.00     0.000 C 
ENDROOT
BRANCH   1   2
ATOM      2  C   UNL     1      -3.088   4.934  -2.764  1.00  0.00     0.000 C 
BRANCH   2   3
ATOM      3  C   UNL     1      -3.881   5.242  -1.480  1.00  0.00     0.000 C 
BRANCH   3   4
ATOM      4  C   UNL     1      -3.019   5.574  -0.248  1.00  0.00     0.000 C 
BRANCH   4   5
ATOM      5  C   UNL     1      -2.530   4.324   0.497  1.00  0.00     0.001 C 
BRANCH   5   6
ATOM      6  C   UNL     1      -2.828   3.051  -0.311  1.00  0.00     0.009 C 
BRANCH   6   7
ATOM      7  C   UNL     1      -3.389   1.908   0.563  1.00  0.00     0.032 C 
ATOM      8  C   UNL     1      -4.781   2.228   1.122  1.00  0.00     0.014 C 
BRANCH   7   9
ATOM      9  C   UNL     1      -3.443   0.632  -0.234  1.00  0.00     0.044 C 
ATOM     10  O   UNL     1      -2.393   0.141  -0.728  1.00  0.00    -0.550 OA
ATOM     11  O   UNL     1      -4.658  -0.012  -0.430  1.00  0.00    -0.550 OA
ENDBRANCH   7   9
ENDBRANCH   6   7
ENDBRANCH   5   6
ENDBRANCH   4   5
ENDBRANCH   3   4
ENDBRANCH   2   3
ENDBRANCH   1   2
BRANCH   1  12
ATOM     12  C   UNL     1      -5.280   5.657  -3.801  1.00  0.00     0.000 C 
BRANCH  12  13
ATOM     13  C   UNL     1      -5.666   6.450  -5.058  1.00  0.00    -0.000 C 
BRANCH  13  14
ATOM     14  C   UNL     1      -6.953   5.929  -5.717  1.00  0.00    -0.000 C 
BRANCH  14  15
ATOM     15  C   UNL     1      -6.861   5.904  -7.252  1.00  0.00    -0.000 C 
BRANCH  15  16
ATOM     16  C   UNL     1      -8.119   6.468  -7.937  1.00  0.00    -0.000 C 
BRANCH  16  17
ATOM     17  C   UNL     1      -7.915   7.797  -8.687  1.00  0.00    -0.000 C 
BRANCH  17  18
ATOM     18  C   UNL     1      -6.485   8.341  -8.565  1.00  0.00    -0.003 C 
ATOM     19  C   UNL     1      -6.415   9.483  -7.555  1.00  0.00     0.004 C 
ENDBRANCH  17  18
ENDBRANCH  16  17
ENDBRANCH  15  16
ENDBRANCH  14  15
ENDBRANCH  13  14
ENDBRANCH  12  13
ENDBRANCH   1  12
TORSDOF 14
ENDMDL
MODEL 9
REMARK VINA RESULT:    -1.982      4.496     10.138
REMARK INTER + INTRA:          -4.160
REMARK INTER:                  -3.531
REMARK INTRA:                  -0.630
REMARK UNBOUND:                -0.556
REMARK SMILES CCCCCCCCCCCCCC[C@@H](C)C(=O)[O-]
REMARK SMILES IDX 9 1 10 2 11 3 12 4 13 5 14 6 15 7 16 8 17 9 18 10 19 11 8 12
REMARK SMILES IDX 7 13 6 14 5 15 4 16 3 17 2 18 1 19
REMARK H PARENT
REMARK Flexibility Score: inf
ROOT
ATOM      1  C   UNL     1      -5.619   6.465  -4.979  1.00  0.00     0.000 C 
ENDROOT
BRANCH   1   2
ATOM      2  C   UNL     1      -5.344   5.660  -3.699  1.00  0.00     0.000 C 
BRANCH   2   3
ATOM      3  C   UNL     1      -3.910   5.105  -3.636  1.00  0.00     0.000 C 
BRANCH   3   4
ATOM      4  C   UNL     1      -3.263   5.134  -2.239  1.00  0.00     0.000 C 
BRANCH   4   5
ATOM      5  C   UNL     1      -3.195   3.748  -1.580  1.00  0.00     0.001 C 
BRANCH   5   6
ATOM      6  C   UNL     1      -2.831   3.865  -0.092  1.00  0.00     0.009 C 
BRANCH   6   7
ATOM      7  C   UNL     1      -3.067   2.552   0.685  1.00  0.00     0.032 C 
ATOM      8  C   UNL     1      -4.559   2.249   0.882  1.00  0.00     0.014 C 
BRANCH   7   9
ATOM      9  C   UNL     1      -2.407   1.405  -0.033  1.00  0.00     0.044 C 
ATOM     10  O   UNL     1      -3.099   0.481  -0.535  1.00  0.00    -0.550 OA
ATOM     11  O   UNL     1      -1.022   1.362  -0.143  1.00  0.00    -0.550 OA
ENDBRANCH   7   9
ENDBRANCH   6   7
ENDBRANCH   5   6
ENDBRANCH   4   5
ENDBRANCH   3   4
ENDBRANCH   2   3
ENDBRANCH   1   2
BRANCH   1  12
ATOM     12  C   UNL     1      -6.427   5.639  -5.986  1.00  0.00     0.000 C 
BRANCH  12  13
ATOM     13  C   UNL     1      -7.524   6.490  -6.643  1.00  0.00    -0.000 C 
BRANCH  13  14
ATOM     14  C   UNL     1      -6.988   7.814  -7.210  1.00  0.00    -0.000 C 
BRANCH  14  15
ATOM     15  C   UNL     1      -7.650   8.195  -8.546  1.00  0.00    -0.000 C 
BRANCH  15  16
ATOM     16  C   UNL     1      -6.823   9.210  -9.356  1.00  0.00    -0.000 C 
BRANCH  16  17
ATOM     17  C   UNL     1      -5.379   9.417  -8.866  1.00  0.00    -0.000 C 
BRANCH  17  18
ATOM     18  C   UNL     1      -4.378   9.610 -10.013  1.00  0.00    -0.003 C 
ATOM     19  C   UNL     1      -3.421   8.425 -10.114  1.00  0.00     0.004 C 
ENDBRANCH  17  18
ENDBRANCH  16  17
ENDBRANCH  15  16
ENDBRANCH  14  15
ENDBRANCH  13  14
ENDBRANCH  12  13
ENDBRANCH   1  12
TORSDOF 14
ENDMDL
