MODEL 1
REMARK VINA RESULT:    -3.380      0.000      0.000
REMARK INTER + INTRA:          -4.955
REMARK INTER:                  -4.566
REMARK INTRA:                  -0.390
REMARK UNBOUND:                -0.390
REMARK SMILES CCCCCCC=CC(=O)[O-]
REMARK SMILES IDX 5 1 6 2 7 3 8 4 9 5 10 6 11 7 4 8 3 9 2 10 1 11
REMARK H PARENT
REMARK Flexibility Score: inf
ROOT
ATOM      1  C   UNL     1      -2.081  -4.786  31.063  1.00  0.00     0.004 C 
ENDROOT
BRANCH   1   2
ATOM      2  C   UNL     1      -1.199  -6.040  31.033  1.00  0.00     0.027 C 
BRANCH   2   3
ATOM      3  C   UNL     1      -2.018  -7.287  31.208  1.00  0.00    -0.025 C 
ATOM      4  C   UNL     1      -3.129  -7.499  30.493  1.00  0.00     0.020 C 
BRANCH   4   5
ATOM      5  C   UNL     1      -3.938  -8.718  30.637  1.00  0.00     0.064 C 
ATOM      6  O   UNL     1      -3.473  -9.748  31.194  1.00  0.00    -0.545 OA
ATOM      7  O   UNL     1      -5.239  -8.735  30.152  1.00  0.00    -0.545 OA
ENDBRANCH   4   5
ENDBRANCH   2   3
ENDBRANCH   1   2
BRANCH   1   8
ATOM      8  C   UNL     1      -2.351  -4.337  32.504  1.00  0.00     0.000 C 
BRANCH   8   9
ATOM      9  C   UNL     1      -3.849  -4.386  32.825  1.00  0.00    -0.000 C 
BRANCH   9  10
ATOM     10  C   UNL     1      -4.363  -3.009  33.261  1.00  0.00    -0.003 C 
ATOM     11  C   UNL     1      -3.241  -1.974  33.255  1.00  0.00     0.004 C 
ENDBRANCH   9  10
ENDBRANCH   8   9
ENDBRANCH   1   8
TORSDOF 6
ENDMDL
MODEL 2
REMARK VINA RESULT:    -3.333     13.782     15.484
REMARK INTER + INTRA:          -4.892
REMARK INTER:                  -4.473
REMARK INTRA:                  -0.418
REMARK UNBOUND:                -0.390
REMARK SMILES CCCCCCC=CC(=O)[O-]
REMARK SMILES IDX 5 1 6 2 7 3 8 4 9 5 10 6 11 7 4 8 3 9 2 10 1 11
REMARK H PARENT
REMARK Flexibility Score: inf
ROOT
ATOM      1  C   UNL     1     -12.492   5.749  28.589  1.00  0.00     0.004 C 
ENDROOT
BRANCH   1   2
ATOM      2  C   UNL     1     -12.980   6.104  29.999  1.00  0.00     0.027 C 
BRANCH   2   3
ATOM      3  C   UNL     1     -12.019   5.620  31.046  1.00  0.00    -0.025 C 
ATOM      4  C   UNL     1     -12.441   5.215  32.249  1.00  0.00     0.020 C 
BRANCH   4   5
ATOM      5  C   UNL     1     -11.519   4.723  33.285  1.00  0.00     0.064 C 
ATOM      6  O   UNL     1     -10.891   5.521  34.030  1.00  0.00    -0.545 OA
ATOM      7  O   UNL     1     -11.337   3.356  33.444  1.00  0.00    -0.545 OA
ENDBRANCH   4   5
ENDBRANCH   2   3
ENDBRANCH   1   2
BRANCH   1   8
ATOM      8  C   UNL     1     -12.905   6.824  27.577  1.00  0.00     0.000 C 
BRANCH   8   9
ATOM      9  C   UNL     1     -12.097   8.111  27.779  1.00  0.00    -0.000 C 
BRANCH   9  10
ATOM     10  C   UNL     1     -10.650   7.932  27.308  1.00  0.00    -0.003 C 
ATOM     11  C   UNL     1      -9.667   8.121  28.460  1.00  0.00     0.004 C 
ENDBRANCH   9  10
ENDBRANCH   8   9
ENDBRANCH   1   8
TORSDOF 6
ENDMDL
MODEL 3
REMARK VINA RESULT:    -3.255      1.320      2.005
REMARK INTER + INTRA:          -4.786
REMARK INTER:                  -4.306
REMARK INTRA:                  -0.480
REMARK UNBOUND:                -0.390
REMARK SMILES CCCCCCC=CC(=O)[O-]
REMARK SMILES IDX 5 1 6 2 7 3 8 4 9 5 10 6 11 7 4 8 3 9 2 10 1 11
REMARK H PARENT
REMARK Flexibility Score: inf
ROOT
ATOM      1  C   UNL     1      -1.465  -6.379  30.579  1.00  0.00     0.004 C 
ENDROOT
BRANCH   1   2
ATOM      2  C   UNL     1      -2.308  -7.399  31.354  1.00  0.00     0.027 C 
BRANCH   2   3
ATOM      3  C   UNL     1      -3.513  -7.823  30.565  1.00  0.00    -0.025 C 
ATOM      4  C   UNL     1      -3.888  -9.105  30.497  1.00  0.00     0.020 C 
BRANCH   4   5
ATOM      5  C   UNL     1      -5.072  -9.540  29.741  1.00  0.00     0.064 C 
ATOM      6  O   UNL     1      -5.001  -9.800  28.510  1.00  0.00    -0.545 OA
ATOM      7  O   UNL     1      -6.291  -9.668  30.395  1.00  0.00    -0.545 OA
ENDBRANCH   4   5
ENDBRANCH   2   3
ENDBRANCH   1   2
BRANCH   1   8
ATOM      8  C   UNL     1      -1.669  -4.963  31.131  1.00  0.00     0.000 C 
BRANCH   8   9
ATOM      9  C   UNL     1      -1.928  -4.992  32.641  1.00  0.00    -0.000 C 
BRANCH   9  10
ATOM     10  C   UNL     1      -2.989  -3.959  33.037  1.00  0.00    -0.003 C 
ATOM     11  C   UNL     1      -4.393  -4.453  32.701  1.00  0.00     0.004 C 
ENDBRANCH   9  10
ENDBRANCH   8   9
ENDBRANCH   1   8
TORSDOF 6
ENDMDL
MODEL 4
REMARK VINA RESULT:    -3.253     14.630     15.987
REMARK INTER + INTRA:          -4.784
REMARK INTER:                  -4.168
REMARK INTRA:                  -0.616
REMARK UNBOUND:                -0.390
REMARK SMILES CCCCCCC=CC(=O)[O-]
REMARK SMILES IDX 5 1 6 2 7 3 8 4 9 5 10 6 11 7 4 8 3 9 2 10 1 11
REMARK H PARENT
REMARK Flexibility Score: inf
ROOT
ATOM      1  C   UNL     1     -10.280   7.940  28.290  1.00  0.00     0.004 C 
ENDROOT
BRANCH   1   2
ATOM      2  C   UNL     1     -11.697   7.798  28.858  1.00  0.00     0.027 C 
BRANCH   2   3
ATOM      3  C   UNL     1     -11.851   6.513  29.620  1.00  0.00    -0.025 C 
ATOM      4  C   UNL     1     -12.928   5.734  29.466  1.00  0.00     0.020 C 
BRANCH   4   5
ATOM      5  C   UNL     1     -13.094   4.465  30.192  1.00  0.00     0.064 C 
ATOM      6  O   UNL     1     -13.189   4.440  31.448  1.00  0.00    -0.545 OA
ATOM      7  O   UNL     1     -13.148   3.274  29.480  1.00  0.00    -0.545 OA
ENDBRANCH   4   5
ENDBRANCH   2   3
ENDBRANCH   1   2
BRANCH   1   8
ATOM      8  C   UNL     1     -10.313   8.122  26.768  1.00  0.00     0.000 C 
BRANCH   8   9
ATOM      9  C   UNL     1     -11.754   8.125  26.244  1.00  0.00    -0.000 C 
BRANCH   9  10
ATOM     10  C   UNL     1     -11.972   7.000  25.227  1.00  0.00    -0.003 C 
ATOM     11  C   UNL     1     -12.830   5.883  25.816  1.00  0.00     0.004 C 
ENDBRANCH   9  10
ENDBRANCH   8   9
ENDBRANCH   1   8
TORSDOF 6
ENDMDL
MODEL 5
REMARK VINA RESULT:    -3.246      3.150      4.925
REMARK INTER + INTRA:          -4.774
REMARK INTER:                  -4.446
REMARK INTRA:                  -0.328
REMARK UNBOUND:                -0.390
REMARK SMILES CCCCCCC=CC(=O)[O-]
REMARK SMILES IDX 5 1 6 2 7 3 8 4 9 5 10 6 11 7 4 8 3 9 2 10 1 11
REMARK H PARENT
REMARK Flexibility Score: inf
ROOT
ATOM      1  C   UNL     1      -3.944  -0.624  33.665  1.00  0.00     0.004 C 
ENDROOT
BRANCH   1   2
ATOM      2  C   UNL     1      -3.923  -1.678  32.551  1.00  0.00     0.027 C 
BRANCH   2   3
ATOM      3  C   UNL     1      -3.212  -2.925  32.993  1.00  0.00    -0.025 C 
ATOM      4  C   UNL     1      -2.763  -3.824  32.110  1.00  0.00     0.020 C 
BRANCH   4   5
ATOM      5  C   UNL     1      -2.052  -5.044  32.520  1.00  0.00     0.064 C 
ATOM      6  O   UNL     1      -2.060  -5.432  33.718  1.00  0.00    -0.545 OA
ATOM      7  O   UNL     1      -1.359  -5.782  31.569  1.00  0.00    -0.545 OA
ENDBRANCH   4   5
ENDBRANCH   2   3
ENDBRANCH   1   2
BRANCH   1   8
ATOM      8  C   UNL     1      -2.548  -0.438  34.271  1.00  0.00     0.000 C 
BRANCH   8   9
ATOM      9  C   UNL     1      -2.595   0.502  35.482  1.00  0.00    -0.000 C 
BRANCH   9  10
ATOM     10  C   UNL     1      -3.862   0.268  36.311  1.00  0.00    -0.003 C 
ATOM     11  C   UNL     1      -3.558   0.307  37.807  1.00  0.00     0.004 C 
ENDBRANCH   9  10
ENDBRANCH   8   9
ENDBRANCH   1   8
TORSDOF 6
ENDMDL
MODEL 6
REMARK VINA RESULT:    -3.213     13.132     14.145
REMARK INTER + INTRA:          -4.729
REMARK INTER:                  -4.075
REMARK INTRA:                  -0.654
REMARK UNBOUND:                -0.390
REMARK SMILES CCCCCCC=CC(=O)[O-]
REMARK SMILES IDX 5 1 6 2 7 3 8 4 9 5 10 6 11 7 4 8 3 9 2 10 1 11
REMARK H PARENT
REMARK Flexibility Score: inf
ROOT
ATOM      1  C   UNL     1      -9.895   3.418  36.369  1.00  0.00     0.004 C 
ENDROOT
BRANCH   1   2
ATOM      2  C   UNL     1      -9.807   4.904  36.002  1.00  0.00     0.027 C 
BRANCH   2   3
ATOM      3  C   UNL     1     -10.632   5.215  34.786  1.00  0.00    -0.025 C 
ATOM      4  C   UNL     1     -11.525   4.342  34.306  1.00  0.00     0.020 C 
BRANCH   4   5
ATOM      5  C   UNL     1     -12.354   4.630  33.126  1.00  0.00     0.064 C 
ATOM      6  O   UNL     1     -12.060   5.566  32.336  1.00  0.00    -0.545 OA
ATOM      7  O   UNL     1     -13.480   3.857  32.877  1.00  0.00    -0.545 OA
ENDBRANCH   4   5
ENDBRANCH   2   3
ENDBRANCH   1   2
BRANCH   1   8
ATOM      8  C   UNL     1     -10.145   3.235  37.870  1.00  0.00     0.000 C 
BRANCH   8   9
ATOM      9  C   UNL     1     -11.476   2.518  38.124  1.00  0.00    -0.000 C 
BRANCH   9  10
ATOM     10  C   UNL     1     -12.660   3.471  37.933  1.00  0.00    -0.003 C 
ATOM     11  C   UNL     1     -13.632   2.940  36.884  1.00  0.00     0.004 C 
ENDBRANCH   9  10
ENDBRANCH   8   9
ENDBRANCH   1   8
TORSDOF 6
ENDMDL
MODEL 7
REMARK VINA RESULT:    -3.205      3.439      5.030
REMARK INTER + INTRA:          -4.719
REMARK INTER:                  -4.064
REMARK INTRA:                  -0.655
REMARK UNBOUND:                -0.390
REMARK SMILES CCCCCCC=CC(=O)[O-]
REMARK SMILES IDX 5 1 6 2 7 3 8 4 9 5 10 6 11 7 4 8 3 9 2 10 1 11
REMARK H PARENT
REMARK Flexibility Score: inf
ROOT
ATOM      1  C   UNL     1      -1.620  -5.346  30.707  1.00  0.00     0.004 C 
ENDROOT
BRANCH   1   2
ATOM      2  C   UNL     1      -1.624  -5.746  32.187  1.00  0.00     0.027 C 
BRANCH   2   3
ATOM      3  C   UNL     1      -2.380  -4.751  33.019  1.00  0.00    -0.025 C 
ATOM      4  C   UNL     1      -2.799  -3.587  32.508  1.00  0.00     0.020 C 
BRANCH   4   5
ATOM      5  C   UNL     1      -3.553  -2.604  33.300  1.00  0.00     0.064 C 
ATOM      6  O   UNL     1      -3.063  -1.476  33.577  1.00  0.00    -0.545 OA
ATOM      7  O   UNL     1      -4.827  -2.923  33.751  1.00  0.00    -0.545 OA
ENDBRANCH   4   5
ENDBRANCH   2   3
ENDBRANCH   1   2
BRANCH   1   8
ATOM      8  C   UNL     1      -2.446  -6.328  29.869  1.00  0.00     0.000 C 
BRANCH   8   9
ATOM      9  C   UNL     1      -2.997  -7.466  30.736  1.00  0.00    -0.000 C 
BRANCH   9  10
ATOM     10  C   UNL     1      -4.518  -7.579  30.596  1.00  0.00    -0.003 C 
ATOM     11  C   UNL     1      -5.214  -6.317  31.100  1.00  0.00     0.004 C 
ENDBRANCH   9  10
ENDBRANCH   8   9
ENDBRANCH   1   8
TORSDOF 6
ENDMDL
MODEL 8
REMARK VINA RESULT:    -3.187      4.754      6.823
REMARK INTER + INTRA:          -4.694
REMARK INTER:                  -4.321
REMARK INTRA:                  -0.373
REMARK UNBOUND:                -0.390
REMARK SMILES CCCCCCC=CC(=O)[O-]
REMARK SMILES IDX 5 1 6 2 7 3 8 4 9 5 10 6 11 7 4 8 3 9 2 10 1 11
REMARK H PARENT
REMARK Flexibility Score: inf
ROOT
ATOM      1  C   UNL     1      -3.608  -3.777  33.056  1.00  0.00     0.004 C 
ENDROOT
BRANCH   1   2
ATOM      2  C   UNL     1      -3.780  -2.692  31.986  1.00  0.00     0.027 C 
BRANCH   2   3
ATOM      3  C   UNL     1      -3.497  -1.327  32.545  1.00  0.00    -0.025 C 
ATOM      4  C   UNL     1      -3.117  -1.157  33.816  1.00  0.00     0.020 C 
BRANCH   4   5
ATOM      5  C   UNL     1      -2.822   0.169  34.381  1.00  0.00     0.064 C 
ATOM      6  O   UNL     1      -2.337   0.293  35.537  1.00  0.00    -0.545 OA
ATOM      7  O   UNL     1      -3.083   1.305  33.626  1.00  0.00    -0.545 OA
ENDBRANCH   4   5
ENDBRANCH   2   3
ENDBRANCH   1   2
BRANCH   1   8
ATOM      8  C   UNL     1      -2.342  -4.603  32.804  1.00  0.00     0.000 C 
BRANCH   8   9
ATOM      9  C   UNL     1      -2.032  -4.694  31.305  1.00  0.00    -0.000 C 
BRANCH   9  10
ATOM     10  C   UNL     1      -1.270  -5.983  30.978  1.00  0.00    -0.003 C 
ATOM     11  C   UNL     1      -2.158  -7.211  31.167  1.00  0.00     0.004 C 
ENDBRANCH   9  10
ENDBRANCH   8   9
ENDBRANCH   1   8
TORSDOF 6
ENDMDL
MODEL 9
REMARK VINA RESULT:    -3.160      2.591      3.936
REMARK INTER + INTRA:          -4.659
REMARK INTER:                  -4.405
REMARK INTRA:                  -0.254
REMARK UNBOUND:                -0.390
REMARK SMILES CCCCCCC=CC(=O)[O-]
REMARK SMILES IDX 5 1 6 2 7 3 8 4 9 5 10 6 11 7 4 8 3 9 2 10 1 11
REMARK H PARENT
REMARK Flexibility Score: inf
ROOT
ATOM      1  C   UNL     1      -3.243  -7.368  30.086  1.00  0.00     0.004 C 
ENDROOT
BRANCH   1   2
ATOM      2  C   UNL     1      -4.335  -8.442  30.162  1.00  0.00     0.027 C 
BRANCH   2   3
ATOM      3  C   UNL     1      -4.127  -9.506  29.123  1.00  0.00    -0.025 C 
ATOM      4  C   UNL     1      -4.380  -9.279  27.829  1.00  0.00     0.020 C 
BRANCH   4   5
ATOM      5  C   UNL     1      -4.170 -10.302  26.793  1.00  0.00     0.064 C 
ATOM      6  O   UNL     1      -5.030 -10.508  25.896  1.00  0.00    -0.545 OA
ATOM      7  O   UNL     1      -3.003 -11.054  26.803  1.00  0.00    -0.545 OA
ENDBRANCH   4   5
ENDBRANCH   2   3
ENDBRANCH   1   2
BRANCH   1   8
ATOM      8  C   UNL     1      -2.260  -7.499  31.254  1.00  0.00     0.000 C 
BRANCH   8   9
ATOM      9  C   UNL     1      -1.208  -6.384  31.217  1.00  0.00    -0.000 C 
BRANCH   9  10
ATOM     10  C   UNL     1      -1.792  -5.060  31.719  1.00  0.00    -0.003 C 
ATOM     11  C   UNL     1      -2.179  -5.150  33.192  1.00  0.00     0.004 C 
ENDBRANCH   9  10
ENDBRANCH   8   9
ENDBRANCH   1   8
TORSDOF 6
ENDMDL
