MODEL 1
REMARK VINA RESULT:    -3.912      0.000      0.000
REMARK INTER + INTRA:          -4.812
REMARK INTER:                  -4.712
REMARK INTRA:                  -0.100
REMARK UNBOUND:                -0.100
REMARK SMILES CC[C@@H](C)[C@H]([NH3+])C(=O)[O-]
REMARK SMILES IDX 3 1 4 2 5 3 6 4 7 8 8 9 9 10 2 11 1 12
REMARK H PARENT 6 5 6 6 6 7
REMARK Flexibility Score: inf
ROOT
ATOM      1  C   UNL     1     139.735 135.754 118.083  1.00  0.00     0.050 C 
ATOM      2  C   UNL     1     141.229 135.814 118.446  1.00  0.00     0.014 C 
ENDROOT
BRANCH   1   3
ATOM      3  C   UNL     1     138.916 134.851 119.061  1.00  0.00     0.230 C 
BRANCH   3   4
ATOM      4  N   UNL     1     138.446 135.604 120.234  1.00  0.00    -0.350 N 
ATOM      5  H   UNL     1     139.171 135.581 120.987  1.00  0.00     0.345 HD
ATOM      6  H   UNL     1     138.285 136.602 119.968  1.00  0.00     0.345 HD
ATOM      7  H   UNL     1     137.552 135.207 120.605  1.00  0.00     0.345 HD
ENDBRANCH   3   4
BRANCH   3   8
ATOM      8  C   UNL     1     139.619 133.575 119.469  1.00  0.00     0.099 C 
ATOM      9  O   UNL     1     139.898 133.342 120.675  1.00  0.00    -0.544 OA
ATOM     10  O   UNL     1     139.929 132.619 118.509  1.00  0.00    -0.544 OA
ENDBRANCH   3   8
ENDBRANCH   1   3
BRANCH   1  11
ATOM     11  C   UNL     1     139.152 137.164 117.797  1.00  0.00     0.006 C 
ATOM     12  C   UNL     1     137.950 137.205 116.852  1.00  0.00     0.004 C 
ENDBRANCH   1  11
TORSDOF 4
ENDMDL
MODEL 2
REMARK VINA RESULT:    -3.821     10.465     11.469
REMARK INTER + INTRA:          -4.703
REMARK INTER:                  -4.644
REMARK INTRA:                  -0.059
REMARK UNBOUND:                -0.100
REMARK SMILES CC[C@@H](C)[C@H]([NH3+])C(=O)[O-]
REMARK SMILES IDX 3 1 4 2 5 3 6 4 7 8 8 9 9 10 2 11 1 12
REMARK H PARENT 6 5 6 6 6 7
REMARK Flexibility Score: inf
ROOT
ATOM      1  C   UNL     1     127.850 137.720 120.179  1.00  0.00     0.050 C 
ATOM      2  C   UNL     1     127.248 136.574 121.009  1.00  0.00     0.014 C 
ENDROOT
BRANCH   1   3
ATOM      3  C   UNL     1     129.396 137.579 119.992  1.00  0.00     0.230 C 
BRANCH   3   4
ATOM      4  N   UNL     1     129.964 136.571 120.898  1.00  0.00    -0.350 N 
ATOM      5  H   UNL     1     129.235 136.243 121.572  1.00  0.00     0.345 HD
ATOM      6  H   UNL     1     130.289 135.745 120.345  1.00  0.00     0.345 HD
ATOM      7  H   UNL     1     130.777 136.956 121.432  1.00  0.00     0.345 HD
ENDBRANCH   3   4
BRANCH   3   8
ATOM      8  C   UNL     1     130.155 138.885 120.073  1.00  0.00     0.099 C 
ATOM      9  O   UNL     1     130.374 139.444 121.181  1.00  0.00    -0.544 OA
ATOM     10  O   UNL     1     130.660 139.464 118.915  1.00  0.00    -0.544 OA
ENDBRANCH   3   8
ENDBRANCH   1   3
BRANCH   1  11
ATOM     11  C   UNL     1     127.025 138.001 118.895  1.00  0.00     0.006 C 
ATOM     12  C   UNL     1     126.574 136.767 118.114  1.00  0.00     0.004 C 
ENDBRANCH   1  11
TORSDOF 4
ENDMDL
MODEL 3
REMARK VINA RESULT:    -3.817     10.796     11.907
REMARK INTER + INTRA:          -4.697
REMARK INTER:                  -4.620
REMARK INTRA:                  -0.078
REMARK UNBOUND:                -0.100
REMARK SMILES CC[C@@H](C)[C@H]([NH3+])C(=O)[O-]
REMARK SMILES IDX 3 1 4 2 5 3 6 4 7 8 8 9 9 10 2 11 1 12
REMARK H PARENT 6 5 6 6 6 7
REMARK Flexibility Score: inf
ROOT
ATOM      1  C   UNL     1     132.124 126.082 118.109  1.00  0.00     0.050 C 
ATOM      2  C   UNL     1     131.460 124.721 118.379  1.00  0.00     0.014 C 
ENDROOT
BRANCH   1   3
ATOM      3  C   UNL     1     131.784 127.145 119.203  1.00  0.00     0.230 C 
BRANCH   3   4
ATOM      4  N   UNL     1     132.494 126.877 120.462  1.00  0.00    -0.350 N 
ATOM      5  H   UNL     1     132.894 125.910 120.449  1.00  0.00     0.345 HD
ATOM      6  H   UNL     1     133.285 127.553 120.570  1.00  0.00     0.345 HD
ATOM      7  H   UNL     1     131.856 126.974 121.285  1.00  0.00     0.345 HD
ENDBRANCH   3   4
BRANCH   3   8
ATOM      8  C   UNL     1     130.303 127.347 119.436  1.00  0.00     0.099 C 
ATOM      9  O   UNL     1     129.515 127.558 118.476  1.00  0.00    -0.544 OA
ATOM     10  O   UNL     1     129.787 127.257 120.723  1.00  0.00    -0.544 OA
ENDBRANCH   3   8
ENDBRANCH   1   3
BRANCH   1  11
ATOM     11  C   UNL     1     133.624 125.931 117.740  1.00  0.00     0.006 C 
ATOM     12  C   UNL     1     134.172 126.964 116.754  1.00  0.00     0.004 C 
ENDBRANCH   1  11
TORSDOF 4
ENDMDL
MODEL 4
REMARK VINA RESULT:    -3.803     10.507     11.575
REMARK INTER + INTRA:          -4.681
REMARK INTER:                  -4.598
REMARK INTRA:                  -0.083
REMARK UNBOUND:                -0.100
REMARK SMILES CC[C@@H](C)[C@H]([NH3+])C(=O)[O-]
REMARK SMILES IDX 3 1 4 2 5 3 6 4 7 8 8 9 9 10 2 11 1 12
REMARK H PARENT 6 5 6 6 6 7
REMARK Flexibility Score: inf
ROOT
ATOM      1  C   UNL     1     128.211 138.055 118.266  1.00  0.00     0.050 C 
ATOM      2  C   UNL     1     126.773 138.575 118.436  1.00  0.00     0.014 C 
ENDROOT
BRANCH   1   3
ATOM      3  C   UNL     1     128.959 137.902 119.629  1.00  0.00     0.230 C 
BRANCH   3   4
ATOM      4  N   UNL     1     128.024 137.857 120.763  1.00  0.00    -0.350 N 
ATOM      5  H   UNL     1     128.425 137.279 121.536  1.00  0.00     0.345 HD
ATOM      6  H   UNL     1     127.868 138.825 121.128  1.00  0.00     0.345 HD
ATOM      7  H   UNL     1     127.102 137.456 120.476  1.00  0.00     0.345 HD
ENDBRANCH   3   4
BRANCH   3   8
ATOM      8  C   UNL     1     130.054 138.922 119.857  1.00  0.00     0.099 C 
ATOM      9  O   UNL     1     130.705 139.404 118.892  1.00  0.00    -0.544 OA
ATOM     10  O   UNL     1     130.324 139.372 121.143  1.00  0.00    -0.544 OA
ENDBRANCH   3   8
ENDBRANCH   1   3
BRANCH   1  11
ATOM     11  C   UNL     1     128.276 136.837 117.305  1.00  0.00     0.006 C 
ATOM     12  C   UNL     1     127.070 135.898 117.343  1.00  0.00     0.004 C 
ENDBRANCH   1  11
TORSDOF 4
ENDMDL
MODEL 5
REMARK VINA RESULT:    -3.795      1.626      2.233
REMARK INTER + INTRA:          -4.672
REMARK INTER:                  -4.594
REMARK INTRA:                  -0.078
REMARK UNBOUND:                -0.100
REMARK SMILES CC[C@@H](C)[C@H]([NH3+])C(=O)[O-]
REMARK SMILES IDX 3 1 4 2 5 3 6 4 7 8 8 9 9 10 2 11 1 12
REMARK H PARENT 6 5 6 6 6 7
REMARK Flexibility Score: inf
ROOT
ATOM      1  C   UNL     1     139.903 135.419 120.116  1.00  0.00     0.050 C 
ATOM      2  C   UNL     1     138.993 136.453 120.800  1.00  0.00     0.014 C 
ENDROOT
BRANCH   1   3
ATOM      3  C   UNL     1     139.283 133.984 120.109  1.00  0.00     0.230 C 
BRANCH   3   4
ATOM      4  N   UNL     1     139.859 133.136 121.162  1.00  0.00    -0.350 N 
ATOM      5  H   UNL     1     140.167 132.222 120.758  1.00  0.00     0.345 HD
ATOM      6  H   UNL     1     140.697 133.607 121.573  1.00  0.00     0.345 HD
ATOM      7  H   UNL     1     139.167 132.958 121.925  1.00  0.00     0.345 HD
ENDBRANCH   3   4
BRANCH   3   8
ATOM      8  C   UNL     1     139.322 133.296 118.762  1.00  0.00     0.099 C 
ATOM      9  O   UNL     1     140.220 132.457 118.485  1.00  0.00    -0.544 OA
ATOM     10  O   UNL     1     138.330 133.554 117.824  1.00  0.00    -0.544 OA
ENDBRANCH   3   8
ENDBRANCH   1   3
BRANCH   1  11
ATOM     11  C   UNL     1     140.453 135.938 118.761  1.00  0.00     0.006 C 
ATOM     12  C   UNL     1     139.627 137.033 118.086  1.00  0.00     0.004 C 
ENDBRANCH   1  11
TORSDOF 4
ENDMDL
MODEL 6
REMARK VINA RESULT:    -3.787     11.387     12.143
REMARK INTER + INTRA:          -4.662
REMARK INTER:                  -4.595
REMARK INTRA:                  -0.067
REMARK UNBOUND:                -0.100
REMARK SMILES CC[C@@H](C)[C@H]([NH3+])C(=O)[O-]
REMARK SMILES IDX 3 1 4 2 5 3 6 4 7 8 8 9 9 10 2 11 1 12
REMARK H PARENT 6 5 6 6 6 7
REMARK Flexibility Score: inf
ROOT
ATOM      1  C   UNL     1     127.902 136.391 117.075  1.00  0.00     0.050 C 
ATOM      2  C   UNL     1     127.034 135.141 116.851  1.00  0.00     0.014 C 
ENDROOT
BRANCH   1   3
ATOM      3  C   UNL     1     128.172 136.672 118.589  1.00  0.00     0.230 C 
BRANCH   3   4
ATOM      4  N   UNL     1     128.054 135.450 119.399  1.00  0.00    -0.350 N 
ATOM      5  H   UNL     1     127.048 135.187 119.505  1.00  0.00     0.345 HD
ATOM      6  H   UNL     1     128.546 134.662 118.918  1.00  0.00     0.345 HD
ATOM      7  H   UNL     1     128.477 135.581 120.346  1.00  0.00     0.345 HD
ENDBRANCH   3   4
BRANCH   3   8
ATOM      8  C   UNL     1     127.350 137.801 119.170  1.00  0.00     0.099 C 
ATOM      9  O   UNL     1     127.306 138.002 120.413  1.00  0.00    -0.544 OA
ATOM     10  O   UNL     1     126.662 138.662 118.324  1.00  0.00    -0.544 OA
ENDBRANCH   3   8
ENDBRANCH   1   3
BRANCH   1  11
ATOM     11  C   UNL     1     129.141 136.411 116.140  1.00  0.00     0.006 C 
ATOM     12  C   UNL     1     128.863 136.120 114.665  1.00  0.00     0.004 C 
ENDBRANCH   1  11
TORSDOF 4
ENDMDL
MODEL 7
REMARK VINA RESULT:    -3.764      9.883     10.994
REMARK INTER + INTRA:          -4.634
REMARK INTER:                  -4.435
REMARK INTRA:                  -0.199
REMARK UNBOUND:                -0.100
REMARK SMILES CC[C@@H](C)[C@H]([NH3+])C(=O)[O-]
REMARK SMILES IDX 3 1 4 2 5 3 6 4 7 8 8 9 9 10 2 11 1 12
REMARK H PARENT 6 5 6 6 6 7
REMARK Flexibility Score: inf
ROOT
ATOM      1  C   UNL     1     132.238 126.103 118.153  1.00  0.00     0.050 C 
ATOM      2  C   UNL     1     131.487 124.778 118.368  1.00  0.00     0.014 C 
ENDROOT
BRANCH   1   3
ATOM      3  C   UNL     1     132.005 127.122 119.315  1.00  0.00     0.230 C 
BRANCH   3   4
ATOM      4  N   UNL     1     131.644 128.454 118.808  1.00  0.00    -0.350 N 
ATOM      5  H   UNL     1     131.813 129.176 119.545  1.00  0.00     0.345 HD
ATOM      6  H   UNL     1     132.240 128.688 117.981  1.00  0.00     0.345 HD
ATOM      7  H   UNL     1     130.640 128.489 118.517  1.00  0.00     0.345 HD
ENDBRANCH   3   4
BRANCH   3   8
ATOM      8  C   UNL     1     133.139 127.200 120.313  1.00  0.00     0.099 C 
ATOM      9  O   UNL     1     133.902 128.202 120.356  1.00  0.00    -0.544 OA
ATOM     10  O   UNL     1     133.325 126.173 121.231  1.00  0.00    -0.544 OA
ENDBRANCH   3   8
ENDBRANCH   1   3
BRANCH   1  11
ATOM     11  C   UNL     1     133.713 125.870 117.729  1.00  0.00     0.006 C 
ATOM     12  C   UNL     1     134.302 126.911 116.777  1.00  0.00     0.004 C 
ENDBRANCH   1  11
TORSDOF 4
ENDMDL
MODEL 8
REMARK VINA RESULT:    -3.730     11.504     12.126
REMARK INTER + INTRA:          -4.593
REMARK INTER:                  -4.524
REMARK INTRA:                  -0.069
REMARK UNBOUND:                -0.100
REMARK SMILES CC[C@@H](C)[C@H]([NH3+])C(=O)[O-]
REMARK SMILES IDX 3 1 4 2 5 3 6 4 7 8 8 9 9 10 2 11 1 12
REMARK H PARENT 6 5 6 6 6 7
REMARK Flexibility Score: inf
ROOT
ATOM      1  C   UNL     1     131.675 126.117 120.065  1.00  0.00     0.050 C 
ATOM      2  C   UNL     1     133.015 126.277 120.803  1.00  0.00     0.014 C 
ENDROOT
BRANCH   1   3
ATOM      3  C   UNL     1     130.792 127.405 120.136  1.00  0.00     0.230 C 
BRANCH   3   4
ATOM      4  N   UNL     1     129.803 127.328 121.222  1.00  0.00    -0.350 N 
ATOM      5  H   UNL     1     130.276 127.075 122.119  1.00  0.00     0.345 HD
ATOM      6  H   UNL     1     129.348 128.261 121.348  1.00  0.00     0.345 HD
ATOM      7  H   UNL     1     129.064 126.620 121.011  1.00  0.00     0.345 HD
ENDBRANCH   3   4
BRANCH   3   8
ATOM      8  C   UNL     1     130.143 127.789 118.824  1.00  0.00     0.099 C 
ATOM      9  O   UNL     1     128.959 127.451 118.560  1.00  0.00    -0.544 OA
ATOM     10  O   UNL     1     130.843 128.563 117.907  1.00  0.00    -0.544 OA
ENDBRANCH   3   8
ENDBRANCH   1   3
BRANCH   1  11
ATOM     11  C   UNL     1     131.860 125.487 118.658  1.00  0.00     0.006 C 
ATOM     12  C   UNL     1     133.271 125.572 118.075  1.00  0.00     0.004 C 
ENDBRANCH   1  11
TORSDOF 4
ENDMDL
MODEL 9
REMARK VINA RESULT:    -3.697     10.154     11.085
REMARK INTER + INTRA:          -4.553
REMARK INTER:                  -4.421
REMARK INTRA:                  -0.132
REMARK UNBOUND:                -0.100
REMARK SMILES CC[C@@H](C)[C@H]([NH3+])C(=O)[O-]
REMARK SMILES IDX 3 1 4 2 5 3 6 4 7 8 8 9 9 10 2 11 1 12
REMARK H PARENT 6 5 6 6 6 7
REMARK Flexibility Score: inf
ROOT
ATOM      1  C   UNL     1     133.507 126.868 117.457  1.00  0.00     0.050 C 
ATOM      2  C   UNL     1     134.832 126.970 116.682  1.00  0.00     0.014 C 
ENDROOT
BRANCH   1   3
ATOM      3  C   UNL     1     132.289 127.413 116.642  1.00  0.00     0.230 C 
BRANCH   3   4
ATOM      4  N   UNL     1     132.650 127.687 115.243  1.00  0.00    -0.350 N 
ATOM      5  H   UNL     1     132.649 126.798 114.692  1.00  0.00     0.345 HD
ATOM      6  H   UNL     1     131.944 128.331 114.819  1.00  0.00     0.345 HD
ATOM      7  H   UNL     1     133.593 128.132 115.175  1.00  0.00     0.345 HD
ENDBRANCH   3   4
BRANCH   3   8
ATOM      8  C   UNL     1     131.595 128.598 117.276  1.00  0.00     0.099 C 
ATOM      9  O   UNL     1     131.473 128.688 118.527  1.00  0.00    -0.544 OA
ATOM     10  O   UNL     1     131.118 129.629 116.477  1.00  0.00    -0.544 OA
ENDBRANCH   3   8
ENDBRANCH   1   3
BRANCH   1  11
ATOM     11  C   UNL     1     133.327 125.473 118.114  1.00  0.00     0.006 C 
ATOM     12  C   UNL     1     131.885 125.069 118.427  1.00  0.00     0.004 C 
ENDBRANCH   1  11
TORSDOF 4
ENDMDL
