MODEL 1
REMARK VINA RESULT:    -2.194      0.000      0.000
REMARK INTER + INTRA:          -2.194
REMARK INTER:                  -2.194
REMARK INTRA:                   0.000
REMARK UNBOUND:                 0.000
REMARK SMILES CC(=O)[O-]
REMARK SMILES IDX 1 1 2 2 3 3 4 4
REMARK H PARENT
REMARK Flexibility Score: inf
ROOT
ATOM      1  C   UNL     1       3.125  11.294   1.507  1.00  0.00     0.063 C 
ATOM      2  C   UNL     1       1.690  11.393   1.117  1.00  0.00     0.038 C 
ATOM      3  O   UNL     1       0.877  10.499   1.470  1.00  0.00    -0.550 OA
ATOM      4  O   UNL     1       1.256  12.444   0.320  1.00  0.00    -0.550 OA
ENDROOT
TORSDOF 0
ENDMDL
MODEL 2
REMARK VINA RESULT:    -2.155     14.260     14.490
REMARK INTER + INTRA:          -2.155
REMARK INTER:                  -2.155
REMARK INTRA:                   0.000
REMARK UNBOUND:                 0.000
REMARK SMILES CC(=O)[O-]
REMARK SMILES IDX 1 1 2 2 3 3 4 4
REMARK H PARENT
REMARK Flexibility Score: inf
ROOT
ATOM      1  C   UNL     1      -0.431   3.928 -11.858  1.00  0.00     0.063 C 
ATOM      2  C   UNL     1       0.813   4.629 -11.430  1.00  0.00     0.038 C 
ATOM      3  O   UNL     1       1.173   5.687 -12.011  1.00  0.00    -0.550 OA
ATOM      4  O   UNL     1       1.606   4.090 -10.425  1.00  0.00    -0.550 OA
ENDROOT
TORSDOF 0
ENDMDL
MODEL 3
REMARK VINA RESULT:    -2.137      1.638      1.880
REMARK INTER + INTRA:          -2.137
REMARK INTER:                  -2.137
REMARK INTRA:                   0.000
REMARK UNBOUND:                 0.000
REMARK SMILES CC(=O)[O-]
REMARK SMILES IDX 1 1 2 2 3 3 4 4
REMARK H PARENT
REMARK Flexibility Score: inf
ROOT
ATOM      1  C   UNL     1       2.949  12.922   0.627  1.00  0.00     0.063 C 
ATOM      2  C   UNL     1       2.400  11.629   1.124  1.00  0.00     0.038 C 
ATOM      3  O   UNL     1       1.259  11.244   0.757  1.00  0.00    -0.550 OA
ATOM      4  O   UNL     1       3.125  10.869   2.033  1.00  0.00    -0.550 OA
ENDROOT
TORSDOF 0
ENDMDL
MODEL 4
REMARK VINA RESULT:    -2.085     14.912     15.076
REMARK INTER + INTRA:          -2.085
REMARK INTER:                  -2.085
REMARK INTRA:                   0.000
REMARK UNBOUND:                 0.000
REMARK SMILES CC(=O)[O-]
REMARK SMILES IDX 1 1 2 2 3 3 4 4
REMARK H PARENT
REMARK Flexibility Score: inf
ROOT
ATOM      1  C   UNL     1      -0.243   3.850 -11.846  1.00  0.00     0.063 C 
ATOM      2  C   UNL     1       0.970   3.133 -11.362  1.00  0.00     0.038 C 
ATOM      3  O   UNL     1       1.183   1.943 -11.714  1.00  0.00    -0.550 OA
ATOM      4  O   UNL     1       1.843   3.757 -10.480  1.00  0.00    -0.550 OA
ENDROOT
TORSDOF 0
ENDMDL
MODEL 5
REMARK VINA RESULT:    -2.015     14.919     15.018
REMARK INTER + INTRA:          -2.015
REMARK INTER:                  -2.015
REMARK INTRA:                   0.000
REMARK UNBOUND:                 0.000
REMARK SMILES CC(=O)[O-]
REMARK SMILES IDX 1 1 2 2 3 3 4 4
REMARK H PARENT
REMARK Flexibility Score: inf
ROOT
ATOM      1  C   UNL     1       1.185   2.350 -11.697  1.00  0.00     0.063 C 
ATOM      2  C   UNL     1       0.547   3.696 -11.648  1.00  0.00     0.038 C 
ATOM      3  O   UNL     1      -0.662   3.835 -11.974  1.00  0.00    -0.550 OA
ATOM      4  O   UNL     1       1.297   4.810 -11.292  1.00  0.00    -0.550 OA
ENDROOT
TORSDOF 0
ENDMDL
MODEL 6
REMARK VINA RESULT:    -1.997     10.043     10.448
REMARK INTER + INTRA:          -1.997
REMARK INTER:                  -1.997
REMARK INTRA:                   0.000
REMARK UNBOUND:                 0.000
REMARK SMILES CC(=O)[O-]
REMARK SMILES IDX 1 1 2 2 3 3 4 4
REMARK H PARENT
REMARK Flexibility Score: inf
ROOT
ATOM      1  C   UNL     1       0.458  22.093   3.327  1.00  0.00     0.063 C 
ATOM      2  C   UNL     1       1.718  21.351   3.615  1.00  0.00     0.038 C 
ATOM      3  O   UNL     1       1.677  20.244   4.213  1.00  0.00    -0.550 OA
ATOM      4  O   UNL     1       2.945  21.903   3.270  1.00  0.00    -0.550 OA
ENDROOT
TORSDOF 0
ENDMDL
MODEL 7
REMARK VINA RESULT:    -1.982     10.241     10.498
REMARK INTER + INTRA:          -1.982
REMARK INTER:                  -1.982
REMARK INTRA:                   0.000
REMARK UNBOUND:                 0.000
REMARK SMILES CC(=O)[O-]
REMARK SMILES IDX 1 1 2 2 3 3 4 4
REMARK H PARENT
REMARK Flexibility Score: inf
ROOT
ATOM      1  C   UNL     1       1.778  20.332   4.417  1.00  0.00     0.063 C 
ATOM      2  C   UNL     1       1.650  21.512   3.516  1.00  0.00     0.038 C 
ATOM      3  O   UNL     1       2.681  22.080   3.069  1.00  0.00    -0.550 OA
ATOM      4  O   UNL     1       0.394  22.020   3.208  1.00  0.00    -0.550 OA
ENDROOT
TORSDOF 0
ENDMDL
MODEL 8
REMARK VINA RESULT:    -1.918     18.572     19.044
REMARK INTER + INTRA:          -1.918
REMARK INTER:                  -1.918
REMARK INTRA:                   0.000
REMARK UNBOUND:                 0.000
REMARK SMILES CC(=O)[O-]
REMARK SMILES IDX 1 1 2 2 3 3 4 4
REMARK H PARENT
REMARK Flexibility Score: inf
ROOT
ATOM      1  C   UNL     1     -15.003  13.312  -9.303  1.00  0.00     0.063 C 
ATOM      2  C   UNL     1     -14.828  13.312  -7.823  1.00  0.00     0.038 C 
ATOM      3  O   UNL     1     -13.848  12.717  -7.303  1.00  0.00    -0.550 OA
ATOM      4  O   UNL     1     -15.773  13.926  -7.011  1.00  0.00    -0.550 OA
ENDROOT
TORSDOF 0
ENDMDL
MODEL 9
REMARK VINA RESULT:    -1.827     18.911     19.363
REMARK INTER + INTRA:          -1.827
REMARK INTER:                  -1.827
REMARK INTRA:                   0.000
REMARK UNBOUND:                 0.000
REMARK SMILES CC(=O)[O-]
REMARK SMILES IDX 1 1 2 2 3 3 4 4
REMARK H PARENT
REMARK Flexibility Score: inf
ROOT
ATOM      1  C   UNL     1     -14.823  13.184  -6.776  1.00  0.00     0.063 C 
ATOM      2  C   UNL     1     -15.059  13.530  -8.206  1.00  0.00     0.038 C 
ATOM      3  O   UNL     1     -15.758  14.534  -8.505  1.00  0.00    -0.550 OA
ATOM      4  O   UNL     1     -14.553  12.717  -9.212  1.00  0.00    -0.550 OA
ENDROOT
TORSDOF 0
ENDMDL
