MODEL 1
REMARK VINA RESULT:    -2.463      0.000      0.000
REMARK INTER + INTRA:          -3.698
REMARK INTER:                  -3.327
REMARK INTRA:                  -0.371
REMARK UNBOUND:                -0.371
REMARK SMILES CCCCCCCC=O
REMARK SMILES IDX 5 1 4 2 3 3 2 4 1 5 6 6 7 7 8 8 9 9
REMARK H PARENT
REMARK Flexibility Score: inf
ROOT
ATOM      1  C   UNL     1     146.311 141.377 138.345  1.00  0.00     0.000 C 
ENDROOT
BRANCH   1   2
ATOM      2  C   UNL     1     145.643 142.417 139.263  1.00  0.00     0.000 C 
BRANCH   2   3
ATOM      3  C   UNL     1     144.528 143.208 138.557  1.00  0.00    -0.000 C 
BRANCH   3   4
ATOM      4  C   UNL     1     144.394 144.673 139.007  1.00  0.00    -0.003 C 
ATOM      5  C   UNL     1     145.742 145.346 139.261  1.00  0.00     0.004 C 
ENDBRANCH   3   4
ENDBRANCH   2   3
ENDBRANCH   1   2
BRANCH   1   6
ATOM      6  C   UNL     1     147.010 142.018 137.137  1.00  0.00     0.008 C 
BRANCH   6   7
ATOM      7  C   UNL     1     148.512 141.699 137.088  1.00  0.00     0.072 C 
BRANCH   7   8
ATOM      8  C   UNL     1     149.317 142.826 137.661  1.00  0.00     0.224 C 
ATOM      9  O   UNL     1     148.775 143.866 137.999  1.00  0.00    -0.303 OA
ENDBRANCH   7   8
ENDBRANCH   6   7
ENDBRANCH   1   6
TORSDOF 6
ENDMDL
MODEL 2
REMARK VINA RESULT:    -2.451      8.091      9.193
REMARK INTER + INTRA:          -3.681
REMARK INTER:                  -3.301
REMARK INTRA:                  -0.381
REMARK UNBOUND:                -0.371
REMARK SMILES CCCCCCCC=O
REMARK SMILES IDX 5 1 4 2 3 3 2 4 1 5 6 6 7 7 8 8 9 9
REMARK H PARENT
REMARK Flexibility Score: inf
ROOT
ATOM      1  C   UNL     1     139.575 145.027 137.224  1.00  0.00     0.000 C 
ENDROOT
BRANCH   1   2
ATOM      2  C   UNL     1     138.655 144.149 138.091  1.00  0.00     0.000 C 
BRANCH   2   3
ATOM      3  C   UNL     1     138.057 144.910 139.287  1.00  0.00    -0.000 C 
BRANCH   3   4
ATOM      4  C   UNL     1     136.529 145.086 139.239  1.00  0.00    -0.003 C 
ATOM      5  C   UNL     1     136.099 146.549 139.128  1.00  0.00     0.004 C 
ENDBRANCH   3   4
ENDBRANCH   2   3
ENDBRANCH   1   2
BRANCH   1   6
ATOM      6  C   UNL     1     139.888 146.382 137.878  1.00  0.00     0.008 C 
BRANCH   6   7
ATOM      7  C   UNL     1     139.841 147.544 136.875  1.00  0.00     0.072 C 
BRANCH   7   8
ATOM      8  C   UNL     1     139.573 148.843 137.574  1.00  0.00     0.224 C 
ATOM      9  O   UNL     1     138.437 149.148 137.901  1.00  0.00    -0.303 OA
ENDBRANCH   7   8
ENDBRANCH   6   7
ENDBRANCH   1   6
TORSDOF 6
ENDMDL
MODEL 3
REMARK VINA RESULT:    -2.443      8.223      9.570
REMARK INTER + INTRA:          -3.671
REMARK INTER:                  -3.306
REMARK INTRA:                  -0.365
REMARK UNBOUND:                -0.371
REMARK SMILES CCCCCCCC=O
REMARK SMILES IDX 5 1 4 2 3 3 2 4 1 5 6 6 7 7 8 8 9 9
REMARK H PARENT
REMARK Flexibility Score: inf
ROOT
ATOM      1  C   UNL     1     141.521 135.146 138.267  1.00  0.00     0.000 C 
ENDROOT
BRANCH   1   2
ATOM      2  C   UNL     1     142.584 135.668 139.249  1.00  0.00     0.000 C 
BRANCH   2   3
ATOM      3  C   UNL     1     143.264 136.960 138.762  1.00  0.00    -0.000 C 
BRANCH   3   4
ATOM      4  C   UNL     1     144.766 137.056 139.081  1.00  0.00    -0.003 C 
ATOM      5  C   UNL     1     145.418 135.693 139.308  1.00  0.00     0.004 C 
ENDBRANCH   3   4
ENDBRANCH   2   3
ENDBRANCH   1   2
BRANCH   1   6
ATOM      6  C   UNL     1     142.114 134.233 137.183  1.00  0.00     0.008 C 
BRANCH   6   7
ATOM      7  C   UNL     1     141.880 132.744 137.474  1.00  0.00     0.072 C 
BRANCH   7   8
ATOM      8  C   UNL     1     143.180 132.030 137.690  1.00  0.00     0.224 C 
ATOM      9  O   UNL     1     144.019 132.486 138.450  1.00  0.00    -0.303 OA
ENDBRANCH   7   8
ENDBRANCH   6   7
ENDBRANCH   1   6
TORSDOF 6
ENDMDL
MODEL 4
REMARK VINA RESULT:    -2.424      9.060     10.164
REMARK INTER + INTRA:          -3.645
REMARK INTER:                  -3.192
REMARK INTRA:                  -0.453
REMARK UNBOUND:                -0.371
REMARK SMILES CCCCCCCC=O
REMARK SMILES IDX 5 1 4 2 3 3 2 4 1 5 6 6 7 7 8 8 9 9
REMARK H PARENT
REMARK Flexibility Score: inf
ROOT
ATOM      1  C   UNL     1     143.109 132.203 137.666  1.00  0.00     0.000 C 
ENDROOT
BRANCH   1   2
ATOM      2  C   UNL     1     141.753 132.921 137.789  1.00  0.00     0.000 C 
BRANCH   2   3
ATOM      3  C   UNL     1     141.752 134.311 137.130  1.00  0.00    -0.000 C 
BRANCH   3   4
ATOM      4  C   UNL     1     141.573 135.487 138.106  1.00  0.00    -0.003 C 
ATOM      5  C   UNL     1     142.891 136.168 138.470  1.00  0.00     0.004 C 
ENDBRANCH   3   4
ENDBRANCH   2   3
ENDBRANCH   1   2
BRANCH   1   6
ATOM      6  C   UNL     1     144.102 132.622 138.762  1.00  0.00     0.008 C 
BRANCH   6   7
ATOM      7  C   UNL     1     145.329 133.352 138.197  1.00  0.00     0.072 C 
BRANCH   7   8
ATOM      8  C   UNL     1     146.518 132.440 138.146  1.00  0.00     0.224 C 
ATOM      9  O   UNL     1     146.610 131.590 137.275  1.00  0.00    -0.303 OA
ENDBRANCH   7   8
ENDBRANCH   6   7
ENDBRANCH   1   6
TORSDOF 6
ENDMDL
MODEL 5
REMARK VINA RESULT:    -2.395     11.598     13.329
REMARK INTER + INTRA:          -3.606
REMARK INTER:                  -3.187
REMARK INTRA:                  -0.419
REMARK UNBOUND:                -0.371
REMARK SMILES CCCCCCCC=O
REMARK SMILES IDX 5 1 4 2 3 3 2 4 1 5 6 6 7 7 8 8 9 9
REMARK H PARENT
REMARK Flexibility Score: inf
ROOT
ATOM      1  C   UNL     1     135.724 139.512 137.128  1.00  0.00     0.000 C 
ENDROOT
BRANCH   1   2
ATOM      2  C   UNL     1     136.336 139.125 138.486  1.00  0.00     0.000 C 
BRANCH   2   3
ATOM      3  C   UNL     1     137.557 138.198 138.349  1.00  0.00    -0.000 C 
BRANCH   3   4
ATOM      4  C   UNL     1     137.468 136.892 139.157  1.00  0.00    -0.003 C 
ATOM      5  C   UNL     1     136.048 136.331 139.233  1.00  0.00     0.004 C 
ENDBRANCH   3   4
ENDBRANCH   2   3
ENDBRANCH   1   2
BRANCH   1   6
ATOM      6  C   UNL     1     134.189 139.457 137.133  1.00  0.00     0.008 C 
BRANCH   6   7
ATOM      7  C   UNL     1     133.616 139.157 138.526  1.00  0.00     0.072 C 
BRANCH   7   8
ATOM      8  C   UNL     1     132.686 137.982 138.481  1.00  0.00     0.224 C 
ATOM      9  O   UNL     1     131.776 137.943 137.668  1.00  0.00    -0.303 OA
ENDBRANCH   7   8
ENDBRANCH   6   7
ENDBRANCH   1   6
TORSDOF 6
ENDMDL
MODEL 6
REMARK VINA RESULT:    -2.385      7.583      9.426
REMARK INTER + INTRA:          -3.591
REMARK INTER:                  -2.983
REMARK INTRA:                  -0.608
REMARK UNBOUND:                -0.371
REMARK SMILES CCCCCCCC=O
REMARK SMILES IDX 5 1 4 2 3 3 2 4 1 5 6 6 7 7 8 8 9 9
REMARK H PARENT
REMARK Flexibility Score: inf
ROOT
ATOM      1  C   UNL     1     139.621 148.281 137.864  1.00  0.00     0.000 C 
ENDROOT
BRANCH   1   2
ATOM      2  C   UNL     1     138.255 148.978 137.997  1.00  0.00     0.000 C 
BRANCH   2   3
ATOM      3  C   UNL     1     137.386 148.379 139.118  1.00  0.00    -0.000 C 
BRANCH   3   4
ATOM      4  C   UNL     1     136.189 147.545 138.629  1.00  0.00    -0.003 C 
ATOM      5  C   UNL     1     136.175 146.127 139.198  1.00  0.00     0.004 C 
ENDBRANCH   3   4
ENDBRANCH   2   3
ENDBRANCH   1   2
BRANCH   1   6
ATOM      6  C   UNL     1     139.591 147.106 136.875  1.00  0.00     0.008 C 
BRANCH   6   7
ATOM      7  C   UNL     1     139.618 145.742 137.581  1.00  0.00     0.072 C 
BRANCH   7   8
ATOM      8  C   UNL     1     140.173 145.868 138.968  1.00  0.00     0.224 C 
ATOM      9  O   UNL     1     139.578 145.389 139.920  1.00  0.00    -0.303 OA
ENDBRANCH   7   8
ENDBRANCH   6   7
ENDBRANCH   1   6
TORSDOF 6
ENDMDL
MODEL 7
REMARK VINA RESULT:    -2.359      8.934     11.178
REMARK INTER + INTRA:          -3.557
REMARK INTER:                  -3.096
REMARK INTRA:                  -0.461
REMARK UNBOUND:                -0.371
REMARK SMILES CCCCCCCC=O
REMARK SMILES IDX 5 1 4 2 3 3 2 4 1 5 6 6 7 7 8 8 9 9
REMARK H PARENT
REMARK Flexibility Score: inf
ROOT
ATOM      1  C   UNL     1     138.327 149.303 137.617  1.00  0.00     0.000 C 
ENDROOT
BRANCH   1   2
ATOM      2  C   UNL     1     139.589 148.427 137.711  1.00  0.00     0.000 C 
BRANCH   2   3
ATOM      3  C   UNL     1     139.486 147.139 136.875  1.00  0.00    -0.000 C 
BRANCH   3   4
ATOM      4  C   UNL     1     139.492 145.837 137.695  1.00  0.00    -0.003 C 
ATOM      5  C   UNL     1     139.723 146.071 139.188  1.00  0.00     0.004 C 
ENDBRANCH   3   4
ENDBRANCH   2   3
ENDBRANCH   1   2
BRANCH   1   6
ATOM      6  C   UNL     1     137.343 149.048 138.768  1.00  0.00     0.008 C 
BRANCH   6   7
ATOM      7  C   UNL     1     136.190 148.117 138.362  1.00  0.00     0.072 C 
BRANCH   7   8
ATOM      8  C   UNL     1     135.120 148.876 137.637  1.00  0.00     0.224 C 
ATOM      9  O   UNL     1     134.623 149.875 138.133  1.00  0.00    -0.303 OA
ENDBRANCH   7   8
ENDBRANCH   6   7
ENDBRANCH   1   6
TORSDOF 6
ENDMDL
MODEL 8
REMARK VINA RESULT:    -2.355      8.268     10.538
REMARK INTER + INTRA:          -3.551
REMARK INTER:                  -3.080
REMARK INTRA:                  -0.471
REMARK UNBOUND:                -0.371
REMARK SMILES CCCCCCCC=O
REMARK SMILES IDX 5 1 4 2 3 3 2 4 1 5 6 6 7 7 8 8 9 9
REMARK H PARENT
REMARK Flexibility Score: inf
ROOT
ATOM      1  C   UNL     1     138.136 148.497 138.646  1.00  0.00     0.000 C 
ENDROOT
BRANCH   1   2
ATOM      2  C   UNL     1     139.233 148.816 137.614  1.00  0.00     0.000 C 
BRANCH   2   3
ATOM      3  C   UNL     1     139.879 147.552 137.019  1.00  0.00    -0.000 C 
BRANCH   3   4
ATOM      4  C   UNL     1     139.900 146.335 137.962  1.00  0.00    -0.003 C 
ATOM      5  C   UNL     1     139.528 145.029 137.261  1.00  0.00     0.004 C 
ENDBRANCH   3   4
ENDBRANCH   2   3
ENDBRANCH   1   2
BRANCH   1   6
ATOM      6  C   UNL     1     136.726 148.522 138.037  1.00  0.00     0.008 C 
BRANCH   6   7
ATOM      7  C   UNL     1     135.756 147.574 138.758  1.00  0.00     0.072 C 
BRANCH   7   8
ATOM      8  C   UNL     1     136.500 146.469 139.445  1.00  0.00     0.224 C 
ATOM      9  O   UNL     1     136.340 145.308 139.103  1.00  0.00    -0.303 OA
ENDBRANCH   7   8
ENDBRANCH   6   7
ENDBRANCH   1   6
TORSDOF 6
ENDMDL
MODEL 9
REMARK VINA RESULT:    -0.031     17.074     18.854
REMARK INTER + INTRA:          -0.413
REMARK INTER:                   0.000
REMARK INTRA:                  -0.413
REMARK UNBOUND:                -0.371
REMARK SMILES CCCCCCCC=O
REMARK SMILES IDX 5 1 4 2 3 3 2 4 1 5 6 6 7 7 8 8 9 9
REMARK H PARENT
REMARK Flexibility Score: inf
ROOT
ATOM      1  C   UNL     1     137.458 146.525 152.235  1.00  0.00     0.000 C 
ENDROOT
BRANCH   1   2
ATOM      2  C   UNL     1     137.550 144.993 152.339  1.00  0.00     0.000 C 
BRANCH   2   3
ATOM      3  C   UNL     1     136.949 144.274 151.119  1.00  0.00    -0.000 C 
BRANCH   3   4
ATOM      4  C   UNL     1     135.413 144.186 151.116  1.00  0.00    -0.003 C 
ATOM      5  C   UNL     1     134.862 143.302 152.235  1.00  0.00     0.004 C 
ENDBRANCH   3   4
ENDBRANCH   2   3
ENDBRANCH   1   2
BRANCH   1   6
ATOM      6  C   UNL     1     136.887 147.172 153.506  1.00  0.00     0.008 C 
BRANCH   6   7
ATOM      7  C   UNL     1     136.071 146.184 154.353  1.00  0.00     0.072 C 
BRANCH   7   8
ATOM      8  C   UNL     1     135.932 146.676 155.762  1.00  0.00     0.224 C 
ATOM      9  O   UNL     1     134.914 147.245 156.122  1.00  0.00    -0.303 OA
ENDBRANCH   7   8
ENDBRANCH   6   7
ENDBRANCH   1   6
TORSDOF 6
ENDMDL
