MODEL 1
REMARK VINA RESULT:    -4.034      0.000      0.000
REMARK INTER + INTRA:          -6.544
REMARK INTER:                  -5.921
REMARK INTRA:                  -0.623
REMARK UNBOUND:                -0.623
REMARK SMILES O=C([O-])CCCCCCCC(=O)[O-]
REMARK SMILES IDX 7 1 6 2 5 3 4 4 2 5 1 6 3 7 8 8 9 9 10 10 11 11 12 12 13 13
REMARK H PARENT
REMARK Flexibility Score: inf
ROOT
ATOM      1  C   UNL     1       2.099  50.648   0.782  1.00  0.00     0.000 C 
ENDROOT
BRANCH   1   2
ATOM      2  C   UNL     1       3.390  50.781   1.616  1.00  0.00     0.000 C 
BRANCH   2   3
ATOM      3  C   UNL     1       4.438  51.751   1.044  1.00  0.00     0.006 C 
BRANCH   3   4
ATOM      4  C   UNL     1       4.189  53.208   1.454  1.00  0.00     0.053 C 
BRANCH   4   5
ATOM      5  C   UNL     1       3.665  53.995   0.294  1.00  0.00     0.041 C 
ATOM      6  O   UNL     1       2.424  54.140   0.135  1.00  0.00    -0.550 OA
ATOM      7  O   UNL     1       4.548  54.611  -0.584  1.00  0.00    -0.550 OA
ENDBRANCH   4   5
ENDBRANCH   3   4
ENDBRANCH   2   3
ENDBRANCH   1   2
BRANCH   1   8
ATOM      8  C   UNL     1       2.303  50.208  -0.679  1.00  0.00     0.000 C 
BRANCH   8   9
ATOM      9  C   UNL     1       1.914  51.253  -1.742  1.00  0.00     0.006 C 
BRANCH   9  10
ATOM     10  C   UNL     1       2.259  50.838  -3.185  1.00  0.00     0.053 C 
BRANCH  10  11
ATOM     11  C   UNL     1       3.540  51.446  -3.669  1.00  0.00     0.041 C 
ATOM     12  O   UNL     1       3.823  51.438  -4.896  1.00  0.00    -0.550 OA
ATOM     13  O   UNL     1       4.406  52.055  -2.769  1.00  0.00    -0.550 OA
ENDBRANCH  10  11
ENDBRANCH   9  10
ENDBRANCH   8   9
ENDBRANCH   1   8
TORSDOF 8
ENDMDL
MODEL 2
REMARK VINA RESULT:    -4.014      1.874      2.854
REMARK INTER + INTRA:          -6.514
REMARK INTER:                  -5.797
REMARK INTRA:                  -0.717
REMARK UNBOUND:                -0.623
REMARK SMILES O=C([O-])CCCCCCCC(=O)[O-]
REMARK SMILES IDX 7 1 6 2 5 3 4 4 2 5 1 6 3 7 8 8 9 9 10 10 11 11 12 12 13 13
REMARK H PARENT
REMARK Flexibility Score: inf
ROOT
ATOM      1  C   UNL     1       3.633  51.039   1.565  1.00  0.00     0.000 C 
ENDROOT
BRANCH   1   2
ATOM      2  C   UNL     1       4.210  52.333   0.955  1.00  0.00     0.000 C 
BRANCH   2   3
ATOM      3  C   UNL     1       5.554  52.166   0.225  1.00  0.00     0.006 C 
BRANCH   3   4
ATOM      4  C   UNL     1       5.600  52.909  -1.116  1.00  0.00     0.053 C 
BRANCH   4   5
ATOM      5  C   UNL     1       6.454  52.168  -2.095  1.00  0.00     0.041 C 
ATOM      6  O   UNL     1       5.963  51.753  -3.178  1.00  0.00    -0.550 OA
ATOM      7  O   UNL     1       7.806  51.978  -1.835  1.00  0.00    -0.550 OA
ENDBRANCH   4   5
ENDBRANCH   3   4
ENDBRANCH   2   3
ENDBRANCH   1   2
BRANCH   1   8
ATOM      8  C   UNL     1       2.406  50.458   0.838  1.00  0.00     0.000 C 
BRANCH   8   9
ATOM      9  C   UNL     1       1.916  51.269  -0.377  1.00  0.00     0.006 C 
BRANCH   9  10
ATOM     10  C   UNL     1       2.289  50.646  -1.736  1.00  0.00     0.053 C 
BRANCH  10  11
ATOM     11  C   UNL     1       2.458  51.673  -2.815  1.00  0.00     0.041 C 
ATOM     12  O   UNL     1       2.413  52.900  -2.537  1.00  0.00    -0.550 OA
ATOM     13  O   UNL     1       2.701  51.274  -4.123  1.00  0.00    -0.550 OA
ENDBRANCH  10  11
ENDBRANCH   9  10
ENDBRANCH   8   9
ENDBRANCH   1   8
TORSDOF 8
ENDMDL
MODEL 3
REMARK VINA RESULT:    -3.987      2.118      3.597
REMARK INTER + INTRA:          -6.474
REMARK INTER:                  -5.926
REMARK INTRA:                  -0.548
REMARK UNBOUND:                -0.623
REMARK SMILES O=C([O-])CCCCCCCC(=O)[O-]
REMARK SMILES IDX 7 1 6 2 5 3 4 4 2 5 1 6 3 7 8 8 9 9 10 10 11 11 12 12 13 13
REMARK H PARENT
REMARK Flexibility Score: inf
ROOT
ATOM      1  C   UNL     1       4.133  52.104   1.322  1.00  0.00     0.000 C 
ENDROOT
BRANCH   1   2
ATOM      2  C   UNL     1       3.350  50.784   1.482  1.00  0.00     0.000 C 
BRANCH   2   3
ATOM      3  C   UNL     1       2.313  50.504   0.380  1.00  0.00     0.006 C 
BRANCH   3   4
ATOM      4  C   UNL     1       1.877  51.773  -0.364  1.00  0.00     0.053 C 
BRANCH   4   5
ATOM      5  C   UNL     1       2.261  51.690  -1.807  1.00  0.00     0.041 C 
ATOM      6  O   UNL     1       2.224  50.586  -2.411  1.00  0.00    -0.550 OA
ATOM      7  O   UNL     1       2.612  52.842  -2.501  1.00  0.00    -0.550 OA
ENDBRANCH   4   5
ENDBRANCH   3   4
ENDBRANCH   2   3
ENDBRANCH   1   2
BRANCH   1   8
ATOM      8  C   UNL     1       5.660  51.986   1.481  1.00  0.00     0.000 C 
BRANCH   8   9
ATOM      9  C   UNL     1       6.492  52.638   0.360  1.00  0.00     0.006 C 
BRANCH   9  10
ATOM     10  C   UNL     1       5.780  52.676  -1.006  1.00  0.00     0.053 C 
BRANCH  10  11
ATOM     11  C   UNL     1       6.675  52.266  -2.135  1.00  0.00     0.041 C 
ATOM     12  O   UNL     1       6.381  52.568  -3.322  1.00  0.00    -0.550 OA
ATOM     13  O   UNL     1       7.855  51.581  -1.874  1.00  0.00    -0.550 OA
ENDBRANCH  10  11
ENDBRANCH   9  10
ENDBRANCH   8   9
ENDBRANCH   1   8
TORSDOF 8
ENDMDL
MODEL 4
REMARK VINA RESULT:    -3.875      0.943      4.322
REMARK INTER + INTRA:          -6.309
REMARK INTER:                  -5.577
REMARK INTRA:                  -0.732
REMARK UNBOUND:                -0.623
REMARK SMILES O=C([O-])CCCCCCCC(=O)[O-]
REMARK SMILES IDX 7 1 6 2 5 3 4 4 2 5 1 6 3 7 8 8 9 9 10 10 11 11 12 12 13 13
REMARK H PARENT
REMARK Flexibility Score: inf
ROOT
ATOM      1  C   UNL     1       3.714  51.194   1.523  1.00  0.00     0.000 C 
ENDROOT
BRANCH   1   2
ATOM      2  C   UNL     1       2.513  50.646   0.725  1.00  0.00     0.000 C 
BRANCH   2   3
ATOM      3  C   UNL     1       2.085  51.503  -0.479  1.00  0.00     0.006 C 
BRANCH   3   4
ATOM      4  C   UNL     1       2.243  50.770  -1.817  1.00  0.00     0.053 C 
BRANCH   4   5
ATOM      5  C   UNL     1       2.970  51.630  -2.802  1.00  0.00     0.041 C 
ATOM      6  O   UNL     1       3.456  52.734  -2.441  1.00  0.00    -0.550 OA
ATOM      7  O   UNL     1       3.154  51.190  -4.107  1.00  0.00    -0.550 OA
ENDBRANCH   4   5
ENDBRANCH   3   4
ENDBRANCH   2   3
ENDBRANCH   1   2
BRANCH   1   8
ATOM      8  C   UNL     1       4.850  51.794   0.673  1.00  0.00     0.000 C 
BRANCH   8   9
ATOM      9  C   UNL     1       5.343  53.184   1.119  1.00  0.00     0.006 C 
BRANCH   9  10
ATOM     10  C   UNL     1       4.209  54.158   1.494  1.00  0.00     0.053 C 
BRANCH  10  11
ATOM     11  C   UNL     1       3.726  54.959   0.324  1.00  0.00     0.041 C 
ATOM     12  O   UNL     1       4.536  55.637  -0.361  1.00  0.00    -0.550 OA
ATOM     13  O   UNL     1       2.384  54.929  -0.034  1.00  0.00    -0.550 OA
ENDBRANCH  10  11
ENDBRANCH   9  10
ENDBRANCH   8   9
ENDBRANCH   1   8
TORSDOF 8
ENDMDL
MODEL 5
REMARK VINA RESULT:    -3.858      1.115      4.439
REMARK INTER + INTRA:          -6.285
REMARK INTER:                  -5.723
REMARK INTRA:                  -0.562
REMARK UNBOUND:                -0.623
REMARK SMILES O=C([O-])CCCCCCCC(=O)[O-]
REMARK SMILES IDX 7 1 6 2 5 3 4 4 2 5 1 6 3 7 8 8 9 9 10 10 11 11 12 12 13 13
REMARK H PARENT
REMARK Flexibility Score: inf
ROOT
ATOM      1  C   UNL     1       1.950  51.124   0.020  1.00  0.00     0.000 C 
ENDROOT
BRANCH   1   2
ATOM      2  C   UNL     1       2.230  50.609  -1.407  1.00  0.00     0.000 C 
BRANCH   2   3
ATOM      3  C   UNL     1       2.865  51.638  -2.358  1.00  0.00     0.006 C 
BRANCH   3   4
ATOM      4  C   UNL     1       2.880  51.169  -3.818  1.00  0.00     0.053 C 
BRANCH   4   5
ATOM      5  C   UNL     1       4.190  51.502  -4.461  1.00  0.00     0.041 C 
ATOM      6  O   UNL     1       4.241  51.780  -5.688  1.00  0.00    -0.550 OA
ATOM      7  O   UNL     1       5.347  51.556  -3.693  1.00  0.00    -0.550 OA
ENDBRANCH   4   5
ENDBRANCH   3   4
ENDBRANCH   2   3
ENDBRANCH   1   2
BRANCH   1   8
ATOM      8  C   UNL     1       2.982  50.707   1.085  1.00  0.00     0.000 C 
BRANCH   8   9
ATOM      9  C   UNL     1       3.958  51.815   1.526  1.00  0.00     0.006 C 
BRANCH   9  10
ATOM     10  C   UNL     1       5.134  52.034   0.556  1.00  0.00     0.053 C 
BRANCH  10  11
ATOM     11  C   UNL     1       5.156  53.416  -0.022  1.00  0.00     0.041 C 
ATOM     12  O   UNL     1       4.100  54.101  -0.074  1.00  0.00    -0.550 OA
ATOM     13  O   UNL     1       6.351  53.965  -0.471  1.00  0.00    -0.550 OA
ENDBRANCH  10  11
ENDBRANCH   9  10
ENDBRANCH   8   9
ENDBRANCH   1   8
TORSDOF 8
ENDMDL
MODEL 6
REMARK VINA RESULT:    -3.846      1.983      2.641
REMARK INTER + INTRA:          -6.267
REMARK INTER:                  -5.756
REMARK INTRA:                  -0.512
REMARK UNBOUND:                -0.623
REMARK SMILES O=C([O-])CCCCCCCC(=O)[O-]
REMARK SMILES IDX 7 1 6 2 5 3 4 4 2 5 1 6 3 7 8 8 9 9 10 10 11 11 12 12 13 13
REMARK H PARENT
REMARK Flexibility Score: inf
ROOT
ATOM      1  C   UNL     1       3.328  50.758   1.525  1.00  0.00     0.000 C 
ENDROOT
BRANCH   1   2
ATOM      2  C   UNL     1       3.927  52.167   1.333  1.00  0.00     0.000 C 
BRANCH   2   3
ATOM      3  C   UNL     1       5.373  52.194   0.807  1.00  0.00     0.006 C 
BRANCH   3   4
ATOM      4  C   UNL     1       6.415  52.253   1.931  1.00  0.00     0.053 C 
BRANCH   4   5
ATOM      5  C   UNL     1       6.996  53.628   2.033  1.00  0.00     0.041 C 
ATOM      6  O   UNL     1       8.202  53.830   1.733  1.00  0.00    -0.550 OA
ATOM      7  O   UNL     1       6.192  54.696   2.412  1.00  0.00    -0.550 OA
ENDBRANCH   4   5
ENDBRANCH   3   4
ENDBRANCH   2   3
ENDBRANCH   1   2
BRANCH   1   8
ATOM      8  C   UNL     1       2.156  50.408   0.588  1.00  0.00     0.000 C 
BRANCH   8   9
ATOM      9  C   UNL     1       1.911  51.407  -0.559  1.00  0.00     0.006 C 
BRANCH   9  10
ATOM     10  C   UNL     1       2.183  50.828  -1.961  1.00  0.00     0.053 C 
BRANCH  10  11
ATOM     11  C   UNL     1       3.153  51.654  -2.748  1.00  0.00     0.041 C 
ATOM     12  O   UNL     1       3.614  52.723  -2.269  1.00  0.00    -0.550 OA
ATOM     13  O   UNL     1       3.578  51.224  -3.999  1.00  0.00    -0.550 OA
ENDBRANCH  10  11
ENDBRANCH   9  10
ENDBRANCH   8   9
ENDBRANCH   1   8
TORSDOF 8
ENDMDL
MODEL 7
REMARK VINA RESULT:    -3.827      1.732      2.650
REMARK INTER + INTRA:          -6.239
REMARK INTER:                  -5.510
REMARK INTRA:                  -0.729
REMARK UNBOUND:                -0.623
REMARK SMILES O=C([O-])CCCCCCCC(=O)[O-]
REMARK SMILES IDX 7 1 6 2 5 3 4 4 2 5 1 6 3 7 8 8 9 9 10 10 11 11 12 12 13 13
REMARK H PARENT
REMARK Flexibility Score: inf
ROOT
ATOM      1  C   UNL     1       4.099  52.105   1.463  1.00  0.00     0.000 C 
ENDROOT
BRANCH   1   2
ATOM      2  C   UNL     1       5.637  52.015   1.526  1.00  0.00     0.000 C 
BRANCH   2   3
ATOM      3  C   UNL     1       6.374  52.589   0.303  1.00  0.00     0.006 C 
BRANCH   3   4
ATOM      4  C   UNL     1       5.479  52.689  -0.939  1.00  0.00     0.053 C 
BRANCH   4   5
ATOM      5  C   UNL     1       5.267  54.121  -1.315  1.00  0.00     0.041 C 
ATOM      6  O   UNL     1       6.015  54.670  -2.166  1.00  0.00    -0.550 OA
ATOM      7  O   UNL     1       4.211  54.837  -0.764  1.00  0.00    -0.550 OA
ENDBRANCH   4   5
ENDBRANCH   3   4
ENDBRANCH   2   3
ENDBRANCH   1   2
BRANCH   1   8
ATOM      8  C   UNL     1       3.358  50.755   1.495  1.00  0.00     0.000 C 
BRANCH   8   9
ATOM      9  C   UNL     1       2.364  50.521   0.342  1.00  0.00     0.006 C 
BRANCH   9  10
ATOM     10  C   UNL     1       1.875  51.817  -0.334  1.00  0.00     0.053 C 
BRANCH  10  11
ATOM     11  C   UNL     1       2.086  51.809  -1.817  1.00  0.00     0.041 C 
ATOM     12  O   UNL     1       2.243  50.721  -2.432  1.00  0.00    -0.550 OA
ATOM     13  O   UNL     1       2.072  53.002  -2.529  1.00  0.00    -0.550 OA
ENDBRANCH  10  11
ENDBRANCH   9  10
ENDBRANCH   8   9
ENDBRANCH   1   8
TORSDOF 8
ENDMDL
