MODEL 1
REMARK VINA RESULT:    -4.853      0.000      0.000
REMARK INTER + INTRA:          -5.524
REMARK INTER:                  -5.279
REMARK INTRA:                  -0.245
REMARK UNBOUND:                -0.245
REMARK SMILES O=C([O-])c1ccccc1O
REMARK SMILES IDX 4 1 9 2 5 3 8 4 6 5 7 6 2 7 1 8 3 9 10 10
REMARK H PARENT 10 11
REMARK Flexibility Score: inf
ROOT
ATOM      1  C   UNL     1      12.703  29.473 128.058  1.00  0.00     0.039 A 
ATOM      2  C   UNL     1      12.156  30.688 128.535  1.00  0.00     0.124 A 
ATOM      3  C   UNL     1      12.367  29.040 126.761  1.00  0.00     0.014 A 
ATOM      4  C   UNL     1      11.296  31.437 127.717  1.00  0.00     0.047 A 
ATOM      5  C   UNL     1      11.509  29.795 125.958  1.00  0.00     0.001 A 
ATOM      6  C   UNL     1      10.974  30.991 126.435  1.00  0.00     0.004 A 
ENDROOT
BRANCH   1   7
ATOM      7  C   UNL     1      13.619  28.645 128.885  1.00  0.00     0.075 C 
ATOM      8  O   UNL     1      13.416  28.484 130.117  1.00  0.00    -0.545 OA
ATOM      9  O   UNL     1      14.723  28.031 128.305  1.00  0.00    -0.545 OA
ENDBRANCH   1   7
BRANCH   2  10
ATOM     10  O   UNL     1      12.463  31.155 129.814  1.00  0.00    -0.507 OA
ATOM     11  H   UNL     1      13.369  30.990 130.239  1.00  0.00     0.293 HD
ENDBRANCH   2  10
TORSDOF 2
ENDMDL
MODEL 2
REMARK VINA RESULT:    -4.833     16.934     18.229
REMARK INTER + INTRA:          -5.502
REMARK INTER:                  -5.248
REMARK INTRA:                  -0.253
REMARK UNBOUND:                -0.245
REMARK SMILES O=C([O-])c1ccccc1O
REMARK SMILES IDX 4 1 9 2 5 3 8 4 6 5 7 6 2 7 1 8 3 9 10 10
REMARK H PARENT 10 11
REMARK Flexibility Score: inf
ROOT
ATOM      1  C   UNL     1      30.035  34.165 129.499  1.00  0.00     0.039 A 
ATOM      2  C   UNL     1      29.178  33.038 129.528  1.00  0.00     0.124 A 
ATOM      3  C   UNL     1      30.489  34.702 130.719  1.00  0.00     0.014 A 
ATOM      4  C   UNL     1      28.799  32.478 130.757  1.00  0.00     0.047 A 
ATOM      5  C   UNL     1      30.104  34.135 131.936  1.00  0.00     0.001 A 
ATOM      6  C   UNL     1      29.260  33.025 131.955  1.00  0.00     0.004 A 
ENDROOT
BRANCH   1   7
ATOM      7  C   UNL     1      30.465  34.793 128.224  1.00  0.00     0.075 C 
ATOM      8  O   UNL     1      30.362  36.035 128.044  1.00  0.00    -0.545 OA
ATOM      9  O   UNL     1      30.993  34.013 127.202  1.00  0.00    -0.545 OA
ENDBRANCH   1   7
BRANCH   2  10
ATOM     10  O   UNL     1      28.705  32.472 128.344  1.00  0.00    -0.507 OA
ATOM     11  H   UNL     1      28.824  32.932 127.448  1.00  0.00     0.293 HD
ENDBRANCH   2  10
TORSDOF 2
ENDMDL
MODEL 3
REMARK VINA RESULT:    -4.712      1.103      2.382
REMARK INTER + INTRA:          -5.370
REMARK INTER:                  -5.135
REMARK INTRA:                  -0.235
REMARK UNBOUND:                -0.245
REMARK SMILES O=C([O-])c1ccccc1O
REMARK SMILES IDX 4 1 9 2 5 3 8 4 6 5 7 6 2 7 1 8 3 9 10 10
REMARK H PARENT 10 11
REMARK Flexibility Score: inf
ROOT
ATOM      1  C   UNL     1      12.602  29.688 127.892  1.00  0.00     0.039 A 
ATOM      2  C   UNL     1      11.903  29.130 126.795  1.00  0.00     0.124 A 
ATOM      3  C   UNL     1      12.418  31.051 128.191  1.00  0.00     0.014 A 
ATOM      4  C   UNL     1      11.045  29.934 126.030  1.00  0.00     0.047 A 
ATOM      5  C   UNL     1      11.561  31.841 127.421  1.00  0.00     0.001 A 
ATOM      6  C   UNL     1      10.876  31.284 126.342  1.00  0.00     0.004 A 
ENDROOT
BRANCH   1   7
ATOM      7  C   UNL     1      13.521  28.878 128.733  1.00  0.00     0.075 C 
ATOM      8  O   UNL     1      14.526  28.307 128.233  1.00  0.00    -0.545 OA
ATOM      9  O   UNL     1      13.282  28.737 130.095  1.00  0.00    -0.545 OA
ENDBRANCH   1   7
BRANCH   2  10
ATOM     10  O   UNL     1      12.054  27.783 126.462  1.00  0.00    -0.507 OA
ATOM     11  H   UNL     1      11.407  27.076 126.794  1.00  0.00     0.293 HD
ENDBRANCH   2  10
TORSDOF 2
ENDMDL
MODEL 4
REMARK VINA RESULT:    -4.686     16.787     18.024
REMARK INTER + INTRA:          -5.342
REMARK INTER:                  -5.093
REMARK INTRA:                  -0.249
REMARK UNBOUND:                -0.245
REMARK SMILES O=C([O-])c1ccccc1O
REMARK SMILES IDX 4 1 9 2 5 3 8 4 6 5 7 6 2 7 1 8 3 9 10 10
REMARK H PARENT 10 11
REMARK Flexibility Score: inf
ROOT
ATOM      1  C   UNL     1      29.578  33.410 129.256  1.00  0.00     0.039 A 
ATOM      2  C   UNL     1      30.424  34.474 129.649  1.00  0.00     0.124 A 
ATOM      3  C   UNL     1      28.937  32.650 130.253  1.00  0.00     0.014 A 
ATOM      4  C   UNL     1      30.610  34.754 131.012  1.00  0.00     0.047 A 
ATOM      5  C   UNL     1      29.131  32.939 131.606  1.00  0.00     0.001 A 
ATOM      6  C   UNL     1      29.966  33.989 131.985  1.00  0.00     0.004 A 
ENDROOT
BRANCH   1   7
ATOM      7  C   UNL     1      29.349  33.074 127.827  1.00  0.00     0.075 C 
ATOM      8  O   UNL     1      28.183  32.999 127.357  1.00  0.00    -0.545 OA
ATOM      9  O   UNL     1      30.426  32.837 126.982  1.00  0.00    -0.545 OA
ENDBRANCH   1   7
BRANCH   2  10
ATOM     10  O   UNL     1      31.079  35.255 128.696  1.00  0.00    -0.507 OA
ATOM     11  H   UNL     1      30.906  35.140 127.703  1.00  0.00     0.293 HD
ENDBRANCH   2  10
TORSDOF 2
ENDMDL
MODEL 5
REMARK VINA RESULT:    -4.622      1.000      2.780
REMARK INTER + INTRA:          -5.273
REMARK INTER:                  -5.020
REMARK INTRA:                  -0.253
REMARK UNBOUND:                -0.245
REMARK SMILES O=C([O-])c1ccccc1O
REMARK SMILES IDX 4 1 9 2 5 3 8 4 6 5 7 6 2 7 1 8 3 9 10 10
REMARK H PARENT 10 11
REMARK Flexibility Score: inf
ROOT
ATOM      1  C   UNL     1      11.891  30.743 128.744  1.00  0.00     0.039 A 
ATOM      2  C   UNL     1      12.625  29.670 128.185  1.00  0.00     0.124 A 
ATOM      3  C   UNL     1      11.017  31.471 127.914  1.00  0.00     0.014 A 
ATOM      4  C   UNL     1      12.474  29.350 126.827  1.00  0.00     0.047 A 
ATOM      5  C   UNL     1      10.876  31.143 126.564  1.00  0.00     0.001 A 
ATOM      6  C   UNL     1      11.603  30.084 126.021  1.00  0.00     0.004 A 
ENDROOT
BRANCH   1   7
ATOM      7  C   UNL     1      12.015  31.120 130.175  1.00  0.00     0.075 C 
ATOM      8  O   UNL     1      12.098  32.327 130.525  1.00  0.00    -0.545 OA
ATOM      9  O   UNL     1      12.043  30.138 131.159  1.00  0.00    -0.545 OA
ENDBRANCH   1   7
BRANCH   2  10
ATOM     10  O   UNL     1      13.502  28.920 128.970  1.00  0.00    -0.507 OA
ATOM     11  H   UNL     1      14.480  28.812 128.723  1.00  0.00     0.293 HD
ENDBRANCH   2  10
TORSDOF 2
ENDMDL
MODEL 6
REMARK VINA RESULT:    -4.442     12.769     13.775
REMARK INTER + INTRA:          -5.076
REMARK INTER:                  -4.822
REMARK INTRA:                  -0.254
REMARK UNBOUND:                -0.245
REMARK SMILES O=C([O-])c1ccccc1O
REMARK SMILES IDX 4 1 9 2 5 3 8 4 6 5 7 6 2 7 1 8 3 9 10 10
REMARK H PARENT 10 11
REMARK Flexibility Score: inf
ROOT
ATOM      1  C   UNL     1      20.501  33.013 117.603  1.00  0.00     0.039 A 
ATOM      2  C   UNL     1      20.498  31.598 117.645  1.00  0.00     0.124 A 
ATOM      3  C   UNL     1      19.626  33.719 118.450  1.00  0.00     0.014 A 
ATOM      4  C   UNL     1      19.632  30.926 118.522  1.00  0.00     0.047 A 
ATOM      5  C   UNL     1      18.769  33.037 119.318  1.00  0.00     0.001 A 
ATOM      6  C   UNL     1      18.772  31.644 119.354  1.00  0.00     0.004 A 
ENDROOT
BRANCH   1   7
ATOM      7  C   UNL     1      21.399  33.771 116.694  1.00  0.00     0.075 C 
ATOM      8  O   UNL     1      20.954  34.694 115.962  1.00  0.00    -0.545 OA
ATOM      9  O   UNL     1      22.754  33.468 116.636  1.00  0.00    -0.545 OA
ENDBRANCH   1   7
BRANCH   2  10
ATOM     10  O   UNL     1      21.349  30.858 116.824  1.00  0.00    -0.507 OA
ATOM     11  H   UNL     1      21.334  30.956 115.815  1.00  0.00     0.293 HD
ENDBRANCH   2  10
TORSDOF 2
ENDMDL
MODEL 7
REMARK VINA RESULT:    -4.410      2.119      3.111
REMARK INTER + INTRA:          -5.042
REMARK INTER:                  -4.792
REMARK INTRA:                  -0.250
REMARK UNBOUND:                -0.245
REMARK SMILES O=C([O-])c1ccccc1O
REMARK SMILES IDX 4 1 9 2 5 3 8 4 6 5 7 6 2 7 1 8 3 9 10 10
REMARK H PARENT 10 11
REMARK Flexibility Score: inf
ROOT
ATOM      1  C   UNL     1      12.346  30.509 129.050  1.00  0.00     0.039 A 
ATOM      2  C   UNL     1      12.045  31.777 128.499  1.00  0.00     0.124 A 
ATOM      3  C   UNL     1      12.216  30.324 130.439  1.00  0.00     0.014 A 
ATOM      4  C   UNL     1      11.625  32.822 129.337  1.00  0.00     0.047 A 
ATOM      5  C   UNL     1      11.797  31.373 131.262  1.00  0.00     0.001 A 
ATOM      6  C   UNL     1      11.502  32.619 130.712  1.00  0.00     0.004 A 
ENDROOT
BRANCH   1   7
ATOM      7  C   UNL     1      12.793  29.371 128.205  1.00  0.00     0.075 C 
ATOM      8  O   UNL     1      12.213  29.099 127.121  1.00  0.00    -0.545 OA
ATOM      9  O   UNL     1      13.868  28.584 128.603  1.00  0.00    -0.545 OA
ENDBRANCH   1   7
BRANCH   2  10
ATOM     10  O   UNL     1      12.159  32.005 127.127  1.00  0.00    -0.507 OA
ATOM     11  H   UNL     1      12.852  31.524 126.563  1.00  0.00     0.293 HD
ENDBRANCH   2  10
TORSDOF 2
ENDMDL
MODEL 8
REMARK VINA RESULT:    -4.367     17.022     18.236
REMARK INTER + INTRA:          -4.995
REMARK INTER:                  -4.799
REMARK INTRA:                  -0.196
REMARK UNBOUND:                -0.245
REMARK SMILES O=C([O-])c1ccccc1O
REMARK SMILES IDX 4 1 9 2 5 3 8 4 6 5 7 6 2 7 1 8 3 9 10 10
REMARK H PARENT 10 11
REMARK Flexibility Score: inf
ROOT
ATOM      1  C   UNL     1      30.062  34.219 127.968  1.00  0.00     0.039 A 
ATOM      2  C   UNL     1      29.086  33.401 128.584  1.00  0.00     0.124 A 
ATOM      3  C   UNL     1      31.036  34.838 128.774  1.00  0.00     0.014 A 
ATOM      4  C   UNL     1      29.102  33.220 129.976  1.00  0.00     0.047 A 
ATOM      5  C   UNL     1      31.041  34.650 130.158  1.00  0.00     0.001 A 
ATOM      6  C   UNL     1      30.076  33.842 130.758  1.00  0.00     0.004 A 
ENDROOT
BRANCH   1   7
ATOM      7  C   UNL     1      30.088  34.442 126.499  1.00  0.00     0.075 C 
ATOM      8  O   UNL     1      29.192  35.119 125.929  1.00  0.00    -0.545 OA
ATOM      9  O   UNL     1      31.110  33.902 125.726  1.00  0.00    -0.545 OA
ENDBRANCH   1   7
BRANCH   2  10
ATOM     10  O   UNL     1      28.102  32.767 127.824  1.00  0.00    -0.507 OA
ATOM     11  H   UNL     1      27.887  31.783 127.945  1.00  0.00     0.293 HD
ENDBRANCH   2  10
TORSDOF 2
ENDMDL
MODEL 9
REMARK VINA RESULT:    -4.351      1.767      2.627
REMARK INTER + INTRA:          -4.978
REMARK INTER:                  -4.753
REMARK INTRA:                  -0.225
REMARK UNBOUND:                -0.245
REMARK SMILES O=C([O-])c1ccccc1O
REMARK SMILES IDX 4 1 9 2 5 3 8 4 6 5 7 6 2 7 1 8 3 9 10 10
REMARK H PARENT 10 11
REMARK Flexibility Score: inf
ROOT
ATOM      1  C   UNL     1      11.989  30.853 128.753  1.00  0.00     0.039 A 
ATOM      2  C   UNL     1      11.389  31.722 127.811  1.00  0.00     0.124 A 
ATOM      3  C   UNL     1      12.494  29.616 128.310  1.00  0.00     0.014 A 
ATOM      4  C   UNL     1      11.307  31.342 126.462  1.00  0.00     0.047 A 
ATOM      5  C   UNL     1      12.407  29.250 126.965  1.00  0.00     0.001 A 
ATOM      6  C   UNL     1      11.814  30.111 126.042  1.00  0.00     0.004 A 
ENDROOT
BRANCH   1   7
ATOM      7  C   UNL     1      12.100  31.210 130.191  1.00  0.00     0.075 C 
ATOM      8  O   UNL     1      12.196  32.411 130.558  1.00  0.00    -0.545 OA
ATOM      9  O   UNL     1      12.100  30.214 131.162  1.00  0.00    -0.545 OA
ENDBRANCH   1   7
BRANCH   2  10
ATOM     10  O   UNL     1      10.875  32.958 128.205  1.00  0.00    -0.507 OA
ATOM     11  H   UNL     1      10.832  33.745 127.567  1.00  0.00     0.293 HD
ENDBRANCH   2  10
TORSDOF 2
ENDMDL
