MODEL 1
REMARK VINA RESULT:    -4.544      0.000      0.000
REMARK INTER + INTRA:         -15.318
REMARK INTER:                 -11.451
REMARK INTRA:                  -3.866
REMARK UNBOUND:                -3.866
REMARK SMILES CCCCCCCCCCCCCCCCCCCCCCCCCCCC(=O)[O-]
REMARK SMILES IDX 15 1 16 2 17 3 18 4 19 5 20 6 21 7 22 8 23 9 24 10 25 11
REMARK SMILES IDX 26 12 27 13 28 14 29 15 30 16 14 17 13 18 12 19 11 20 10 21
REMARK SMILES IDX 9 22 8 23 7 24 6 25 5 26 4 27 3 28 2 29 1 30
REMARK H PARENT
REMARK Flexibility Score: inf
ROOT
ATOM      1  C   UNL     1       4.624 -11.311 -22.927  1.00  0.00     0.000 C 
ENDROOT
BRANCH   1   2
ATOM      2  C   UNL     1       5.974 -11.117 -23.638  1.00  0.00     0.000 C 
BRANCH   2   3
ATOM      3  C   UNL     1       6.614  -9.752 -23.336  1.00  0.00     0.000 C 
BRANCH   3   4
ATOM      4  C   UNL     1       5.909  -8.975 -22.202  1.00  0.00     0.000 C 
BRANCH   4   5
ATOM      5  C   UNL     1       5.830  -7.467 -22.497  1.00  0.00     0.000 C 
BRANCH   5   6
ATOM      6  C   UNL     1       4.643  -6.779 -21.799  1.00  0.00     0.000 C 
BRANCH   6   7
ATOM      7  C   UNL     1       4.475  -7.118 -20.304  1.00  0.00     0.000 C 
BRANCH   7   8
ATOM      8  C   UNL     1       3.024  -7.111 -19.790  1.00  0.00     0.000 C 
BRANCH   8   9
ATOM      9  C   UNL     1       2.041  -6.283 -20.636  1.00  0.00     0.000 C 
BRANCH   9  10
ATOM     10  C   UNL     1       1.305  -5.186 -19.836  1.00  0.00     0.000 C 
BRANCH  10  11
ATOM     11  C   UNL     1       1.531  -3.780 -20.418  1.00  0.00     0.000 C 
BRANCH  11  12
ATOM     12  C   UNL     1       2.328  -2.859 -19.472  1.00  0.00     0.006 C 
BRANCH  12  13
ATOM     13  C   UNL     1       3.065  -3.611 -18.351  1.00  0.00     0.053 C 
BRANCH  13  14
ATOM     14  C   UNL     1       4.525  -3.776 -18.635  1.00  0.00     0.041 C 
ATOM     15  O   UNL     1       5.275  -4.334 -17.792  1.00  0.00    -0.550 OA
ATOM     16  O   UNL     1       5.056  -3.323 -19.835  1.00  0.00    -0.550 OA
ENDBRANCH  13  14
ENDBRANCH  12  13
ENDBRANCH  11  12
ENDBRANCH  10  11
ENDBRANCH   9  10
ENDBRANCH   8   9
ENDBRANCH   7   8
ENDBRANCH   6   7
ENDBRANCH   5   6
ENDBRANCH   4   5
ENDBRANCH   3   4
ENDBRANCH   2   3
ENDBRANCH   1   2
BRANCH   1  17
ATOM     17  C   UNL     1       3.463 -11.590 -23.903  1.00  0.00     0.000 C 
BRANCH  17  18
ATOM     18  C   UNL     1       2.259 -10.639 -23.777  1.00  0.00     0.000 C 
BRANCH  18  19
ATOM     19  C   UNL     1       2.412  -9.624 -22.633  1.00  0.00     0.000 C 
BRANCH  19  20
ATOM     20  C   UNL     1       1.246  -9.738 -21.641  1.00  0.00     0.000 C 
BRANCH  20  21
ATOM     21  C   UNL     1       1.624 -10.470 -20.340  1.00  0.00     0.000 C 
BRANCH  21  22
ATOM     22  C   UNL     1       0.778 -11.727 -20.046  1.00  0.00    -0.000 C 
BRANCH  22  23
ATOM     23  C   UNL     1       0.696 -12.696 -21.240  1.00  0.00    -0.000 C 
BRANCH  23  24
ATOM     24  C   UNL     1      -0.242 -13.891 -20.958  1.00  0.00    -0.000 C 
BRANCH  24  25
ATOM     25  C   UNL     1       0.467 -15.091 -20.298  1.00  0.00    -0.000 C 
BRANCH  25  26
ATOM     26  C   UNL     1       1.093 -16.098 -21.281  1.00  0.00    -0.000 C 
BRANCH  26  27
ATOM     27  C   UNL     1       2.623 -16.238 -21.175  1.00  0.00    -0.000 C 
BRANCH  27  28
ATOM     28  C   UNL     1       3.375 -15.247 -22.082  1.00  0.00    -0.000 C 
BRANCH  28  29
ATOM     29  C   UNL     1       4.879 -15.549 -22.161  1.00  0.00    -0.003 C 
ATOM     30  C   UNL     1       5.745 -14.396 -21.650  1.00  0.00     0.004 C 
ENDBRANCH  28  29
ENDBRANCH  27  28
ENDBRANCH  26  27
ENDBRANCH  25  26
ENDBRANCH  24  25
ENDBRANCH  23  24
ENDBRANCH  22  23
ENDBRANCH  21  22
ENDBRANCH  20  21
ENDBRANCH  19  20
ENDBRANCH  18  19
ENDBRANCH  17  18
ENDBRANCH   1  17
TORSDOF 26
ENDMDL
MODEL 2
REMARK VINA RESULT:    -4.519      2.426      5.676
REMARK INTER + INTRA:         -15.254
REMARK INTER:                 -11.151
REMARK INTRA:                  -4.103
REMARK UNBOUND:                -3.866
REMARK SMILES CCCCCCCCCCCCCCCCCCCCCCCCCCCC(=O)[O-]
REMARK SMILES IDX 15 1 16 2 17 3 18 4 19 5 20 6 21 7 22 8 23 9 24 10 25 11
REMARK SMILES IDX 26 12 27 13 28 14 29 15 30 16 14 17 13 18 12 19 11 20 10 21
REMARK SMILES IDX 9 22 8 23 7 24 6 25 5 26 4 27 3 28 2 29 1 30
REMARK H PARENT
REMARK Flexibility Score: inf
ROOT
ATOM      1  C   UNL     1       6.939 -10.140 -23.660  1.00  0.00     0.000 C 
ENDROOT
BRANCH   1   2
ATOM      2  C   UNL     1       6.310 -11.490 -24.044  1.00  0.00     0.000 C 
BRANCH   2   3
ATOM      3  C   UNL     1       5.128 -11.874 -23.139  1.00  0.00     0.000 C 
BRANCH   3   4
ATOM      4  C   UNL     1       3.763 -11.855 -23.863  1.00  0.00     0.000 C 
BRANCH   4   5
ATOM      5  C   UNL     1       2.783 -10.857 -23.221  1.00  0.00     0.000 C 
BRANCH   5   6
ATOM      6  C   UNL     1       2.810 -10.892 -21.682  1.00  0.00     0.000 C 
BRANCH   6   7
ATOM      7  C   UNL     1       1.809  -9.947 -20.987  1.00  0.00     0.000 C 
BRANCH   7   8
ATOM      8  C   UNL     1       2.328  -8.521 -20.726  1.00  0.00     0.000 C 
BRANCH   8   9
ATOM      9  C   UNL     1       1.240  -7.433 -20.680  1.00  0.00     0.000 C 
BRANCH   9  10
ATOM     10  C   UNL     1       1.692  -6.131 -19.985  1.00  0.00     0.000 C 
BRANCH  10  11
ATOM     11  C   UNL     1       2.976  -6.321 -19.157  1.00  0.00     0.000 C 
BRANCH  11  12
ATOM     12  C   UNL     1       3.087  -5.324 -17.986  1.00  0.00     0.006 C 
BRANCH  12  13
ATOM     13  C   UNL     1       3.470  -3.900 -18.418  1.00  0.00     0.053 C 
BRANCH  13  14
ATOM     14  C   UNL     1       4.942  -3.646 -18.315  1.00  0.00     0.041 C 
ATOM     15  O   UNL     1       5.510  -2.870 -19.127  1.00  0.00    -0.550 OA
ATOM     16  O   UNL     1       5.685  -4.257 -17.313  1.00  0.00    -0.550 OA
ENDBRANCH  13  14
ENDBRANCH  12  13
ENDBRANCH  11  12
ENDBRANCH  10  11
ENDBRANCH   9  10
ENDBRANCH   8   9
ENDBRANCH   7   8
ENDBRANCH   6   7
ENDBRANCH   5   6
ENDBRANCH   4   5
ENDBRANCH   3   4
ENDBRANCH   2   3
ENDBRANCH   1   2
BRANCH   1  17
ATOM     17  C   UNL     1       6.162  -9.409 -22.546  1.00  0.00     0.000 C 
BRANCH  17  18
ATOM     18  C   UNL     1       6.249  -7.872 -22.589  1.00  0.00     0.000 C 
BRANCH  18  19
ATOM     19  C   UNL     1       5.086  -7.184 -21.856  1.00  0.00     0.000 C 
BRANCH  19  20
ATOM     20  C   UNL     1       5.240  -5.657 -21.899  1.00  0.00     0.000 C 
BRANCH  20  21
ATOM     21  C   UNL     1       4.166  -4.961 -22.756  1.00  0.00     0.000 C 
BRANCH  21  22
ATOM     22  C   UNL     1       3.221  -5.926 -23.503  1.00  0.00    -0.000 C 
BRANCH  22  23
ATOM     23  C   UNL     1       1.917  -5.255 -23.973  1.00  0.00    -0.000 C 
BRANCH  23  24
ATOM     24  C   UNL     1       0.794  -6.284 -24.236  1.00  0.00    -0.000 C 
BRANCH  24  25
ATOM     25  C   UNL     1       1.287  -7.743 -24.268  1.00  0.00    -0.000 C 
BRANCH  25  26
ATOM     26  C   UNL     1       0.311  -8.746 -24.911  1.00  0.00    -0.000 C 
BRANCH  26  27
ATOM     27  C   UNL     1       0.108  -8.568 -26.428  1.00  0.00    -0.000 C 
BRANCH  27  28
ATOM     28  C   UNL     1       1.435  -8.431 -27.194  1.00  0.00    -0.000 C 
BRANCH  28  29
ATOM     29  C   UNL     1       1.277  -8.710 -28.697  1.00  0.00    -0.003 C 
ATOM     30  C   UNL     1      -0.158  -9.064 -29.088  1.00  0.00     0.004 C 
ENDBRANCH  28  29
ENDBRANCH  27  28
ENDBRANCH  26  27
ENDBRANCH  25  26
ENDBRANCH  24  25
ENDBRANCH  23  24
ENDBRANCH  22  23
ENDBRANCH  21  22
ENDBRANCH  20  21
ENDBRANCH  19  20
ENDBRANCH  18  19
ENDBRANCH  17  18
ENDBRANCH   1  17
TORSDOF 26
ENDMDL
MODEL 3
REMARK VINA RESULT:    -4.513      3.850      9.431
REMARK INTER + INTRA:         -15.240
REMARK INTER:                 -11.336
REMARK INTRA:                  -3.904
REMARK UNBOUND:                -3.866
REMARK SMILES CCCCCCCCCCCCCCCCCCCCCCCCCCCC(=O)[O-]
REMARK SMILES IDX 15 1 16 2 17 3 18 4 19 5 20 6 21 7 22 8 23 9 24 10 25 11
REMARK SMILES IDX 26 12 27 13 28 14 29 15 30 16 14 17 13 18 12 19 11 20 10 21
REMARK SMILES IDX 9 22 8 23 7 24 6 25 5 26 4 27 3 28 2 29 1 30
REMARK H PARENT
REMARK Flexibility Score: inf
ROOT
ATOM      1  C   UNL     1       1.949  -7.447 -20.515  1.00  0.00     0.000 C 
ENDROOT
BRANCH   1   2
ATOM      2  C   UNL     1       1.180  -7.266 -21.835  1.00  0.00     0.000 C 
BRANCH   2   3
ATOM      3  C   UNL     1       1.912  -7.886 -23.038  1.00  0.00     0.000 C 
BRANCH   3   4
ATOM      4  C   UNL     1       1.129  -9.035 -23.713  1.00  0.00     0.000 C 
BRANCH   4   5
ATOM      5  C   UNL     1       1.567 -10.416 -23.192  1.00  0.00     0.000 C 
BRANCH   5   6
ATOM      6  C   UNL     1       3.091 -10.537 -23.017  1.00  0.00     0.000 C 
BRANCH   6   7
ATOM      7  C   UNL     1       3.672 -11.941 -23.281  1.00  0.00     0.000 C 
BRANCH   7   8
ATOM      8  C   UNL     1       5.074 -12.191 -22.697  1.00  0.00     0.000 C 
BRANCH   8   9
ATOM      9  C   UNL     1       5.279 -13.584 -22.076  1.00  0.00     0.000 C 
BRANCH   9  10
ATOM     10  C   UNL     1       3.972 -14.392 -21.921  1.00  0.00     0.000 C 
BRANCH  10  11
ATOM     11  C   UNL     1       4.198 -15.909 -22.054  1.00  0.00     0.000 C 
BRANCH  11  12
ATOM     12  C   UNL     1       2.973 -16.738 -21.620  1.00  0.00     0.006 C 
BRANCH  12  13
ATOM     13  C   UNL     1       1.912 -15.925 -20.860  1.00  0.00     0.053 C 
BRANCH  13  14
ATOM     14  C   UNL     1       1.221 -16.729 -19.803  1.00  0.00     0.041 C 
ATOM     15  O   UNL     1       1.738 -17.796 -19.380  1.00  0.00    -0.550 OA
ATOM     16  O   UNL     1       0.012 -16.295 -19.277  1.00  0.00    -0.550 OA
ENDBRANCH  13  14
ENDBRANCH  12  13
ENDBRANCH  11  12
ENDBRANCH  10  11
ENDBRANCH   9  10
ENDBRANCH   8   9
ENDBRANCH   7   8
ENDBRANCH   6   7
ENDBRANCH   5   6
ENDBRANCH   4   5
ENDBRANCH   3   4
ENDBRANCH   2   3
ENDBRANCH   1   2
BRANCH   1  17
ATOM     17  C   UNL     1       2.141  -6.126 -19.744  1.00  0.00     0.000 C 
BRANCH  17  18
ATOM     18  C   UNL     1       3.323  -6.111 -18.757  1.00  0.00     0.000 C 
BRANCH  18  19
ATOM     19  C   UNL     1       3.592  -4.720 -18.163  1.00  0.00     0.000 C 
BRANCH  19  20
ATOM     20  C   UNL     1       5.093  -4.397 -18.183  1.00  0.00     0.000 C 
BRANCH  20  21
ATOM     21  C   UNL     1       5.430  -3.118 -18.973  1.00  0.00     0.000 C 
BRANCH  21  22
ATOM     22  C   UNL     1       4.214  -2.441 -19.639  1.00  0.00    -0.000 C 
BRANCH  22  23
ATOM     23  C   UNL     1       4.217  -2.563 -21.174  1.00  0.00    -0.000 C 
BRANCH  23  24
ATOM     24  C   UNL     1       2.893  -3.149 -21.715  1.00  0.00    -0.000 C 
BRANCH  24  25
ATOM     25  C   UNL     1       3.091  -4.242 -22.783  1.00  0.00    -0.000 C 
BRANCH  25  26
ATOM     26  C   UNL     1       4.535  -4.397 -23.295  1.00  0.00    -0.000 C 
BRANCH  26  27
ATOM     27  C   UNL     1       5.069  -5.842 -23.295  1.00  0.00    -0.000 C 
BRANCH  27  28
ATOM     28  C   UNL     1       5.478  -6.325 -21.892  1.00  0.00    -0.000 C 
BRANCH  28  29
ATOM     29  C   UNL     1       5.300  -7.841 -21.718  1.00  0.00    -0.003 C 
ATOM     30  C   UNL     1       6.315  -8.655 -22.522  1.00  0.00     0.004 C 
ENDBRANCH  28  29
ENDBRANCH  27  28
ENDBRANCH  26  27
ENDBRANCH  25  26
ENDBRANCH  24  25
ENDBRANCH  23  24
ENDBRANCH  22  23
ENDBRANCH  21  22
ENDBRANCH  20  21
ENDBRANCH  19  20
ENDBRANCH  18  19
ENDBRANCH  17  18
ENDBRANCH   1  17
TORSDOF 26
ENDMDL
MODEL 4
REMARK VINA RESULT:    -4.510      2.782      5.307
REMARK INTER + INTRA:         -15.231
REMARK INTER:                 -10.209
REMARK INTRA:                  -5.022
REMARK UNBOUND:                -3.866
REMARK SMILES CCCCCCCCCCCCCCCCCCCCCCCCCCCC(=O)[O-]
REMARK SMILES IDX 15 1 16 2 17 3 18 4 19 5 20 6 21 7 22 8 23 9 24 10 25 11
REMARK SMILES IDX 26 12 27 13 28 14 29 15 30 16 14 17 13 18 12 19 11 20 10 21
REMARK SMILES IDX 9 22 8 23 7 24 6 25 5 26 4 27 3 28 2 29 1 30
REMARK H PARENT
REMARK Flexibility Score: inf
ROOT
ATOM      1  C   UNL     1       4.059  -3.911 -22.049  1.00  0.00     0.000 C 
ENDROOT
BRANCH   1   2
ATOM      2  C   UNL     1       4.621  -2.831 -21.109  1.00  0.00     0.000 C 
BRANCH   2   3
ATOM      3  C   UNL     1       4.220  -3.052 -19.642  1.00  0.00     0.000 C 
BRANCH   3   4
ATOM      4  C   UNL     1       5.151  -4.027 -18.886  1.00  0.00     0.000 C 
BRANCH   4   5
ATOM      5  C   UNL     1       4.627  -5.474 -18.925  1.00  0.00     0.000 C 
BRANCH   5   6
ATOM      6  C   UNL     1       3.188  -5.606 -18.394  1.00  0.00     0.000 C 
BRANCH   6   7
ATOM      7  C   UNL     1       2.145  -6.067 -19.432  1.00  0.00     0.000 C 
BRANCH   7   8
ATOM      8  C   UNL     1       1.211  -4.962 -19.957  1.00  0.00     0.000 C 
BRANCH   8   9
ATOM      9  C   UNL     1       0.501  -5.289 -21.283  1.00  0.00     0.000 C 
BRANCH   9  10
ATOM     10  C   UNL     1       0.593  -6.777 -21.685  1.00  0.00     0.000 C 
BRANCH  10  11
ATOM     11  C   UNL     1       1.228  -6.974 -23.073  1.00  0.00     0.000 C 
BRANCH  11  12
ATOM     12  C   UNL     1       1.325  -5.664 -23.880  1.00  0.00     0.006 C 
BRANCH  12  13
ATOM     13  C   UNL     1       1.844  -5.857 -25.315  1.00  0.00     0.053 C 
BRANCH  13  14
ATOM     14  C   UNL     1       1.963  -4.564 -26.060  1.00  0.00     0.041 C 
ATOM     15  O   UNL     1       2.126  -3.485 -25.433  1.00  0.00    -0.550 OA
ATOM     16  O   UNL     1       1.907  -4.553 -27.447  1.00  0.00    -0.550 OA
ENDBRANCH  13  14
ENDBRANCH  12  13
ENDBRANCH  11  12
ENDBRANCH  10  11
ENDBRANCH   9  10
ENDBRANCH   8   9
ENDBRANCH   7   8
ENDBRANCH   6   7
ENDBRANCH   5   6
ENDBRANCH   4   5
ENDBRANCH   3   4
ENDBRANCH   2   3
ENDBRANCH   1   2
BRANCH   1  17
ATOM     17  C   UNL     1       5.129  -4.914 -22.523  1.00  0.00     0.000 C 
BRANCH  17  18
ATOM     18  C   UNL     1       4.677  -6.386 -22.557  1.00  0.00     0.000 C 
BRANCH  18  19
ATOM     19  C   UNL     1       5.843  -7.377 -22.412  1.00  0.00     0.000 C 
BRANCH  19  20
ATOM     20  C   UNL     1       5.379  -8.673 -21.733  1.00  0.00     0.000 C 
BRANCH  20  21
ATOM     21  C   UNL     1       3.949  -8.585 -21.167  1.00  0.00     0.000 C 
BRANCH  21  22
ATOM     22  C   UNL     1       3.366  -9.932 -20.692  1.00  0.00    -0.000 C 
BRANCH  22  23
ATOM     23  C   UNL     1       1.991 -10.249 -21.309  1.00  0.00    -0.000 C 
BRANCH  23  24
ATOM     24  C   UNL     1       2.090 -10.589 -22.813  1.00  0.00    -0.000 C 
BRANCH  24  25
ATOM     25  C   UNL     1       2.774 -11.941 -23.098  1.00  0.00    -0.000 C 
BRANCH  25  26
ATOM     26  C   UNL     1       4.181 -11.840 -23.718  1.00  0.00    -0.000 C 
BRANCH  26  27
ATOM     27  C   UNL     1       5.332 -12.248 -22.780  1.00  0.00    -0.000 C 
BRANCH  27  28
ATOM     28  C   UNL     1       4.884 -13.222 -21.676  1.00  0.00    -0.000 C 
BRANCH  28  29
ATOM     29  C   UNL     1       5.213 -14.684 -22.014  1.00  0.00    -0.003 C 
ATOM     30  C   UNL     1       3.988 -15.598 -21.953  1.00  0.00     0.004 C 
ENDBRANCH  28  29
ENDBRANCH  27  28
ENDBRANCH  26  27
ENDBRANCH  25  26
ENDBRANCH  24  25
ENDBRANCH  23  24
ENDBRANCH  22  23
ENDBRANCH  21  22
ENDBRANCH  20  21
ENDBRANCH  19  20
ENDBRANCH  18  19
ENDBRANCH  17  18
ENDBRANCH   1  17
TORSDOF 26
ENDMDL
MODEL 5
REMARK VINA RESULT:    -4.492      3.509      8.182
REMARK INTER + INTRA:         -15.186
REMARK INTER:                 -10.422
REMARK INTRA:                  -4.764
REMARK UNBOUND:                -3.866
REMARK SMILES CCCCCCCCCCCCCCCCCCCCCCCCCCCC(=O)[O-]
REMARK SMILES IDX 15 1 16 2 17 3 18 4 19 5 20 6 21 7 22 8 23 9 24 10 25 11
REMARK SMILES IDX 26 12 27 13 28 14 29 15 30 16 14 17 13 18 12 19 11 20 10 21
REMARK SMILES IDX 9 22 8 23 7 24 6 25 5 26 4 27 3 28 2 29 1 30
REMARK H PARENT
REMARK Flexibility Score: inf
ROOT
ATOM      1  C   UNL     1       4.485  -7.626 -21.936  1.00  0.00     0.000 C 
ENDROOT
BRANCH   1   2
ATOM      2  C   UNL     1       5.912  -7.687 -22.506  1.00  0.00     0.000 C 
BRANCH   2   3
ATOM      3  C   UNL     1       6.515  -9.100 -22.448  1.00  0.00     0.000 C 
BRANCH   3   4
ATOM      4  C   UNL     1       7.037  -9.608 -23.811  1.00  0.00     0.000 C 
BRANCH   4   5
ATOM      5  C   UNL     1       6.725 -11.099 -24.030  1.00  0.00     0.000 C 
BRANCH   5   6
ATOM      6  C   UNL     1       5.274 -11.469 -23.674  1.00  0.00     0.000 C 
BRANCH   6   7
ATOM      7  C   UNL     1       5.122 -12.599 -22.636  1.00  0.00     0.000 C 
BRANCH   7   8
ATOM      8  C   UNL     1       3.999 -12.392 -21.603  1.00  0.00     0.000 C 
BRANCH   8   9
ATOM      9  C   UNL     1       3.613 -10.923 -21.351  1.00  0.00     0.000 C 
BRANCH   9  10
ATOM     10  C   UNL     1       2.129 -10.728 -20.972  1.00  0.00     0.000 C 
BRANCH  10  11
ATOM     11  C   UNL     1       1.421  -9.700 -21.873  1.00  0.00     0.000 C 
BRANCH  11  12
ATOM     12  C   UNL     1       1.999  -9.656 -23.302  1.00  0.00     0.006 C 
BRANCH  12  13
ATOM     13  C   UNL     1       0.987 -10.043 -24.392  1.00  0.00     0.053 C 
BRANCH  13  14
ATOM     14  C   UNL     1       0.947 -11.519 -24.640  1.00  0.00     0.041 C 
ATOM     15  O   UNL     1       1.953 -12.232 -24.382  1.00  0.00    -0.550 OA
ATOM     16  O   UNL     1      -0.204 -12.110 -25.142  1.00  0.00    -0.550 OA
ENDBRANCH  13  14
ENDBRANCH  12  13
ENDBRANCH  11  12
ENDBRANCH  10  11
ENDBRANCH   9  10
ENDBRANCH   8   9
ENDBRANCH   7   8
ENDBRANCH   6   7
ENDBRANCH   5   6
ENDBRANCH   4   5
ENDBRANCH   3   4
ENDBRANCH   2   3
ENDBRANCH   1   2
BRANCH   1  17
ATOM     17  C   UNL     1       4.413  -6.925 -20.565  1.00  0.00     0.000 C 
BRANCH  17  18
ATOM     18  C   UNL     1       2.993  -6.583 -20.079  1.00  0.00     0.000 C 
BRANCH  18  19
ATOM     19  C   UNL     1       2.984  -5.735 -18.797  1.00  0.00     0.000 C 
BRANCH  19  20
ATOM     20  C   UNL     1       4.413  -5.356 -18.382  1.00  0.00     0.000 C 
BRANCH  20  21
ATOM     21  C   UNL     1       4.641  -3.834 -18.307  1.00  0.00     0.000 C 
BRANCH  21  22
ATOM     22  C   UNL     1       3.725  -3.005 -19.231  1.00  0.00    -0.000 C 
BRANCH  22  23
ATOM     23  C   UNL     1       4.424  -2.541 -20.522  1.00  0.00    -0.000 C 
BRANCH  23  24
ATOM     24  C   UNL     1       3.749  -3.113 -21.789  1.00  0.00    -0.000 C 
BRANCH  24  25
ATOM     25  C   UNL     1       4.700  -3.936 -22.679  1.00  0.00    -0.000 C 
BRANCH  25  26
ATOM     26  C   UNL     1       4.033  -4.618 -23.889  1.00  0.00    -0.000 C 
BRANCH  26  27
ATOM     27  C   UNL     1       2.593  -5.106 -23.643  1.00  0.00    -0.000 C 
BRANCH  27  28
ATOM     28  C   UNL     1       2.055  -5.974 -24.793  1.00  0.00    -0.000 C 
BRANCH  28  29
ATOM     29  C   UNL     1       0.539  -6.207 -24.694  1.00  0.00    -0.003 C 
ATOM     30  C   UNL     1      -0.041  -6.882 -25.938  1.00  0.00     0.004 C 
ENDBRANCH  28  29
ENDBRANCH  27  28
ENDBRANCH  26  27
ENDBRANCH  25  26
ENDBRANCH  24  25
ENDBRANCH  23  24
ENDBRANCH  22  23
ENDBRANCH  21  22
ENDBRANCH  20  21
ENDBRANCH  19  20
ENDBRANCH  18  19
ENDBRANCH  17  18
ENDBRANCH   1  17
TORSDOF 26
ENDMDL
MODEL 6
REMARK VINA RESULT:    -4.488      3.647      7.271
REMARK INTER + INTRA:         -15.176
REMARK INTER:                 -10.147
REMARK INTRA:                  -5.029
REMARK UNBOUND:                -3.866
REMARK SMILES CCCCCCCCCCCCCCCCCCCCCCCCCCCC(=O)[O-]
REMARK SMILES IDX 15 1 16 2 17 3 18 4 19 5 20 6 21 7 22 8 23 9 24 10 25 11
REMARK SMILES IDX 26 12 27 13 28 14 29 15 30 16 14 17 13 18 12 19 11 20 10 21
REMARK SMILES IDX 9 22 8 23 7 24 6 25 5 26 4 27 3 28 2 29 1 30
REMARK H PARENT
REMARK Flexibility Score: inf
ROOT
ATOM      1  C   UNL     1       6.680 -10.156 -23.691  1.00  0.00     0.000 C 
ENDROOT
BRANCH   1   2
ATOM      2  C   UNL     1       5.992 -11.511 -23.930  1.00  0.00     0.000 C 
BRANCH   2   3
ATOM      3  C   UNL     1       5.133 -11.959 -22.736  1.00  0.00     0.000 C 
BRANCH   3   4
ATOM      4  C   UNL     1       3.698 -12.376 -23.127  1.00  0.00     0.000 C 
BRANCH   4   5
ATOM      5  C   UNL     1       2.939 -11.241 -23.835  1.00  0.00     0.000 C 
BRANCH   5   6
ATOM      6  C   UNL     1       1.410 -11.409 -23.773  1.00  0.00     0.000 C 
BRANCH   6   7
ATOM      7  C   UNL     1       0.600 -10.310 -24.490  1.00  0.00     0.000 C 
BRANCH   7   8
ATOM      8  C   UNL     1      -0.567  -9.721 -23.676  1.00  0.00     0.000 C 
BRANCH   8   9
ATOM      9  C   UNL     1      -0.915 -10.493 -22.391  1.00  0.00     0.000 C 
BRANCH   9  10
ATOM     10  C   UNL     1      -1.635  -9.636 -21.328  1.00  0.00     0.000 C 
BRANCH  10  11
ATOM     11  C   UNL     1      -1.198  -9.985 -19.894  1.00  0.00     0.000 C 
BRANCH  11  12
ATOM     12  C   UNL     1      -0.418 -11.312 -19.811  1.00  0.00     0.006 C 
BRANCH  12  13
ATOM     13  C   UNL     1      -0.089 -11.749 -18.374  1.00  0.00     0.053 C 
BRANCH  13  14
ATOM     14  C   UNL     1      -0.814 -12.996 -17.974  1.00  0.00     0.041 C 
ATOM     15  O   UNL     1      -0.171 -14.041 -17.693  1.00  0.00    -0.550 OA
ATOM     16  O   UNL     1      -2.200 -13.001 -17.897  1.00  0.00    -0.550 OA
ENDBRANCH  13  14
ENDBRANCH  12  13
ENDBRANCH  11  12
ENDBRANCH  10  11
ENDBRANCH   9  10
ENDBRANCH   8   9
ENDBRANCH   7   8
ENDBRANCH   6   7
ENDBRANCH   5   6
ENDBRANCH   4   5
ENDBRANCH   3   4
ENDBRANCH   2   3
ENDBRANCH   1   2
BRANCH   1  17
ATOM     17  C   UNL     1       6.118  -9.402 -22.468  1.00  0.00     0.000 C 
BRANCH  17  18
ATOM     18  C   UNL     1       6.086  -7.869 -22.604  1.00  0.00     0.000 C 
BRANCH  18  19
ATOM     19  C   UNL     1       5.209  -7.190 -21.539  1.00  0.00     0.000 C 
BRANCH  19  20
ATOM     20  C   UNL     1       5.416  -5.669 -21.549  1.00  0.00     0.000 C 
BRANCH  20  21
ATOM     21  C   UNL     1       4.915  -4.978 -20.267  1.00  0.00     0.000 C 
BRANCH  21  22
ATOM     22  C   UNL     1       4.455  -5.948 -19.158  1.00  0.00    -0.000 C 
BRANCH  22  23
ATOM     23  C   UNL     1       3.036  -5.649 -18.640  1.00  0.00    -0.000 C 
BRANCH  23  24
ATOM     24  C   UNL     1       2.390  -4.448 -19.369  1.00  0.00    -0.000 C 
BRANCH  24  25
ATOM     25  C   UNL     1       1.123  -4.816 -20.164  1.00  0.00    -0.000 C 
BRANCH  25  26
ATOM     26  C   UNL     1       0.976  -6.313 -20.497  1.00  0.00    -0.000 C 
BRANCH  26  27
ATOM     27  C   UNL     1       1.476  -6.717 -21.897  1.00  0.00    -0.000 C 
BRANCH  27  28
ATOM     28  C   UNL     1       2.087  -8.129 -21.925  1.00  0.00    -0.000 C 
BRANCH  28  29
ATOM     29  C   UNL     1       2.039  -8.817 -20.552  1.00  0.00    -0.003 C 
ATOM     30  C   UNL     1       3.096  -9.913 -20.399  1.00  0.00     0.004 C 
ENDBRANCH  28  29
ENDBRANCH  27  28
ENDBRANCH  26  27
ENDBRANCH  25  26
ENDBRANCH  24  25
ENDBRANCH  23  24
ENDBRANCH  22  23
ENDBRANCH  21  22
ENDBRANCH  20  21
ENDBRANCH  19  20
ENDBRANCH  18  19
ENDBRANCH  17  18
ENDBRANCH   1  17
TORSDOF 26
ENDMDL
MODEL 7
REMARK VINA RESULT:    -4.475      1.713      4.411
REMARK INTER + INTRA:         -15.144
REMARK INTER:                 -10.902
REMARK INTRA:                  -4.242
REMARK UNBOUND:                -3.866
REMARK SMILES CCCCCCCCCCCCCCCCCCCCCCCCCCCC(=O)[O-]
REMARK SMILES IDX 15 1 16 2 17 3 18 4 19 5 20 6 21 7 22 8 23 9 24 10 25 11
REMARK SMILES IDX 26 12 27 13 28 14 29 15 30 16 14 17 13 18 12 19 11 20 10 21
REMARK SMILES IDX 9 22 8 23 7 24 6 25 5 26 4 27 3 28 2 29 1 30
REMARK H PARENT
REMARK Flexibility Score: inf
ROOT
ATOM      1  C   UNL     1       2.621 -12.241 -23.556  1.00  0.00     0.000 C 
ENDROOT
BRANCH   1   2
ATOM      2  C   UNL     1       1.483 -11.209 -23.627  1.00  0.00     0.000 C 
BRANCH   2   3
ATOM      3  C   UNL     1       0.703 -11.092 -22.307  1.00  0.00     0.000 C 
BRANCH   3   4
ATOM      4  C   UNL     1       1.570 -11.343 -21.053  1.00  0.00     0.000 C 
BRANCH   4   5
ATOM      5  C   UNL     1       2.006 -10.030 -20.380  1.00  0.00     0.000 C 
BRANCH   5   6
ATOM      6  C   UNL     1       3.497  -9.711 -20.594  1.00  0.00     0.000 C 
BRANCH   6   7
ATOM      7  C   UNL     1       3.800  -8.744 -21.756  1.00  0.00     0.000 C 
BRANCH   7   8
ATOM      8  C   UNL     1       5.294  -8.530 -22.057  1.00  0.00     0.000 C 
BRANCH   8   9
ATOM      9  C   UNL     1       5.712  -7.062 -22.257  1.00  0.00     0.000 C 
BRANCH   9  10
ATOM     10  C   UNL     1       4.636  -6.046 -21.816  1.00  0.00     0.000 C 
BRANCH  10  11
ATOM     11  C   UNL     1       4.959  -5.399 -20.457  1.00  0.00     0.000 C 
BRANCH  11  12
ATOM     12  C   UNL     1       4.397  -6.199 -19.265  1.00  0.00     0.006 C 
BRANCH  12  13
ATOM     13  C   UNL     1       3.266  -5.477 -18.513  1.00  0.00     0.053 C 
BRANCH  13  14
ATOM     14  C   UNL     1       1.995  -5.425 -19.302  1.00  0.00     0.041 C 
ATOM     15  O   UNL     1       1.294  -4.379 -19.307  1.00  0.00    -0.550 OA
ATOM     16  O   UNL     1       1.589  -6.527 -20.042  1.00  0.00    -0.550 OA
ENDBRANCH  13  14
ENDBRANCH  12  13
ENDBRANCH  11  12
ENDBRANCH  10  11
ENDBRANCH   9  10
ENDBRANCH   8   9
ENDBRANCH   7   8
ENDBRANCH   6   7
ENDBRANCH   5   6
ENDBRANCH   4   5
ENDBRANCH   3   4
ENDBRANCH   2   3
ENDBRANCH   1   2
BRANCH   1  17
ATOM     17  C   UNL     1       4.001 -11.640 -23.892  1.00  0.00     0.000 C 
BRANCH  17  18
ATOM     18  C   UNL     1       5.158 -12.118 -22.995  1.00  0.00     0.000 C 
BRANCH  18  19
ATOM     19  C   UNL     1       4.685 -12.976 -21.810  1.00  0.00     0.000 C 
BRANCH  19  20
ATOM     20  C   UNL     1       5.529 -14.253 -21.688  1.00  0.00     0.000 C 
BRANCH  20  21
ATOM     21  C   UNL     1       4.756 -15.531 -22.066  1.00  0.00     0.000 C 
BRANCH  21  22
ATOM     22  C   UNL     1       3.238 -15.461 -21.801  1.00  0.00    -0.000 C 
BRANCH  22  23
ATOM     23  C   UNL     1       2.565 -16.845 -21.761  1.00  0.00    -0.000 C 
BRANCH  23  24
ATOM     24  C   UNL     1       1.957 -17.159 -20.375  1.00  0.00    -0.000 C 
BRANCH  24  25
ATOM     25  C   UNL     1       0.416 -17.186 -20.367  1.00  0.00    -0.000 C 
BRANCH  25  26
ATOM     26  C   UNL     1      -0.243 -16.368 -19.241  1.00  0.00    -0.000 C 
BRANCH  26  27
ATOM     27  C   UNL     1       0.093 -14.865 -19.251  1.00  0.00    -0.000 C 
BRANCH  27  28
ATOM     28  C   UNL     1      -0.743 -14.075 -20.273  1.00  0.00    -0.000 C 
BRANCH  28  29
ATOM     29  C   UNL     1      -1.638 -13.018 -19.608  1.00  0.00    -0.003 C 
ATOM     30  C   UNL     1      -0.932 -12.269 -18.477  1.00  0.00     0.004 C 
ENDBRANCH  28  29
ENDBRANCH  27  28
ENDBRANCH  26  27
ENDBRANCH  25  26
ENDBRANCH  24  25
ENDBRANCH  23  24
ENDBRANCH  22  23
ENDBRANCH  21  22
ENDBRANCH  20  21
ENDBRANCH  19  20
ENDBRANCH  18  19
ENDBRANCH  17  18
ENDBRANCH   1  17
TORSDOF 26
ENDMDL
MODEL 8
REMARK VINA RESULT:    -4.455      3.610      7.860
REMARK INTER + INTRA:         -15.094
REMARK INTER:                 -10.107
REMARK INTRA:                  -4.987
REMARK UNBOUND:                -3.866
REMARK SMILES CCCCCCCCCCCCCCCCCCCCCCCCCCCC(=O)[O-]
REMARK SMILES IDX 15 1 16 2 17 3 18 4 19 5 20 6 21 7 22 8 23 9 24 10 25 11
REMARK SMILES IDX 26 12 27 13 28 14 29 15 30 16 14 17 13 18 12 19 11 20 10 21
REMARK SMILES IDX 9 22 8 23 7 24 6 25 5 26 4 27 3 28 2 29 1 30
REMARK H PARENT
REMARK Flexibility Score: inf
ROOT
ATOM      1  C   UNL     1       2.148  -5.621 -19.392  1.00  0.00     0.000 C 
ENDROOT
BRANCH   1   2
ATOM      2  C   UNL     1       1.828  -6.795 -20.334  1.00  0.00     0.000 C 
BRANCH   2   3
ATOM      3  C   UNL     1       2.880  -7.915 -20.265  1.00  0.00     0.000 C 
BRANCH   3   4
ATOM      4  C   UNL     1       3.664  -8.110 -21.582  1.00  0.00     0.000 C 
BRANCH   4   5
ATOM      5  C   UNL     1       5.167  -8.326 -21.332  1.00  0.00     0.000 C 
BRANCH   5   6
ATOM      6  C   UNL     1       6.016  -8.172 -22.607  1.00  0.00     0.000 C 
BRANCH   6   7
ATOM      7  C   UNL     1       7.060  -9.284 -22.838  1.00  0.00     0.000 C 
BRANCH   7   8
ATOM      8  C   UNL     1       6.739 -10.253 -23.991  1.00  0.00     0.000 C 
BRANCH   8   9
ATOM      9  C   UNL     1       6.047 -11.560 -23.565  1.00  0.00     0.000 C 
BRANCH   9  10
ATOM     10  C   UNL     1       4.538 -11.400 -23.281  1.00  0.00     0.000 C 
BRANCH  10  11
ATOM     11  C   UNL     1       4.169 -11.764 -21.832  1.00  0.00     0.000 C 
BRANCH  11  12
ATOM     12  C   UNL     1       2.898 -12.632 -21.737  1.00  0.00     0.006 C 
BRANCH  12  13
ATOM     13  C   UNL     1       2.945 -13.897 -22.610  1.00  0.00     0.053 C 
BRANCH  13  14
ATOM     14  C   UNL     1       3.553 -15.064 -21.896  1.00  0.00     0.041 C 
ATOM     15  O   UNL     1       4.802 -15.219 -21.882  1.00  0.00    -0.550 OA
ATOM     16  O   UNL     1       2.740 -15.975 -21.233  1.00  0.00    -0.550 OA
ENDBRANCH  13  14
ENDBRANCH  12  13
ENDBRANCH  11  12
ENDBRANCH  10  11
ENDBRANCH   9  10
ENDBRANCH   8   9
ENDBRANCH   7   8
ENDBRANCH   6   7
ENDBRANCH   5   6
ENDBRANCH   4   5
ENDBRANCH   3   4
ENDBRANCH   2   3
ENDBRANCH   1   2
BRANCH   1  17
ATOM     17  C   UNL     1       3.410  -5.860 -18.539  1.00  0.00     0.000 C 
BRANCH  17  18
ATOM     18  C   UNL     1       4.562  -4.868 -18.784  1.00  0.00     0.000 C 
BRANCH  18  19
ATOM     19  C   UNL     1       4.443  -4.129 -20.126  1.00  0.00     0.000 C 
BRANCH  19  20
ATOM     20  C   UNL     1       5.251  -4.845 -21.218  1.00  0.00     0.000 C 
BRANCH  20  21
ATOM     21  C   UNL     1       4.800  -4.481 -22.646  1.00  0.00     0.000 C 
BRANCH  21  22
ATOM     22  C   UNL     1       3.270  -4.447 -22.843  1.00  0.00    -0.000 C 
BRANCH  22  23
ATOM     23  C   UNL     1       2.804  -5.201 -24.102  1.00  0.00    -0.000 C 
BRANCH  23  24
ATOM     24  C   UNL     1       1.553  -6.068 -23.835  1.00  0.00    -0.000 C 
BRANCH  24  25
ATOM     25  C   UNL     1       1.653  -7.492 -24.413  1.00  0.00    -0.000 C 
BRANCH  25  26
ATOM     26  C   UNL     1       0.349  -8.311 -24.355  1.00  0.00    -0.000 C 
BRANCH  26  27
ATOM     27  C   UNL     1       0.045  -8.947 -22.986  1.00  0.00    -0.000 C 
BRANCH  27  28
ATOM     28  C   UNL     1       0.259 -10.471 -22.977  1.00  0.00    -0.000 C 
BRANCH  28  29
ATOM     29  C   UNL     1       0.794 -10.996 -24.318  1.00  0.00    -0.003 C 
ATOM     30  C   UNL     1      -0.185 -11.938 -25.020  1.00  0.00     0.004 C 
ENDBRANCH  28  29
ENDBRANCH  27  28
ENDBRANCH  26  27
ENDBRANCH  25  26
ENDBRANCH  24  25
ENDBRANCH  23  24
ENDBRANCH  22  23
ENDBRANCH  21  22
ENDBRANCH  20  21
ENDBRANCH  19  20
ENDBRANCH  18  19
ENDBRANCH  17  18
ENDBRANCH   1  17
TORSDOF 26
ENDMDL
MODEL 9
REMARK VINA RESULT:    -4.404      1.829      4.336
REMARK INTER + INTRA:         -14.965
REMARK INTER:                 -10.744
REMARK INTRA:                  -4.222
REMARK UNBOUND:                -3.866
REMARK SMILES CCCCCCCCCCCCCCCCCCCCCCCCCCCC(=O)[O-]
REMARK SMILES IDX 15 1 16 2 17 3 18 4 19 5 20 6 21 7 22 8 23 9 24 10 25 11
REMARK SMILES IDX 26 12 27 13 28 14 29 15 30 16 14 17 13 18 12 19 11 20 10 21
REMARK SMILES IDX 9 22 8 23 7 24 6 25 5 26 4 27 3 28 2 29 1 30
REMARK H PARENT
REMARK Flexibility Score: inf
ROOT
ATOM      1  C   UNL     1       6.247  -7.883 -22.518  1.00  0.00     0.000 C 
ENDROOT
BRANCH   1   2
ATOM      2  C   UNL     1       4.973  -7.172 -22.031  1.00  0.00     0.000 C 
BRANCH   2   3
ATOM      3  C   UNL     1       5.041  -5.646 -22.207  1.00  0.00     0.000 C 
BRANCH   3   4
ATOM      4  C   UNL     1       4.871  -5.184 -23.672  1.00  0.00     0.000 C 
BRANCH   4   5
ATOM      5  C   UNL     1       3.548  -4.428 -23.890  1.00  0.00     0.000 C 
BRANCH   5   6
ATOM      6  C   UNL     1       2.554  -5.200 -24.776  1.00  0.00     0.000 C 
BRANCH   6   7
ATOM      7  C   UNL     1       1.232  -5.596 -24.088  1.00  0.00     0.000 C 
BRANCH   7   8
ATOM      8  C   UNL     1       1.383  -6.200 -22.680  1.00  0.00     0.000 C 
BRANCH   8   9
ATOM      9  C   UNL     1       0.789  -5.348 -21.543  1.00  0.00     0.000 C 
BRANCH   9  10
ATOM     10  C   UNL     1       1.832  -4.893 -20.499  1.00  0.00     0.000 C 
BRANCH  10  11
ATOM     11  C   UNL     1       2.231  -6.024 -19.534  1.00  0.00     0.000 C 
BRANCH  11  12
ATOM     12  C   UNL     1       3.066  -5.524 -18.338  1.00  0.00     0.006 C 
BRANCH  12  13
ATOM     13  C   UNL     1       4.570  -5.407 -18.638  1.00  0.00     0.053 C 
BRANCH  13  14
ATOM     14  C   UNL     1       5.122  -4.061 -18.284  1.00  0.00     0.041 C 
ATOM     15  O   UNL     1       4.942  -3.080 -19.052  1.00  0.00    -0.550 OA
ATOM     16  O   UNL     1       5.825  -3.887 -17.099  1.00  0.00    -0.550 OA
ENDBRANCH  13  14
ENDBRANCH  12  13
ENDBRANCH  11  12
ENDBRANCH  10  11
ENDBRANCH   9  10
ENDBRANCH   8   9
ENDBRANCH   7   8
ENDBRANCH   6   7
ENDBRANCH   5   6
ENDBRANCH   4   5
ENDBRANCH   3   4
ENDBRANCH   2   3
ENDBRANCH   1   2
BRANCH   1  17
ATOM     17  C   UNL     1       6.073  -9.409 -22.647  1.00  0.00     0.000 C 
BRANCH  17  18
ATOM     18  C   UNL     1       6.948 -10.079 -23.723  1.00  0.00     0.000 C 
BRANCH  18  19
ATOM     19  C   UNL     1       6.511 -11.517 -24.044  1.00  0.00     0.000 C 
BRANCH  19  20
ATOM     20  C   UNL     1       5.012 -11.707 -23.770  1.00  0.00     0.000 C 
BRANCH  20  21
ATOM     21  C   UNL     1       4.725 -12.523 -22.496  1.00  0.00     0.000 C 
BRANCH  21  22
ATOM     22  C   UNL     1       3.524 -12.015 -21.670  1.00  0.00    -0.000 C 
BRANCH  22  23
ATOM     23  C   UNL     1       2.413 -11.393 -22.535  1.00  0.00    -0.000 C 
BRANCH  23  24
ATOM     24  C   UNL     1       2.317  -9.862 -22.349  1.00  0.00    -0.000 C 
BRANCH  24  25
ATOM     25  C   UNL     1       2.027  -9.433 -20.898  1.00  0.00    -0.000 C 
BRANCH  25  26
ATOM     26  C   UNL     1       0.543  -9.165 -20.582  1.00  0.00    -0.000 C 
BRANCH  26  27
ATOM     27  C   UNL     1      -0.275 -10.416 -20.209  1.00  0.00    -0.000 C 
BRANCH  27  28
ATOM     28  C   UNL     1       0.496 -11.377 -19.288  1.00  0.00    -0.000 C 
BRANCH  28  29
ATOM     29  C   UNL     1       0.165 -12.851 -19.569  1.00  0.00    -0.003 C 
ATOM     30  C   UNL     1      -0.419 -13.572 -18.353  1.00  0.00     0.004 C 
ENDBRANCH  28  29
ENDBRANCH  27  28
ENDBRANCH  26  27
ENDBRANCH  25  26
ENDBRANCH  24  25
ENDBRANCH  23  24
ENDBRANCH  22  23
ENDBRANCH  21  22
ENDBRANCH  20  21
ENDBRANCH  19  20
ENDBRANCH  18  19
ENDBRANCH  17  18
ENDBRANCH   1  17
TORSDOF 26
ENDMDL
