MODEL 1
REMARK VINA RESULT:    -2.996      0.000      0.000
REMARK INTER + INTRA:          -3.183
REMARK INTER:                  -3.172
REMARK INTRA:                  -0.011
REMARK UNBOUND:                -0.011
REMARK SMILES O=Cc1ccco1
REMARK SMILES IDX 5 1 6 2 7 3 3 4 4 5 2 6 1 7
REMARK H PARENT
REMARK Flexibility Score: inf
ROOT
ATOM      1  C   UNL     1       1.500  -1.441 -21.556  1.00  0.00     0.043 A 
ATOM      2  C   UNL     1       2.219  -2.373 -22.277  1.00  0.00     0.196 A 
ATOM      3  O   UNL     1       2.763  -1.798 -23.325  1.00  0.00    -0.462 OA
ATOM      4  C   UNL     1       2.431  -0.527 -23.322  1.00  0.00     0.166 A 
ATOM      5  C   UNL     1       1.635  -0.246 -22.230  1.00  0.00     0.054 A 
ENDROOT
BRANCH   4   6
ATOM      6  C   UNL     1       2.853   0.437 -24.338  1.00  0.00     0.298 C 
ATOM      7  O   UNL     1       4.025   0.895 -24.331  1.00  0.00    -0.294 OA
ENDBRANCH   4   6
TORSDOF 1
ENDMDL
MODEL 2
REMARK VINA RESULT:    -2.880      7.161      7.745
REMARK INTER + INTRA:          -3.060
REMARK INTER:                  -3.046
REMARK INTRA:                  -0.014
REMARK UNBOUND:                -0.011
REMARK SMILES O=Cc1ccco1
REMARK SMILES IDX 5 1 6 2 7 3 3 4 4 5 2 6 1 7
REMARK H PARENT
REMARK Flexibility Score: inf
ROOT
ATOM      1  C   UNL     1      -5.357   3.205 -21.395  1.00  0.00     0.043 A 
ATOM      2  C   UNL     1      -5.489   3.947 -22.552  1.00  0.00     0.196 A 
ATOM      3  O   UNL     1      -4.332   4.013 -23.169  1.00  0.00    -0.462 OA
ATOM      4  C   UNL     1      -3.446   3.345 -22.466  1.00  0.00     0.166 A 
ATOM      5  C   UNL     1      -4.036   2.814 -21.338  1.00  0.00     0.054 A 
ENDROOT
BRANCH   4   6
ATOM      6  C   UNL     1      -2.039   3.197 -22.841  1.00  0.00     0.298 C 
ATOM      7  O   UNL     1      -1.379   4.193 -23.235  1.00  0.00    -0.294 OA
ENDBRANCH   4   6
TORSDOF 1
ENDMDL
MODEL 3
REMARK VINA RESULT:    -2.749      8.837      9.339
REMARK INTER + INTRA:          -2.921
REMARK INTER:                  -2.910
REMARK INTRA:                  -0.011
REMARK UNBOUND:                -0.011
REMARK SMILES O=Cc1ccco1
REMARK SMILES IDX 5 1 6 2 7 3 3 4 4 5 2 6 1 7
REMARK H PARENT
REMARK Flexibility Score: inf
ROOT
ATOM      1  C   UNL     1      -4.344   2.690 -20.503  1.00  0.00     0.043 A 
ATOM      2  C   UNL     1      -3.752   2.754 -21.748  1.00  0.00     0.196 A 
ATOM      3  O   UNL     1      -4.485   3.494 -22.549  1.00  0.00    -0.462 OA
ATOM      4  C   UNL     1      -5.534   3.917 -21.880  1.00  0.00     0.166 A 
ATOM      5  C   UNL     1      -5.497   3.441 -20.586  1.00  0.00     0.054 A 
ENDROOT
BRANCH   4   6
ATOM      6  C   UNL     1      -6.581   4.770 -22.444  1.00  0.00     0.298 C 
ATOM      7  O   UNL     1      -6.966   5.796 -21.824  1.00  0.00    -0.294 OA
ENDBRANCH   4   6
TORSDOF 1
ENDMDL
MODEL 4
REMARK VINA RESULT:    -2.746      8.843      9.537
REMARK INTER + INTRA:          -2.918
REMARK INTER:                  -2.905
REMARK INTRA:                  -0.013
REMARK UNBOUND:                -0.011
REMARK SMILES O=Cc1ccco1
REMARK SMILES IDX 5 1 6 2 7 3 3 4 4 5 2 6 1 7
REMARK H PARENT
REMARK Flexibility Score: inf
ROOT
ATOM      1  C   UNL     1      -6.966   3.499 -23.324  1.00  0.00     0.043 A 
ATOM      2  C   UNL     1      -7.335   2.239 -22.899  1.00  0.00     0.196 A 
ATOM      3  O   UNL     1      -6.504   1.824 -21.970  1.00  0.00    -0.462 OA
ATOM      4  C   UNL     1      -5.604   2.760 -21.768  1.00  0.00     0.166 A 
ATOM      5  C   UNL     1      -5.846   3.838 -22.594  1.00  0.00     0.054 A 
ENDROOT
BRANCH   4   6
ATOM      6  C   UNL     1      -4.510   2.655 -20.803  1.00  0.00     0.298 C 
ATOM      7  O   UNL     1      -4.749   2.358 -19.603  1.00  0.00    -0.294 OA
ENDBRANCH   4   6
TORSDOF 1
ENDMDL
MODEL 5
REMARK VINA RESULT:    -2.741      8.506      9.181
REMARK INTER + INTRA:          -2.913
REMARK INTER:                  -2.902
REMARK INTRA:                  -0.011
REMARK UNBOUND:                -0.011
REMARK SMILES O=Cc1ccco1
REMARK SMILES IDX 5 1 6 2 7 3 3 4 4 5 2 6 1 7
REMARK H PARENT
REMARK Flexibility Score: inf
ROOT
ATOM      1  C   UNL     1      -4.045   2.469 -21.247  1.00  0.00     0.043 A 
ATOM      2  C   UNL     1      -3.732   3.361 -22.253  1.00  0.00     0.196 A 
ATOM      3  O   UNL     1      -4.812   3.644 -22.944  1.00  0.00    -0.462 OA
ATOM      4  C   UNL     1      -5.821   2.975 -22.434  1.00  0.00     0.166 A 
ATOM      5  C   UNL     1      -5.395   2.218 -21.362  1.00  0.00     0.054 A 
ENDROOT
BRANCH   4   6
ATOM      6  C   UNL     1      -7.191   3.035 -22.943  1.00  0.00     0.298 C 
ATOM      7  O   UNL     1      -7.776   1.985 -23.316  1.00  0.00    -0.294 OA
ENDBRANCH   4   6
TORSDOF 1
ENDMDL
MODEL 6
REMARK VINA RESULT:    -2.712      7.523      8.331
REMARK INTER + INTRA:          -2.882
REMARK INTER:                  -2.872
REMARK INTRA:                  -0.011
REMARK UNBOUND:                -0.011
REMARK SMILES O=Cc1ccco1
REMARK SMILES IDX 5 1 6 2 7 3 3 4 4 5 2 6 1 7
REMARK H PARENT
REMARK Flexibility Score: inf
ROOT
ATOM      1  C   UNL     1      -3.944   4.191 -23.650  1.00  0.00     0.043 A 
ATOM      2  C   UNL     1      -2.729   3.687 -23.228  1.00  0.00     0.196 A 
ATOM      3  O   UNL     1      -2.900   2.983 -22.132  1.00  0.00    -0.462 OA
ATOM      4  C   UNL     1      -4.174   3.006 -21.816  1.00  0.00     0.166 A 
ATOM      5  C   UNL     1      -4.880   3.753 -22.738  1.00  0.00     0.054 A 
ENDROOT
BRANCH   4   6
ATOM      6  C   UNL     1      -4.746   2.331 -20.651  1.00  0.00     0.298 C 
ATOM      7  O   UNL     1      -5.101   2.996 -19.643  1.00  0.00    -0.294 OA
ENDBRANCH   4   6
TORSDOF 1
ENDMDL
MODEL 7
REMARK VINA RESULT:    -2.689      2.371      2.858
REMARK INTER + INTRA:          -2.857
REMARK INTER:                  -2.841
REMARK INTRA:                  -0.016
REMARK UNBOUND:                -0.011
REMARK SMILES O=Cc1ccco1
REMARK SMILES IDX 5 1 6 2 7 3 3 4 4 5 2 6 1 7
REMARK H PARENT
REMARK Flexibility Score: inf
ROOT
ATOM      1  C   UNL     1       2.413  -1.231 -22.228  1.00  0.00     0.043 A 
ATOM      2  C   UNL     1       2.725  -0.390 -23.278  1.00  0.00     0.196 A 
ATOM      3  O   UNL     1       1.691   0.369 -23.559  1.00  0.00    -0.462 OA
ATOM      4  C   UNL     1       0.712   0.061 -22.738  1.00  0.00     0.166 A 
ATOM      5  C   UNL     1       1.111  -0.941 -21.878  1.00  0.00     0.054 A 
ENDROOT
BRANCH   4   6
ATOM      6  C   UNL     1      -0.604   0.699 -22.750  1.00  0.00     0.298 C 
ATOM      7  O   UNL     1      -0.991   1.338 -23.763  1.00  0.00    -0.294 OA
ENDBRANCH   4   6
TORSDOF 1
ENDMDL
MODEL 8
REMARK VINA RESULT:    -2.688      9.031      9.572
REMARK INTER + INTRA:          -2.856
REMARK INTER:                  -2.846
REMARK INTRA:                  -0.011
REMARK UNBOUND:                -0.011
REMARK SMILES O=Cc1ccco1
REMARK SMILES IDX 5 1 6 2 7 3 3 4 4 5 2 6 1 7
REMARK H PARENT
REMARK Flexibility Score: inf
ROOT
ATOM      1  C   UNL     1      -6.247   2.480 -22.208  1.00  0.00     0.043 A 
ATOM      2  C   UNL     1      -5.875   3.776 -21.912  1.00  0.00     0.196 A 
ATOM      3  O   UNL     1      -5.289   3.810 -20.737  1.00  0.00    -0.462 OA
ATOM      4  C   UNL     1      -5.261   2.591 -20.250  1.00  0.00     0.166 A 
ATOM      5  C   UNL     1      -5.851   1.712 -21.134  1.00  0.00     0.054 A 
ENDROOT
BRANCH   4   6
ATOM      6  C   UNL     1      -4.683   2.235 -18.953  1.00  0.00     0.298 C 
ATOM      7  O   UNL     1      -5.430   1.914 -17.992  1.00  0.00    -0.294 OA
ENDBRANCH   4   6
TORSDOF 1
ENDMDL
