MODEL 1
REMARK VINA RESULT:    33.041      0.000      0.000
REMARK INTER + INTRA:          88.916
REMARK INTER:                  78.433
REMARK INTRA:                  10.483
REMARK UNBOUND:                10.483
REMARK SMILES O=C(OC[C@H]1O[C@H](OC(=O)c2cc(O)c(O)c(O)c2)[C@H](OC(=O)c2cc(O)c(O)c(O)c2)[C@@H](OC(=O)c2cc(O)c(O)c(O)c2)[C@H]1OC(=O)c1cc(O)c(O)c(O)c1)c1cc(O)c(O)c(O)c1
REMARK SMILES IDX 5 1 46 2 33 3 20 4 7 5 6 6 4 7 3 8 2 9 1 10 59 11 60 12
REMARK SMILES IDX 61 13 67 14 63 15 65 16 62 17 64 19 66 21 47 23 48 24 49 25
REMARK SMILES IDX 50 26 58 27 51 28 56 29 52 30 54 31 57 32 53 34 55 36 34 38
REMARK SMILES IDX 35 39 36 40 37 41 45 42 38 43 43 44 39 45 41 46 44 47 40 49
REMARK SMILES IDX 42 51 8 53 9 54 10 55 11 56 19 57 12 58 17 59 13 60 15 61
REMARK SMILES IDX 18 62 14 64 16 66 21 68 22 69 23 70 24 71 32 72 25 73 30 74
REMARK SMILES IDX 26 75 28 76 31 77 27 79 29 81
REMARK H PARENT 62 18 64 20 66 22 57 33 53 35 55 37 44 48 40 50 42 52 18 63
REMARK H PARENT 14 65 16 67 31 78 27 80 29 82
REMARK Flexibility Score: inf
ROOT
ATOM      1  C   UNL     1       9.983  -0.641  15.812  1.00  0.00     0.205 C 
ATOM      2  C   UNL     1      11.083  -1.457  16.516  1.00  0.00     0.254 C 
ATOM      3  C   UNL     1      10.548  -1.854  17.897  1.00  0.00     0.267 C 
ATOM      4  C   UNL     1       9.235  -2.642  17.736  1.00  0.00     0.290 C 
ATOM      5  C   UNL     1       8.250  -1.835  16.858  1.00  0.00     0.357 C 
ATOM      6  O   UNL     1       8.828  -1.445  15.618  1.00  0.00    -0.329 OA
ENDROOT
BRANCH   1   7
ATOM      7  C   UNL     1      10.447  -0.085  14.453  1.00  0.00     0.269 C 
BRANCH   7   8
ATOM      8  O   UNL     1       9.731  -0.733  13.406  1.00  0.00    -0.459 OA
BRANCH   8   9
ATOM      9  C   UNL     1       9.759  -0.274  12.082  1.00  0.00     0.338 C 
ATOM     10  O   UNL     1      10.472  -0.869  11.224  1.00  0.00    -0.246 OA
BRANCH   9  11
ATOM     11  C   UNL     1       8.982   0.923  11.700  1.00  0.00     0.067 A 
ATOM     12  C   UNL     1       7.796   0.791  10.965  1.00  0.00     0.066 A 
ATOM     13  C   UNL     1       7.079   1.916  10.551  1.00  0.00     0.162 A 
ATOM     14  C   UNL     1       9.448   2.212  12.031  1.00  0.00     0.066 A 
ATOM     15  C   UNL     1       7.566   3.209  10.852  1.00  0.00     0.200 A 
ATOM     16  C   UNL     1       8.750   3.346  11.600  1.00  0.00     0.162 A 
BRANCH  13  17
ATOM     17  O   UNL     1       5.887   1.703   9.857  1.00  0.00    -0.504 OA
ATOM     18  H   UNL     1       5.597   0.805   9.509  1.00  0.00     0.293 HD
ENDBRANCH  13  17
BRANCH  15  19
ATOM     19  O   UNL     1       6.909   4.367  10.425  1.00  0.00    -0.502 OA
ATOM     20  H   UNL     1       7.106   4.849   9.561  1.00  0.00     0.293 HD
ENDBRANCH  15  19
BRANCH  16  21
ATOM     21  O   UNL     1       9.257   4.605  11.924  1.00  0.00    -0.504 OA
ATOM     22  H   UNL     1       8.710   5.290  12.431  1.00  0.00     0.293 HD
ENDBRANCH  16  21
ENDBRANCH   9  11
ENDBRANCH   8   9
ENDBRANCH   7   8
ENDBRANCH   1   7
BRANCH   2  23
ATOM     23  O   UNL     1      11.373  -2.642  15.773  1.00  0.00    -0.452 OA
BRANCH  23  24
ATOM     24  C   UNL     1      11.302  -2.733  14.376  1.00  0.00     0.338 C 
ATOM     25  O   UNL     1      10.951  -1.732  13.700  1.00  0.00    -0.246 OA
BRANCH  24  26
ATOM     26  C   UNL     1      11.661  -4.005  13.710  1.00  0.00     0.067 A 
ATOM     27  C   UNL     1      12.125  -5.104  14.456  1.00  0.00     0.066 A 
ATOM     28  C   UNL     1      11.593  -4.110  12.311  1.00  0.00     0.066 A 
ATOM     29  C   UNL     1      12.529  -6.285  13.811  1.00  0.00     0.162 A 
ATOM     30  C   UNL     1      11.985  -5.287  11.666  1.00  0.00     0.162 A 
ATOM     31  C   UNL     1      12.456  -6.378  12.411  1.00  0.00     0.200 A 
BRANCH  29  32
ATOM     32  O   UNL     1      13.008  -7.361  14.555  1.00  0.00    -0.504 OA
ATOM     33  H   UNL     1      12.646  -7.569  15.478  1.00  0.00     0.293 HD
ENDBRANCH  29  32
BRANCH  30  34
ATOM     34  O   UNL     1      11.905  -5.351  10.276  1.00  0.00    -0.504 OA
ATOM     35  H   UNL     1      11.320  -4.717   9.740  1.00  0.00     0.293 HD
ENDBRANCH  30  34
BRANCH  31  36
ATOM     36  O   UNL     1      12.852  -7.537  11.747  1.00  0.00    -0.502 OA
ATOM     37  H   UNL     1      13.373  -8.273  12.206  1.00  0.00     0.293 HD
ENDBRANCH  31  36
ENDBRANCH  24  26
ENDBRANCH  23  24
ENDBRANCH   2  23
BRANCH   3  38
ATOM     38  O   UNL     1      11.523  -2.615  18.609  1.00  0.00    -0.450 OA
BRANCH  38  39
ATOM     39  C   UNL     1      12.813  -2.132  18.871  1.00  0.00     0.338 C 
ATOM     40  O   UNL     1      13.034  -0.890  18.879  1.00  0.00    -0.246 OA
BRANCH  39  41
ATOM     41  C   UNL     1      13.916  -3.076  19.159  1.00  0.00     0.067 A 
ATOM     42  C   UNL     1      13.638  -4.415  19.484  1.00  0.00     0.066 A 
ATOM     43  C   UNL     1      15.251  -2.646  19.106  1.00  0.00     0.066 A 
ATOM     44  C   UNL     1      14.675  -5.310  19.758  1.00  0.00     0.162 A 
ATOM     45  C   UNL     1      16.299  -3.531  19.382  1.00  0.00     0.162 A 
ATOM     46  C   UNL     1      16.011  -4.878  19.723  1.00  0.00     0.200 A 
BRANCH  44  47
ATOM     47  O   UNL     1      14.380  -6.640  20.067  1.00  0.00    -0.504 OA
ATOM     48  H   UNL     1      13.645  -7.149  19.582  1.00  0.00     0.293 HD
ENDBRANCH  44  47
BRANCH  45  49
ATOM     49  O   UNL     1      17.600  -3.032  19.311  1.00  0.00    -0.504 OA
ATOM     50  H   UNL     1      18.001  -2.399  19.987  1.00  0.00     0.293 HD
ENDBRANCH  45  49
BRANCH  46  51
ATOM     51  O   UNL     1      17.005  -5.810  20.033  1.00  0.00    -0.502 OA
ATOM     52  H   UNL     1      17.135  -6.206  20.957  1.00  0.00     0.293 HD
ENDBRANCH  46  51
ENDBRANCH  39  41
ENDBRANCH  38  39
ENDBRANCH   3  38
BRANCH   5  53
ATOM     53  O   UNL     1       7.762  -0.700  17.572  1.00  0.00    -0.428 OA
BRANCH  53  54
ATOM     54  C   UNL     1       8.065  -0.447  18.914  1.00  0.00     0.340 C 
ATOM     55  O   UNL     1       7.614  -1.188  19.824  1.00  0.00    -0.246 OA
BRANCH  54  56
ATOM     56  C   UNL     1       8.925   0.697  19.255  1.00  0.00     0.067 A 
ATOM     57  C   UNL     1      10.315   0.548  19.345  1.00  0.00     0.066 A 
ATOM     58  C   UNL     1       8.356   1.956  19.480  1.00  0.00     0.066 A 
ATOM     59  C   UNL     1      11.142   1.643  19.624  1.00  0.00     0.162 A 
ATOM     60  C   UNL     1       9.158   3.055  19.788  1.00  0.00     0.162 A 
ATOM     61  C   UNL     1      10.560   2.918  19.847  1.00  0.00     0.200 A 
BRANCH  59  62
ATOM     62  O   UNL     1      12.521   1.417  19.662  1.00  0.00    -0.504 OA
ATOM     63  H   UNL     1      13.180   1.825  19.008  1.00  0.00     0.293 HD
ENDBRANCH  59  62
BRANCH  60  64
ATOM     64  O   UNL     1       8.539   4.280  20.039  1.00  0.00    -0.504 OA
ATOM     65  H   UNL     1       7.532   4.395  19.980  1.00  0.00     0.293 HD
ENDBRANCH  60  64
BRANCH  61  66
ATOM     66  O   UNL     1      11.336   4.054  20.122  1.00  0.00    -0.502 OA
ATOM     67  H   UNL     1      11.773   4.240  21.014  1.00  0.00     0.293 HD
ENDBRANCH  61  66
ENDBRANCH  54  56
ENDBRANCH  53  54
ENDBRANCH   5  53
BRANCH   4  68
ATOM     68  O   UNL     1       8.627  -2.850  19.009  1.00  0.00    -0.448 OA
BRANCH  68  69
ATOM     69  C   UNL     1       7.711  -3.869  19.286  1.00  0.00     0.339 C 
ATOM     70  O   UNL     1       6.475  -3.614  19.348  1.00  0.00    -0.246 OA
BRANCH  69  71
ATOM     71  C   UNL     1       8.200  -5.243  19.520  1.00  0.00     0.067 A 
ATOM     72  C   UNL     1       7.314  -6.328  19.547  1.00  0.00     0.066 A 
ATOM     73  C   UNL     1       9.570  -5.482  19.713  1.00  0.00     0.066 A 
ATOM     74  C   UNL     1       7.785  -7.635  19.748  1.00  0.00     0.162 A 
ATOM     75  C   UNL     1      10.050  -6.780  19.910  1.00  0.00     0.162 A 
ATOM     76  C   UNL     1       9.159  -7.863  19.927  1.00  0.00     0.200 A 
BRANCH  74  77
ATOM     77  O   UNL     1       6.893  -8.708  19.759  1.00  0.00    -0.504 OA
ATOM     78  H   UNL     1       6.094  -8.727  20.384  1.00  0.00     0.293 HD
ENDBRANCH  74  77
BRANCH  75  79
ATOM     79  O   UNL     1      11.421  -6.976  20.085  1.00  0.00    -0.504 OA
ATOM     80  H   UNL     1      12.039  -6.235  20.389  1.00  0.00     0.293 HD
ENDBRANCH  75  79
BRANCH  76  81
ATOM     81  O   UNL     1       9.647  -9.157  20.125  1.00  0.00    -0.502 OA
ATOM     82  H   UNL     1       9.117  -9.980  19.879  1.00  0.00     0.293 HD
ENDBRANCH  76  81
ENDBRANCH  69  71
ENDBRANCH  68  69
ENDBRANCH   4  68
TORSDOF 31
ENDMDL
MODEL 2
REMARK VINA RESULT:    33.394      1.854      9.824
REMARK INTER + INTRA:          89.753
REMARK INTER:                  77.110
REMARK INTRA:                  12.644
REMARK UNBOUND:                10.483
REMARK SMILES O=C(OC[C@H]1O[C@H](OC(=O)c2cc(O)c(O)c(O)c2)[C@H](OC(=O)c2cc(O)c(O)c(O)c2)[C@@H](OC(=O)c2cc(O)c(O)c(O)c2)[C@H]1OC(=O)c1cc(O)c(O)c(O)c1)c1cc(O)c(O)c(O)c1
REMARK SMILES IDX 5 1 46 2 33 3 20 4 7 5 6 6 4 7 3 8 2 9 1 10 59 11 60 12
REMARK SMILES IDX 61 13 67 14 63 15 65 16 62 17 64 19 66 21 47 23 48 24 49 25
REMARK SMILES IDX 50 26 58 27 51 28 56 29 52 30 54 31 57 32 53 34 55 36 34 38
REMARK SMILES IDX 35 39 36 40 37 41 45 42 38 43 43 44 39 45 41 46 44 47 40 49
REMARK SMILES IDX 42 51 8 53 9 54 10 55 11 56 19 57 12 58 17 59 13 60 15 61
REMARK SMILES IDX 18 62 14 64 16 66 21 68 22 69 23 70 24 71 32 72 25 73 30 74
REMARK SMILES IDX 26 75 28 76 31 77 27 79 29 81
REMARK H PARENT 62 18 64 20 66 22 57 33 53 35 55 37 44 48 40 50 42 52 18 63
REMARK H PARENT 14 65 16 67 31 78 27 80 29 82
REMARK Flexibility Score: inf
ROOT
ATOM      1  C   UNL     1      10.300  -2.784  17.966  1.00  0.00     0.205 C 
ATOM      2  C   UNL     1      11.033  -2.319  16.695  1.00  0.00     0.254 C 
ATOM      3  C   UNL     1       9.967  -1.889  15.681  1.00  0.00     0.267 C 
ATOM      4  C   UNL     1       9.084  -0.787  16.294  1.00  0.00     0.290 C 
ATOM      5  C   UNL     1       8.536  -1.261  17.660  1.00  0.00     0.357 C 
ATOM      6  O   UNL     1       9.570  -1.703  18.531  1.00  0.00    -0.329 OA
ENDROOT
BRANCH   1   7
ATOM      7  C   UNL     1      11.265  -3.350  19.024  1.00  0.00     0.269 C 
BRANCH   7   8
ATOM      8  O   UNL     1      12.542  -3.569  18.433  1.00  0.00    -0.459 OA
BRANCH   8   9
ATOM      9  C   UNL     1      13.555  -4.290  19.080  1.00  0.00     0.338 C 
ATOM     10  O   UNL     1      13.281  -5.383  19.655  1.00  0.00    -0.246 OA
BRANCH   9  11
ATOM     11  C   UNL     1      14.932  -3.757  19.118  1.00  0.00     0.067 A 
ATOM     12  C   UNL     1      15.985  -4.553  19.589  1.00  0.00     0.066 A 
ATOM     13  C   UNL     1      17.283  -4.046  19.680  1.00  0.00     0.162 A 
ATOM     14  C   UNL     1      15.195  -2.430  18.723  1.00  0.00     0.066 A 
ATOM     15  C   UNL     1      17.539  -2.702  19.318  1.00  0.00     0.200 A 
ATOM     16  C   UNL     1      16.487  -1.904  18.833  1.00  0.00     0.162 A 
BRANCH  13  17
ATOM     17  O   UNL     1      18.286  -4.910  20.121  1.00  0.00    -0.504 OA
ATOM     18  H   UNL     1      18.226  -5.912  20.056  1.00  0.00     0.293 HD
ENDBRANCH  13  17
BRANCH  15  19
ATOM     19  O   UNL     1      18.812  -2.133  19.431  1.00  0.00    -0.502 OA
ATOM     20  H   UNL     1      19.225  -1.827  20.298  1.00  0.00     0.293 HD
ENDBRANCH  15  19
BRANCH  16  21
ATOM     21  O   UNL     1      16.702  -0.577  18.458  1.00  0.00    -0.504 OA
ATOM     22  H   UNL     1      16.084   0.171  18.749  1.00  0.00     0.293 HD
ENDBRANCH  16  21
ENDBRANCH   9  11
ENDBRANCH   8   9
ENDBRANCH   7   8
ENDBRANCH   1   7
BRANCH   2  23
ATOM     23  O   UNL     1      11.872  -1.200  16.987  1.00  0.00    -0.452 OA
BRANCH  23  24
ATOM     24  C   UNL     1      11.869  -0.511  18.208  1.00  0.00     0.338 C 
ATOM     25  O   UNL     1      12.857  -0.604  18.981  1.00  0.00    -0.246 OA
BRANCH  24  26
ATOM     26  C   UNL     1      10.709   0.336  18.564  1.00  0.00     0.067 A 
ATOM     27  C   UNL     1       9.586  -0.214  19.209  1.00  0.00     0.066 A 
ATOM     28  C   UNL     1      10.695   1.694  18.209  1.00  0.00     0.066 A 
ATOM     29  C   UNL     1       8.460   0.580  19.483  1.00  0.00     0.162 A 
ATOM     30  C   UNL     1       9.580   2.491  18.489  1.00  0.00     0.162 A 
ATOM     31  C   UNL     1       8.458   1.938  19.124  1.00  0.00     0.200 A 
BRANCH  29  32
ATOM     32  O   UNL     1       7.344   0.023  20.103  1.00  0.00    -0.504 OA
ATOM     33  H   UNL     1       7.331  -0.946  20.399  1.00  0.00     0.293 HD
ENDBRANCH  29  32
BRANCH  30  34
ATOM     34  O   UNL     1       9.604   3.834  18.119  1.00  0.00    -0.504 OA
ATOM     35  H   UNL     1       9.259   4.568  18.730  1.00  0.00     0.293 HD
ENDBRANCH  30  34
BRANCH  31  36
ATOM     36  O   UNL     1       7.354   2.747  19.382  1.00  0.00    -0.502 OA
ATOM     37  H   UNL     1       7.063   3.484  18.753  1.00  0.00     0.293 HD
ENDBRANCH  31  36
ENDBRANCH  24  26
ENDBRANCH  23  24
ENDBRANCH   2  23
BRANCH   3  38
ATOM     38  O   UNL     1      10.580  -1.447  14.470  1.00  0.00    -0.450 OA
BRANCH  38  39
ATOM     39  C   UNL     1      10.919  -2.325  13.431  1.00  0.00     0.338 C 
ATOM     40  O   UNL     1      11.090  -3.551  13.670  1.00  0.00    -0.246 OA
BRANCH  39  41
ATOM     41  C   UNL     1      11.056  -1.820  12.047  1.00  0.00     0.067 A 
ATOM     42  C   UNL     1      11.256  -0.449  11.807  1.00  0.00     0.066 A 
ATOM     43  C   UNL     1      10.991  -2.704  10.958  1.00  0.00     0.066 A 
ATOM     44  C   UNL     1      11.385   0.032  10.502  1.00  0.00     0.162 A 
ATOM     45  C   UNL     1      11.114  -2.235   9.647  1.00  0.00     0.162 A 
ATOM     46  C   UNL     1      11.304  -0.848   9.411  1.00  0.00     0.200 A 
BRANCH  44  47
ATOM     47  O   UNL     1      11.597   1.395  10.285  1.00  0.00    -0.504 OA
ATOM     48  H   UNL     1      11.004   1.934   9.658  1.00  0.00     0.293 HD
ENDBRANCH  44  47
BRANCH  45  49
ATOM     49  O   UNL     1      11.039  -3.172   8.616  1.00  0.00    -0.504 OA
ATOM     50  H   UNL     1      11.785  -3.808   8.374  1.00  0.00     0.293 HD
ENDBRANCH  45  49
BRANCH  46  51
ATOM     51  O   UNL     1      11.412  -0.306   8.127  1.00  0.00    -0.502 OA
ATOM     52  H   UNL     1      10.990   0.574   7.851  1.00  0.00     0.293 HD
ENDBRANCH  46  51
ENDBRANCH  39  41
ENDBRANCH  38  39
ENDBRANCH   3  38
BRANCH   5  53
ATOM     53  O   UNL     1       7.554  -2.279  17.477  1.00  0.00    -0.428 OA
BRANCH  53  54
ATOM     54  C   UNL     1       6.896  -2.912  18.538  1.00  0.00     0.340 C 
ATOM     55  O   UNL     1       5.921  -2.360  19.109  1.00  0.00    -0.246 OA
BRANCH  54  56
ATOM     56  C   UNL     1       7.351  -4.240  18.979  1.00  0.00     0.067 A 
ATOM     57  C   UNL     1       6.432  -5.214  19.387  1.00  0.00     0.066 A 
ATOM     58  C   UNL     1       8.718  -4.543  18.980  1.00  0.00     0.066 A 
ATOM     59  C   UNL     1       6.858  -6.495  19.763  1.00  0.00     0.162 A 
ATOM     60  C   UNL     1       9.167  -5.803  19.378  1.00  0.00     0.162 A 
ATOM     61  C   UNL     1       8.243  -6.799  19.759  1.00  0.00     0.200 A 
BRANCH  59  62
ATOM     62  O   UNL     1       5.875  -7.422  20.124  1.00  0.00    -0.504 OA
ATOM     63  H   UNL     1       6.012  -8.426  20.114  1.00  0.00     0.293 HD
ENDBRANCH  59  62
BRANCH  60  64
ATOM     64  O   UNL     1      10.541  -6.044  19.396  1.00  0.00    -0.504 OA
ATOM     65  H   UNL     1      10.922  -6.965  19.590  1.00  0.00     0.293 HD
ENDBRANCH  60  64
BRANCH  61  66
ATOM     66  O   UNL     1       8.731  -8.065  20.117  1.00  0.00    -0.502 OA
ATOM     67  H   UNL     1       9.286  -8.652  19.509  1.00  0.00     0.293 HD
ENDBRANCH  61  66
ENDBRANCH  54  56
ENDBRANCH  53  54
ENDBRANCH   5  53
BRANCH   4  68
ATOM     68  O   UNL     1       7.974  -0.514  15.441  1.00  0.00    -0.448 OA
BRANCH  68  69
ATOM     69  C   UNL     1       7.521   0.770  15.126  1.00  0.00     0.339 C 
ATOM     70  O   UNL     1       7.077   1.529  16.032  1.00  0.00    -0.246 OA
BRANCH  69  71
ATOM     71  C   UNL     1       7.553   1.229  13.721  1.00  0.00     0.067 A 
ATOM     72  C   UNL     1       8.030   0.395  12.701  1.00  0.00     0.066 A 
ATOM     73  C   UNL     1       7.093   2.513  13.387  1.00  0.00     0.066 A 
ATOM     74  C   UNL     1       8.038   0.826  11.366  1.00  0.00     0.162 A 
ATOM     75  C   UNL     1       7.093   2.951  12.060  1.00  0.00     0.162 A 
ATOM     76  C   UNL     1       7.565   2.108  11.042  1.00  0.00     0.200 A 
BRANCH  74  77
ATOM     77  O   UNL     1       8.504  -0.019  10.359  1.00  0.00    -0.504 OA
ATOM     78  H   UNL     1       8.720  -0.994  10.542  1.00  0.00     0.293 HD
ENDBRANCH  74  77
BRANCH  75  79
ATOM     79  O   UNL     1       6.616   4.230  11.769  1.00  0.00    -0.504 OA
ATOM     80  H   UNL     1       6.035   4.750  12.412  1.00  0.00     0.293 HD
ENDBRANCH  75  79
BRANCH  76  81
ATOM     81  O   UNL     1       7.561   2.553   9.719  1.00  0.00    -0.502 OA
ATOM     82  H   UNL     1       7.088   3.397   9.431  1.00  0.00     0.293 HD
ENDBRANCH  76  81
ENDBRANCH  69  71
ENDBRANCH  68  69
ENDBRANCH   4  68
TORSDOF 31
ENDMDL
MODEL 3
REMARK VINA RESULT:    33.697      2.239      9.718
REMARK INTER + INTRA:          90.473
REMARK INTER:                  82.379
REMARK INTRA:                   8.094
REMARK UNBOUND:                10.483
REMARK SMILES O=C(OC[C@H]1O[C@H](OC(=O)c2cc(O)c(O)c(O)c2)[C@H](OC(=O)c2cc(O)c(O)c(O)c2)[C@@H](OC(=O)c2cc(O)c(O)c(O)c2)[C@H]1OC(=O)c1cc(O)c(O)c(O)c1)c1cc(O)c(O)c(O)c1
REMARK SMILES IDX 5 1 46 2 33 3 20 4 7 5 6 6 4 7 3 8 2 9 1 10 59 11 60 12
REMARK SMILES IDX 61 13 67 14 63 15 65 16 62 17 64 19 66 21 47 23 48 24 49 25
REMARK SMILES IDX 50 26 58 27 51 28 56 29 52 30 54 31 57 32 53 34 55 36 34 38
REMARK SMILES IDX 35 39 36 40 37 41 45 42 38 43 43 44 39 45 41 46 44 47 40 49
REMARK SMILES IDX 42 51 8 53 9 54 10 55 11 56 19 57 12 58 17 59 13 60 15 61
REMARK SMILES IDX 18 62 14 64 16 66 21 68 22 69 23 70 24 71 32 72 25 73 30 74
REMARK SMILES IDX 26 75 28 76 31 77 27 79 29 81
REMARK H PARENT 62 18 64 20 66 22 57 33 53 35 55 37 44 48 40 50 42 52 18 63
REMARK H PARENT 14 65 16 67 31 78 27 80 29 82
REMARK Flexibility Score: inf
ROOT
ATOM      1  C   UNL     1      11.447  -3.459  17.879  1.00  0.00     0.205 C 
ATOM      2  C   UNL     1      11.976  -2.676  16.664  1.00  0.00     0.254 C 
ATOM      3  C   UNL     1      10.761  -2.178  15.873  1.00  0.00     0.267 C 
ATOM      4  C   UNL     1       9.865  -1.322  16.787  1.00  0.00     0.290 C 
ATOM      5  C   UNL     1       9.531  -2.112  18.073  1.00  0.00     0.357 C 
ATOM      6  O   UNL     1      10.698  -2.598  18.726  1.00  0.00    -0.329 OA
ENDROOT
BRANCH   1   7
ATOM      7  C   UNL     1      12.579  -4.111  18.694  1.00  0.00     0.269 C 
BRANCH   7   8
ATOM      8  O   UNL     1      13.827  -3.540  18.313  1.00  0.00    -0.459 OA
BRANCH   8   9
ATOM      9  C   UNL     1      15.009  -3.775  19.029  1.00  0.00     0.338 C 
ATOM     10  O   UNL     1      14.973  -4.445  20.102  1.00  0.00    -0.246 OA
BRANCH   9  11
ATOM     11  C   UNL     1      16.287  -3.211  18.549  1.00  0.00     0.067 A 
ATOM     12  C   UNL     1      16.309  -1.984  17.872  1.00  0.00     0.066 A 
ATOM     13  C   UNL     1      17.502  -1.464  17.367  1.00  0.00     0.162 A 
ATOM     14  C   UNL     1      17.492  -3.921  18.726  1.00  0.00     0.066 A 
ATOM     15  C   UNL     1      18.704  -2.195  17.513  1.00  0.00     0.200 A 
ATOM     16  C   UNL     1      18.689  -3.422  18.201  1.00  0.00     0.162 A 
BRANCH  13  17
ATOM     17  O   UNL     1      17.450  -0.218  16.739  1.00  0.00    -0.504 OA
ATOM     18  H   UNL     1      17.630  -0.080  15.760  1.00  0.00     0.293 HD
ENDBRANCH  13  17
BRANCH  15  19
ATOM     19  O   UNL     1      19.918  -1.740  16.987  1.00  0.00    -0.502 OA
ATOM     20  H   UNL     1      20.745  -2.308  16.884  1.00  0.00     0.293 HD
ENDBRANCH  15  19
BRANCH  16  21
ATOM     21  O   UNL     1      19.856  -4.167  18.373  1.00  0.00    -0.504 OA
ATOM     22  H   UNL     1      20.717  -3.748  18.705  1.00  0.00     0.293 HD
ENDBRANCH  16  21
ENDBRANCH   9  11
ENDBRANCH   8   9
ENDBRANCH   7   8
ENDBRANCH   1   7
BRANCH   2  23
ATOM     23  O   UNL     1      12.742  -1.550  17.096  1.00  0.00    -0.452 OA
BRANCH  23  24
ATOM     24  C   UNL     1      12.825  -1.117  18.427  1.00  0.00     0.338 C 
ATOM     25  O   UNL     1      13.441  -1.813  19.274  1.00  0.00    -0.246 OA
BRANCH  24  26
ATOM     26  C   UNL     1      12.200   0.167  18.815  1.00  0.00     0.067 A 
ATOM     27  C   UNL     1      12.980   1.327  18.982  1.00  0.00     0.066 A 
ATOM     28  C   UNL     1      10.822   0.228  19.078  1.00  0.00     0.066 A 
ATOM     29  C   UNL     1      12.392   2.526  19.417  1.00  0.00     0.162 A 
ATOM     30  C   UNL     1      10.231   1.422  19.502  1.00  0.00     0.162 A 
ATOM     31  C   UNL     1      11.012   2.575  19.676  1.00  0.00     0.200 A 
BRANCH  29  32
ATOM     32  O   UNL     1      13.173   3.664  19.600  1.00  0.00    -0.504 OA
ATOM     33  H   UNL     1      12.759   4.560  19.830  1.00  0.00     0.293 HD
ENDBRANCH  29  32
BRANCH  30  34
ATOM     34  O   UNL     1       8.861   1.442  19.754  1.00  0.00    -0.504 OA
ATOM     35  H   UNL     1       8.251   2.157  19.369  1.00  0.00     0.293 HD
ENDBRANCH  30  34
BRANCH  31  36
ATOM     36  O   UNL     1      10.404   3.751  20.111  1.00  0.00    -0.502 OA
ATOM     37  H   UNL     1       9.655   3.753  20.791  1.00  0.00     0.293 HD
ENDBRANCH  31  36
ENDBRANCH  24  26
ENDBRANCH  23  24
ENDBRANCH   2  23
BRANCH   3  38
ATOM     38  O   UNL     1      11.182  -1.442  14.726  1.00  0.00    -0.450 OA
BRANCH  38  39
ATOM     39  C   UNL     1      10.693  -0.162  14.428  1.00  0.00     0.338 C 
ATOM     40  O   UNL     1      10.859   0.783  15.246  1.00  0.00    -0.246 OA
BRANCH  39  41
ATOM     41  C   UNL     1      10.001   0.089  13.145  1.00  0.00     0.067 A 
ATOM     42  C   UNL     1      10.247  -0.733  12.031  1.00  0.00     0.066 A 
ATOM     43  C   UNL     1       9.087   1.149  13.026  1.00  0.00     0.066 A 
ATOM     44  C   UNL     1       9.596  -0.499  10.817  1.00  0.00     0.162 A 
ATOM     45  C   UNL     1       8.432   1.397  11.816  1.00  0.00     0.162 A 
ATOM     46  C   UNL     1       8.694   0.570  10.692  1.00  0.00     0.200 A 
BRANCH  44  47
ATOM     47  O   UNL     1       9.844  -1.335   9.727  1.00  0.00    -0.504 OA
ATOM     48  H   UNL     1       9.802  -2.347   9.810  1.00  0.00     0.293 HD
ENDBRANCH  44  47
BRANCH  45  49
ATOM     49  O   UNL     1       7.538   2.467  11.773  1.00  0.00    -0.504 OA
ATOM     50  H   UNL     1       6.924   2.661  10.995  1.00  0.00     0.293 HD
ENDBRANCH  45  49
BRANCH  46  51
ATOM     51  O   UNL     1       8.094   0.774   9.447  1.00  0.00    -0.502 OA
ATOM     52  H   UNL     1       7.799   1.682   9.107  1.00  0.00     0.293 HD
ENDBRANCH  46  51
ENDBRANCH  39  41
ENDBRANCH  38  39
ENDBRANCH   3  38
BRANCH   5  53
ATOM     53  O   UNL     1       8.628  -3.178  17.784  1.00  0.00    -0.428 OA
BRANCH  53  54
ATOM     54  C   UNL     1       7.878  -3.838  18.763  1.00  0.00     0.340 C 
ATOM     55  O   UNL     1       6.947  -3.246  19.367  1.00  0.00    -0.246 OA
BRANCH  54  56
ATOM     56  C   UNL     1       8.183  -5.242  19.080  1.00  0.00     0.067 A 
ATOM     57  C   UNL     1       9.504  -5.660  19.288  1.00  0.00     0.066 A 
ATOM     58  C   UNL     1       7.145  -6.174  19.191  1.00  0.00     0.066 A 
ATOM     59  C   UNL     1       9.795  -6.985  19.636  1.00  0.00     0.162 A 
ATOM     60  C   UNL     1       7.414  -7.506  19.508  1.00  0.00     0.162 A 
ATOM     61  C   UNL     1       8.739  -7.925  19.751  1.00  0.00     0.200 A 
BRANCH  59  62
ATOM     62  O   UNL     1      11.135  -7.314  19.860  1.00  0.00    -0.504 OA
ATOM     63  H   UNL     1      11.452  -8.230  20.157  1.00  0.00     0.293 HD
ENDBRANCH  59  62
BRANCH  60  64
ATOM     64  O   UNL     1       6.347  -8.403  19.570  1.00  0.00    -0.504 OA
ATOM     65  H   UNL     1       6.132  -8.924  20.415  1.00  0.00     0.293 HD
ENDBRANCH  60  64
BRANCH  61  66
ATOM     66  O   UNL     1       8.966  -9.263  20.103  1.00  0.00    -0.502 OA
ATOM     67  H   UNL     1       8.737  -9.659  21.005  1.00  0.00     0.293 HD
ENDBRANCH  61  66
ENDBRANCH  54  56
ENDBRANCH  53  54
ENDBRANCH   5  53
BRANCH   4  68
ATOM     68  O   UNL     1       8.640  -1.013  16.125  1.00  0.00    -0.448 OA
BRANCH  68  69
ATOM     69  C   UNL     1       7.480  -0.584  16.776  1.00  0.00     0.339 C 
ATOM     70  O   UNL     1       6.532  -1.391  16.985  1.00  0.00    -0.246 OA
BRANCH  69  71
ATOM     71  C   UNL     1       7.366   0.826  17.206  1.00  0.00     0.067 A 
ATOM     72  C   UNL     1       7.809   1.868  16.382  1.00  0.00     0.066 A 
ATOM     73  C   UNL     1       6.799   1.140  18.452  1.00  0.00     0.066 A 
ATOM     74  C   UNL     1       7.678   3.206  16.784  1.00  0.00     0.162 A 
ATOM     75  C   UNL     1       6.660   2.470  18.860  1.00  0.00     0.162 A 
ATOM     76  C   UNL     1       7.099   3.509  18.027  1.00  0.00     0.200 A 
BRANCH  74  77
ATOM     77  O   UNL     1       8.111   4.235  15.948  1.00  0.00    -0.504 OA
ATOM     78  H   UNL     1       7.493   4.659  15.263  1.00  0.00     0.293 HD
ENDBRANCH  74  77
BRANCH  75  79
ATOM     79  O   UNL     1       6.080   2.740  20.101  1.00  0.00    -0.504 OA
ATOM     80  H   UNL     1       6.605   2.701  20.963  1.00  0.00     0.293 HD
ENDBRANCH  75  79
BRANCH  76  81
ATOM     81  O   UNL     1       6.956   4.835  18.442  1.00  0.00    -0.502 OA
ATOM     82  H   UNL     1       6.131   5.169  18.917  1.00  0.00     0.293 HD
ENDBRANCH  76  81
ENDBRANCH  69  71
ENDBRANCH  68  69
ENDBRANCH   4  68
TORSDOF 31
ENDMDL
MODEL 4
REMARK VINA RESULT:    33.737      2.000      9.776
REMARK INTER + INTRA:          90.568
REMARK INTER:                  84.954
REMARK INTRA:                   5.614
REMARK UNBOUND:                10.483
REMARK SMILES O=C(OC[C@H]1O[C@H](OC(=O)c2cc(O)c(O)c(O)c2)[C@H](OC(=O)c2cc(O)c(O)c(O)c2)[C@@H](OC(=O)c2cc(O)c(O)c(O)c2)[C@H]1OC(=O)c1cc(O)c(O)c(O)c1)c1cc(O)c(O)c(O)c1
REMARK SMILES IDX 5 1 46 2 33 3 20 4 7 5 6 6 4 7 3 8 2 9 1 10 59 11 60 12
REMARK SMILES IDX 61 13 67 14 63 15 65 16 62 17 64 19 66 21 47 23 48 24 49 25
REMARK SMILES IDX 50 26 58 27 51 28 56 29 52 30 54 31 57 32 53 34 55 36 34 38
REMARK SMILES IDX 35 39 36 40 37 41 45 42 38 43 43 44 39 45 41 46 44 47 40 49
REMARK SMILES IDX 42 51 8 53 9 54 10 55 11 56 19 57 12 58 17 59 13 60 15 61
REMARK SMILES IDX 18 62 14 64 16 66 21 68 22 69 23 70 24 71 32 72 25 73 30 74
REMARK SMILES IDX 26 75 28 76 31 77 27 79 29 81
REMARK H PARENT 62 18 64 20 66 22 57 33 53 35 55 37 44 48 40 50 42 52 18 63
REMARK H PARENT 14 65 16 67 31 78 27 80 29 82
REMARK Flexibility Score: inf
ROOT
ATOM      1  C   UNL     1      10.599  -1.327  15.978  1.00  0.00     0.205 C 
ATOM      2  C   UNL     1       9.225  -0.884  16.512  1.00  0.00     0.254 C 
ATOM      3  C   UNL     1       8.535  -0.086  15.400  1.00  0.00     0.267 C 
ATOM      4  C   UNL     1       8.427  -0.953  14.132  1.00  0.00     0.290 C 
ATOM      5  C   UNL     1       9.821  -1.515  13.768  1.00  0.00     0.357 C 
ATOM      6  O   UNL     1      10.432  -2.190  14.861  1.00  0.00    -0.329 OA
ENDROOT
BRANCH   1   7
ATOM      7  C   UNL     1      11.439  -2.045  17.050  1.00  0.00     0.269 C 
BRANCH   7   8
ATOM      8  O   UNL     1      12.221  -3.065  16.436  1.00  0.00    -0.459 OA
BRANCH   8   9
ATOM      9  C   UNL     1      13.262  -3.720  17.108  1.00  0.00     0.338 C 
ATOM     10  O   UNL     1      13.297  -4.984  17.136  1.00  0.00    -0.246 OA
BRANCH   9  11
ATOM     11  C   UNL     1      14.296  -2.934  17.812  1.00  0.00     0.067 A 
ATOM     12  C   UNL     1      15.630  -3.364  17.816  1.00  0.00     0.066 A 
ATOM     13  C   UNL     1      16.609  -2.660  18.520  1.00  0.00     0.162 A 
ATOM     14  C   UNL     1      13.946  -1.767  18.522  1.00  0.00     0.066 A 
ATOM     15  C   UNL     1      16.250  -1.511  19.262  1.00  0.00     0.200 A 
ATOM     16  C   UNL     1      14.915  -1.069  19.251  1.00  0.00     0.162 A 
BRANCH  13  17
ATOM     17  O   UNL     1      17.922  -3.128  18.445  1.00  0.00    -0.504 OA
ATOM     18  H   UNL     1      18.191  -4.071  18.669  1.00  0.00     0.293 HD
ENDBRANCH  13  17
BRANCH  15  19
ATOM     19  O   UNL     1      17.184  -0.795  20.019  1.00  0.00    -0.502 OA
ATOM     20  H   UNL     1      18.174  -0.768  19.827  1.00  0.00     0.293 HD
ENDBRANCH  15  19
BRANCH  16  21
ATOM     21  O   UNL     1      14.525   0.066  19.964  1.00  0.00    -0.504 OA
ATOM     22  H   UNL     1      14.054   0.844  19.519  1.00  0.00     0.293 HD
ENDBRANCH  16  21
ENDBRANCH   9  11
ENDBRANCH   8   9
ENDBRANCH   7   8
ENDBRANCH   1   7
BRANCH   2  23
ATOM     23  O   UNL     1       8.425  -2.024  16.830  1.00  0.00    -0.452 OA
BRANCH  23  24
ATOM     24  C   UNL     1       8.068  -2.398  18.133  1.00  0.00     0.338 C 
ATOM     25  O   UNL     1       7.293  -1.668  18.803  1.00  0.00    -0.246 OA
BRANCH  24  26
ATOM     26  C   UNL     1       8.594  -3.660  18.699  1.00  0.00     0.067 A 
ATOM     27  C   UNL     1       9.932  -3.757  19.125  1.00  0.00     0.066 A 
ATOM     28  C   UNL     1       7.773  -4.797  18.765  1.00  0.00     0.066 A 
ATOM     29  C   UNL     1      10.444  -4.977  19.597  1.00  0.00     0.162 A 
ATOM     30  C   UNL     1       8.276  -6.011  19.244  1.00  0.00     0.162 A 
ATOM     31  C   UNL     1       9.612  -6.107  19.659  1.00  0.00     0.200 A 
BRANCH  29  32
ATOM     32  O   UNL     1      11.775  -5.070  19.997  1.00  0.00    -0.504 OA
ATOM     33  H   UNL     1      12.492  -5.420  19.372  1.00  0.00     0.293 HD
ENDBRANCH  29  32
BRANCH  30  34
ATOM     34  O   UNL     1       7.431  -7.117  19.291  1.00  0.00    -0.504 OA
ATOM     35  H   UNL     1       7.165  -7.556  20.168  1.00  0.00     0.293 HD
ENDBRANCH  30  34
BRANCH  31  36
ATOM     36  O   UNL     1      10.096  -7.329  20.122  1.00  0.00    -0.502 OA
ATOM     37  H   UNL     1      10.920  -7.768  19.731  1.00  0.00     0.293 HD
ENDBRANCH  31  36
ENDBRANCH  24  26
ENDBRANCH  23  24
ENDBRANCH   2  23
BRANCH   3  38
ATOM     38  O   UNL     1       7.250   0.361  15.832  1.00  0.00    -0.450 OA
BRANCH  38  39
ATOM     39  C   UNL     1       7.028   0.906  17.104  1.00  0.00     0.338 C 
ATOM     40  O   UNL     1       5.876   0.869  17.615  1.00  0.00    -0.246 OA
BRANCH  39  41
ATOM     41  C   UNL     1       8.148   1.509  17.860  1.00  0.00     0.067 A 
ATOM     42  C   UNL     1       9.404   0.878  17.894  1.00  0.00     0.066 A 
ATOM     43  C   UNL     1       7.970   2.720  18.549  1.00  0.00     0.066 A 
ATOM     44  C   UNL     1      10.464   1.442  18.608  1.00  0.00     0.162 A 
ATOM     45  C   UNL     1       9.022   3.293  19.271  1.00  0.00     0.162 A 
ATOM     46  C   UNL     1      10.284   2.644  19.311  1.00  0.00     0.200 A 
BRANCH  44  47
ATOM     47  O   UNL     1      11.707   0.807  18.618  1.00  0.00    -0.504 OA
ATOM     48  H   UNL     1      11.819  -0.142  18.967  1.00  0.00     0.293 HD
ENDBRANCH  44  47
BRANCH  45  49
ATOM     49  O   UNL     1       8.771   4.496  19.930  1.00  0.00    -0.504 OA
ATOM     50  H   UNL     1       8.406   5.323  19.481  1.00  0.00     0.293 HD
ENDBRANCH  45  49
BRANCH  46  51
ATOM     51  O   UNL     1      11.371   3.147  20.030  1.00  0.00    -0.502 OA
ATOM     52  H   UNL     1      11.776   2.683  20.835  1.00  0.00     0.293 HD
ENDBRANCH  46  51
ENDBRANCH  39  41
ENDBRANCH  38  39
ENDBRANCH   3  38
BRANCH   5  53
ATOM     53  O   UNL     1      10.664  -0.475  13.275  1.00  0.00    -0.428 OA
BRANCH  53  54
ATOM     54  C   UNL     1      10.526   0.088  12.002  1.00  0.00     0.340 C 
ATOM     55  O   UNL     1      10.174   1.288  11.866  1.00  0.00    -0.246 OA
BRANCH  54  56
ATOM     56  C   UNL     1      10.802  -0.736  10.814  1.00  0.00     0.067 A 
ATOM     57  C   UNL     1      10.463  -2.095  10.789  1.00  0.00     0.066 A 
ATOM     58  C   UNL     1      11.398  -0.158   9.688  1.00  0.00     0.066 A 
ATOM     59  C   UNL     1      10.682  -2.871   9.645  1.00  0.00     0.162 A 
ATOM     60  C   UNL     1      11.651  -0.919   8.546  1.00  0.00     0.162 A 
ATOM     61  C   UNL     1      11.282  -2.280   8.504  1.00  0.00     0.200 A 
BRANCH  59  62
ATOM     62  O   UNL     1      10.284  -4.211   9.688  1.00  0.00    -0.504 OA
ATOM     63  H   UNL     1      10.229  -4.813   8.874  1.00  0.00     0.293 HD
ENDBRANCH  59  62
BRANCH  60  64
ATOM     64  O   UNL     1      12.280  -0.305   7.463  1.00  0.00    -0.504 OA
ATOM     65  H   UNL     1      11.797   0.361   6.869  1.00  0.00     0.293 HD
ENDBRANCH  60  64
BRANCH  61  66
ATOM     66  O   UNL     1      11.519  -3.003   7.325  1.00  0.00    -0.502 OA
ATOM     67  H   UNL     1      11.413  -2.623   6.395  1.00  0.00     0.293 HD
ENDBRANCH  61  66
ENDBRANCH  54  56
ENDBRANCH  53  54
ENDBRANCH   5  53
BRANCH   4  68
ATOM     68  O   UNL     1       7.965  -0.166  13.036  1.00  0.00    -0.448 OA
BRANCH  68  69
ATOM     69  C   UNL     1       7.893   1.230  13.046  1.00  0.00     0.339 C 
ATOM     70  O   UNL     1       8.159   1.874  14.099  1.00  0.00    -0.246 OA
BRANCH  69  71
ATOM     71  C   UNL     1       7.490   1.947  11.818  1.00  0.00     0.067 A 
ATOM     72  C   UNL     1       7.036   1.248  10.692  1.00  0.00     0.066 A 
ATOM     73  C   UNL     1       7.548   3.349  11.767  1.00  0.00     0.066 A 
ATOM     74  C   UNL     1       6.633   1.932   9.536  1.00  0.00     0.162 A 
ATOM     75  C   UNL     1       7.145   4.041  10.622  1.00  0.00     0.162 A 
ATOM     76  C   UNL     1       6.684   3.336   9.500  1.00  0.00     0.200 A 
BRANCH  74  77
ATOM     77  O   UNL     1       6.171   1.225   8.426  1.00  0.00    -0.504 OA
ATOM     78  H   UNL     1       5.635   0.368   8.528  1.00  0.00     0.293 HD
ENDBRANCH  74  77
BRANCH  75  79
ATOM     79  O   UNL     1       7.207   5.436  10.616  1.00  0.00    -0.504 OA
ATOM     80  H   UNL     1       7.277   5.977  11.468  1.00  0.00     0.293 HD
ENDBRANCH  75  79
BRANCH  76  81
ATOM     81  O   UNL     1       6.284   4.035   8.360  1.00  0.00    -0.502 OA
ATOM     82  H   UNL     1       6.939   4.370   7.670  1.00  0.00     0.293 HD
ENDBRANCH  76  81
ENDBRANCH  69  71
ENDBRANCH  68  69
ENDBRANCH   4  68
TORSDOF 31
ENDMDL
MODEL 5
REMARK VINA RESULT:    34.381      1.757      9.808
REMARK INTER + INTRA:          92.096
REMARK INTER:                  86.859
REMARK INTRA:                   5.237
REMARK UNBOUND:                10.483
REMARK SMILES O=C(OC[C@H]1O[C@H](OC(=O)c2cc(O)c(O)c(O)c2)[C@H](OC(=O)c2cc(O)c(O)c(O)c2)[C@@H](OC(=O)c2cc(O)c(O)c(O)c2)[C@H]1OC(=O)c1cc(O)c(O)c(O)c1)c1cc(O)c(O)c(O)c1
REMARK SMILES IDX 5 1 46 2 33 3 20 4 7 5 6 6 4 7 3 8 2 9 1 10 59 11 60 12
REMARK SMILES IDX 61 13 67 14 63 15 65 16 62 17 64 19 66 21 47 23 48 24 49 25
REMARK SMILES IDX 50 26 58 27 51 28 56 29 52 30 54 31 57 32 53 34 55 36 34 38
REMARK SMILES IDX 35 39 36 40 37 41 45 42 38 43 43 44 39 45 41 46 44 47 40 49
REMARK SMILES IDX 42 51 8 53 9 54 10 55 11 56 19 57 12 58 17 59 13 60 15 61
REMARK SMILES IDX 18 62 14 64 16 66 21 68 22 69 23 70 24 71 32 72 25 73 30 74
REMARK SMILES IDX 26 75 28 76 31 77 27 79 29 81
REMARK H PARENT 62 18 64 20 66 22 57 33 53 35 55 37 44 48 40 50 42 52 18 63
REMARK H PARENT 14 65 16 67 31 78 27 80 29 82
REMARK Flexibility Score: inf
ROOT
ATOM      1  C   UNL     1      11.355  -0.346  16.638  1.00  0.00     0.205 C 
ATOM      2  C   UNL     1      10.088  -0.463  17.506  1.00  0.00     0.254 C 
ATOM      3  C   UNL     1       8.893  -0.075  16.628  1.00  0.00     0.267 C 
ATOM      4  C   UNL     1       8.848  -0.983  15.386  1.00  0.00     0.290 C 
ATOM      5  C   UNL     1      10.220  -0.957  14.673  1.00  0.00     0.357 C 
ATOM      6  O   UNL     1      11.292  -1.265  15.556  1.00  0.00    -0.329 OA
ENDROOT
BRANCH   1   7
ATOM      7  C   UNL     1      12.642  -0.602  17.444  1.00  0.00     0.269 C 
BRANCH   7   8
ATOM      8  O   UNL     1      12.389  -1.585  18.442  1.00  0.00    -0.459 OA
BRANCH   8   9
ATOM      9  C   UNL     1      12.898  -2.889  18.357  1.00  0.00     0.338 C 
ATOM     10  O   UNL     1      12.153  -3.832  17.964  1.00  0.00    -0.246 OA
BRANCH   9  11
ATOM     11  C   UNL     1      14.293  -3.164  18.758  1.00  0.00     0.067 A 
ATOM     12  C   UNL     1      14.654  -4.430  19.240  1.00  0.00     0.066 A 
ATOM     13  C   UNL     1      15.956  -4.690  19.671  1.00  0.00     0.162 A 
ATOM     14  C   UNL     1      15.267  -2.145  18.702  1.00  0.00     0.066 A 
ATOM     15  C   UNL     1      16.923  -3.656  19.649  1.00  0.00     0.200 A 
ATOM     16  C   UNL     1      16.568  -2.388  19.155  1.00  0.00     0.162 A 
BRANCH  13  17
ATOM     17  O   UNL     1      16.249  -5.985  20.101  1.00  0.00    -0.504 OA
ATOM     18  H   UNL     1      16.636  -6.696  19.505  1.00  0.00     0.293 HD
ENDBRANCH  13  17
BRANCH  15  19
ATOM     19  O   UNL     1      18.228  -3.852  20.110  1.00  0.00    -0.502 OA
ATOM     20  H   UNL     1      18.909  -3.118  20.225  1.00  0.00     0.293 HD
ENDBRANCH  15  19
BRANCH  16  21
ATOM     21  O   UNL     1      17.496  -1.347  19.109  1.00  0.00    -0.504 OA
ATOM     22  H   UNL     1      17.454  -0.621  18.405  1.00  0.00     0.293 HD
ENDBRANCH  16  21
ENDBRANCH   9  11
ENDBRANCH   8   9
ENDBRANCH   7   8
ENDBRANCH   1   7
BRANCH   2  23
ATOM     23  O   UNL     1       9.918  -1.808  17.954  1.00  0.00    -0.452 OA
BRANCH  23  24
ATOM     24  C   UNL     1       9.193  -2.171  19.098  1.00  0.00     0.338 C 
ATOM     25  O   UNL     1       8.710  -1.280  19.843  1.00  0.00    -0.246 OA
BRANCH  24  26
ATOM     26  C   UNL     1       8.988  -3.604  19.406  1.00  0.00     0.067 A 
ATOM     27  C   UNL     1      10.082  -4.481  19.519  1.00  0.00     0.066 A 
ATOM     28  C   UNL     1       7.687  -4.116  19.535  1.00  0.00     0.066 A 
ATOM     29  C   UNL     1       9.878  -5.853  19.744  1.00  0.00     0.162 A 
ATOM     30  C   UNL     1       7.479  -5.480  19.768  1.00  0.00     0.162 A 
ATOM     31  C   UNL     1       8.571  -6.353  19.872  1.00  0.00     0.200 A 
BRANCH  29  32
ATOM     32  O   UNL     1      10.965  -6.718  19.833  1.00  0.00    -0.504 OA
ATOM     33  H   UNL     1      10.870  -7.709  19.641  1.00  0.00     0.293 HD
ENDBRANCH  29  32
BRANCH  30  34
ATOM     34  O   UNL     1       6.173  -5.950  19.888  1.00  0.00    -0.504 OA
ATOM     35  H   UNL     1       5.927  -6.915  19.693  1.00  0.00     0.293 HD
ENDBRANCH  30  34
BRANCH  31  36
ATOM     36  O   UNL     1       8.340  -7.710  20.092  1.00  0.00    -0.502 OA
ATOM     37  H   UNL     1       8.719  -8.429  19.490  1.00  0.00     0.293 HD
ENDBRANCH  31  36
ENDBRANCH  24  26
ENDBRANCH  23  24
ENDBRANCH   2  23
BRANCH   3  38
ATOM     38  O   UNL     1       7.680  -0.159  17.375  1.00  0.00    -0.450 OA
BRANCH  38  39
ATOM     39  C   UNL     1       7.146   0.933  18.074  1.00  0.00     0.338 C 
ATOM     40  O   UNL     1       5.902   1.008  18.272  1.00  0.00    -0.246 OA
BRANCH  39  41
ATOM     41  C   UNL     1       8.039   1.989  18.598  1.00  0.00     0.067 A 
ATOM     42  C   UNL     1       9.420   1.755  18.721  1.00  0.00     0.066 A 
ATOM     43  C   UNL     1       7.519   3.238  18.974  1.00  0.00     0.066 A 
ATOM     44  C   UNL     1      10.268   2.749  19.217  1.00  0.00     0.162 A 
ATOM     45  C   UNL     1       8.356   4.239  19.476  1.00  0.00     0.162 A 
ATOM     46  C   UNL     1       9.747   3.992  19.610  1.00  0.00     0.200 A 
BRANCH  44  47
ATOM     47  O   UNL     1      11.638   2.502  19.319  1.00  0.00    -0.504 OA
ATOM     48  H   UNL     1      12.327   3.153  18.950  1.00  0.00     0.293 HD
ENDBRANCH  44  47
BRANCH  45  49
ATOM     49  O   UNL     1       7.768   5.454  19.830  1.00  0.00    -0.504 OA
ATOM     50  H   UNL     1       8.099   6.047  20.577  1.00  0.00     0.293 HD
ENDBRANCH  45  49
BRANCH  46  51
ATOM     51  O   UNL     1      10.638   4.938  20.124  1.00  0.00    -0.502 OA
ATOM     52  H   UNL     1      10.351   5.730  20.689  1.00  0.00     0.293 HD
ENDBRANCH  46  51
ENDBRANCH  39  41
ENDBRANCH  38  39
ENDBRANCH   3  38
BRANCH   5  53
ATOM     53  O   UNL     1      10.428   0.305  14.040  1.00  0.00    -0.428 OA
BRANCH  53  54
ATOM     54  C   UNL     1      10.862   0.437  12.716  1.00  0.00     0.340 C 
ATOM     55  O   UNL     1      11.262   1.547  12.280  1.00  0.00    -0.246 OA
BRANCH  54  56
ATOM     56  C   UNL     1      10.853  -0.740  11.833  1.00  0.00     0.067 A 
ATOM     57  C   UNL     1      10.728  -2.031  12.360  1.00  0.00     0.066 A 
ATOM     58  C   UNL     1      10.956  -0.572  10.447  1.00  0.00     0.066 A 
ATOM     59  C   UNL     1      10.672  -3.150  11.520  1.00  0.00     0.162 A 
ATOM     60  C   UNL     1      10.932  -1.675   9.593  1.00  0.00     0.162 A 
ATOM     61  C   UNL     1      10.773  -2.976  10.116  1.00  0.00     0.200 A 
BRANCH  59  62
ATOM     62  O   UNL     1      10.511  -4.402  12.122  1.00  0.00    -0.504 OA
ATOM     63  H   UNL     1      11.118  -5.195  11.952  1.00  0.00     0.293 HD
ENDBRANCH  59  62
BRANCH  60  64
ATOM     64  O   UNL     1      11.075  -1.458   8.222  1.00  0.00    -0.504 OA
ATOM     65  H   UNL     1      11.217  -2.222   7.569  1.00  0.00     0.293 HD
ENDBRANCH  60  64
BRANCH  61  66
ATOM     66  O   UNL     1      10.715  -4.056   9.223  1.00  0.00    -0.502 OA
ATOM     67  H   UNL     1      10.817  -5.024   9.496  1.00  0.00     0.293 HD
ENDBRANCH  61  66
ENDBRANCH  54  56
ENDBRANCH  53  54
ENDBRANCH   5  53
BRANCH   4  68
ATOM     68  O   UNL     1       7.862  -0.513  14.469  1.00  0.00    -0.448 OA
BRANCH  68  69
ATOM     69  C   UNL     1       7.952  -0.646  13.080  1.00  0.00     0.339 C 
ATOM     70  O   UNL     1       8.324  -1.739  12.568  1.00  0.00    -0.246 OA
BRANCH  69  71
ATOM     71  C   UNL     1       7.624   0.507  12.215  1.00  0.00     0.067 A 
ATOM     72  C   UNL     1       8.039   1.801  12.552  1.00  0.00     0.066 A 
ATOM     73  C   UNL     1       6.892   0.316  11.032  1.00  0.00     0.066 A 
ATOM     74  C   UNL     1       7.744   2.890  11.717  1.00  0.00     0.162 A 
ATOM     75  C   UNL     1       6.596   1.392  10.191  1.00  0.00     0.162 A 
ATOM     76  C   UNL     1       7.022   2.685  10.530  1.00  0.00     0.200 A 
BRANCH  74  77
ATOM     77  O   UNL     1       8.175   4.172  12.057  1.00  0.00    -0.504 OA
ATOM     78  H   UNL     1       8.502   4.826  11.353  1.00  0.00     0.293 HD
ENDBRANCH  74  77
BRANCH  75  79
ATOM     79  O   UNL     1       5.877   1.158   9.017  1.00  0.00    -0.504 OA
ATOM     80  H   UNL     1       6.317   0.813   8.175  1.00  0.00     0.293 HD
ENDBRANCH  75  79
BRANCH  76  81
ATOM     81  O   UNL     1       6.722   3.755   9.684  1.00  0.00    -0.502 OA
ATOM     82  H   UNL     1       7.253   3.952   8.848  1.00  0.00     0.293 HD
ENDBRANCH  76  81
ENDBRANCH  69  71
ENDBRANCH  68  69
ENDBRANCH   4  68
TORSDOF 31
ENDMDL
MODEL 6
REMARK VINA RESULT:    34.763      1.343      2.283
REMARK INTER + INTRA:          93.003
REMARK INTER:                  84.199
REMARK INTRA:                   8.804
REMARK UNBOUND:                10.483
REMARK SMILES O=C(OC[C@H]1O[C@H](OC(=O)c2cc(O)c(O)c(O)c2)[C@H](OC(=O)c2cc(O)c(O)c(O)c2)[C@@H](OC(=O)c2cc(O)c(O)c(O)c2)[C@H]1OC(=O)c1cc(O)c(O)c(O)c1)c1cc(O)c(O)c(O)c1
REMARK SMILES IDX 5 1 46 2 33 3 20 4 7 5 6 6 4 7 3 8 2 9 1 10 59 11 60 12
REMARK SMILES IDX 61 13 67 14 63 15 65 16 62 17 64 19 66 21 47 23 48 24 49 25
REMARK SMILES IDX 50 26 58 27 51 28 56 29 52 30 54 31 57 32 53 34 55 36 34 38
REMARK SMILES IDX 35 39 36 40 37 41 45 42 38 43 43 44 39 45 41 46 44 47 40 49
REMARK SMILES IDX 42 51 8 53 9 54 10 55 11 56 19 57 12 58 17 59 13 60 15 61
REMARK SMILES IDX 18 62 14 64 16 66 21 68 22 69 23 70 24 71 32 72 25 73 30 74
REMARK SMILES IDX 26 75 28 76 31 77 27 79 29 81
REMARK H PARENT 62 18 64 20 66 22 57 33 53 35 55 37 44 48 40 50 42 52 18 63
REMARK H PARENT 14 65 16 67 31 78 27 80 29 82
REMARK Flexibility Score: inf
ROOT
ATOM      1  C   UNL     1       8.857   0.083  15.787  1.00  0.00     0.205 C 
ATOM      2  C   UNL     1      10.050  -0.489  16.575  1.00  0.00     0.254 C 
ATOM      3  C   UNL     1       9.487  -1.206  17.807  1.00  0.00     0.267 C 
ATOM      4  C   UNL     1       8.493  -2.294  17.362  1.00  0.00     0.290 C 
ATOM      5  C   UNL     1       7.433  -1.676  16.421  1.00  0.00     0.357 C 
ATOM      6  O   UNL     1       8.022  -0.973  15.333  1.00  0.00    -0.329 OA
ENDROOT
BRANCH   1   7
ATOM      7  C   UNL     1       9.304   0.928  14.581  1.00  0.00     0.269 C 
BRANCH   7   8
ATOM      8  O   UNL     1       8.591   0.513  13.420  1.00  0.00    -0.459 OA
BRANCH   8   9
ATOM      9  C   UNL     1       9.040   0.796  12.122  1.00  0.00     0.338 C 
ATOM     10  O   UNL     1      10.120   0.287  11.705  1.00  0.00    -0.246 OA
BRANCH   9  11
ATOM     11  C   UNL     1       8.269   1.712  11.258  1.00  0.00     0.067 A 
ATOM     12  C   UNL     1       8.280   3.092  11.503  1.00  0.00     0.066 A 
ATOM     13  C   UNL     1       7.515   3.965  10.727  1.00  0.00     0.162 A 
ATOM     14  C   UNL     1       7.480   1.206  10.205  1.00  0.00     0.066 A 
ATOM     15  C   UNL     1       6.695   3.452   9.694  1.00  0.00     0.200 A 
ATOM     16  C   UNL     1       6.690   2.069   9.437  1.00  0.00     0.162 A 
BRANCH  13  17
ATOM     17  O   UNL     1       7.608   5.329  11.007  1.00  0.00    -0.504 OA
ATOM     18  H   UNL     1       8.467   5.791  11.249  1.00  0.00     0.293 HD
ENDBRANCH  13  17
BRANCH  15  19
ATOM     19  O   UNL     1       5.877   4.279   8.917  1.00  0.00    -0.502 OA
ATOM     20  H   UNL     1       6.095   5.233   8.676  1.00  0.00     0.293 HD
ENDBRANCH  15  19
BRANCH  16  21
ATOM     21  O   UNL     1       5.902   1.527   8.422  1.00  0.00    -0.504 OA
ATOM     22  H   UNL     1       5.982   1.831   7.459  1.00  0.00     0.293 HD
ENDBRANCH  16  21
ENDBRANCH   9  11
ENDBRANCH   8   9
ENDBRANCH   7   8
ENDBRANCH   1   7
BRANCH   2  23
ATOM     23  O   UNL     1      10.765  -1.432  15.776  1.00  0.00    -0.452 OA
BRANCH  23  24
ATOM     24  C   UNL     1      10.834  -2.805  16.050  1.00  0.00     0.338 C 
ATOM     25  O   UNL     1      10.529  -3.231  17.193  1.00  0.00    -0.246 OA
BRANCH  24  26
ATOM     26  C   UNL     1      11.247  -3.742  14.981  1.00  0.00     0.067 A 
ATOM     27  C   UNL     1      12.033  -4.871  15.276  1.00  0.00     0.066 A 
ATOM     28  C   UNL     1      10.903  -3.480  13.645  1.00  0.00     0.066 A 
ATOM     29  C   UNL     1      12.480  -5.719  14.248  1.00  0.00     0.162 A 
ATOM     30  C   UNL     1      11.337  -4.327  12.619  1.00  0.00     0.162 A 
ATOM     31  C   UNL     1      12.128  -5.447  12.916  1.00  0.00     0.200 A 
BRANCH  29  32
ATOM     32  O   UNL     1      13.275  -6.822  14.546  1.00  0.00    -0.504 OA
ATOM     33  H   UNL     1      14.037  -7.105  13.941  1.00  0.00     0.293 HD
ENDBRANCH  29  32
BRANCH  30  34
ATOM     34  O   UNL     1      10.977  -4.032  11.307  1.00  0.00    -0.504 OA
ATOM     35  H   UNL     1      11.646  -3.676  10.630  1.00  0.00     0.293 HD
ENDBRANCH  30  34
BRANCH  31  36
ATOM     36  O   UNL     1      12.560  -6.270  11.877  1.00  0.00    -0.502 OA
ATOM     37  H   UNL     1      12.001  -6.436  11.050  1.00  0.00     0.293 HD
ENDBRANCH  31  36
ENDBRANCH  24  26
ENDBRANCH  23  24
ENDBRANCH   2  23
BRANCH   3  38
ATOM     38  O   UNL     1      10.545  -1.760  18.588  1.00  0.00    -0.450 OA
BRANCH  38  39
ATOM     39  C   UNL     1      11.503  -0.965  19.234  1.00  0.00     0.338 C 
ATOM     40  O   UNL     1      11.167   0.137  19.747  1.00  0.00    -0.246 OA
BRANCH  39  41
ATOM     41  C   UNL     1      12.905  -1.426  19.334  1.00  0.00     0.067 A 
ATOM     42  C   UNL     1      13.965  -0.534  19.095  1.00  0.00     0.066 A 
ATOM     43  C   UNL     1      13.193  -2.758  19.673  1.00  0.00     0.066 A 
ATOM     44  C   UNL     1      15.291  -0.965  19.188  1.00  0.00     0.162 A 
ATOM     45  C   UNL     1      14.515  -3.203  19.765  1.00  0.00     0.162 A 
ATOM     46  C   UNL     1      15.580  -2.300  19.510  1.00  0.00     0.200 A 
BRANCH  44  47
ATOM     47  O   UNL     1      16.330  -0.060  18.960  1.00  0.00    -0.504 OA
ATOM     48  H   UNL     1      16.433   0.786  19.516  1.00  0.00     0.293 HD
ENDBRANCH  44  47
BRANCH  45  49
ATOM     49  O   UNL     1      14.724  -4.539  20.106  1.00  0.00    -0.504 OA
ATOM     50  H   UNL     1      15.622  -4.924  20.364  1.00  0.00     0.293 HD
ENDBRANCH  45  49
BRANCH  46  51
ATOM     51  O   UNL     1      16.924  -2.681  19.561  1.00  0.00    -0.502 OA
ATOM     52  H   UNL     1      17.520  -2.751  18.744  1.00  0.00     0.293 HD
ENDBRANCH  46  51
ENDBRANCH  39  41
ENDBRANCH  38  39
ENDBRANCH   3  38
BRANCH   5  53
ATOM     53  O   UNL     1       6.548  -0.830  17.154  1.00  0.00    -0.428 OA
BRANCH  53  54
ATOM     54  C   UNL     1       6.710  -0.542  18.514  1.00  0.00     0.340 C 
ATOM     55  O   UNL     1       6.427  -1.399  19.390  1.00  0.00    -0.246 OA
BRANCH  54  56
ATOM     56  C   UNL     1       7.224   0.777  18.915  1.00  0.00     0.067 A 
ATOM     57  C   UNL     1       8.597   1.050  18.889  1.00  0.00     0.066 A 
ATOM     58  C   UNL     1       6.334   1.780  19.314  1.00  0.00     0.066 A 
ATOM     59  C   UNL     1       9.087   2.319  19.225  1.00  0.00     0.162 A 
ATOM     60  C   UNL     1       6.801   3.043  19.681  1.00  0.00     0.162 A 
ATOM     61  C   UNL     1       8.180   3.333  19.626  1.00  0.00     0.200 A 
BRANCH  59  62
ATOM     62  O   UNL     1      10.468   2.521  19.141  1.00  0.00    -0.504 OA
ATOM     63  H   UNL     1      10.939   3.358  19.464  1.00  0.00     0.293 HD
ENDBRANCH  59  62
BRANCH  60  64
ATOM     64  O   UNL     1       5.876   3.997  20.107  1.00  0.00    -0.504 OA
ATOM     65  H   UNL     1       5.231   4.443  19.463  1.00  0.00     0.293 HD
ENDBRANCH  60  64
BRANCH  61  66
ATOM     66  O   UNL     1       8.609   4.625  19.966  1.00  0.00    -0.502 OA
ATOM     67  H   UNL     1       8.531   5.428  19.356  1.00  0.00     0.293 HD
ENDBRANCH  61  66
ENDBRANCH  54  56
ENDBRANCH  53  54
ENDBRANCH   5  53
BRANCH   4  68
ATOM     68  O   UNL     1       7.818  -2.837  18.495  1.00  0.00    -0.448 OA
BRANCH  68  69
ATOM     69  C   UNL     1       7.485  -4.187  18.640  1.00  0.00     0.339 C 
ATOM     70  O   UNL     1       6.298  -4.574  18.451  1.00  0.00    -0.246 OA
BRANCH  69  71
ATOM     71  C   UNL     1       8.530  -5.156  19.031  1.00  0.00     0.067 A 
ATOM     72  C   UNL     1       8.235  -6.519  19.165  1.00  0.00     0.066 A 
ATOM     73  C   UNL     1       9.844  -4.721  19.268  1.00  0.00     0.066 A 
ATOM     74  C   UNL     1       9.235  -7.439  19.514  1.00  0.00     0.162 A 
ATOM     75  C   UNL     1      10.848  -5.629  19.613  1.00  0.00     0.162 A 
ATOM     76  C   UNL     1      10.548  -6.994  19.737  1.00  0.00     0.200 A 
BRANCH  74  77
ATOM     77  O   UNL     1       8.930  -8.796  19.631  1.00  0.00    -0.504 OA
ATOM     78  H   UNL     1       8.411  -9.287  18.910  1.00  0.00     0.293 HD
ENDBRANCH  74  77
BRANCH  75  79
ATOM     79  O   UNL     1      12.145  -5.157  19.828  1.00  0.00    -0.504 OA
ATOM     80  H   UNL     1      12.478  -4.890  20.744  1.00  0.00     0.293 HD
ENDBRANCH  75  79
BRANCH  76  81
ATOM     81  O   UNL     1      11.557  -7.895  20.083  1.00  0.00    -0.502 OA
ATOM     82  H   UNL     1      11.984  -7.908  20.996  1.00  0.00     0.293 HD
ENDBRANCH  76  81
ENDBRANCH  69  71
ENDBRANCH  68  69
ENDBRANCH   4  68
TORSDOF 31
ENDMDL
