MODEL 1
REMARK VINA RESULT:    -7.575      0.000      0.000
REMARK INTER + INTRA:          -9.475
REMARK INTER:                  -8.904
REMARK INTRA:                  -0.572
REMARK UNBOUND:                -0.572
REMARK SMILES C=C(C)[C@H]1CC[C@]2(CO)CC[C@@]3(C)[C@H](CC[C@@H]4[C@]5(C)CC[C@@H](O)C(C)(C)[C@@H]5CC[C@@]43C)[C@H]12
REMARK SMILES IDX 4 1 5 2 6 3 7 4 32 5 14 6 15 7 16 8 17 9 18 10 20 11 21 12
REMARK SMILES IDX 22 13 24 14 27 15 28 16 29 17 30 18 12 19 11 20 10 21 13 22
REMARK SMILES IDX 31 23 25 24 26 25 19 26 2 27 3 28 1 29 8 30 9 31 23 33
REMARK H PARENT 9 32 23 34
REMARK Flexibility Score: inf
ROOT
ATOM      1  C   UNL     1       9.314   5.077  53.393  1.00  0.00     0.018 C 
ATOM      2  C   UNL     1      10.019   5.020  54.753  1.00  0.00     0.009 C 
ATOM      3  C   UNL     1      11.123   3.984  54.625  1.00  0.00     0.010 C 
ATOM      4  C   UNL     1      11.525   3.956  53.137  1.00  0.00    -0.003 C 
ATOM      5  C   UNL     1      10.180   4.248  52.406  1.00  0.00     0.008 C 
ATOM      6  C   UNL     1      10.352   4.832  50.963  1.00  0.00    -0.000 C 
ATOM      7  C   UNL     1       9.010   5.076  50.275  1.00  0.00     0.005 C 
ATOM      8  C   UNL     1       9.247   5.676  48.896  1.00  0.00     0.005 C 
ATOM      9  C   UNL     1       9.623   7.168  49.053  1.00  0.00     0.002 C 
ATOM     10  C   UNL     1       9.638   7.981  47.673  1.00  0.00    -0.026 C 
ATOM     11  C   UNL     1      10.427   7.211  46.565  1.00  0.00     0.010 C 
ATOM     12  C   UNL     1      10.644   8.006  45.264  1.00  0.00     0.033 C 
ATOM     13  C   UNL     1      11.263   9.398  45.495  1.00  0.00     0.120 C 
ATOM     14  C   UNL     1      10.444  10.261  46.504  1.00  0.00    -0.006 C 
ATOM     15  C   UNL     1      10.250   9.440  47.860  1.00  0.00     0.003 C 
ATOM     16  C   UNL     1      11.555   9.472  48.725  1.00  0.00     0.005 C 
ATOM     17  C   UNL     1      11.967   8.170  49.395  1.00  0.00     0.008 C 
ATOM     18  C   UNL     1      10.821   7.386  50.092  1.00  0.00    -0.024 C 
ATOM     19  C   UNL     1      11.422   6.000  50.757  1.00  0.00    -0.024 C 
ATOM     20  C   UNL     1      12.118   6.288  52.133  1.00  0.00     0.008 C 
ATOM     21  C   UNL     1      12.631   5.029  52.844  1.00  0.00     0.010 C 
ATOM     22  C   UNL     1      12.544   5.403  49.828  1.00  0.00     0.012 C 
ATOM     23  C   UNL     1      10.276   8.344  51.204  1.00  0.00     0.012 C 
ATOM     24  C   UNL     1       9.087  10.704  45.881  1.00  0.00     0.014 C 
ATOM     25  C   UNL     1      11.205  11.602  46.763  1.00  0.00     0.014 C 
ATOM     26  C   UNL     1       8.133   8.103  47.216  1.00  0.00     0.012 C 
ENDROOT
BRANCH   1  27
ATOM     27  C   UNL     1       7.871   4.581  53.489  1.00  0.00    -0.077 C 
ATOM     28  C   UNL     1       7.558   3.141  53.809  1.00  0.00     0.039 C 
ATOM     29  C   UNL     1       6.850   5.437  53.330  1.00  0.00     0.008 C 
ENDBRANCH   1  27
BRANCH   4  30
ATOM     30  C   UNL     1      12.056   2.542  52.767  1.00  0.00     0.163 C 
BRANCH  30  31
ATOM     31  O   UNL     1      13.399   2.393  53.151  1.00  0.00    -0.396 OA
ATOM     32  H   UNL     1      13.413   1.826  53.965  1.00  0.00     0.210 HD
ENDBRANCH  30  31
ENDBRANCH   4  30
BRANCH  13  33
ATOM     33  O   UNL     1      11.374  10.073  44.267  1.00  0.00    -0.393 OA
ATOM     34  H   UNL     1      11.358   9.383  43.553  1.00  0.00     0.210 HD
ENDBRANCH  13  33
TORSDOF 4
ENDMDL
MODEL 2
REMARK VINA RESULT:    -7.433      0.967      1.192
REMARK INTER + INTRA:          -9.308
REMARK INTER:                  -8.662
REMARK INTRA:                  -0.646
REMARK UNBOUND:                -0.572
REMARK SMILES C=C(C)[C@H]1CC[C@]2(CO)CC[C@@]3(C)[C@H](CC[C@@H]4[C@]5(C)CC[C@@H](O)C(C)(C)[C@@H]5CC[C@@]43C)[C@H]12
REMARK SMILES IDX 4 1 5 2 6 3 7 4 32 5 14 6 15 7 16 8 17 9 18 10 20 11 21 12
REMARK SMILES IDX 22 13 24 14 27 15 28 16 29 17 30 18 12 19 11 20 10 21 13 22
REMARK SMILES IDX 31 23 25 24 26 25 19 26 2 27 3 28 1 29 8 30 9 31 23 33
REMARK H PARENT 9 32 23 34
REMARK Flexibility Score: inf
ROOT
ATOM      1  C   UNL     1       9.860   4.679  53.640  1.00  0.00     0.018 C 
ATOM      2  C   UNL     1      10.373   4.938  55.062  1.00  0.00     0.009 C 
ATOM      3  C   UNL     1      11.818   4.469  55.092  1.00  0.00     0.010 C 
ATOM      4  C   UNL     1      12.350   4.605  53.651  1.00  0.00    -0.003 C 
ATOM      5  C   UNL     1      11.095   4.292  52.783  1.00  0.00     0.008 C 
ATOM      6  C   UNL     1      11.158   4.884  51.335  1.00  0.00    -0.000 C 
ATOM      7  C   UNL     1       9.921   4.528  50.512  1.00  0.00     0.005 C 
ATOM      8  C   UNL     1      10.028   5.163  49.132  1.00  0.00     0.005 C 
ATOM      9  C   UNL     1       9.718   6.674  49.247  1.00  0.00     0.002 C 
ATOM     10  C   UNL     1       9.536   7.407  47.834  1.00  0.00    -0.026 C 
ATOM     11  C   UNL     1      10.690   7.039  46.846  1.00  0.00     0.010 C 
ATOM     12  C   UNL     1      10.689   7.842  45.533  1.00  0.00     0.033 C 
ATOM     13  C   UNL     1      10.632   9.366  45.748  1.00  0.00     0.120 C 
ATOM     14  C   UNL     1       9.423   9.805  46.630  1.00  0.00    -0.006 C 
ATOM     15  C   UNL     1       9.450   8.988  48.002  1.00  0.00     0.003 C 
ATOM     16  C   UNL     1      10.518   9.579  48.983  1.00  0.00     0.005 C 
ATOM     17  C   UNL     1      11.367   8.581  49.755  1.00  0.00     0.008 C 
ATOM     18  C   UNL     1      10.593   7.389  50.381  1.00  0.00    -0.024 C 
ATOM     19  C   UNL     1      11.649   6.395  51.171  1.00  0.00    -0.024 C 
ATOM     20  C   UNL     1      12.006   6.961  52.589  1.00  0.00     0.008 C 
ATOM     21  C   UNL     1      12.924   6.045  53.409  1.00  0.00     0.010 C 
ATOM     22  C   UNL     1      13.010   6.326  50.383  1.00  0.00     0.012 C 
ATOM     23  C   UNL     1       9.578   8.031  51.386  1.00  0.00     0.012 C 
ATOM     24  C   UNL     1       8.080   9.624  45.859  1.00  0.00     0.014 C 
ATOM     25  C   UNL     1       9.513  11.344  46.890  1.00  0.00     0.014 C 
ATOM     26  C   UNL     1       8.179   6.873  47.232  1.00  0.00     0.012 C 
ENDROOT
BRANCH   1  27
ATOM     27  C   UNL     1       8.761   3.617  53.625  1.00  0.00    -0.077 C 
ATOM     28  C   UNL     1       7.339   3.965  53.263  1.00  0.00     0.039 C 
ATOM     29  C   UNL     1       9.056   2.335  53.897  1.00  0.00     0.008 C 
ENDBRANCH   1  27
BRANCH   4  30
ATOM     30  C   UNL     1      13.466   3.549  53.407  1.00  0.00     0.163 C 
BRANCH  30  31
ATOM     31  O   UNL     1      12.913   2.286  53.140  1.00  0.00    -0.396 OA
ATOM     32  H   UNL     1      12.309   2.062  53.895  1.00  0.00     0.210 HD
ENDBRANCH  30  31
ENDBRANCH   4  30
BRANCH  13  33
ATOM     33  O   UNL     1      10.579  10.016  44.502  1.00  0.00    -0.393 OA
ATOM     34  H   UNL     1      11.513  10.093  44.174  1.00  0.00     0.210 HD
ENDBRANCH  13  33
TORSDOF 4
ENDMDL
MODEL 3
REMARK VINA RESULT:    -7.159      1.448      7.902
REMARK INTER + INTRA:          -8.986
REMARK INTER:                  -8.324
REMARK INTRA:                  -0.662
REMARK UNBOUND:                -0.572
REMARK SMILES C=C(C)[C@H]1CC[C@]2(CO)CC[C@@]3(C)[C@H](CC[C@@H]4[C@]5(C)CC[C@@H](O)C(C)(C)[C@@H]5CC[C@@]43C)[C@H]12
REMARK SMILES IDX 4 1 5 2 6 3 7 4 32 5 14 6 15 7 16 8 17 9 18 10 20 11 21 12
REMARK SMILES IDX 22 13 24 14 27 15 28 16 29 17 30 18 12 19 11 20 10 21 13 22
REMARK SMILES IDX 31 23 25 24 26 25 19 26 2 27 3 28 1 29 8 30 9 31 23 33
REMARK H PARENT 9 32 23 34
REMARK Flexibility Score: inf
ROOT
ATOM      1  C   UNL     1      10.088  10.182  47.958  1.00  0.00     0.018 C 
ATOM      2  C   UNL     1       8.958  10.645  47.030  1.00  0.00     0.009 C 
ATOM      3  C   UNL     1       9.143   9.898  45.719  1.00  0.00     0.010 C 
ATOM      4  C   UNL     1       9.856   8.576  46.068  1.00  0.00    -0.003 C 
ATOM      5  C   UNL     1      10.774   8.977  47.260  1.00  0.00     0.008 C 
ATOM      6  C   UNL     1      11.188   7.778  48.177  1.00  0.00    -0.000 C 
ATOM      7  C   UNL     1      12.110   8.212  49.315  1.00  0.00     0.005 C 
ATOM      8  C   UNL     1      12.443   7.009  50.188  1.00  0.00     0.005 C 
ATOM      9  C   UNL     1      11.224   6.682  51.082  1.00  0.00     0.002 C 
ATOM     10  C   UNL     1      11.534   5.610  52.232  1.00  0.00    -0.026 C 
ATOM     11  C   UNL     1      12.294   4.367  51.665  1.00  0.00     0.010 C 
ATOM     12  C   UNL     1      12.467   3.211  52.667  1.00  0.00     0.033 C 
ATOM     13  C   UNL     1      11.147   2.776  53.331  1.00  0.00     0.120 C 
ATOM     14  C   UNL     1      10.402   3.959  54.023  1.00  0.00    -0.006 C 
ATOM     15  C   UNL     1      10.202   5.141  52.968  1.00  0.00     0.003 C 
ATOM     16  C   UNL     1       9.018   4.824  51.993  1.00  0.00     0.005 C 
ATOM     17  C   UNL     1       9.231   5.155  50.524  1.00  0.00     0.008 C 
ATOM     18  C   UNL     1       9.872   6.541  50.237  1.00  0.00    -0.024 C 
ATOM     19  C   UNL     1      10.048   6.744  48.608  1.00  0.00    -0.024 C 
ATOM     20  C   UNL     1       8.698   7.185  47.944  1.00  0.00     0.008 C 
ATOM     21  C   UNL     1       8.810   7.467  46.440  1.00  0.00     0.010 C 
ATOM     22  C   UNL     1      10.428   5.373  47.935  1.00  0.00     0.012 C 
ATOM     23  C   UNL     1       8.870   7.592  50.823  1.00  0.00     0.012 C 
ATOM     24  C   UNL     1      11.168   4.427  55.297  1.00  0.00     0.014 C 
ATOM     25  C   UNL     1       9.027   3.449  54.565  1.00  0.00     0.014 C 
ATOM     26  C   UNL     1      12.473   6.335  53.270  1.00  0.00     0.012 C 
ENDROOT
BRANCH   1  27
ATOM     27  C   UNL     1      11.054  11.323  48.277  1.00  0.00    -0.077 C 
ATOM     28  C   UNL     1      12.218  11.638  47.372  1.00  0.00     0.039 C 
ATOM     29  C   UNL     1      10.855  12.096  49.356  1.00  0.00     0.008 C 
ENDBRANCH   1  27
BRANCH   4  30
ATOM     30  C   UNL     1      10.705   8.107  44.852  1.00  0.00     0.163 C 
BRANCH  30  31
ATOM     31  O   UNL     1      10.308   6.830  44.423  1.00  0.00    -0.396 OA
ATOM     32  H   UNL     1       9.710   6.457  45.122  1.00  0.00     0.210 HD
ENDBRANCH  30  31
ENDBRANCH   4  30
BRANCH  13  33
ATOM     33  O   UNL     1      11.405   1.758  54.267  1.00  0.00    -0.393 OA
ATOM     34  H   UNL     1      11.197   2.128  55.165  1.00  0.00     0.210 HD
ENDBRANCH  13  33
TORSDOF 4
ENDMDL
MODEL 4
REMARK VINA RESULT:    -6.884      1.885      4.007
REMARK INTER + INTRA:          -8.663
REMARK INTER:                  -8.080
REMARK INTRA:                  -0.582
REMARK UNBOUND:                -0.572
REMARK SMILES C=C(C)[C@H]1CC[C@]2(CO)CC[C@@]3(C)[C@H](CC[C@@H]4[C@]5(C)CC[C@@H](O)C(C)(C)[C@@H]5CC[C@@]43C)[C@H]12
REMARK SMILES IDX 4 1 5 2 6 3 7 4 32 5 14 6 15 7 16 8 17 9 18 10 20 11 21 12
REMARK SMILES IDX 22 13 24 14 27 15 28 16 29 17 30 18 12 19 11 20 10 21 13 22
REMARK SMILES IDX 31 23 25 24 26 25 19 26 2 27 3 28 1 29 8 30 9 31 23 33
REMARK H PARENT 9 32 23 34
REMARK Flexibility Score: inf
ROOT
ATOM      1  C   UNL     1      13.300   4.915  53.219  1.00  0.00     0.018 C 
ATOM      2  C   UNL     1      13.474   3.464  53.682  1.00  0.00     0.009 C 
ATOM      3  C   UNL     1      12.377   3.200  54.700  1.00  0.00     0.010 C 
ATOM      4  C   UNL     1      11.212   4.144  54.340  1.00  0.00    -0.003 C 
ATOM      5  C   UNL     1      11.942   5.406  53.790  1.00  0.00     0.008 C 
ATOM      6  C   UNL     1      11.062   6.290  52.844  1.00  0.00    -0.000 C 
ATOM      7  C   UNL     1      11.807   7.530  52.353  1.00  0.00     0.005 C 
ATOM      8  C   UNL     1      10.911   8.322  51.411  1.00  0.00     0.005 C 
ATOM      9  C   UNL     1      10.862   7.608  50.040  1.00  0.00     0.002 C 
ATOM     10  C   UNL     1      10.172   8.474  48.883  1.00  0.00    -0.026 C 
ATOM     11  C   UNL     1       8.816   9.088  49.360  1.00  0.00     0.010 C 
ATOM     12  C   UNL     1       8.002   9.782  48.253  1.00  0.00     0.033 C 
ATOM     13  C   UNL     1       7.783   8.897  47.010  1.00  0.00     0.120 C 
ATOM     14  C   UNL     1       9.118   8.354  46.415  1.00  0.00    -0.006 C 
ATOM     15  C   UNL     1       9.941   7.611  47.565  1.00  0.00     0.003 C 
ATOM     16  C   UNL     1       9.356   6.184  47.837  1.00  0.00     0.005 C 
ATOM     17  C   UNL     1       9.243   5.755  49.292  1.00  0.00     0.008 C 
ATOM     18  C   UNL     1      10.483   6.058  50.177  1.00  0.00    -0.024 C 
ATOM     19  C   UNL     1      10.202   5.547  51.721  1.00  0.00    -0.024 C 
ATOM     20  C   UNL     1      10.432   4.002  51.857  1.00  0.00     0.008 C 
ATOM     21  C   UNL     1      10.263   3.473  53.286  1.00  0.00     0.010 C 
ATOM     22  C   UNL     1       8.693   5.789  52.098  1.00  0.00     0.012 C 
ATOM     23  C   UNL     1      11.662   5.255  49.532  1.00  0.00     0.012 C 
ATOM     24  C   UNL     1       9.936   9.501  45.749  1.00  0.00     0.014 C 
ATOM     25  C   UNL     1       8.792   7.379  45.237  1.00  0.00     0.014 C 
ATOM     26  C   UNL     1      11.166   9.656  48.563  1.00  0.00     0.012 C 
ENDROOT
BRANCH   1  27
ATOM     27  C   UNL     1      14.482   5.786  53.648  1.00  0.00    -0.077 C 
ATOM     28  C   UNL     1      14.712   6.136  55.096  1.00  0.00     0.039 C 
ATOM     29  C   UNL     1      15.366   6.221  52.736  1.00  0.00     0.008 C 
ENDBRANCH   1  27
BRANCH   4  30
ATOM     30  C   UNL     1      10.407   4.490  55.625  1.00  0.00     0.163 C 
BRANCH  30  31
ATOM     31  O   UNL     1      10.774   5.750  56.125  1.00  0.00    -0.396 OA
ATOM     32  H   UNL     1      11.023   6.315  55.348  1.00  0.00     0.210 HD
ENDBRANCH  30  31
ENDBRANCH   4  30
BRANCH  13  33
ATOM     33  O   UNL     1       7.082   9.625  46.032  1.00  0.00    -0.393 OA
ATOM     34  H   UNL     1       7.565   9.498  45.174  1.00  0.00     0.210 HD
ENDBRANCH  13  33
TORSDOF 4
ENDMDL
MODEL 5
REMARK VINA RESULT:    -6.798      2.273      8.106
REMARK INTER + INTRA:          -8.562
REMARK INTER:                  -8.177
REMARK INTRA:                  -0.386
REMARK UNBOUND:                -0.572
REMARK SMILES C=C(C)[C@H]1CC[C@]2(CO)CC[C@@]3(C)[C@H](CC[C@@H]4[C@]5(C)CC[C@@H](O)C(C)(C)[C@@H]5CC[C@@]43C)[C@H]12
REMARK SMILES IDX 4 1 5 2 6 3 7 4 32 5 14 6 15 7 16 8 17 9 18 10 20 11 21 12
REMARK SMILES IDX 22 13 24 14 27 15 28 16 29 17 30 18 12 19 11 20 10 21 13 22
REMARK SMILES IDX 31 23 25 24 26 25 19 26 2 27 3 28 1 29 8 30 9 31 23 33
REMARK H PARENT 9 32 23 34
REMARK Flexibility Score: inf
ROOT
ATOM      1  C   UNL     1       6.440  10.751  46.319  1.00  0.00     0.018 C 
ATOM      2  C   UNL     1       6.207  11.077  44.839  1.00  0.00     0.009 C 
ATOM      3  C   UNL     1       7.155  12.213  44.492  1.00  0.00     0.010 C 
ATOM      4  C   UNL     1       8.356  12.088  45.450  1.00  0.00    -0.003 C 
ATOM      5  C   UNL     1       7.706  11.538  46.755  1.00  0.00     0.008 C 
ATOM      6  C   UNL     1       8.706  10.790  47.699  1.00  0.00    -0.000 C 
ATOM      7  C   UNL     1       8.033  10.294  48.978  1.00  0.00     0.005 C 
ATOM      8  C   UNL     1       9.048   9.546  49.831  1.00  0.00     0.005 C 
ATOM      9  C   UNL     1       9.287   8.146  49.219  1.00  0.00     0.002 C 
ATOM     10  C   UNL     1      10.128   7.162  50.163  1.00  0.00    -0.026 C 
ATOM     11  C   UNL     1      11.404   7.865  50.729  1.00  0.00     0.010 C 
ATOM     12  C   UNL     1      12.360   6.934  51.496  1.00  0.00     0.033 C 
ATOM     13  C   UNL     1      12.750   5.671  50.703  1.00  0.00     0.120 C 
ATOM     14  C   UNL     1      11.511   4.860  50.216  1.00  0.00    -0.006 C 
ATOM     15  C   UNL     1      10.539   5.827  49.397  1.00  0.00     0.003 C 
ATOM     16  C   UNL     1      11.084   6.071  47.949  1.00  0.00     0.005 C 
ATOM     17  C   UNL     1      10.997   7.491  47.413  1.00  0.00     0.008 C 
ATOM     18  C   UNL     1       9.646   8.218  47.661  1.00  0.00    -0.024 C 
ATOM     19  C   UNL     1       9.714   9.744  47.035  1.00  0.00    -0.024 C 
ATOM     20  C   UNL     1       9.470   9.731  45.485  1.00  0.00     0.008 C 
ATOM     21  C   UNL     1       9.442  11.127  44.851  1.00  0.00     0.010 C 
ATOM     22  C   UNL     1      11.156  10.341  47.235  1.00  0.00     0.012 C 
ATOM     23  C   UNL     1       8.569   7.359  46.916  1.00  0.00     0.012 C 
ATOM     24  C   UNL     1      10.790   4.174  51.416  1.00  0.00     0.014 C 
ATOM     25  C   UNL     1      11.998   3.669  49.328  1.00  0.00     0.014 C 
ATOM     26  C   UNL     1       9.184   6.797  51.372  1.00  0.00     0.012 C 
ENDROOT
BRANCH   1  27
ATOM     27  C   UNL     1       5.209  11.077  47.165  1.00  0.00    -0.077 C 
ATOM     28  C   UNL     1       5.304  11.973  48.374  1.00  0.00     0.039 C 
ATOM     29  C   UNL     1       4.004  10.599  46.816  1.00  0.00     0.008 C 
ENDBRANCH   1  27
BRANCH   4  30
ATOM     30  C   UNL     1       8.976  13.493  45.693  1.00  0.00     0.163 C 
BRANCH  30  31
ATOM     31  O   UNL     1      10.379  13.435  45.665  1.00  0.00    -0.396 OA
ATOM     32  H   UNL     1      10.695  14.197  45.112  1.00  0.00     0.210 HD
ENDBRANCH  30  31
ENDBRANCH   4  30
BRANCH  13  33
ATOM     33  O   UNL     1      13.577   4.855  51.496  1.00  0.00    -0.393 OA
ATOM     34  H   UNL     1      14.260   5.447  51.909  1.00  0.00     0.210 HD
ENDBRANCH  13  33
TORSDOF 4
ENDMDL
MODEL 6
REMARK VINA RESULT:    -6.731      2.255      8.886
REMARK INTER + INTRA:          -8.483
REMARK INTER:                  -7.821
REMARK INTRA:                  -0.662
REMARK UNBOUND:                -0.572
REMARK SMILES C=C(C)[C@H]1CC[C@]2(CO)CC[C@@]3(C)[C@H](CC[C@@H]4[C@]5(C)CC[C@@H](O)C(C)(C)[C@@H]5CC[C@@]43C)[C@H]12
REMARK SMILES IDX 4 1 5 2 6 3 7 4 32 5 14 6 15 7 16 8 17 9 18 10 20 11 21 12
REMARK SMILES IDX 22 13 24 14 27 15 28 16 29 17 30 18 12 19 11 20 10 21 13 22
REMARK SMILES IDX 31 23 25 24 26 25 19 26 2 27 3 28 1 29 8 30 9 31 23 33
REMARK H PARENT 9 32 23 34
REMARK Flexibility Score: inf
ROOT
ATOM      1  C   UNL     1      10.621  12.707  45.476  1.00  0.00     0.018 C 
ATOM      2  C   UNL     1      10.030  14.121  45.438  1.00  0.00     0.009 C 
ATOM      3  C   UNL     1       8.702  14.015  44.708  1.00  0.00     0.010 C 
ATOM      4  C   UNL     1       8.192  12.578  44.937  1.00  0.00    -0.003 C 
ATOM      5  C   UNL     1       9.507  11.744  44.985  1.00  0.00     0.008 C 
ATOM      6  C   UNL     1       9.371  10.382  45.745  1.00  0.00    -0.000 C 
ATOM      7  C   UNL     1      10.675   9.586  45.742  1.00  0.00     0.005 C 
ATOM      8  C   UNL     1      10.485   8.296  46.528  1.00  0.00     0.005 C 
ATOM      9  C   UNL     1      10.496   8.619  48.040  1.00  0.00     0.002 C 
ATOM     10  C   UNL     1      10.572   7.323  48.979  1.00  0.00    -0.026 C 
ATOM     11  C   UNL     1       9.537   6.238  48.540  1.00  0.00     0.010 C 
ATOM     12  C   UNL     1       9.420   5.040  49.500  1.00  0.00     0.033 C 
ATOM     13  C   UNL     1       9.177   5.452  50.964  1.00  0.00     0.120 C 
ATOM     14  C   UNL     1      10.255   6.445  51.497  1.00  0.00    -0.006 C 
ATOM     15  C   UNL     1      10.348   7.697  50.511  1.00  0.00     0.003 C 
ATOM     16  C   UNL     1       9.160   8.689  50.753  1.00  0.00     0.005 C 
ATOM     17  C   UNL     1       8.499   9.281  49.519  1.00  0.00     0.008 C 
ATOM     18  C   UNL     1       9.470   9.789  48.418  1.00  0.00    -0.024 C 
ATOM     19  C   UNL     1       8.603  10.388  47.146  1.00  0.00    -0.024 C 
ATOM     20  C   UNL     1       8.107  11.847  47.438  1.00  0.00     0.008 C 
ATOM     21  C   UNL     1       7.360  12.493  46.264  1.00  0.00     0.010 C 
ATOM     22  C   UNL     1       7.303   9.528  46.933  1.00  0.00     0.012 C 
ATOM     23  C   UNL     1      10.315  10.919  49.096  1.00  0.00     0.012 C 
ATOM     24  C   UNL     1      11.628   5.729  51.676  1.00  0.00     0.014 C 
ATOM     25  C   UNL     1       9.864   6.895  52.943  1.00  0.00     0.014 C 
ATOM     26  C   UNL     1      12.022   6.730  48.795  1.00  0.00     0.012 C 
ENDROOT
BRANCH   1  27
ATOM     27  C   UNL     1      11.904  12.614  44.649  1.00  0.00    -0.077 C 
ATOM     28  C   UNL     1      13.233  12.316  45.296  1.00  0.00     0.039 C 
ATOM     29  C   UNL     1      11.859  12.755  43.314  1.00  0.00     0.008 C 
ENDBRANCH   1  27
BRANCH   4  30
ATOM     30  C   UNL     1       7.307  12.143  43.735  1.00  0.00     0.163 C 
BRANCH  30  31
ATOM     31  O   UNL     1       6.291  11.265  44.150  1.00  0.00    -0.396 OA
ATOM     32  H   UNL     1       6.497  10.995  45.082  1.00  0.00     0.210 HD
ENDBRANCH  30  31
ENDBRANCH   4  30
BRANCH  13  33
ATOM     33  O   UNL     1       9.138   4.304  51.776  1.00  0.00    -0.393 OA
ATOM     34  H   UNL     1       9.539   4.552  52.650  1.00  0.00     0.210 HD
ENDBRANCH  13  33
TORSDOF 4
ENDMDL
MODEL 7
REMARK VINA RESULT:    -6.575      2.762      4.920
REMARK INTER + INTRA:          -8.299
REMARK INTER:                  -7.696
REMARK INTRA:                  -0.604
REMARK UNBOUND:                -0.572
REMARK SMILES C=C(C)[C@H]1CC[C@]2(CO)CC[C@@]3(C)[C@H](CC[C@@H]4[C@]5(C)CC[C@@H](O)C(C)(C)[C@@H]5CC[C@@]43C)[C@H]12
REMARK SMILES IDX 4 1 5 2 6 3 7 4 32 5 14 6 15 7 16 8 17 9 18 10 20 11 21 12
REMARK SMILES IDX 22 13 24 14 27 15 28 16 29 17 30 18 12 19 11 20 10 21 13 22
REMARK SMILES IDX 31 23 25 24 26 25 19 26 2 27 3 28 1 29 8 30 9 31 23 33
REMARK H PARENT 9 32 23 34
REMARK Flexibility Score: inf
ROOT
ATOM      1  C   UNL     1      13.501   6.841  49.485  1.00  0.00     0.018 C 
ATOM      2  C   UNL     1      14.331   5.664  48.957  1.00  0.00     0.009 C 
ATOM      3  C   UNL     1      13.648   4.399  49.447  1.00  0.00     0.010 C 
ATOM      4  C   UNL     1      12.156   4.748  49.621  1.00  0.00    -0.003 C 
ATOM      5  C   UNL     1      12.195   6.238  50.071  1.00  0.00     0.008 C 
ATOM      6  C   UNL     1      10.872   7.025  49.787  1.00  0.00    -0.000 C 
ATOM      7  C   UNL     1      10.945   8.473  50.270  1.00  0.00     0.005 C 
ATOM      8  C   UNL     1       9.645   9.189  49.931  1.00  0.00     0.005 C 
ATOM      9  C   UNL     1       9.631   9.522  48.421  1.00  0.00     0.002 C 
ATOM     10  C   UNL     1       8.445  10.507  47.987  1.00  0.00    -0.026 C 
ATOM     11  C   UNL     1       7.073  10.045  48.577  1.00  0.00     0.010 C 
ATOM     12  C   UNL     1       5.856  10.831  48.058  1.00  0.00     0.033 C 
ATOM     13  C   UNL     1       5.783  10.899  46.520  1.00  0.00     0.120 C 
ATOM     14  C   UNL     1       7.085  11.471  45.880  1.00  0.00    -0.006 C 
ATOM     15  C   UNL     1       8.338  10.630  46.402  1.00  0.00     0.003 C 
ATOM     16  C   UNL     1       8.443   9.259  45.652  1.00  0.00     0.005 C 
ATOM     17  C   UNL     1       8.790   8.041  46.494  1.00  0.00     0.008 C 
ATOM     18  C   UNL     1       9.944   8.240  47.514  1.00  0.00    -0.024 C 
ATOM     19  C   UNL     1      10.190   6.841  48.354  1.00  0.00    -0.024 C 
ATOM     20  C   UNL     1      11.047   5.824  47.521  1.00  0.00     0.008 C 
ATOM     21  C   UNL     1      11.379   4.530  48.275  1.00  0.00     0.010 C 
ATOM     22  C   UNL     1       8.813   6.125  48.617  1.00  0.00     0.012 C 
ATOM     23  C   UNL     1      11.202   8.601  46.655  1.00  0.00     0.012 C 
ATOM     24  C   UNL     1       7.227  12.994  46.179  1.00  0.00     0.014 C 
ATOM     25  C   UNL     1       6.964  11.394  44.323  1.00  0.00     0.014 C 
ATOM     26  C   UNL     1       8.797  11.918  48.595  1.00  0.00     0.012 C 
ENDROOT
BRANCH   1  27
ATOM     27  C   UNL     1      14.288   7.670  50.500  1.00  0.00    -0.077 C 
ATOM     28  C   UNL     1      14.533   7.169  51.901  1.00  0.00     0.039 C 
ATOM     29  C   UNL     1      14.815   8.853  50.143  1.00  0.00     0.008 C 
ENDBRANCH   1  27
BRANCH   4  30
ATOM     30  C   UNL     1      11.538   3.853  50.733  1.00  0.00     0.163 C 
BRANCH  30  31
ATOM     31  O   UNL     1      12.539   3.308  51.554  1.00  0.00    -0.396 OA
ATOM     32  H   UNL     1      13.246   3.997  51.655  1.00  0.00     0.210 HD
ENDBRANCH  30  31
ENDBRANCH   4  30
BRANCH  13  33
ATOM     33  O   UNL     1       4.677  11.678  46.136  1.00  0.00    -0.393 OA
ATOM     34  H   UNL     1       4.495  12.312  46.878  1.00  0.00     0.210 HD
ENDBRANCH  13  33
TORSDOF 4
ENDMDL
MODEL 8
REMARK VINA RESULT:    -6.524      3.221      8.194
REMARK INTER + INTRA:          -8.240
REMARK INTER:                  -7.597
REMARK INTRA:                  -0.644
REMARK UNBOUND:                -0.572
REMARK SMILES C=C(C)[C@H]1CC[C@]2(CO)CC[C@@]3(C)[C@H](CC[C@@H]4[C@]5(C)CC[C@@H](O)C(C)(C)[C@@H]5CC[C@@]43C)[C@H]12
REMARK SMILES IDX 4 1 5 2 6 3 7 4 32 5 14 6 15 7 16 8 17 9 18 10 20 11 21 12
REMARK SMILES IDX 22 13 24 14 27 15 28 16 29 17 30 18 12 19 11 20 10 21 13 22
REMARK SMILES IDX 31 23 25 24 26 25 19 26 2 27 3 28 1 29 8 30 9 31 23 33
REMARK H PARENT 9 32 23 34
REMARK Flexibility Score: inf
ROOT
ATOM      1  C   UNL     1       6.486  11.496  47.985  1.00  0.00     0.018 C 
ATOM      2  C   UNL     1       5.518  10.721  47.083  1.00  0.00     0.009 C 
ATOM      3  C   UNL     1       6.215  10.554  45.743  1.00  0.00     0.010 C 
ATOM      4  C   UNL     1       7.729  10.569  46.034  1.00  0.00    -0.003 C 
ATOM      5  C   UNL     1       7.844  11.554  47.236  1.00  0.00     0.008 C 
ATOM      6  C   UNL     1       9.133  11.354  48.103  1.00  0.00    -0.000 C 
ATOM      7  C   UNL     1       9.219  12.358  49.251  1.00  0.00     0.005 C 
ATOM      8  C   UNL     1      10.470  12.085  50.074  1.00  0.00     0.005 C 
ATOM      9  C   UNL     1      10.229  10.843  50.962  1.00  0.00     0.002 C 
ATOM     10  C   UNL     1      11.365  10.607  52.067  1.00  0.00    -0.026 C 
ATOM     11  C   UNL     1      12.796  10.711  51.447  1.00  0.00     0.010 C 
ATOM     12  C   UNL     1      13.937  10.317  52.402  1.00  0.00     0.033 C 
ATOM     13  C   UNL     1      13.736   8.938  53.058  1.00  0.00     0.120 C 
ATOM     14  C   UNL     1      12.370   8.817  53.800  1.00  0.00    -0.006 C 
ATOM     15  C   UNL     1      11.190   9.200  52.793  1.00  0.00     0.003 C 
ATOM     16  C   UNL     1      10.886   8.016  51.814  1.00  0.00     0.005 C 
ATOM     17  C   UNL     1      10.636   8.376  50.358  1.00  0.00     0.008 C 
ATOM     18  C   UNL     1       9.695   9.589  50.121  1.00  0.00    -0.024 C 
ATOM     19  C   UNL     1       9.535   9.860  48.500  1.00  0.00    -0.024 C 
ATOM     20  C   UNL     1       8.494   8.875  47.863  1.00  0.00     0.008 C 
ATOM     21  C   UNL     1       8.240   9.124  46.370  1.00  0.00     0.010 C 
ATOM     22  C   UNL     1      10.900   9.569  47.772  1.00  0.00     0.012 C 
ATOM     23  C   UNL     1       8.322   9.182  50.754  1.00  0.00     0.012 C 
ATOM     24  C   UNL     1      12.358   9.697  55.087  1.00  0.00     0.014 C 
ATOM     25  C   UNL     1      12.204   7.356  54.331  1.00  0.00     0.014 C 
ATOM     26  C   UNL     1      11.197  11.763  53.126  1.00  0.00     0.012 C 
ENDROOT
BRANCH   1  27
ATOM     27  C   UNL     1       5.936  12.877  48.341  1.00  0.00    -0.077 C 
ATOM     28  C   UNL     1       6.448  14.122  47.663  1.00  0.00     0.039 C 
ATOM     29  C   UNL     1       4.948  13.000  49.242  1.00  0.00     0.008 C 
ENDBRANCH   1  27
BRANCH   4  30
ATOM     30  C   UNL     1       8.492  11.119  44.796  1.00  0.00     0.163 C 
BRANCH  30  31
ATOM     31  O   UNL     1       9.720  10.458  44.627  1.00  0.00    -0.396 OA
ATOM     32  H   UNL     1      10.369  11.125  44.282  1.00  0.00     0.210 HD
ENDBRANCH  30  31
ENDBRANCH   4  30
BRANCH  13  33
ATOM     33  O   UNL     1      14.791   8.683  53.951  1.00  0.00    -0.393 OA
ATOM     34  H   UNL     1      15.199   7.818  53.682  1.00  0.00     0.210 HD
ENDBRANCH  13  33
TORSDOF 4
ENDMDL
MODEL 9
REMARK VINA RESULT:    -6.384      1.700      7.764
REMARK INTER + INTRA:          -8.075
REMARK INTER:                  -7.507
REMARK INTRA:                  -0.568
REMARK UNBOUND:                -0.572
REMARK SMILES C=C(C)[C@H]1CC[C@]2(CO)CC[C@@]3(C)[C@H](CC[C@@H]4[C@]5(C)CC[C@@H](O)C(C)(C)[C@@H]5CC[C@@]43C)[C@H]12
REMARK SMILES IDX 4 1 5 2 6 3 7 4 32 5 14 6 15 7 16 8 17 9 18 10 20 11 21 12
REMARK SMILES IDX 22 13 24 14 27 15 28 16 29 17 30 18 12 19 11 20 10 21 13 22
REMARK SMILES IDX 31 23 25 24 26 25 19 26 2 27 3 28 1 29 8 30 9 31 23 33
REMARK H PARENT 9 32 23 34
REMARK Flexibility Score: inf
ROOT
ATOM      1  C   UNL     1       8.506   9.395  48.023  1.00  0.00     0.018 C 
ATOM      2  C   UNL     1       7.757   9.210  46.698  1.00  0.00     0.009 C 
ATOM      3  C   UNL     1       8.791   9.349  45.594  1.00  0.00     0.010 C 
ATOM      4  C   UNL     1      10.141   8.921  46.203  1.00  0.00    -0.003 C 
ATOM      5  C   UNL     1      10.021   9.391  47.683  1.00  0.00     0.008 C 
ATOM      6  C   UNL     1      10.960   8.624  48.674  1.00  0.00    -0.000 C 
ATOM      7  C   UNL     1      10.831   9.137  50.107  1.00  0.00     0.005 C 
ATOM      8  C   UNL     1      11.739   8.326  51.022  1.00  0.00     0.005 C 
ATOM      9  C   UNL     1      11.091   6.947  51.284  1.00  0.00     0.002 C 
ATOM     10  C   UNL     1      11.811   6.102  52.439  1.00  0.00    -0.026 C 
ATOM     11  C   UNL     1      13.362   6.081  52.248  1.00  0.00     0.010 C 
ATOM     12  C   UNL     1      14.111   5.140  53.210  1.00  0.00     0.033 C 
ATOM     13  C   UNL     1      13.552   3.705  53.220  1.00  0.00     0.120 C 
ATOM     14  C   UNL     1      12.024   3.656  53.527  1.00  0.00    -0.006 C 
ATOM     15  C   UNL     1      11.253   4.612  52.507  1.00  0.00     0.003 C 
ATOM     16  C   UNL     1      11.102   3.928  51.106  1.00  0.00     0.005 C 
ATOM     17  C   UNL     1      11.341   4.803  49.886  1.00  0.00     0.008 C 
ATOM     18  C   UNL     1      10.674   6.205  49.927  1.00  0.00    -0.024 C 
ATOM     19  C   UNL     1      11.035   7.034  48.546  1.00  0.00    -0.024 C 
ATOM     20  C   UNL     1      10.112   6.585  47.360  1.00  0.00     0.008 C 
ATOM     21  C   UNL     1      10.342   7.371  46.063  1.00  0.00     0.010 C 
ATOM     22  C   UNL     1      12.505   6.702  48.092  1.00  0.00     0.012 C 
ATOM     23  C   UNL     1       9.135   5.932  50.026  1.00  0.00     0.012 C 
ATOM     24  C   UNL     1      11.746   4.030  55.014  1.00  0.00     0.014 C 
ATOM     25  C   UNL     1      11.525   2.179  53.402  1.00  0.00     0.014 C 
ATOM     26  C   UNL     1      11.486   6.841  53.794  1.00  0.00     0.012 C 
ENDROOT
BRANCH   1  27
ATOM     27  C   UNL     1       8.056  10.663  48.749  1.00  0.00    -0.077 C 
ATOM     28  C   UNL     1       8.862  11.935  48.676  1.00  0.00     0.039 C 
ATOM     29  C   UNL     1       6.902  10.675  49.435  1.00  0.00     0.008 C 
ENDBRANCH   1  27
BRANCH   4  30
ATOM     30  C   UNL     1      11.299   9.667  45.480  1.00  0.00     0.163 C 
BRANCH  30  31
ATOM     31  O   UNL     1      10.798  10.563  44.522  1.00  0.00    -0.396 OA
ATOM     32  H   UNL     1      11.129  10.264  43.636  1.00  0.00     0.210 HD
ENDBRANCH  30  31
ENDBRANCH   4  30
BRANCH  13  33
ATOM     33  O   UNL     1      14.256   2.932  54.160  1.00  0.00    -0.393 OA
ATOM     34  H   UNL     1      13.918   3.187  55.058  1.00  0.00     0.210 HD
ENDBRANCH  13  33
TORSDOF 4
ENDMDL
