MODEL 1
REMARK VINA RESULT:     7.952      0.000      0.000
REMARK INTER + INTRA:          17.320
REMARK INTER:                  11.671
REMARK INTRA:                   5.649
REMARK UNBOUND:                 5.649
REMARK SMILES Cc1cc2c(C(C)C)c(O)c(O)c(C=O)c2c(O)c1-c1c(C)cc2c(C(C)C)c(O)c(O)c(C=O)c2c1O
REMARK SMILES IDX 1 1 2 2 3 3 4 4 16 5 13 6 11 7 9 8 5 9 17 10 19 11 20 12
REMARK SMILES IDX 37 13 21 14 36 15 23 16 22 17 24 18 33 19 25 20 31 21 29 22
REMARK SMILES IDX 38 23 34 25 35 26 26 27 27 28 28 29 32 30 30 32 18 34 6 36
REMARK SMILES IDX 7 37 8 38 14 39 15 40 10 41 12 43
REMARK H PARENT 38 24 32 31 30 33 18 35 10 42 12 44
REMARK Flexibility Score: inf
ROOT
ATOM      1  C   UNL     1      28.055  35.140  25.414  1.00  0.00     0.045 C 
ATOM      2  C   UNL     1      28.072  33.718  24.905  1.00  0.00    -0.039 A 
ATOM      3  C   UNL     1      28.280  32.672  25.806  1.00  0.00     0.013 A 
ATOM      4  C   UNL     1      28.289  31.324  25.388  1.00  0.00    -0.006 A 
ATOM      5  C   UNL     1      28.225  31.038  23.993  1.00  0.00     0.039 A 
ATOM      6  C   UNL     1      28.466  29.703  23.550  1.00  0.00     0.072 A 
ATOM      7  C   UNL     1      28.755  28.694  24.494  1.00  0.00     0.169 A 
ATOM      8  C   UNL     1      28.702  28.966  25.864  1.00  0.00     0.162 A 
ATOM      9  C   UNL     1      28.386  30.259  26.334  1.00  0.00     0.008 A 
ATOM     10  C   UNL     1      27.905  32.098  23.091  1.00  0.00     0.132 A 
ATOM     11  C   UNL     1      27.831  33.429  23.552  1.00  0.00     0.031 A 
ENDROOT
BRANCH  11  12
ATOM     12  C   UNL     1      27.508  34.531  22.607  1.00  0.00     0.031 A 
ATOM     13  C   UNL     1      26.568  35.521  22.965  1.00  0.00     0.132 A 
ATOM     14  C   UNL     1      28.137  34.578  21.352  1.00  0.00    -0.039 A 
ATOM     15  C   UNL     1      26.227  36.558  22.046  1.00  0.00     0.039 A 
ATOM     16  C   UNL     1      27.881  35.650  20.496  1.00  0.00     0.013 A 
ATOM     17  C   UNL     1      29.125  33.516  20.936  1.00  0.00     0.045 C 
ATOM     18  C   UNL     1      26.984  36.683  20.843  1.00  0.00    -0.006 A 
ATOM     19  C   UNL     1      25.166  37.480  22.291  1.00  0.00     0.072 A 
ATOM     20  C   UNL     1      26.812  37.824  20.002  1.00  0.00     0.008 A 
ATOM     21  C   UNL     1      24.884  38.492  21.349  1.00  0.00     0.169 A 
ATOM     22  C   UNL     1      25.701  38.664  20.226  1.00  0.00     0.162 A 
BRANCH  13  23
ATOM     23  O   UNL     1      25.994  35.490  24.241  1.00  0.00    -0.507 OA
ATOM     24  H   UNL     1      26.501  35.251  25.083  1.00  0.00     0.293 HD
ENDBRANCH  13  23
BRANCH  19  25
ATOM     25  C   UNL     1      24.277  37.351  23.465  1.00  0.00     0.264 C 
ATOM     26  O   UNL     1      23.047  37.606  23.369  1.00  0.00    -0.298 OA
ENDBRANCH  19  25
BRANCH  20  27
ATOM     27  C   UNL     1      27.793  38.143  18.861  1.00  0.00     0.017 C 
ATOM     28  C   UNL     1      29.029  38.879  19.389  1.00  0.00     0.012 C 
ATOM     29  C   UNL     1      28.189  36.913  18.023  1.00  0.00     0.012 C 
ENDBRANCH  20  27
BRANCH  21  30
ATOM     30  O   UNL     1      23.777  39.338  21.489  1.00  0.00    -0.504 OA
ATOM     31  H   UNL     1      23.134  39.306  22.270  1.00  0.00     0.293 HD
ENDBRANCH  21  30
BRANCH  22  32
ATOM     32  O   UNL     1      25.390  39.668  19.304  1.00  0.00    -0.504 OA
ATOM     33  H   UNL     1      25.877  39.780  18.423  1.00  0.00     0.293 HD
ENDBRANCH  22  32
ENDBRANCH  11  12
BRANCH  10  34
ATOM     34  O   UNL     1      27.637  31.824  21.744  1.00  0.00    -0.507 OA
ATOM     35  H   UNL     1      27.157  32.463  21.123  1.00  0.00     0.293 HD
ENDBRANCH  10  34
BRANCH   9  36
ATOM     36  C   UNL     1      28.166  30.493  27.839  1.00  0.00     0.017 C 
ATOM     37  C   UNL     1      29.124  31.560  28.375  1.00  0.00     0.012 C 
ATOM     38  C   UNL     1      28.234  29.204  28.680  1.00  0.00     0.012 C 
ENDBRANCH   9  36
BRANCH   6  39
ATOM     39  C   UNL     1      28.522  29.355  22.115  1.00  0.00     0.264 C 
ATOM     40  O   UNL     1      28.888  28.208  21.747  1.00  0.00    -0.298 OA
ENDBRANCH   6  39
BRANCH   8  41
ATOM     41  O   UNL     1      28.992  27.948  26.775  1.00  0.00    -0.504 OA
ATOM     42  H   UNL     1      29.519  27.118  26.528  1.00  0.00     0.293 HD
ENDBRANCH   8  41
BRANCH   7  43
ATOM     43  O   UNL     1      29.125  27.403  24.097  1.00  0.00    -0.504 OA
ATOM     44  H   UNL     1      29.938  26.914  24.445  1.00  0.00     0.293 HD
ENDBRANCH   7  43
TORSDOF 11
ENDMDL
