MODEL 1
REMARK VINA RESULT:    -0.817      0.000      0.000
REMARK INTER + INTRA:          -2.009
REMARK INTER:                  -1.534
REMARK INTRA:                  -0.476
REMARK UNBOUND:                -0.476
REMARK SMILES O=C([O-])CCCCCCCCCCCCCCC(=O)[O-]
REMARK SMILES IDX 10 1 9 2 8 3 7 4 6 5 5 6 4 7 2 8 1 9 3 10 11 11 12 12 13 13
REMARK SMILES IDX 14 14 15 15 16 16 17 17 18 18 19 19 20 20
REMARK H PARENT
REMARK Flexibility Score: inf
ROOT
ATOM      1  C   UNL     1       7.308  20.175  11.010  1.00  0.00     0.000 C 
ENDROOT
BRANCH   1   2
ATOM      2  C   UNL     1       8.468  19.881  10.037  1.00  0.00     0.000 C 
BRANCH   2   3
ATOM      3  C   UNL     1       8.632  20.905   8.898  1.00  0.00     0.000 C 
BRANCH   3   4
ATOM      4  C   UNL     1       9.958  20.802   8.117  1.00  0.00     0.000 C 
BRANCH   4   5
ATOM      5  C   UNL     1      11.123  21.633   8.692  1.00  0.00     0.000 C 
BRANCH   5   6
ATOM      6  C   UNL     1      10.811  22.362  10.011  1.00  0.00     0.006 C 
BRANCH   6   7
ATOM      7  C   UNL     1      11.033  23.877   9.923  1.00  0.00     0.053 C 
BRANCH   7   8
ATOM      8  C   UNL     1      10.480  24.557  11.134  1.00  0.00     0.041 C 
ATOM      9  O   UNL     1      10.673  24.070  12.279  1.00  0.00    -0.550 OA
ATOM     10  O   UNL     1       9.793  25.758  11.004  1.00  0.00    -0.550 OA
ENDBRANCH   7   8
ENDBRANCH   6   7
ENDBRANCH   5   6
ENDBRANCH   4   5
ENDBRANCH   3   4
ENDBRANCH   2   3
ENDBRANCH   1   2
BRANCH   1  11
ATOM     11  C   UNL     1       7.606  19.876  12.493  1.00  0.00     0.000 C 
BRANCH  11  12
ATOM     12  C   UNL     1       8.791  20.655  13.093  1.00  0.00     0.000 C 
BRANCH  12  13
ATOM     13  C   UNL     1       9.021  20.338  14.581  1.00  0.00     0.000 C 
BRANCH  13  14
ATOM     14  C   UNL     1       9.303  21.596  15.417  1.00  0.00     0.000 C 
BRANCH  14  15
ATOM     15  C   UNL     1       8.594  21.574  16.783  1.00  0.00     0.000 C 
BRANCH  15  16
ATOM     16  C   UNL     1       7.175  20.973  16.699  1.00  0.00     0.006 C 
BRANCH  16  17
ATOM     17  C   UNL     1       6.307  21.601  15.597  1.00  0.00     0.053 C 
BRANCH  17  18
ATOM     18  C   UNL     1       5.263  20.658  15.090  1.00  0.00     0.041 C 
ATOM     19  O   UNL     1       5.068  20.534  13.851  1.00  0.00    -0.550 OA
ATOM     20  O   UNL     1       4.520  19.895  15.983  1.00  0.00    -0.550 OA
ENDBRANCH  17  18
ENDBRANCH  16  17
ENDBRANCH  15  16
ENDBRANCH  14  15
ENDBRANCH  13  14
ENDBRANCH  12  13
ENDBRANCH  11  12
ENDBRANCH   1  11
TORSDOF 15
ENDMDL
MODEL 2
REMARK VINA RESULT:    -0.741     11.335     15.156
REMARK INTER + INTRA:          -1.867
REMARK INTER:                  -1.093
REMARK INTRA:                  -0.774
REMARK UNBOUND:                -0.476
REMARK SMILES O=C([O-])CCCCCCCCCCCCCCC(=O)[O-]
REMARK SMILES IDX 10 1 9 2 8 3 7 4 6 5 5 6 4 7 2 8 1 9 3 10 11 11 12 12 13 13
REMARK SMILES IDX 14 14 15 15 16 16 17 17 18 18 19 19 20 20
REMARK H PARENT
REMARK Flexibility Score: inf
ROOT
ATOM      1  C   UNL     1      -4.802  21.034  15.623  1.00  0.00     0.000 C 
ENDROOT
BRANCH   1   2
ATOM      2  C   UNL     1      -4.801  19.875  16.640  1.00  0.00     0.000 C 
BRANCH   2   3
ATOM      3  C   UNL     1      -4.647  20.305  18.112  1.00  0.00     0.000 C 
BRANCH   3   4
ATOM      4  C   UNL     1      -3.325  19.876  18.780  1.00  0.00     0.000 C 
BRANCH   4   5
ATOM      5  C   UNL     1      -2.179  20.902  18.680  1.00  0.00     0.000 C 
BRANCH   5   6
ATOM      6  C   UNL     1      -0.961  20.438  17.862  1.00  0.00     0.006 C 
BRANCH   6   7
ATOM      7  C   UNL     1      -1.277  20.250  16.374  1.00  0.00     0.053 C 
BRANCH   7   8
ATOM      8  C   UNL     1      -0.556  21.271  15.553  1.00  0.00     0.041 C 
ATOM      9  O   UNL     1      -1.178  21.947  14.692  1.00  0.00    -0.550 OA
ATOM     10  O   UNL     1       0.794  21.512  15.774  1.00  0.00    -0.550 OA
ENDBRANCH   7   8
ENDBRANCH   6   7
ENDBRANCH   5   6
ENDBRANCH   4   5
ENDBRANCH   3   4
ENDBRANCH   2   3
ENDBRANCH   1   2
BRANCH   1  11
ATOM     11  C   UNL     1      -5.742  20.847  14.417  1.00  0.00     0.000 C 
BRANCH  11  12
ATOM     12  C   UNL     1      -7.056  21.647  14.480  1.00  0.00     0.000 C 
BRANCH  12  13
ATOM     13  C   UNL     1      -8.234  20.819  15.022  1.00  0.00     0.000 C 
BRANCH  13  14
ATOM     14  C   UNL     1      -7.821  19.884  16.170  1.00  0.00     0.000 C 
BRANCH  14  15
ATOM     15  C   UNL     1      -8.821  19.901  17.341  1.00  0.00     0.000 C 
BRANCH  15  16
ATOM     16  C   UNL     1      -8.751  21.210  18.155  1.00  0.00     0.006 C 
BRANCH  16  17
ATOM     17  C   UNL     1      -8.687  20.986  19.674  1.00  0.00     0.053 C 
BRANCH  17  18
ATOM     18  C   UNL     1      -8.917  22.248  20.444  1.00  0.00     0.041 C 
ATOM     19  O   UNL     1      -8.957  22.223  21.703  1.00  0.00    -0.550 OA
ATOM     20  O   UNL     1      -9.064  23.455  19.774  1.00  0.00    -0.550 OA
ENDBRANCH  17  18
ENDBRANCH  16  17
ENDBRANCH  15  16
ENDBRANCH  14  15
ENDBRANCH  13  14
ENDBRANCH  12  13
ENDBRANCH  11  12
ENDBRANCH   1  11
TORSDOF 15
ENDMDL
MODEL 3
REMARK VINA RESULT:    -0.505      8.294     12.865
REMARK INTER + INTRA:          -1.423
REMARK INTER:                  -0.974
REMARK INTRA:                  -0.449
REMARK UNBOUND:                -0.476
REMARK SMILES O=C([O-])CCCCCCCCCCCCCCC(=O)[O-]
REMARK SMILES IDX 10 1 9 2 8 3 7 4 6 5 5 6 4 7 2 8 1 9 3 10 11 11 12 12 13 13
REMARK SMILES IDX 14 14 15 15 16 16 17 17 18 18 19 19 20 20
REMARK H PARENT
REMARK Flexibility Score: inf
ROOT
ATOM      1  C   UNL     1      -1.515  20.918  15.991  1.00  0.00     0.000 C 
ENDROOT
BRANCH   1   2
ATOM      2  C   UNL     1      -2.819  20.248  16.470  1.00  0.00     0.000 C 
BRANCH   2   3
ATOM      3  C   UNL     1      -3.887  20.054  15.376  1.00  0.00     0.000 C 
BRANCH   3   4
ATOM      4  C   UNL     1      -4.847  21.245  15.186  1.00  0.00     0.000 C 
BRANCH   4   5
ATOM      5  C   UNL     1      -6.142  20.926  14.412  1.00  0.00     0.000 C 
BRANCH   5   6
ATOM      6  C   UNL     1      -7.171  20.083  15.186  1.00  0.00     0.006 C 
BRANCH   6   7
ATOM      7  C   UNL     1      -8.366  20.907  15.680  1.00  0.00     0.053 C 
BRANCH   7   8
ATOM      8  C   UNL     1      -8.079  21.488  17.028  1.00  0.00     0.041 C 
ATOM      9  O   UNL     1      -8.533  22.620  17.338  1.00  0.00    -0.550 OA
ATOM     10  O   UNL     1      -7.353  20.757  17.959  1.00  0.00    -0.550 OA
ENDBRANCH   7   8
ENDBRANCH   6   7
ENDBRANCH   5   6
ENDBRANCH   4   5
ENDBRANCH   3   4
ENDBRANCH   2   3
ENDBRANCH   1   2
BRANCH   1  11
ATOM     11  C   UNL     1      -0.258  20.562  16.809  1.00  0.00     0.000 C 
BRANCH  11  12
ATOM     12  C   UNL     1       0.878  19.899  16.009  1.00  0.00     0.000 C 
BRANCH  12  13
ATOM     13  C   UNL     1       2.175  20.725  16.017  1.00  0.00     0.000 C 
BRANCH  13  14
ATOM     14  C   UNL     1       3.420  19.876  15.713  1.00  0.00     0.000 C 
BRANCH  14  15
ATOM     15  C   UNL     1       4.706  20.716  15.623  1.00  0.00     0.000 C 
BRANCH  15  16
ATOM     16  C   UNL     1       5.778  20.056  14.730  1.00  0.00     0.006 C 
BRANCH  16  17
ATOM     17  C   UNL     1       7.218  20.401  15.142  1.00  0.00     0.053 C 
BRANCH  17  18
ATOM     18  C   UNL     1       8.111  20.613  13.961  1.00  0.00     0.041 C 
ATOM     19  O   UNL     1       7.762  20.206  12.821  1.00  0.00    -0.550 OA
ATOM     20  O   UNL     1       9.319  21.281  14.114  1.00  0.00    -0.550 OA
ENDBRANCH  17  18
ENDBRANCH  16  17
ENDBRANCH  15  16
ENDBRANCH  14  15
ENDBRANCH  13  14
ENDBRANCH  12  13
ENDBRANCH  11  12
ENDBRANCH   1  11
TORSDOF 15
ENDMDL
MODEL 4
REMARK VINA RESULT:    -0.492      9.448     14.134
REMARK INTER + INTRA:          -1.399
REMARK INTER:                  -0.731
REMARK INTRA:                  -0.668
REMARK UNBOUND:                -0.476
REMARK SMILES O=C([O-])CCCCCCCCCCCCCCC(=O)[O-]
REMARK SMILES IDX 10 1 9 2 8 3 7 4 6 5 5 6 4 7 2 8 1 9 3 10 11 11 12 12 13 13
REMARK SMILES IDX 14 14 15 15 16 16 17 17 18 18 19 19 20 20
REMARK H PARENT
REMARK Flexibility Score: inf
ROOT
ATOM      1  C   UNL     1      -4.059  20.391  16.362  1.00  0.00     0.000 C 
ENDROOT
BRANCH   1   2
ATOM      2  C   UNL     1      -5.082  20.130  15.238  1.00  0.00     0.000 C 
BRANCH   2   3
ATOM      3  C   UNL     1      -6.126  21.246  15.041  1.00  0.00     0.000 C 
BRANCH   3   4
ATOM      4  C   UNL     1      -7.595  20.786  15.141  1.00  0.00     0.000 C 
BRANCH   4   5
ATOM      5  C   UNL     1      -8.411  21.445  16.272  1.00  0.00     0.000 C 
BRANCH   5   6
ATOM      6  C   UNL     1      -8.638  20.559  17.509  1.00  0.00     0.006 C 
BRANCH   6   7
ATOM      7  C   UNL     1      -7.446  20.564  18.474  1.00  0.00     0.053 C 
BRANCH   7   8
ATOM      8  C   UNL     1      -7.710  21.481  19.626  1.00  0.00     0.041 C 
ATOM      9  O   UNL     1      -7.298  21.185  20.778  1.00  0.00    -0.550 OA
ATOM     10  O   UNL     1      -8.366  22.687  19.418  1.00  0.00    -0.550 OA
ENDBRANCH   7   8
ENDBRANCH   6   7
ENDBRANCH   5   6
ENDBRANCH   4   5
ENDBRANCH   3   4
ENDBRANCH   2   3
ENDBRANCH   1   2
BRANCH   1  11
ATOM     11  C   UNL     1      -2.616  19.951  16.048  1.00  0.00     0.000 C 
BRANCH  11  12
ATOM     12  C   UNL     1      -1.617  21.099  15.813  1.00  0.00     0.000 C 
BRANCH  12  13
ATOM     13  C   UNL     1      -0.453  21.093  16.818  1.00  0.00     0.000 C 
BRANCH  13  14
ATOM     14  C   UNL     1       0.670  20.124  16.417  1.00  0.00     0.000 C 
BRANCH  14  15
ATOM     15  C   UNL     1       1.922  20.848  15.888  1.00  0.00     0.000 C 
BRANCH  15  16
ATOM     16  C   UNL     1       3.096  19.881  15.631  1.00  0.00     0.006 C 
BRANCH  16  17
ATOM     17  C   UNL     1       4.470  20.481  15.964  1.00  0.00     0.053 C 
BRANCH  17  18
ATOM     18  C   UNL     1       5.368  20.544  14.768  1.00  0.00     0.041 C 
ATOM     19  O   UNL     1       6.552  20.957  14.885  1.00  0.00    -0.550 OA
ATOM     20  O   UNL     1       4.905  20.125  13.528  1.00  0.00    -0.550 OA
ENDBRANCH  17  18
ENDBRANCH  16  17
ENDBRANCH  15  16
ENDBRANCH  14  15
ENDBRANCH  13  14
ENDBRANCH  12  13
ENDBRANCH  11  12
ENDBRANCH   1  11
TORSDOF 15
ENDMDL
MODEL 5
REMARK VINA RESULT:    -0.424     11.391     15.909
REMARK INTER + INTRA:          -1.271
REMARK INTER:                  -0.276
REMARK INTRA:                  -0.995
REMARK UNBOUND:                -0.476
REMARK SMILES O=C([O-])CCCCCCCCCCCCCCC(=O)[O-]
REMARK SMILES IDX 10 1 9 2 8 3 7 4 6 5 5 6 4 7 2 8 1 9 3 10 11 11 12 12 13 13
REMARK SMILES IDX 14 14 15 15 16 16 17 17 18 18 19 19 20 20
REMARK H PARENT
REMARK Flexibility Score: inf
ROOT
ATOM      1  C   UNL     1      -6.006  21.361  14.268  1.00  0.00     0.000 C 
ENDROOT
BRANCH   1   2
ATOM      2  C   UNL     1      -7.060  22.100  15.117  1.00  0.00     0.000 C 
BRANCH   2   3
ATOM      3  C   UNL     1      -8.455  21.446  15.133  1.00  0.00     0.000 C 
BRANCH   3   4
ATOM      4  C   UNL     1      -8.492  20.006  15.683  1.00  0.00     0.000 C 
BRANCH   4   5
ATOM      5  C   UNL     1      -8.950  19.878  17.149  1.00  0.00     0.000 C 
BRANCH   5   6
ATOM      6  C   UNL     1      -8.422  20.972  18.094  1.00  0.00     0.006 C 
BRANCH   6   7
ATOM      7  C   UNL     1      -9.124  20.973  19.457  1.00  0.00     0.053 C 
BRANCH   7   8
ATOM      8  C   UNL     1      -8.506  21.992  20.362  1.00  0.00     0.041 C 
ATOM      9  O   UNL     1      -7.683  21.637  21.246  1.00  0.00    -0.550 OA
ATOM     10  O   UNL     1      -8.803  23.339  20.196  1.00  0.00    -0.550 OA
ENDBRANCH   7   8
ENDBRANCH   6   7
ENDBRANCH   5   6
ENDBRANCH   4   5
ENDBRANCH   3   4
ENDBRANCH   2   3
ENDBRANCH   1   2
BRANCH   1  11
ATOM     11  C   UNL     1      -4.674  21.068  14.987  1.00  0.00     0.000 C 
BRANCH  11  12
ATOM     12  C   UNL     1      -4.703  19.875  15.960  1.00  0.00     0.000 C 
BRANCH  12  13
ATOM     13  C   UNL     1      -5.221  20.256  17.357  1.00  0.00     0.000 C 
BRANCH  13  14
ATOM     14  C   UNL     1      -4.209  19.939  18.470  1.00  0.00     0.000 C 
BRANCH  14  15
ATOM     15  C   UNL     1      -2.759  19.876  17.956  1.00  0.00     0.000 C 
BRANCH  15  16
ATOM     16  C   UNL     1      -1.814  20.800  18.752  1.00  0.00     0.006 C 
BRANCH  16  17
ATOM     17  C   UNL     1      -0.637  21.336  17.922  1.00  0.00     0.053 C 
BRANCH  17  18
ATOM     18  C   UNL     1      -0.797  21.054  16.461  1.00  0.00     0.041 C 
ATOM     19  O   UNL     1      -0.386  19.966  15.977  1.00  0.00    -0.550 OA
ATOM     20  O   UNL     1      -1.421  21.982  15.638  1.00  0.00    -0.550 OA
ENDBRANCH  17  18
ENDBRANCH  16  17
ENDBRANCH  15  16
ENDBRANCH  14  15
ENDBRANCH  13  14
ENDBRANCH  12  13
ENDBRANCH  11  12
ENDBRANCH   1  11
TORSDOF 15
ENDMDL
MODEL 6
REMARK VINA RESULT:    -0.236      7.042     11.725
REMARK INTER + INTRA:          -0.919
REMARK INTER:                  -0.495
REMARK INTRA:                  -0.424
REMARK UNBOUND:                -0.476
REMARK SMILES O=C([O-])CCCCCCCCCCCCCCC(=O)[O-]
REMARK SMILES IDX 10 1 9 2 8 3 7 4 6 5 5 6 4 7 2 8 1 9 3 10 11 11 12 12 13 13
REMARK SMILES IDX 14 14 15 15 16 16 17 17 18 18 19 19 20 20
REMARK H PARENT
REMARK Flexibility Score: inf
ROOT
ATOM      1  C   UNL     1       1.067  20.796  16.217  1.00  0.00     0.000 C 
ENDROOT
BRANCH   1   2
ATOM      2  C   UNL     1      -0.276  20.068  16.425  1.00  0.00     0.000 C 
BRANCH   2   3
ATOM      3  C   UNL     1      -1.478  20.993  16.704  1.00  0.00     0.000 C 
BRANCH   3   4
ATOM      4  C   UNL     1      -2.566  20.991  15.611  1.00  0.00     0.000 C 
BRANCH   4   5
ATOM      5  C   UNL     1      -3.829  20.173  15.947  1.00  0.00     0.000 C 
BRANCH   5   6
ATOM      6  C   UNL     1      -4.953  20.255  14.900  1.00  0.00     0.006 C 
BRANCH   6   7
ATOM      7  C   UNL     1      -5.987  21.342  15.217  1.00  0.00     0.053 C 
BRANCH   7   8
ATOM      8  C   UNL     1      -7.205  20.739  15.843  1.00  0.00     0.041 C 
ATOM      9  O   UNL     1      -8.287  20.687  15.202  1.00  0.00    -0.550 OA
ATOM     10  O   UNL     1      -7.131  20.188  17.116  1.00  0.00    -0.550 OA
ENDBRANCH   7   8
ENDBRANCH   6   7
ENDBRANCH   5   6
ENDBRANCH   4   5
ENDBRANCH   3   4
ENDBRANCH   2   3
ENDBRANCH   1   2
BRANCH   1  11
ATOM     11  C   UNL     1       2.285  19.876  16.011  1.00  0.00     0.000 C 
BRANCH  11  12
ATOM     12  C   UNL     1       3.519  20.551  15.385  1.00  0.00     0.000 C 
BRANCH  12  13
ATOM     13  C   UNL     1       4.845  19.947  15.879  1.00  0.00     0.000 C 
BRANCH  13  14
ATOM     14  C   UNL     1       6.039  20.893  15.673  1.00  0.00     0.000 C 
BRANCH  14  15
ATOM     15  C   UNL     1       7.364  20.141  15.454  1.00  0.00     0.000 C 
BRANCH  15  16
ATOM     16  C   UNL     1       7.789  20.119  13.971  1.00  0.00     0.006 C 
BRANCH  16  17
ATOM     17  C   UNL     1       8.838  21.184  13.616  1.00  0.00     0.053 C 
BRANCH  17  18
ATOM     18  C   UNL     1      10.061  21.083  14.472  1.00  0.00     0.041 C 
ATOM     19  O   UNL     1      10.399  22.046  15.211  1.00  0.00    -0.550 OA
ATOM     20  O   UNL     1      10.816  19.917  14.473  1.00  0.00    -0.550 OA
ENDBRANCH  17  18
ENDBRANCH  16  17
ENDBRANCH  15  16
ENDBRANCH  14  15
ENDBRANCH  13  14
ENDBRANCH  12  13
ENDBRANCH  11  12
ENDBRANCH   1  11
TORSDOF 15
ENDMDL
MODEL 7
REMARK VINA RESULT:    -0.073      8.083     10.604
REMARK INTER + INTRA:          -0.612
REMARK INTER:                  -0.192
REMARK INTRA:                  -0.420
REMARK UNBOUND:                -0.476
REMARK SMILES O=C([O-])CCCCCCCCCCCCCCC(=O)[O-]
REMARK SMILES IDX 10 1 9 2 8 3 7 4 6 5 5 6 4 7 2 8 1 9 3 10 11 11 12 12 13 13
REMARK SMILES IDX 14 14 15 15 16 16 17 17 18 18 19 19 20 20
REMARK H PARENT
REMARK Flexibility Score: inf
ROOT
ATOM      1  C   UNL     1       0.405  20.580  16.283  1.00  0.00     0.000 C 
ENDROOT
BRANCH   1   2
ATOM      2  C   UNL     1       1.780  19.889  16.378  1.00  0.00     0.000 C 
BRANCH   2   3
ATOM      3  C   UNL     1       2.896  20.548  15.544  1.00  0.00     0.000 C 
BRANCH   3   4
ATOM      4  C   UNL     1       4.322  20.054  15.859  1.00  0.00     0.000 C 
BRANCH   4   5
ATOM      5  C   UNL     1       5.454  20.835  15.162  1.00  0.00     0.000 C 
BRANCH   5   6
ATOM      6  C   UNL     1       6.302  20.009  14.179  1.00  0.00     0.006 C 
BRANCH   6   7
ATOM      7  C   UNL     1       7.801  20.053  14.500  1.00  0.00     0.053 C 
BRANCH   7   8
ATOM      8  C   UNL     1       8.556  20.704  13.385  1.00  0.00     0.041 C 
ATOM      9  O   UNL     1       9.354  21.648  13.627  1.00  0.00    -0.550 OA
ATOM     10  O   UNL     1       8.417  20.235  12.085  1.00  0.00    -0.550 OA
ENDBRANCH   7   8
ENDBRANCH   6   7
ENDBRANCH   5   6
ENDBRANCH   4   5
ENDBRANCH   3   4
ENDBRANCH   2   3
ENDBRANCH   1   2
BRANCH   1  11
ATOM     11  C   UNL     1      -0.688  19.990  17.195  1.00  0.00     0.000 C 
BRANCH  11  12
ATOM     12  C   UNL     1      -2.028  20.750  17.188  1.00  0.00     0.000 C 
BRANCH  12  13
ATOM     13  C   UNL     1      -2.942  20.337  16.021  1.00  0.00     0.000 C 
BRANCH  13  14
ATOM     14  C   UNL     1      -4.330  19.875  16.493  1.00  0.00     0.000 C 
BRANCH  14  15
ATOM     15  C   UNL     1      -4.574  20.154  17.987  1.00  0.00     0.000 C 
BRANCH  15  16
ATOM     16  C   UNL     1      -6.034  19.882  18.404  1.00  0.00     0.006 C 
BRANCH  16  17
ATOM     17  C   UNL     1      -6.659  21.017  19.231  1.00  0.00     0.053 C 
BRANCH  17  18
ATOM     18  C   UNL     1      -8.089  21.263  18.869  1.00  0.00     0.041 C 
ATOM     19  O   UNL     1      -8.402  21.557  17.685  1.00  0.00    -0.550 OA
ATOM     20  O   UNL     1      -9.081  21.144  19.834  1.00  0.00    -0.550 OA
ENDBRANCH  17  18
ENDBRANCH  16  17
ENDBRANCH  15  16
ENDBRANCH  14  15
ENDBRANCH  13  14
ENDBRANCH  12  13
ENDBRANCH  11  12
ENDBRANCH   1  11
TORSDOF 15
ENDMDL
MODEL 8
REMARK VINA RESULT:    -0.050      7.615     10.238
REMARK INTER + INTRA:          -0.570
REMARK INTER:                  -0.073
REMARK INTRA:                  -0.497
REMARK UNBOUND:                -0.476
REMARK SMILES O=C([O-])CCCCCCCCCCCCCCC(=O)[O-]
REMARK SMILES IDX 10 1 9 2 8 3 7 4 6 5 5 6 4 7 2 8 1 9 3 10 11 11 12 12 13 13
REMARK SMILES IDX 14 14 15 15 16 16 17 17 18 18 19 19 20 20
REMARK H PARENT
REMARK Flexibility Score: inf
ROOT
ATOM      1  C   UNL     1       0.509  20.627  16.329  1.00  0.00     0.000 C 
ENDROOT
BRANCH   1   2
ATOM      2  C   UNL     1       1.856  19.877  16.304  1.00  0.00     0.000 C 
BRANCH   2   3
ATOM      3  C   UNL     1       3.019  20.655  15.658  1.00  0.00     0.000 C 
BRANCH   3   4
ATOM      4  C   UNL     1       4.387  19.946  15.718  1.00  0.00     0.000 C 
BRANCH   4   5
ATOM      5  C   UNL     1       5.610  20.871  15.548  1.00  0.00     0.000 C 
BRANCH   5   6
ATOM      6  C   UNL     1       6.563  20.484  14.403  1.00  0.00     0.006 C 
BRANCH   6   7
ATOM      7  C   UNL     1       7.949  20.056  14.900  1.00  0.00     0.053 C 
BRANCH   7   8
ATOM      8  C   UNL     1       9.012  20.908  14.282  1.00  0.00     0.041 C 
ATOM      9  O   UNL     1       9.928  21.394  14.996  1.00  0.00    -0.550 OA
ATOM     10  O   UNL     1       9.019  21.123  12.910  1.00  0.00    -0.550 OA
ENDBRANCH   7   8
ENDBRANCH   6   7
ENDBRANCH   5   6
ENDBRANCH   4   5
ENDBRANCH   3   4
ENDBRANCH   2   3
ENDBRANCH   1   2
BRANCH   1  11
ATOM     11  C   UNL     1      -0.613  19.931  17.125  1.00  0.00     0.000 C 
BRANCH  11  12
ATOM     12  C   UNL     1      -2.044  20.242  16.648  1.00  0.00     0.000 C 
BRANCH  12  13
ATOM     13  C   UNL     1      -2.100  21.417  15.657  1.00  0.00     0.000 C 
BRANCH  13  14
ATOM     14  C   UNL     1      -3.327  21.353  14.733  1.00  0.00     0.000 C 
BRANCH  14  15
ATOM     15  C   UNL     1      -4.489  20.548  15.342  1.00  0.00     0.000 C 
BRANCH  15  16
ATOM     16  C   UNL     1      -5.764  20.608  14.475  1.00  0.00     0.006 C 
BRANCH  16  17
ATOM     17  C   UNL     1      -6.916  21.387  15.128  1.00  0.00     0.053 C 
BRANCH  17  18
ATOM     18  C   UNL     1      -7.771  20.518  15.994  1.00  0.00     0.041 C 
ATOM     19  O   UNL     1      -8.732  19.875  15.495  1.00  0.00    -0.550 OA
ATOM     20  O   UNL     1      -7.491  20.397  17.350  1.00  0.00    -0.550 OA
ENDBRANCH  17  18
ENDBRANCH  16  17
ENDBRANCH  15  16
ENDBRANCH  14  15
ENDBRANCH  13  14
ENDBRANCH  12  13
ENDBRANCH  11  12
ENDBRANCH   1  11
TORSDOF 15
ENDMDL
MODEL 9
REMARK VINA RESULT:    -0.020      4.135      9.662
REMARK INTER + INTRA:          -0.513
REMARK INTER:                   0.029
REMARK INTRA:                  -0.542
REMARK UNBOUND:                -0.476
REMARK SMILES O=C([O-])CCCCCCCCCCCCCCC(=O)[O-]
REMARK SMILES IDX 10 1 9 2 8 3 7 4 6 5 5 6 4 7 2 8 1 9 3 10 11 11 12 12 13 13
REMARK SMILES IDX 14 14 15 15 16 16 17 17 18 18 19 19 20 20
REMARK H PARENT
REMARK Flexibility Score: inf
ROOT
ATOM      1  C   UNL     1       5.692  20.554  14.590  1.00  0.00     0.000 C 
ENDROOT
BRANCH   1   2
ATOM      2  C   UNL     1       4.352  19.890  14.966  1.00  0.00     0.000 C 
BRANCH   2   3
ATOM      3  C   UNL     1       3.248  20.867  15.414  1.00  0.00     0.000 C 
BRANCH   3   4
ATOM      4  C   UNL     1       2.012  20.203  16.055  1.00  0.00     0.000 C 
BRANCH   4   5
ATOM      5  C   UNL     1       0.696  20.992  15.908  1.00  0.00     0.000 C 
BRANCH   5   6
ATOM      6  C   UNL     1      -0.569  20.233  16.346  1.00  0.00     0.006 C 
BRANCH   6   7
ATOM      7  C   UNL     1      -1.522  21.093  17.184  1.00  0.00     0.053 C 
BRANCH   7   8
ATOM      8  C   UNL     1      -2.557  20.238  17.843  1.00  0.00     0.041 C 
ATOM      9  O   UNL     1      -2.411  19.875  19.040  1.00  0.00    -0.550 OA
ATOM     10  O   UNL     1      -3.707  19.883  17.151  1.00  0.00    -0.550 OA
ENDBRANCH   7   8
ENDBRANCH   6   7
ENDBRANCH   5   6
ENDBRANCH   4   5
ENDBRANCH   3   4
ENDBRANCH   2   3
ENDBRANCH   1   2
BRANCH   1  11
ATOM     11  C   UNL     1       6.270  20.133  13.224  1.00  0.00     0.000 C 
BRANCH  11  12
ATOM     12  C   UNL     1       7.796  19.933  13.192  1.00  0.00     0.000 C 
BRANCH  12  13
ATOM     13  C   UNL     1       8.554  20.992  14.010  1.00  0.00     0.000 C 
BRANCH  13  14
ATOM     14  C   UNL     1       9.980  21.233  13.489  1.00  0.00     0.000 C 
BRANCH  14  15
ATOM     15  C   UNL     1      10.173  20.751  12.039  1.00  0.00     0.000 C 
BRANCH  15  16
ATOM     16  C   UNL     1      10.988  21.749  11.191  1.00  0.00     0.006 C 
BRANCH  16  17
ATOM     17  C   UNL     1      11.019  23.170  11.776  1.00  0.00     0.053 C 
BRANCH  17  18
ATOM     18  C   UNL     1      10.784  24.218  10.735  1.00  0.00     0.041 C 
ATOM     19  O   UNL     1      10.838  23.920   9.512  1.00  0.00    -0.550 OA
ATOM     20  O   UNL     1      10.482  25.520  11.114  1.00  0.00    -0.550 OA
ENDBRANCH  17  18
ENDBRANCH  16  17
ENDBRANCH  15  16
ENDBRANCH  14  15
ENDBRANCH  13  14
ENDBRANCH  12  13
ENDBRANCH  11  12
ENDBRANCH   1  11
TORSDOF 15
ENDMDL
