MODEL 1
REMARK VINA RESULT:    16.624      0.000      0.000
REMARK INTER + INTRA:          20.536
REMARK INTER:                  20.998
REMARK INTRA:                  -0.462
REMARK UNBOUND:                -0.462
REMARK SMILES O=C(C=Cc1ccc(O)cc1)c1ccc(O)cc1O
REMARK SMILES IDX 4 1 3 2 5 3 6 4 7 5 8 6 11 7 10 8 9 9 2 11 1 12 12 13 18 14
REMARK SMILES IDX 13 15 17 16 14 17 15 18 19 19 16 21
REMARK H PARENT 9 10 19 20 16 22
REMARK Flexibility Score: inf
ROOT
ATOM      1  C   UNL     1       3.495  24.401  42.376  1.00  0.00     0.012 C 
ATOM      2  C   UNL     1       4.696  24.883  42.727  1.00  0.00     0.053 C 
ENDROOT
BRANCH   1   3
ATOM      3  C   UNL     1       2.517  25.149  41.548  1.00  0.00    -0.025 A 
ATOM      4  C   UNL     1       2.279  26.501  41.846  1.00  0.00     0.012 A 
ATOM      5  C   UNL     1       1.359  27.243  41.099  1.00  0.00     0.047 A 
ATOM      6  C   UNL     1       0.654  26.641  40.054  1.00  0.00     0.115 A 
ATOM      7  C   UNL     1       1.790  24.544  40.502  1.00  0.00     0.012 A 
ATOM      8  C   UNL     1       0.869  25.289  39.758  1.00  0.00     0.047 A 
BRANCH   6   9
ATOM      9  O   UNL     1      -0.260  27.393  39.318  1.00  0.00    -0.508 OA
ATOM     10  H   UNL     1      -0.023  27.772  38.408  1.00  0.00     0.293 HD
ENDBRANCH   6   9
ENDBRANCH   1   3
BRANCH   2  11
ATOM     11  C   UNL     1       5.639  24.114  43.567  1.00  0.00     0.189 C 
ATOM     12  O   UNL     1       5.214  23.167  44.283  1.00  0.00    -0.289 OA
BRANCH  11  13
ATOM     13  C   UNL     1       7.077  24.470  43.625  1.00  0.00     0.064 A 
ATOM     14  C   UNL     1       8.036  23.604  44.196  1.00  0.00     0.130 A 
ATOM     15  C   UNL     1       7.494  25.714  43.122  1.00  0.00     0.020 A 
ATOM     16  C   UNL     1       9.389  23.976  44.216  1.00  0.00     0.093 A 
ATOM     17  C   UNL     1       8.842  26.078  43.152  1.00  0.00     0.047 A 
ATOM     18  C   UNL     1       9.793  25.211  43.694  1.00  0.00     0.119 A 
BRANCH  14  19
ATOM     19  O   UNL     1       7.648  22.391  44.766  1.00  0.00    -0.507 OA
ATOM     20  H   UNL     1       8.029  21.507  44.450  1.00  0.00     0.293 HD
ENDBRANCH  14  19
BRANCH  18  21
ATOM     21  O   UNL     1      11.134  25.587  43.713  1.00  0.00    -0.508 OA
ATOM     22  H   UNL     1      11.861  24.974  43.362  1.00  0.00     0.293 HD
ENDBRANCH  18  21
ENDBRANCH  11  13
ENDBRANCH   2  11
TORSDOF 6
ENDMDL
MODEL 2
REMARK VINA RESULT:    16.693      1.825      7.602
REMARK INTER + INTRA:          20.622
REMARK INTER:                  19.869
REMARK INTRA:                   0.753
REMARK UNBOUND:                -0.462
REMARK SMILES O=C(C=Cc1ccc(O)cc1)c1ccc(O)cc1O
REMARK SMILES IDX 4 1 3 2 5 3 6 4 7 5 8 6 11 7 10 8 9 9 2 11 1 12 12 13 18 14
REMARK SMILES IDX 13 15 17 16 14 17 15 18 19 19 16 21
REMARK H PARENT 9 10 19 20 16 22
REMARK Flexibility Score: inf
ROOT
ATOM      1  C   UNL     1       3.436  24.196  42.728  1.00  0.00     0.012 C 
ATOM      2  C   UNL     1       3.090  24.010  41.445  1.00  0.00     0.053 C 
ENDROOT
BRANCH   1   3
ATOM      3  C   UNL     1       4.785  23.896  43.267  1.00  0.00    -0.025 A 
ATOM      4  C   UNL     1       4.969  22.711  43.999  1.00  0.00     0.012 A 
ATOM      5  C   UNL     1       6.220  22.392  44.535  1.00  0.00     0.047 A 
ATOM      6  C   UNL     1       7.302  23.258  44.359  1.00  0.00     0.115 A 
ATOM      7  C   UNL     1       5.878  24.773  43.107  1.00  0.00     0.012 A 
ATOM      8  C   UNL     1       7.128  24.451  43.646  1.00  0.00     0.047 A 
BRANCH   6   9
ATOM      9  O   UNL     1       8.543  22.928  44.898  1.00  0.00    -0.508 OA
ATOM     10  H   UNL     1       8.645  22.176  45.570  1.00  0.00     0.293 HD
ENDBRANCH   6   9
ENDBRANCH   1   3
BRANCH   2  11
ATOM     11  C   UNL     1       1.730  24.306  40.946  1.00  0.00     0.189 C 
ATOM     12  O   UNL     1       0.937  23.360  40.684  1.00  0.00    -0.289 OA
BRANCH  11  13
ATOM     13  C   UNL     1       1.292  25.700  40.698  1.00  0.00     0.064 A 
ATOM     14  C   UNL     1       1.487  26.723  41.652  1.00  0.00     0.130 A 
ATOM     15  C   UNL     1       0.642  26.007  39.490  1.00  0.00     0.020 A 
ATOM     16  C   UNL     1       1.069  28.032  41.367  1.00  0.00     0.093 A 
ATOM     17  C   UNL     1       0.225  27.312  39.219  1.00  0.00     0.047 A 
ATOM     18  C   UNL     1       0.440  28.329  40.152  1.00  0.00     0.119 A 
BRANCH  14  19
ATOM     19  O   UNL     1       2.067  26.440  42.889  1.00  0.00    -0.507 OA
ATOM     20  H   UNL     1       2.901  26.919  43.209  1.00  0.00     0.293 HD
ENDBRANCH  14  19
BRANCH  18  21
ATOM     21  O   UNL     1       0.021  29.626  39.865  1.00  0.00    -0.508 OA
ATOM     22  H   UNL     1      -0.613  29.819  39.099  1.00  0.00     0.293 HD
ENDBRANCH  18  21
ENDBRANCH  11  13
ENDBRANCH   2  11
TORSDOF 6
ENDMDL
MODEL 3
REMARK VINA RESULT:    17.153      1.296      7.613
REMARK INTER + INTRA:          21.204
REMARK INTER:                  21.827
REMARK INTRA:                  -0.623
REMARK UNBOUND:                -0.462
REMARK SMILES O=C(C=Cc1ccc(O)cc1)c1ccc(O)cc1O
REMARK SMILES IDX 4 1 3 2 5 3 6 4 7 5 8 6 11 7 10 8 9 9 2 11 1 12 12 13 18 14
REMARK SMILES IDX 13 15 17 16 14 17 15 18 19 19 16 21
REMARK H PARENT 9 10 19 20 16 22
REMARK Flexibility Score: inf
ROOT
ATOM      1  C   UNL     1       5.728  24.061  43.148  1.00  0.00     0.012 C 
ATOM      2  C   UNL     1       4.756  24.898  42.758  1.00  0.00     0.053 C 
ENDROOT
BRANCH   1   3
ATOM      3  C   UNL     1       7.116  24.494  43.446  1.00  0.00    -0.025 A 
ATOM      4  C   UNL     1       7.485  25.817  43.154  1.00  0.00     0.012 A 
ATOM      5  C   UNL     1       8.785  26.266  43.409  1.00  0.00     0.047 A 
ATOM      6  C   UNL     1       9.736  25.396  43.947  1.00  0.00     0.115 A 
ATOM      7  C   UNL     1       8.086  23.617  43.975  1.00  0.00     0.012 A 
ATOM      8  C   UNL     1       9.385  24.070  44.227  1.00  0.00     0.047 A 
BRANCH   6   9
ATOM      9  O   UNL     1      11.027  25.857  44.195  1.00  0.00    -0.508 OA
ATOM     10  H   UNL     1      11.672  26.058  43.440  1.00  0.00     0.293 HD
ENDBRANCH   6   9
ENDBRANCH   1   3
BRANCH   2  11
ATOM     11  C   UNL     1       3.387  24.428  42.453  1.00  0.00     0.189 C 
ATOM     12  O   UNL     1       3.011  23.291  42.848  1.00  0.00    -0.289 OA
BRANCH  11  13
ATOM     13  C   UNL     1       2.458  25.251  41.643  1.00  0.00     0.064 A 
ATOM     14  C   UNL     1       1.683  24.692  40.602  1.00  0.00     0.130 A 
ATOM     15  C   UNL     1       2.366  26.629  41.899  1.00  0.00     0.020 A 
ATOM     16  C   UNL     1       0.806  25.508  39.870  1.00  0.00     0.093 A 
ATOM     17  C   UNL     1       1.494  27.433  41.161  1.00  0.00     0.047 A 
ATOM     18  C   UNL     1       0.710  26.876  40.149  1.00  0.00     0.119 A 
BRANCH  14  19
ATOM     19  O   UNL     1       1.800  23.341  40.275  1.00  0.00    -0.507 OA
ATOM     20  H   UNL     1       1.003  22.795  39.970  1.00  0.00     0.293 HD
ENDBRANCH  14  19
BRANCH  18  21
ATOM     21  O   UNL     1      -0.157  27.691  39.424  1.00  0.00    -0.508 OA
ATOM     22  H   UNL     1       0.185  28.329  38.715  1.00  0.00     0.293 HD
ENDBRANCH  18  21
ENDBRANCH  11  13
ENDBRANCH   2  11
TORSDOF 6
ENDMDL
