MODEL 1
REMARK VINA RESULT:    -5.780      0.000      0.000
REMARK INTER + INTRA:         -15.898
REMARK INTER:                 -13.215
REMARK INTRA:                  -2.683
REMARK UNBOUND:                -2.683
REMARK SMILES CCCCCCCCCCCCCCCCCCCCCCCC(=O)[O-]
REMARK SMILES IDX 13 1 14 2 15 3 16 4 17 5 18 6 19 7 20 8 21 9 22 10 23 11
REMARK SMILES IDX 24 12 25 13 26 14 12 15 11 16 10 17 9 18 8 19 7 20 6 21 5 22
REMARK SMILES IDX 4 23 3 24 2 25 1 26
REMARK H PARENT
REMARK Flexibility Score: inf
ROOT
ATOM      1  C   UNL     1      13.506 -13.417  29.474  1.00  0.00     0.000 C 
ENDROOT
BRANCH   1   2
ATOM      2  C   UNL     1      13.668 -13.555  27.949  1.00  0.00     0.000 C 
BRANCH   2   3
ATOM      3  C   UNL     1      15.018 -14.171  27.551  1.00  0.00     0.000 C 
BRANCH   3   4
ATOM      4  C   UNL     1      16.216 -13.391  28.122  1.00  0.00     0.000 C 
BRANCH   4   5
ATOM      5  C   UNL     1      16.342 -11.983  27.517  1.00  0.00     0.000 C 
BRANCH   5   6
ATOM      6  C   UNL     1      17.738 -11.722  26.926  1.00  0.00     0.000 C 
BRANCH   6   7
ATOM      7  C   UNL     1      17.833 -12.089  25.435  1.00  0.00     0.000 C 
BRANCH   7   8
ATOM      8  C   UNL     1      18.524 -13.434  25.137  1.00  0.00     0.000 C 
BRANCH   8   9
ATOM      9  C   UNL     1      17.618 -14.515  24.514  1.00  0.00     0.000 C 
BRANCH   9  10
ATOM     10  C   UNL     1      17.954 -15.960  24.922  1.00  0.00     0.006 C 
BRANCH  10  11
ATOM     11  C   UNL     1      18.998 -16.612  24.008  1.00  0.00     0.053 C 
BRANCH  11  12
ATOM     12  C   UNL     1      18.870 -16.088  22.612  1.00  0.00     0.041 C 
ATOM     13  O   UNL     1      19.634 -15.170  22.209  1.00  0.00    -0.550 OA
ATOM     14  O   UNL     1      17.872 -16.571  21.775  1.00  0.00    -0.550 OA
ENDBRANCH  11  12
ENDBRANCH  10  11
ENDBRANCH   9  10
ENDBRANCH   8   9
ENDBRANCH   7   8
ENDBRANCH   6   7
ENDBRANCH   5   6
ENDBRANCH   4   5
ENDBRANCH   3   4
ENDBRANCH   2   3
ENDBRANCH   1   2
BRANCH   1  15
ATOM     15  C   UNL     1      12.072 -13.705  29.946  1.00  0.00     0.000 C 
BRANCH  15  16
ATOM     16  C   UNL     1      11.016 -13.341  28.888  1.00  0.00     0.000 C 
BRANCH  16  17
ATOM     17  C   UNL     1       9.678 -12.899  29.505  1.00  0.00     0.000 C 
BRANCH  17  18
ATOM     18  C   UNL     1       8.655 -12.318  28.507  1.00  0.00    -0.000 C 
BRANCH  18  19
ATOM     19  C   UNL     1       8.082 -13.326  27.494  1.00  0.00    -0.000 C 
BRANCH  19  20
ATOM     20  C   UNL     1       8.359 -12.995  26.015  1.00  0.00    -0.000 C 
BRANCH  20  21
ATOM     21  C   UNL     1       8.968 -11.595  25.789  1.00  0.00    -0.000 C 
BRANCH  21  22
ATOM     22  C   UNL     1      10.006 -11.572  24.653  1.00  0.00    -0.000 C 
BRANCH  22  23
ATOM     23  C   UNL     1      11.369 -12.147  25.099  1.00  0.00    -0.000 C 
BRANCH  23  24
ATOM     24  C   UNL     1      11.931 -13.207  24.136  1.00  0.00    -0.000 C 
BRANCH  24  25
ATOM     25  C   UNL     1      13.442 -13.422  24.305  1.00  0.00    -0.003 C 
ATOM     26  C   UNL     1      14.176 -12.089  24.415  1.00  0.00     0.004 C 
ENDBRANCH  24  25
ENDBRANCH  23  24
ENDBRANCH  22  23
ENDBRANCH  21  22
ENDBRANCH  20  21
ENDBRANCH  19  20
ENDBRANCH  18  19
ENDBRANCH  17  18
ENDBRANCH  16  17
ENDBRANCH  15  16
ENDBRANCH   1  15
TORSDOF 22
ENDMDL
MODEL 2
REMARK VINA RESULT:    -5.742      2.293      7.480
REMARK INTER + INTRA:         -15.811
REMARK INTER:                 -13.567
REMARK INTRA:                  -2.244
REMARK UNBOUND:                -2.683
REMARK SMILES CCCCCCCCCCCCCCCCCCCCCCCC(=O)[O-]
REMARK SMILES IDX 13 1 14 2 15 3 16 4 17 5 18 6 19 7 20 8 21 9 22 10 23 11
REMARK SMILES IDX 24 12 25 13 26 14 12 15 11 16 10 17 9 18 8 19 7 20 6 21 5 22
REMARK SMILES IDX 4 23 3 24 2 25 1 26
REMARK H PARENT
REMARK Flexibility Score: inf
ROOT
ATOM      1  C   UNL     1      11.740 -13.792  30.219  1.00  0.00     0.000 C 
ENDROOT
BRANCH   1   2
ATOM      2  C   UNL     1      10.711 -13.461  29.122  1.00  0.00     0.000 C 
BRANCH   2   3
ATOM      3  C   UNL     1       9.507 -12.671  29.660  1.00  0.00     0.000 C 
BRANCH   3   4
ATOM      4  C   UNL     1       8.517 -12.274  28.550  1.00  0.00     0.000 C 
BRANCH   4   5
ATOM      5  C   UNL     1       8.256 -13.420  27.559  1.00  0.00     0.000 C 
BRANCH   5   6
ATOM      6  C   UNL     1       8.244 -12.939  26.097  1.00  0.00     0.000 C 
BRANCH   6   7
ATOM      7  C   UNL     1       9.403 -11.980  25.777  1.00  0.00     0.000 C 
BRANCH   7   8
ATOM      8  C   UNL     1      10.524 -12.580  24.904  1.00  0.00     0.000 C 
BRANCH   8   9
ATOM      9  C   UNL     1      11.959 -12.231  25.347  1.00  0.00     0.000 C 
BRANCH   9  10
ATOM     10  C   UNL     1      13.002 -12.210  24.215  1.00  0.00     0.006 C 
BRANCH  10  11
ATOM     11  C   UNL     1      14.431 -11.980  24.723  1.00  0.00     0.053 C 
BRANCH  11  12
ATOM     12  C   UNL     1      15.282 -13.180  24.450  1.00  0.00     0.041 C 
ATOM     13  O   UNL     1      14.758 -14.323  24.369  1.00  0.00    -0.550 OA
ATOM     14  O   UNL     1      16.661 -13.045  24.340  1.00  0.00    -0.550 OA
ENDBRANCH  11  12
ENDBRANCH  10  11
ENDBRANCH   9  10
ENDBRANCH   8   9
ENDBRANCH   7   8
ENDBRANCH   6   7
ENDBRANCH   5   6
ENDBRANCH   4   5
ENDBRANCH   3   4
ENDBRANCH   2   3
ENDBRANCH   1   2
BRANCH   1  15
ATOM     15  C   UNL     1      13.178 -13.434  29.809  1.00  0.00     0.000 C 
BRANCH  15  16
ATOM     16  C   UNL     1      13.427 -13.618  28.303  1.00  0.00     0.000 C 
BRANCH  16  17
ATOM     17  C   UNL     1      14.916 -13.803  27.961  1.00  0.00     0.000 C 
BRANCH  17  18
ATOM     18  C   UNL     1      15.878 -12.827  28.669  1.00  0.00    -0.000 C 
BRANCH  18  19
ATOM     19  C   UNL     1      16.161 -11.518  27.909  1.00  0.00    -0.000 C 
BRANCH  19  20
ATOM     20  C   UNL     1      17.484 -10.820  28.280  1.00  0.00    -0.000 C 
BRANCH  20  21
ATOM     21  C   UNL     1      18.707 -11.334  27.491  1.00  0.00    -0.000 C 
BRANCH  21  22
ATOM     22  C   UNL     1      19.932 -10.413  27.622  1.00  0.00    -0.000 C 
BRANCH  22  23
ATOM     23  C   UNL     1      20.824 -10.799  28.824  1.00  0.00    -0.000 C 
BRANCH  23  24
ATOM     24  C   UNL     1      22.101 -11.557  28.421  1.00  0.00    -0.000 C 
BRANCH  24  25
ATOM     25  C   UNL     1      22.386 -11.482  26.914  1.00  0.00    -0.003 C 
ATOM     26  C   UNL     1      22.523 -12.878  26.312  1.00  0.00     0.004 C 
ENDBRANCH  24  25
ENDBRANCH  23  24
ENDBRANCH  22  23
ENDBRANCH  21  22
ENDBRANCH  20  21
ENDBRANCH  19  20
ENDBRANCH  18  19
ENDBRANCH  17  18
ENDBRANCH  16  17
ENDBRANCH  15  16
ENDBRANCH   1  15
TORSDOF 22
ENDMDL
MODEL 3
REMARK VINA RESULT:    -5.704      3.432      8.006
REMARK INTER + INTRA:         -15.724
REMARK INTER:                 -12.194
REMARK INTRA:                  -3.530
REMARK UNBOUND:                -2.683
REMARK SMILES CCCCCCCCCCCCCCCCCCCCCCCC(=O)[O-]
REMARK SMILES IDX 13 1 14 2 15 3 16 4 17 5 18 6 19 7 20 8 21 9 22 10 23 11
REMARK SMILES IDX 24 12 25 13 26 14 12 15 11 16 10 17 9 18 8 19 7 20 6 21 5 22
REMARK SMILES IDX 4 23 3 24 2 25 1 26
REMARK H PARENT
REMARK Flexibility Score: inf
ROOT
ATOM      1  C   UNL     1      13.728 -14.521  24.626  1.00  0.00     0.000 C 
ENDROOT
BRANCH   1   2
ATOM      2  C   UNL     1      14.131 -13.313  23.760  1.00  0.00     0.000 C 
BRANCH   2   3
ATOM      3  C   UNL     1      13.384 -12.028  24.152  1.00  0.00     0.000 C 
BRANCH   3   4
ATOM      4  C   UNL     1      12.468 -12.225  25.373  1.00  0.00     0.000 C 
BRANCH   4   5
ATOM      5  C   UNL     1      11.024 -11.770  25.102  1.00  0.00     0.000 C 
BRANCH   5   6
ATOM      6  C   UNL     1      10.074 -12.954  24.852  1.00  0.00     0.000 C 
BRANCH   6   7
ATOM      7  C   UNL     1       8.656 -12.704  25.394  1.00  0.00     0.000 C 
BRANCH   7   8
ATOM      8  C   UNL     1       8.395 -13.247  26.814  1.00  0.00     0.000 C 
BRANCH   8   9
ATOM      9  C   UNL     1       8.781 -12.294  27.962  1.00  0.00     0.000 C 
BRANCH   9  10
ATOM     10  C   UNL     1       9.320 -12.986  29.228  1.00  0.00     0.006 C 
BRANCH  10  11
ATOM     11  C   UNL     1      10.836 -13.211  29.186  1.00  0.00     0.053 C 
BRANCH  11  12
ATOM     12  C   UNL     1      11.366 -13.459  30.564  1.00  0.00     0.041 C 
ATOM     13  O   UNL     1      12.145 -14.426  30.778  1.00  0.00    -0.550 OA
ATOM     14  O   UNL     1      10.955 -12.657  31.622  1.00  0.00    -0.550 OA
ENDBRANCH  11  12
ENDBRANCH  10  11
ENDBRANCH   9  10
ENDBRANCH   8   9
ENDBRANCH   7   8
ENDBRANCH   6   7
ENDBRANCH   5   6
ENDBRANCH   4   5
ENDBRANCH   3   4
ENDBRANCH   2   3
ENDBRANCH   1   2
BRANCH   1  15
ATOM     15  C   UNL     1      14.903 -15.084  25.441  1.00  0.00     0.000 C 
BRANCH  15  16
ATOM     16  C   UNL     1      14.531 -15.344  26.912  1.00  0.00     0.000 C 
BRANCH  16  17
ATOM     17  C   UNL     1      14.268 -14.049  27.700  1.00  0.00     0.000 C 
BRANCH  17  18
ATOM     18  C   UNL     1      15.528 -13.241  28.076  1.00  0.00    -0.000 C 
BRANCH  18  19
ATOM     19  C   UNL     1      15.606 -11.829  27.468  1.00  0.00    -0.000 C 
BRANCH  19  20
ATOM     20  C   UNL     1      16.457 -11.713  26.189  1.00  0.00    -0.000 C 
BRANCH  20  21
ATOM     21  C   UNL     1      17.648 -12.693  26.139  1.00  0.00    -0.000 C 
BRANCH  21  22
ATOM     22  C   UNL     1      18.437 -12.606  24.821  1.00  0.00    -0.000 C 
BRANCH  22  23
ATOM     23  C   UNL     1      17.895 -13.583  23.753  1.00  0.00    -0.000 C 
BRANCH  23  24
ATOM     24  C   UNL     1      18.983 -14.471  23.126  1.00  0.00    -0.000 C 
BRANCH  24  25
ATOM     25  C   UNL     1      19.491 -15.557  24.085  1.00  0.00    -0.003 C 
ATOM     26  C   UNL     1      18.329 -16.336  24.695  1.00  0.00     0.004 C 
ENDBRANCH  24  25
ENDBRANCH  23  24
ENDBRANCH  22  23
ENDBRANCH  21  22
ENDBRANCH  20  21
ENDBRANCH  19  20
ENDBRANCH  18  19
ENDBRANCH  17  18
ENDBRANCH  16  17
ENDBRANCH  15  16
ENDBRANCH   1  15
TORSDOF 22
ENDMDL
MODEL 4
REMARK VINA RESULT:    -5.685      1.907      3.995
REMARK INTER + INTRA:         -15.679
REMARK INTER:                 -12.690
REMARK INTRA:                  -2.990
REMARK UNBOUND:                -2.683
REMARK SMILES CCCCCCCCCCCCCCCCCCCCCCCC(=O)[O-]
REMARK SMILES IDX 13 1 14 2 15 3 16 4 17 5 18 6 19 7 20 8 21 9 22 10 23 11
REMARK SMILES IDX 24 12 25 13 26 14 12 15 11 16 10 17 9 18 8 19 7 20 6 21 5 22
REMARK SMILES IDX 4 23 3 24 2 25 1 26
REMARK H PARENT
REMARK Flexibility Score: inf
ROOT
ATOM      1  C   UNL     1       9.530 -12.686  29.664  1.00  0.00     0.000 C 
ENDROOT
BRANCH   1   2
ATOM      2  C   UNL     1      10.772 -13.423  29.130  1.00  0.00     0.000 C 
BRANCH   2   3
ATOM      3  C   UNL     1      11.771 -13.781  30.241  1.00  0.00     0.000 C 
BRANCH   3   4
ATOM      4  C   UNL     1      13.218 -13.395  29.883  1.00  0.00     0.000 C 
BRANCH   4   5
ATOM      5  C   UNL     1      13.586 -13.772  28.439  1.00  0.00     0.000 C 
BRANCH   5   6
ATOM      6  C   UNL     1      14.983 -13.268  28.040  1.00  0.00     0.000 C 
BRANCH   6   7
ATOM      7  C   UNL     1      15.631 -12.387  29.122  1.00  0.00     0.000 C 
BRANCH   7   8
ATOM      8  C   UNL     1      16.182 -11.037  28.621  1.00  0.00     0.000 C 
BRANCH   8   9
ATOM      9  C   UNL     1      16.574 -11.000  27.131  1.00  0.00     0.000 C 
BRANCH   9  10
ATOM     10  C   UNL     1      18.040 -11.362  26.834  1.00  0.00     0.006 C 
BRANCH  10  11
ATOM     11  C   UNL     1      18.596 -10.639  25.601  1.00  0.00     0.053 C 
BRANCH  11  12
ATOM     12  C   UNL     1      19.693 -11.443  24.975  1.00  0.00     0.041 C 
ATOM     13  O   UNL     1      20.505 -12.077  25.700  1.00  0.00    -0.550 OA
ATOM     14  O   UNL     1      19.852 -11.447  23.594  1.00  0.00    -0.550 OA
ENDBRANCH  11  12
ENDBRANCH  10  11
ENDBRANCH   9  10
ENDBRANCH   8   9
ENDBRANCH   7   8
ENDBRANCH   6   7
ENDBRANCH   5   6
ENDBRANCH   4   5
ENDBRANCH   3   4
ENDBRANCH   2   3
ENDBRANCH   1   2
BRANCH   1  15
ATOM     15  C   UNL     1       8.588 -12.221  28.542  1.00  0.00     0.000 C 
BRANCH  15  16
ATOM     16  C   UNL     1       8.223 -13.354  27.568  1.00  0.00     0.000 C 
BRANCH  16  17
ATOM     17  C   UNL     1       8.259 -12.912  26.095  1.00  0.00     0.000 C 
BRANCH  17  18
ATOM     18  C   UNL     1       9.078 -11.635  25.812  1.00  0.00    -0.000 C 
BRANCH  18  19
ATOM     19  C   UNL     1       9.741 -11.576  24.424  1.00  0.00    -0.000 C 
BRANCH  19  20
ATOM     20  C   UNL     1      10.940 -12.524  24.231  1.00  0.00    -0.000 C 
BRANCH  20  21
ATOM     21  C   UNL     1      11.941 -12.515  25.405  1.00  0.00    -0.000 C 
BRANCH  21  22
ATOM     22  C   UNL     1      13.299 -11.897  25.027  1.00  0.00    -0.000 C 
BRANCH  22  23
ATOM     23  C   UNL     1      13.631 -12.095  23.531  1.00  0.00    -0.000 C 
BRANCH  23  24
ATOM     24  C   UNL     1      14.913 -12.910  23.291  1.00  0.00    -0.000 C 
BRANCH  24  25
ATOM     25  C   UNL     1      15.546 -13.422  24.592  1.00  0.00    -0.003 C 
ATOM     26  C   UNL     1      16.954 -13.956  24.345  1.00  0.00     0.004 C 
ENDBRANCH  24  25
ENDBRANCH  23  24
ENDBRANCH  22  23
ENDBRANCH  21  22
ENDBRANCH  20  21
ENDBRANCH  19  20
ENDBRANCH  18  19
ENDBRANCH  17  18
ENDBRANCH  16  17
ENDBRANCH  15  16
ENDBRANCH   1  15
TORSDOF 22
ENDMDL
MODEL 5
REMARK VINA RESULT:    -5.683      1.854      5.073
REMARK INTER + INTRA:         -15.675
REMARK INTER:                 -13.071
REMARK INTRA:                  -2.603
REMARK UNBOUND:                -2.683
REMARK SMILES CCCCCCCCCCCCCCCCCCCCCCCC(=O)[O-]
REMARK SMILES IDX 13 1 14 2 15 3 16 4 17 5 18 6 19 7 20 8 21 9 22 10 23 11
REMARK SMILES IDX 24 12 25 13 26 14 12 15 11 16 10 17 9 18 8 19 7 20 6 21 5 22
REMARK SMILES IDX 4 23 3 24 2 25 1 26
REMARK H PARENT
REMARK Flexibility Score: inf
ROOT
ATOM      1  C   UNL     1      14.587 -11.518  22.372  1.00  0.00     0.000 C 
ENDROOT
BRANCH   1   2
ATOM      2  C   UNL     1      13.962 -12.542  23.337  1.00  0.00     0.000 C 
BRANCH   2   3
ATOM      3  C   UNL     1      13.186 -11.876  24.485  1.00  0.00     0.000 C 
BRANCH   3   4
ATOM      4  C   UNL     1      12.768 -12.878  25.576  1.00  0.00     0.000 C 
BRANCH   4   5
ATOM      5  C   UNL     1      13.836 -13.030  26.672  1.00  0.00     0.000 C 
BRANCH   5   6
ATOM      6  C   UNL     1      14.327 -14.481  26.814  1.00  0.00     0.000 C 
BRANCH   6   7
ATOM      7  C   UNL     1      15.792 -14.573  27.274  1.00  0.00     0.000 C 
BRANCH   7   8
ATOM      8  C   UNL     1      16.811 -14.854  26.151  1.00  0.00     0.000 C 
BRANCH   8   9
ATOM      9  C   UNL     1      16.202 -15.312  24.811  1.00  0.00     0.000 C 
BRANCH   9  10
ATOM     10  C   UNL     1      17.034 -14.958  23.565  1.00  0.00     0.006 C 
BRANCH  10  11
ATOM     11  C   UNL     1      18.464 -15.511  23.624  1.00  0.00     0.053 C 
BRANCH  11  12
ATOM     12  C   UNL     1      19.184 -15.235  22.341  1.00  0.00     0.041 C 
ATOM     13  O   UNL     1      19.122 -16.059  21.390  1.00  0.00    -0.550 OA
ATOM     14  O   UNL     1      19.970 -14.096  22.216  1.00  0.00    -0.550 OA
ENDBRANCH  11  12
ENDBRANCH  10  11
ENDBRANCH   9  10
ENDBRANCH   8   9
ENDBRANCH   7   8
ENDBRANCH   6   7
ENDBRANCH   5   6
ENDBRANCH   4   5
ENDBRANCH   3   4
ENDBRANCH   2   3
ENDBRANCH   1   2
BRANCH   1  15
ATOM     15  C   UNL     1      14.303 -11.845  20.896  1.00  0.00     0.000 C 
BRANCH  15  16
ATOM     16  C   UNL     1      13.232 -12.936  20.728  1.00  0.00     0.000 C 
BRANCH  16  17
ATOM     17  C   UNL     1      11.839 -12.363  20.410  1.00  0.00     0.000 C 
BRANCH  17  18
ATOM     18  C   UNL     1      10.672 -13.004  21.189  1.00  0.00    -0.000 C 
BRANCH  18  19
ATOM     19  C   UNL     1       9.781 -12.017  21.964  1.00  0.00    -0.000 C 
BRANCH  19  20
ATOM     20  C   UNL     1       9.678 -12.280  23.479  1.00  0.00    -0.000 C 
BRANCH  20  21
ATOM     21  C   UNL     1       9.347 -11.024  24.312  1.00  0.00    -0.000 C 
BRANCH  21  22
ATOM     22  C   UNL     1       8.958 -11.356  25.764  1.00  0.00    -0.000 C 
BRANCH  22  23
ATOM     23  C   UNL     1       8.877 -12.879  26.010  1.00  0.00    -0.000 C 
BRANCH  23  24
ATOM     24  C   UNL     1       8.291 -13.247  27.384  1.00  0.00    -0.000 C 
BRANCH  24  25
ATOM     25  C   UNL     1       9.148 -12.741  28.552  1.00  0.00    -0.003 C 
ATOM     26  C   UNL     1       8.290 -12.028  29.594  1.00  0.00     0.004 C 
ENDBRANCH  24  25
ENDBRANCH  23  24
ENDBRANCH  22  23
ENDBRANCH  21  22
ENDBRANCH  20  21
ENDBRANCH  19  20
ENDBRANCH  18  19
ENDBRANCH  17  18
ENDBRANCH  16  17
ENDBRANCH  15  16
ENDBRANCH   1  15
TORSDOF 22
ENDMDL
MODEL 6
REMARK VINA RESULT:    -5.641      1.275      3.957
REMARK INTER + INTRA:         -15.579
REMARK INTER:                 -13.237
REMARK INTRA:                  -2.342
REMARK UNBOUND:                -2.683
REMARK SMILES CCCCCCCCCCCCCCCCCCCCCCCC(=O)[O-]
REMARK SMILES IDX 13 1 14 2 15 3 16 4 17 5 18 6 19 7 20 8 21 9 22 10 23 11
REMARK SMILES IDX 24 12 25 13 26 14 12 15 11 16 10 17 9 18 8 19 7 20 6 21 5 22
REMARK SMILES IDX 4 23 3 24 2 25 1 26
REMARK H PARENT
REMARK Flexibility Score: inf
ROOT
ATOM      1  C   UNL     1      11.596 -12.631  25.353  1.00  0.00     0.000 C 
ENDROOT
BRANCH   1   2
ATOM      2  C   UNL     1      12.978 -12.269  24.778  1.00  0.00     0.000 C 
BRANCH   2   3
ATOM      3  C   UNL     1      13.213 -12.865  23.382  1.00  0.00     0.000 C 
BRANCH   3   4
ATOM      4  C   UNL     1      14.704 -13.108  23.085  1.00  0.00     0.000 C 
BRANCH   4   5
ATOM      5  C   UNL     1      15.300 -14.230  23.951  1.00  0.00     0.000 C 
BRANCH   5   6
ATOM      6  C   UNL     1      16.838 -14.191  23.983  1.00  0.00     0.000 C 
BRANCH   6   7
ATOM      7  C   UNL     1      17.447 -15.365  24.769  1.00  0.00     0.000 C 
BRANCH   7   8
ATOM      8  C   UNL     1      18.976 -15.512  24.640  1.00  0.00     0.000 C 
BRANCH   8   9
ATOM      9  C   UNL     1      19.467 -16.901  24.186  1.00  0.00     0.000 C 
BRANCH   9  10
ATOM     10  C   UNL     1      18.972 -17.343  22.796  1.00  0.00     0.006 C 
BRANCH  10  11
ATOM     11  C   UNL     1      19.146 -16.257  21.727  1.00  0.00     0.053 C 
BRANCH  11  12
ATOM     12  C   UNL     1      18.982 -16.841  20.359  1.00  0.00     0.041 C 
ATOM     13  O   UNL     1      18.102 -17.717  20.146  1.00  0.00    -0.550 OA
ATOM     14  O   UNL     1      19.838 -16.461  19.332  1.00  0.00    -0.550 OA
ENDBRANCH  11  12
ENDBRANCH  10  11
ENDBRANCH   9  10
ENDBRANCH   8   9
ENDBRANCH   7   8
ENDBRANCH   6   7
ENDBRANCH   5   6
ENDBRANCH   4   5
ENDBRANCH   3   4
ENDBRANCH   2   3
ENDBRANCH   1   2
BRANCH   1  15
ATOM     15  C   UNL     1      10.454 -11.845  24.688  1.00  0.00     0.000 C 
BRANCH  15  16
ATOM     16  C   UNL     1       9.301 -11.542  25.660  1.00  0.00     0.000 C 
BRANCH  16  17
ATOM     17  C   UNL     1       8.502 -12.799  26.050  1.00  0.00     0.000 C 
BRANCH  17  18
ATOM     18  C   UNL     1       8.559 -13.175  27.546  1.00  0.00    -0.000 C 
BRANCH  18  19
ATOM     19  C   UNL     1       9.798 -12.663  28.303  1.00  0.00    -0.000 C 
BRANCH  19  20
ATOM     20  C   UNL     1      10.107 -13.398  29.622  1.00  0.00    -0.000 C 
BRANCH  20  21
ATOM     21  C   UNL     1      11.614 -13.569  29.906  1.00  0.00    -0.000 C 
BRANCH  21  22
ATOM     22  C   UNL     1      12.440 -13.799  28.628  1.00  0.00    -0.000 C 
BRANCH  22  23
ATOM     23  C   UNL     1      13.929 -13.438  28.824  1.00  0.00    -0.000 C 
BRANCH  23  24
ATOM     24  C   UNL     1      14.826 -13.877  27.654  1.00  0.00    -0.000 C 
BRANCH  24  25
ATOM     25  C   UNL     1      16.321 -13.819  27.996  1.00  0.00    -0.003 C 
ATOM     26  C   UNL     1      16.978 -12.589  27.374  1.00  0.00     0.004 C 
ENDBRANCH  24  25
ENDBRANCH  23  24
ENDBRANCH  22  23
ENDBRANCH  21  22
ENDBRANCH  20  21
ENDBRANCH  19  20
ENDBRANCH  18  19
ENDBRANCH  17  18
ENDBRANCH  16  17
ENDBRANCH  15  16
ENDBRANCH   1  15
TORSDOF 22
ENDMDL
MODEL 7
REMARK VINA RESULT:    -5.606      3.729      7.704
REMARK INTER + INTRA:         -15.500
REMARK INTER:                 -11.989
REMARK INTRA:                  -3.511
REMARK UNBOUND:                -2.683
REMARK SMILES CCCCCCCCCCCCCCCCCCCCCCCC(=O)[O-]
REMARK SMILES IDX 13 1 14 2 15 3 16 4 17 5 18 6 19 7 20 8 21 9 22 10 23 11
REMARK SMILES IDX 24 12 25 13 26 14 12 15 11 16 10 17 9 18 8 19 7 20 6 21 5 22
REMARK SMILES IDX 4 23 3 24 2 25 1 26
REMARK H PARENT
REMARK Flexibility Score: inf
ROOT
ATOM      1  C   UNL     1      15.694 -15.453  24.517  1.00  0.00     0.000 C 
ENDROOT
BRANCH   1   2
ATOM      2  C   UNL     1      16.975 -15.119  25.304  1.00  0.00     0.000 C 
BRANCH   2   3
ATOM      3  C   UNL     1      17.584 -13.768  24.898  1.00  0.00     0.000 C 
BRANCH   3   4
ATOM      4  C   UNL     1      16.677 -12.973  23.941  1.00  0.00     0.000 C 
BRANCH   4   5
ATOM      5  C   UNL     1      16.106 -11.703  24.594  1.00  0.00     0.000 C 
BRANCH   5   6
ATOM      6  C   UNL     1      14.616 -11.845  24.946  1.00  0.00     0.000 C 
BRANCH   6   7
ATOM      7  C   UNL     1      13.726 -12.040  23.707  1.00  0.00     0.000 C 
BRANCH   7   8
ATOM      8  C   UNL     1      12.391 -12.765  23.970  1.00  0.00     0.000 C 
BRANCH   8   9
ATOM      9  C   UNL     1      11.563 -12.211  25.147  1.00  0.00     0.000 C 
BRANCH   9  10
ATOM     10  C   UNL     1      10.056 -12.519  25.084  1.00  0.00     0.006 C 
BRANCH  10  11
ATOM     11  C   UNL     1       9.246 -11.758  26.141  1.00  0.00     0.053 C 
BRANCH  11  12
ATOM     12  C   UNL     1       9.029 -12.615  27.349  1.00  0.00     0.041 C 
ATOM     13  O   UNL     1       9.782 -12.497  28.352  1.00  0.00    -0.550 OA
ATOM     14  O   UNL     1       8.032 -13.583  27.346  1.00  0.00    -0.550 OA
ENDBRANCH  11  12
ENDBRANCH  10  11
ENDBRANCH   9  10
ENDBRANCH   8   9
ENDBRANCH   7   8
ENDBRANCH   6   7
ENDBRANCH   5   6
ENDBRANCH   4   5
ENDBRANCH   3   4
ENDBRANCH   2   3
ENDBRANCH   1   2
BRANCH   1  15
ATOM     15  C   UNL     1      14.434 -15.426  25.397  1.00  0.00     0.000 C 
BRANCH  15  16
ATOM     16  C   UNL     1      14.757 -15.215  26.886  1.00  0.00     0.000 C 
BRANCH  16  17
ATOM     17  C   UNL     1      13.875 -14.138  27.542  1.00  0.00     0.000 C 
BRANCH  17  18
ATOM     18  C   UNL     1      14.624 -13.143  28.454  1.00  0.00    -0.000 C 
BRANCH  18  19
ATOM     19  C   UNL     1      16.158 -13.274  28.446  1.00  0.00    -0.000 C 
BRANCH  19  20
ATOM     20  C   UNL     1      16.922 -11.986  28.080  1.00  0.00    -0.000 C 
BRANCH  20  21
ATOM     21  C   UNL     1      16.696 -10.822  29.069  1.00  0.00    -0.000 C 
BRANCH  21  22
ATOM     22  C   UNL     1      17.344  -9.507  28.599  1.00  0.00    -0.000 C 
BRANCH  22  23
ATOM     23  C   UNL     1      18.307  -8.923  29.656  1.00  0.00    -0.000 C 
BRANCH  23  24
ATOM     24  C   UNL     1      19.659  -9.654  29.724  1.00  0.00    -0.000 C 
BRANCH  24  25
ATOM     25  C   UNL     1      20.250  -9.941  28.337  1.00  0.00    -0.003 C 
ATOM     26  C   UNL     1      21.357 -10.989  28.419  1.00  0.00     0.004 C 
ENDBRANCH  24  25
ENDBRANCH  23  24
ENDBRANCH  22  23
ENDBRANCH  21  22
ENDBRANCH  20  21
ENDBRANCH  19  20
ENDBRANCH  18  19
ENDBRANCH  17  18
ENDBRANCH  16  17
ENDBRANCH  15  16
ENDBRANCH   1  15
TORSDOF 22
ENDMDL
MODEL 8
REMARK VINA RESULT:    -5.567      1.553      3.084
REMARK INTER + INTRA:         -15.409
REMARK INTER:                 -12.618
REMARK INTRA:                  -2.791
REMARK UNBOUND:                -2.683
REMARK SMILES CCCCCCCCCCCCCCCCCCCCCCCC(=O)[O-]
REMARK SMILES IDX 13 1 14 2 15 3 16 4 17 5 18 6 19 7 20 8 21 9 22 10 23 11
REMARK SMILES IDX 24 12 25 13 26 14 12 15 11 16 10 17 9 18 8 19 7 20 6 21 5 22
REMARK SMILES IDX 4 23 3 24 2 25 1 26
REMARK H PARENT
REMARK Flexibility Score: inf
ROOT
ATOM      1  C   UNL     1      10.106 -13.007  29.299  1.00  0.00     0.000 C 
ENDROOT
BRANCH   1   2
ATOM      2  C   UNL     1      11.273 -13.410  28.378  1.00  0.00     0.000 C 
BRANCH   2   3
ATOM      3  C   UNL     1      12.603 -13.552  29.135  1.00  0.00     0.000 C 
BRANCH   3   4
ATOM      4  C   UNL     1      13.797 -13.795  28.194  1.00  0.00     0.000 C 
BRANCH   4   5
ATOM      5  C   UNL     1      15.052 -13.019  28.627  1.00  0.00     0.000 C 
BRANCH   5   6
ATOM      6  C   UNL     1      16.341 -13.610  28.031  1.00  0.00     0.000 C 
BRANCH   6   7
ATOM      7  C   UNL     1      16.079 -14.851  27.160  1.00  0.00     0.000 C 
BRANCH   7   8
ATOM      8  C   UNL     1      16.264 -14.633  25.644  1.00  0.00     0.000 C 
BRANCH   8   9
ATOM      9  C   UNL     1      17.652 -15.012  25.090  1.00  0.00     0.000 C 
BRANCH   9  10
ATOM     10  C   UNL     1      18.516 -13.822  24.635  1.00  0.00     0.006 C 
BRANCH  10  11
ATOM     11  C   UNL     1      19.998 -14.186  24.480  1.00  0.00     0.053 C 
BRANCH  11  12
ATOM     12  C   UNL     1      20.644 -13.316  23.448  1.00  0.00     0.041 C 
ATOM     13  O   UNL     1      21.824 -12.905  23.614  1.00  0.00    -0.550 OA
ATOM     14  O   UNL     1      19.925 -12.910  22.330  1.00  0.00    -0.550 OA
ENDBRANCH  11  12
ENDBRANCH  10  11
ENDBRANCH   9  10
ENDBRANCH   8   9
ENDBRANCH   7   8
ENDBRANCH   6   7
ENDBRANCH   5   6
ENDBRANCH   4   5
ENDBRANCH   3   4
ENDBRANCH   2   3
ENDBRANCH   1   2
BRANCH   1  15
ATOM     15  C   UNL     1       8.935 -12.375  28.529  1.00  0.00     0.000 C 
BRANCH  15  16
ATOM     16  C   UNL     1       8.231 -13.375  27.597  1.00  0.00     0.000 C 
BRANCH  16  17
ATOM     17  C   UNL     1       8.411 -13.033  26.107  1.00  0.00     0.000 C 
BRANCH  17  18
ATOM     18  C   UNL     1       8.980 -11.628  25.820  1.00  0.00    -0.000 C 
BRANCH  18  19
ATOM     19  C   UNL     1      10.338 -11.606  25.094  1.00  0.00    -0.000 C 
BRANCH  19  20
ATOM     20  C   UNL     1      10.724 -12.922  24.392  1.00  0.00    -0.000 C 
BRANCH  20  21
ATOM     21  C   UNL     1      12.209 -13.309  24.560  1.00  0.00    -0.000 C 
BRANCH  21  22
ATOM     22  C   UNL     1      13.039 -12.209  25.246  1.00  0.00    -0.000 C 
BRANCH  22  23
ATOM     23  C   UNL     1      14.263 -11.792  24.401  1.00  0.00    -0.000 C 
BRANCH  23  24
ATOM     24  C   UNL     1      14.418 -12.603  23.103  1.00  0.00    -0.000 C 
BRANCH  24  25
ATOM     25  C   UNL     1      14.196 -11.756  21.842  1.00  0.00    -0.003 C 
ATOM     26  C   UNL     1      15.526 -11.368  21.202  1.00  0.00     0.004 C 
ENDBRANCH  24  25
ENDBRANCH  23  24
ENDBRANCH  22  23
ENDBRANCH  21  22
ENDBRANCH  20  21
ENDBRANCH  19  20
ENDBRANCH  18  19
ENDBRANCH  17  18
ENDBRANCH  16  17
ENDBRANCH  15  16
ENDBRANCH   1  15
TORSDOF 22
ENDMDL
MODEL 9
REMARK VINA RESULT:    -5.476      3.805      8.255
REMARK INTER + INTRA:         -15.202
REMARK INTER:                 -11.980
REMARK INTRA:                  -3.222
REMARK UNBOUND:                -2.683
REMARK SMILES CCCCCCCCCCCCCCCCCCCCCCCC(=O)[O-]
REMARK SMILES IDX 13 1 14 2 15 3 16 4 17 5 18 6 19 7 20 8 21 9 22 10 23 11
REMARK SMILES IDX 24 12 25 13 26 14 12 15 11 16 10 17 9 18 8 19 7 20 6 21 5 22
REMARK SMILES IDX 4 23 3 24 2 25 1 26
REMARK H PARENT
REMARK Flexibility Score: inf
ROOT
ATOM      1  C   UNL     1      14.990 -15.194  24.642  1.00  0.00     0.000 C 
ENDROOT
BRANCH   1   2
ATOM      2  C   UNL     1      15.468 -14.383  23.423  1.00  0.00     0.000 C 
BRANCH   2   3
ATOM      3  C   UNL     1      15.483 -12.869  23.689  1.00  0.00     0.000 C 
BRANCH   3   4
ATOM      4  C   UNL     1      14.074 -12.250  23.664  1.00  0.00     0.000 C 
BRANCH   4   5
ATOM      5  C   UNL     1      13.586 -11.846  25.065  1.00  0.00     0.000 C 
BRANCH   5   6
ATOM      6  C   UNL     1      12.412 -12.715  25.549  1.00  0.00     0.000 C 
BRANCH   6   7
ATOM      7  C   UNL     1      11.378 -12.989  24.443  1.00  0.00     0.000 C 
BRANCH   7   8
ATOM      8  C   UNL     1      10.258 -11.937  24.323  1.00  0.00     0.000 C 
BRANCH   8   9
ATOM      9  C   UNL     1       8.965 -12.263  25.097  1.00  0.00     0.000 C 
BRANCH   9  10
ATOM     10  C   UNL     1       8.967 -11.838  26.576  1.00  0.00     0.006 C 
BRANCH  10  11
ATOM     11  C   UNL     1       8.901 -13.030  27.540  1.00  0.00     0.053 C 
BRANCH  11  12
ATOM     12  C   UNL     1       9.056 -12.566  28.954  1.00  0.00     0.041 C 
ATOM     13  O   UNL     1       8.209 -11.783  29.460  1.00  0.00    -0.550 OA
ATOM     14  O   UNL     1      10.167 -12.953  29.696  1.00  0.00    -0.550 OA
ENDBRANCH  11  12
ENDBRANCH  10  11
ENDBRANCH   9  10
ENDBRANCH   8   9
ENDBRANCH   7   8
ENDBRANCH   6   7
ENDBRANCH   5   6
ENDBRANCH   4   5
ENDBRANCH   3   4
ENDBRANCH   2   3
ENDBRANCH   1   2
BRANCH   1  15
ATOM     15  C   UNL     1      15.963 -15.108  25.830  1.00  0.00     0.000 C 
BRANCH  15  16
ATOM     16  C   UNL     1      15.313 -14.497  27.083  1.00  0.00     0.000 C 
BRANCH  16  17
ATOM     17  C   UNL     1      16.313 -13.715  27.953  1.00  0.00     0.000 C 
BRANCH  17  18
ATOM     18  C   UNL     1      15.761 -12.420  28.585  1.00  0.00    -0.000 C 
BRANCH  18  19
ATOM     19  C   UNL     1      16.104 -11.124  27.828  1.00  0.00    -0.000 C 
BRANCH  19  20
ATOM     20  C   UNL     1      17.463 -11.130  27.102  1.00  0.00    -0.000 C 
BRANCH  20  21
ATOM     21  C   UNL     1      17.389 -10.675  25.629  1.00  0.00    -0.000 C 
BRANCH  21  22
ATOM     22  C   UNL     1      18.476 -11.318  24.750  1.00  0.00    -0.000 C 
BRANCH  22  23
ATOM     23  C   UNL     1      19.050 -12.605  25.383  1.00  0.00    -0.000 C 
BRANCH  23  24
ATOM     24  C   UNL     1      20.439 -12.987  24.844  1.00  0.00    -0.000 C 
BRANCH  24  25
ATOM     25  C   UNL     1      21.567 -12.146  25.457  1.00  0.00    -0.003 C 
ATOM     26  C   UNL     1      22.468 -13.002  26.344  1.00  0.00     0.004 C 
ENDBRANCH  24  25
ENDBRANCH  23  24
ENDBRANCH  22  23
ENDBRANCH  21  22
ENDBRANCH  20  21
ENDBRANCH  19  20
ENDBRANCH  18  19
ENDBRANCH  17  18
ENDBRANCH  16  17
ENDBRANCH  15  16
ENDBRANCH   1  15
TORSDOF 22
ENDMDL
