MODEL 1
REMARK VINA RESULT:    -4.138      0.000      0.000
REMARK INTER + INTRA:         -10.968
REMARK INTER:                  -9.460
REMARK INTRA:                  -1.508
REMARK UNBOUND:                -1.508
REMARK SMILES CCCCCCCCCCCCCCCCCCCCCCCC(=O)[O-]
REMARK SMILES IDX 13 1 14 2 15 3 16 4 17 5 18 6 19 7 20 8 21 9 22 10 23 11
REMARK SMILES IDX 24 12 25 13 26 14 12 15 11 16 10 17 9 18 8 19 7 20 6 21 5 22
REMARK SMILES IDX 4 23 3 24 2 25 1 26
REMARK H PARENT
REMARK Flexibility Score: inf
ROOT
ATOM      1  C   UNL     1       0.403  16.031  21.632  1.00  0.00     0.000 C 
ENDROOT
BRANCH   1   2
ATOM      2  C   UNL     1       1.446  16.034  22.768  1.00  0.00     0.000 C 
BRANCH   2   3
ATOM      3  C   UNL     1       2.878  16.243  22.240  1.00  0.00     0.000 C 
BRANCH   3   4
ATOM      4  C   UNL     1       3.922  15.439  23.030  1.00  0.00     0.000 C 
BRANCH   4   5
ATOM      5  C   UNL     1       5.269  15.340  22.299  1.00  0.00     0.000 C 
BRANCH   5   6
ATOM      6  C   UNL     1       6.389  15.984  23.125  1.00  0.00     0.000 C 
BRANCH   6   7
ATOM      7  C   UNL     1       7.733  15.904  22.386  1.00  0.00     0.000 C 
BRANCH   7   8
ATOM      8  C   UNL     1       7.751  16.748  21.102  1.00  0.00     0.000 C 
BRANCH   8   9
ATOM      9  C   UNL     1       9.079  17.500  20.907  1.00  0.00     0.000 C 
BRANCH   9  10
ATOM     10  C   UNL     1       9.996  16.827  19.870  1.00  0.00     0.006 C 
BRANCH  10  11
ATOM     11  C   UNL     1      11.067  15.908  20.480  1.00  0.00     0.053 C 
BRANCH  11  12
ATOM     12  C   UNL     1      10.611  14.483  20.547  1.00  0.00     0.041 C 
ATOM     13  O   UNL     1      10.534  13.791  19.497  1.00  0.00    -0.550 OA
ATOM     14  O   UNL     1      10.298  13.911  21.773  1.00  0.00    -0.550 OA
ENDBRANCH  11  12
ENDBRANCH  10  11
ENDBRANCH   9  10
ENDBRANCH   8   9
ENDBRANCH   7   8
ENDBRANCH   6   7
ENDBRANCH   5   6
ENDBRANCH   4   5
ENDBRANCH   3   4
ENDBRANCH   2   3
ENDBRANCH   1   2
BRANCH   1  15
ATOM     15  C   UNL     1      -1.057  15.979  22.123  1.00  0.00     0.000 C 
BRANCH  15  16
ATOM     16  C   UNL     1      -1.971  17.065  21.515  1.00  0.00     0.000 C 
BRANCH  16  17
ATOM     17  C   UNL     1      -3.037  17.634  22.475  1.00  0.00     0.000 C 
BRANCH  17  18
ATOM     18  C   UNL     1      -4.500  17.511  22.002  1.00  0.00    -0.000 C 
BRANCH  18  19
ATOM     19  C   UNL     1      -5.192  16.232  22.499  1.00  0.00    -0.000 C 
BRANCH  19  20
ATOM     20  C   UNL     1      -5.484  15.228  21.367  1.00  0.00    -0.000 C 
BRANCH  20  21
ATOM     21  C   UNL     1      -6.957  14.789  21.238  1.00  0.00    -0.000 C 
BRANCH  21  22
ATOM     22  C   UNL     1      -7.884  15.270  22.370  1.00  0.00    -0.000 C 
BRANCH  22  23
ATOM     23  C   UNL     1      -8.947  16.303  21.943  1.00  0.00    -0.000 C 
BRANCH  23  24
ATOM     24  C   UNL     1      -8.610  17.767  22.292  1.00  0.00    -0.000 C 
BRANCH  24  25
ATOM     25  C   UNL     1      -8.577  18.729  21.091  1.00  0.00    -0.003 C 
ATOM     26  C   UNL     1      -8.308  18.017  19.765  1.00  0.00     0.004 C 
ENDBRANCH  24  25
ENDBRANCH  23  24
ENDBRANCH  22  23
ENDBRANCH  21  22
ENDBRANCH  20  21
ENDBRANCH  19  20
ENDBRANCH  18  19
ENDBRANCH  17  18
ENDBRANCH  16  17
ENDBRANCH  15  16
ENDBRANCH   1  15
TORSDOF 22
ENDMDL
MODEL 2
REMARK VINA RESULT:    -4.101      1.217      2.397
REMARK INTER + INTRA:         -10.883
REMARK INTER:                  -9.703
REMARK INTRA:                  -1.180
REMARK UNBOUND:                -1.508
REMARK SMILES CCCCCCCCCCCCCCCCCCCCCCCC(=O)[O-]
REMARK SMILES IDX 13 1 14 2 15 3 16 4 17 5 18 6 19 7 20 8 21 9 22 10 23 11
REMARK SMILES IDX 24 12 25 13 26 14 12 15 11 16 10 17 9 18 8 19 7 20 6 21 5 22
REMARK SMILES IDX 4 23 3 24 2 25 1 26
REMARK H PARENT
REMARK Flexibility Score: inf
ROOT
ATOM      1  C   UNL     1       2.918  16.118  22.404  1.00  0.00     0.000 C 
ENDROOT
BRANCH   1   2
ATOM      2  C   UNL     1       3.919  15.073  22.935  1.00  0.00     0.000 C 
BRANCH   2   3
ATOM      3  C   UNL     1       5.353  15.627  23.008  1.00  0.00     0.000 C 
BRANCH   3   4
ATOM      4  C   UNL     1       5.917  15.991  21.625  1.00  0.00     0.000 C 
BRANCH   4   5
ATOM      5  C   UNL     1       7.337  15.451  21.405  1.00  0.00     0.000 C 
BRANCH   5   6
ATOM      6  C   UNL     1       8.380  16.369  22.053  1.00  0.00     0.000 C 
BRANCH   6   7
ATOM      7  C   UNL     1       8.861  17.440  21.064  1.00  0.00     0.000 C 
BRANCH   7   8
ATOM      8  C   UNL     1       9.537  16.837  19.823  1.00  0.00     0.000 C 
BRANCH   8   9
ATOM      9  C   UNL     1      10.781  16.004  20.173  1.00  0.00     0.000 C 
BRANCH   9  10
ATOM     10  C   UNL     1      10.929  14.755  19.286  1.00  0.00     0.006 C 
BRANCH  10  11
ATOM     11  C   UNL     1      10.272  13.490  19.864  1.00  0.00     0.053 C 
BRANCH  11  12
ATOM     12  C   UNL     1      10.627  12.266  19.078  1.00  0.00     0.041 C 
ATOM     13  O   UNL     1      10.747  12.328  17.826  1.00  0.00    -0.550 OA
ATOM     14  O   UNL     1      10.855  11.062  19.732  1.00  0.00    -0.550 OA
ENDBRANCH  11  12
ENDBRANCH  10  11
ENDBRANCH   9  10
ENDBRANCH   8   9
ENDBRANCH   7   8
ENDBRANCH   6   7
ENDBRANCH   5   6
ENDBRANCH   4   5
ENDBRANCH   3   4
ENDBRANCH   2   3
ENDBRANCH   1   2
BRANCH   1  15
ATOM     15  C   UNL     1       1.552  16.097  23.120  1.00  0.00     0.000 C 
BRANCH  15  16
ATOM     16  C   UNL     1       0.338  16.001  22.170  1.00  0.00     0.000 C 
BRANCH  16  17
ATOM     17  C   UNL     1      -0.957  16.655  22.697  1.00  0.00     0.000 C 
BRANCH  17  18
ATOM     18  C   UNL     1      -1.985  17.064  21.624  1.00  0.00    -0.000 C 
BRANCH  18  19
ATOM     19  C   UNL     1      -3.194  16.117  21.551  1.00  0.00    -0.000 C 
BRANCH  19  20
ATOM     20  C   UNL     1      -4.008  16.080  22.857  1.00  0.00    -0.000 C 
BRANCH  20  21
ATOM     21  C   UNL     1      -5.533  15.927  22.681  1.00  0.00    -0.000 C 
BRANCH  21  22
ATOM     22  C   UNL     1      -5.969  14.892  21.627  1.00  0.00    -0.000 C 
BRANCH  22  23
ATOM     23  C   UNL     1      -7.480  14.876  21.319  1.00  0.00    -0.000 C 
BRANCH  23  24
ATOM     24  C   UNL     1      -8.174  16.251  21.389  1.00  0.00    -0.000 C 
BRANCH  24  25
ATOM     25  C   UNL     1      -7.999  17.130  20.138  1.00  0.00    -0.003 C 
ATOM     26  C   UNL     1      -8.900  18.364  20.146  1.00  0.00     0.004 C 
ENDBRANCH  24  25
ENDBRANCH  23  24
ENDBRANCH  22  23
ENDBRANCH  21  22
ENDBRANCH  20  21
ENDBRANCH  19  20
ENDBRANCH  18  19
ENDBRANCH  17  18
ENDBRANCH  16  17
ENDBRANCH  15  16
ENDBRANCH   1  15
TORSDOF 22
ENDMDL
MODEL 3
REMARK VINA RESULT:    -4.098      5.589     14.496
REMARK INTER + INTRA:         -10.876
REMARK INTER:                  -9.811
REMARK INTRA:                  -1.065
REMARK UNBOUND:                -1.508
REMARK SMILES CCCCCCCCCCCCCCCCCCCCCCCC(=O)[O-]
REMARK SMILES IDX 13 1 14 2 15 3 16 4 17 5 18 6 19 7 20 8 21 9 22 10 23 11
REMARK SMILES IDX 24 12 25 13 26 14 12 15 11 16 10 17 9 18 8 19 7 20 6 21 5 22
REMARK SMILES IDX 4 23 3 24 2 25 1 26
REMARK H PARENT
REMARK Flexibility Score: inf
ROOT
ATOM      1  C   UNL     1       3.019  16.013  22.060  1.00  0.00     0.000 C 
ENDROOT
BRANCH   1   2
ATOM      2  C   UNL     1       1.633  16.341  22.651  1.00  0.00     0.000 C 
BRANCH   2   3
ATOM      3  C   UNL     1       0.497  16.084  21.644  1.00  0.00     0.000 C 
BRANCH   3   4
ATOM      4  C   UNL     1      -0.895  16.161  22.290  1.00  0.00     0.000 C 
BRANCH   4   5
ATOM      5  C   UNL     1      -1.807  17.190  21.607  1.00  0.00     0.000 C 
BRANCH   5   6
ATOM      6  C   UNL     1      -2.853  17.733  22.589  1.00  0.00     0.000 C 
BRANCH   6   7
ATOM      7  C   UNL     1      -4.275  17.391  22.122  1.00  0.00     0.000 C 
BRANCH   7   8
ATOM      8  C   UNL     1      -4.391  15.956  21.585  1.00  0.00     0.000 C 
BRANCH   8   9
ATOM      9  C   UNL     1      -5.561  15.181  22.217  1.00  0.00     0.000 C 
BRANCH   9  10
ATOM     10  C   UNL     1      -6.713  14.935  21.226  1.00  0.00     0.006 C 
BRANCH  10  11
ATOM     11  C   UNL     1      -7.453  16.210  20.791  1.00  0.00     0.053 C 
BRANCH  11  12
ATOM     12  C   UNL     1      -8.561  16.564  21.734  1.00  0.00     0.041 C 
ATOM     13  O   UNL     1      -9.080  15.678  22.464  1.00  0.00    -0.550 OA
ATOM     14  O   UNL     1      -9.001  17.878  21.827  1.00  0.00    -0.550 OA
ENDBRANCH  11  12
ENDBRANCH  10  11
ENDBRANCH   9  10
ENDBRANCH   8   9
ENDBRANCH   7   8
ENDBRANCH   6   7
ENDBRANCH   5   6
ENDBRANCH   4   5
ENDBRANCH   3   4
ENDBRANCH   2   3
ENDBRANCH   1   2
BRANCH   1  15
ATOM     15  C   UNL     1       4.021  15.452  23.089  1.00  0.00     0.000 C 
BRANCH  15  16
ATOM     16  C   UNL     1       5.503  15.618  22.688  1.00  0.00     0.000 C 
BRANCH  16  17
ATOM     17  C   UNL     1       6.212  14.318  22.252  1.00  0.00     0.000 C 
BRANCH  17  18
ATOM     18  C   UNL     1       7.520  14.502  21.457  1.00  0.00    -0.000 C 
BRANCH  18  19
ATOM     19  C   UNL     1       8.442  15.580  22.049  1.00  0.00    -0.000 C 
BRANCH  19  20
ATOM     20  C   UNL     1       8.517  16.850  21.181  1.00  0.00    -0.000 C 
BRANCH  20  21
ATOM     21  C   UNL     1       9.705  16.909  20.199  1.00  0.00    -0.000 C 
BRANCH  21  22
ATOM     22  C   UNL     1      10.750  15.789  20.368  1.00  0.00    -0.000 C 
BRANCH  22  23
ATOM     23  C   UNL     1      11.000  14.940  19.105  1.00  0.00    -0.000 C 
BRANCH  23  24
ATOM     24  C   UNL     1      10.613  13.453  19.232  1.00  0.00    -0.000 C 
BRANCH  24  25
ATOM     25  C   UNL     1      10.926  12.593  17.995  1.00  0.00    -0.003 C 
ATOM     26  C   UNL     1      10.192  11.252  18.001  1.00  0.00     0.004 C 
ENDBRANCH  24  25
ENDBRANCH  23  24
ENDBRANCH  22  23
ENDBRANCH  21  22
ENDBRANCH  20  21
ENDBRANCH  19  20
ENDBRANCH  18  19
ENDBRANCH  17  18
ENDBRANCH  16  17
ENDBRANCH  15  16
ENDBRANCH   1  15
TORSDOF 22
ENDMDL
MODEL 4
REMARK VINA RESULT:    -4.086      5.636     14.097
REMARK INTER + INTRA:         -10.848
REMARK INTER:                  -9.249
REMARK INTRA:                  -1.599
REMARK UNBOUND:                -1.508
REMARK SMILES CCCCCCCCCCCCCCCCCCCCCCCC(=O)[O-]
REMARK SMILES IDX 13 1 14 2 15 3 16 4 17 5 18 6 19 7 20 8 21 9 22 10 23 11
REMARK SMILES IDX 24 12 25 13 26 14 12 15 11 16 10 17 9 18 8 19 7 20 6 21 5 22
REMARK SMILES IDX 4 23 3 24 2 25 1 26
REMARK H PARENT
REMARK Flexibility Score: inf
ROOT
ATOM      1  C   UNL     1       0.713  16.095  21.638  1.00  0.00     0.000 C 
ENDROOT
BRANCH   1   2
ATOM      2  C   UNL     1      -0.760  15.639  21.662  1.00  0.00     0.000 C 
BRANCH   2   3
ATOM      3  C   UNL     1      -1.731  16.797  21.369  1.00  0.00     0.000 C 
BRANCH   3   4
ATOM      4  C   UNL     1      -2.428  17.319  22.635  1.00  0.00     0.000 C 
BRANCH   4   5
ATOM      5  C   UNL     1      -3.959  17.244  22.541  1.00  0.00     0.000 C 
BRANCH   5   6
ATOM      6  C   UNL     1      -4.399  16.020  21.729  1.00  0.00     0.000 C 
BRANCH   6   7
ATOM      7  C   UNL     1      -5.593  15.319  22.394  1.00  0.00     0.000 C 
BRANCH   7   8
ATOM      8  C   UNL     1      -6.521  14.640  21.374  1.00  0.00     0.000 C 
BRANCH   8   9
ATOM      9  C   UNL     1      -7.974  15.133  21.478  1.00  0.00     0.000 C 
BRANCH   9  10
ATOM     10  C   UNL     1      -8.076  16.665  21.587  1.00  0.00     0.006 C 
BRANCH  10  11
ATOM     11  C   UNL     1      -8.047  17.396  20.234  1.00  0.00     0.053 C 
BRANCH  11  12
ATOM     12  C   UNL     1      -8.612  18.779  20.334  1.00  0.00     0.041 C 
ATOM     13  O   UNL     1      -8.658  19.368  21.446  1.00  0.00    -0.550 OA
ATOM     14  O   UNL     1      -9.062  19.430  19.192  1.00  0.00    -0.550 OA
ENDBRANCH  11  12
ENDBRANCH  10  11
ENDBRANCH   9  10
ENDBRANCH   8   9
ENDBRANCH   7   8
ENDBRANCH   6   7
ENDBRANCH   5   6
ENDBRANCH   4   5
ENDBRANCH   3   4
ENDBRANCH   2   3
ENDBRANCH   1   2
BRANCH   1  15
ATOM     15  C   UNL     1       1.497  15.747  22.919  1.00  0.00     0.000 C 
BRANCH  15  16
ATOM     16  C   UNL     1       2.903  16.381  22.995  1.00  0.00     0.000 C 
BRANCH  16  17
ATOM     17  C   UNL     1       3.672  16.431  21.658  1.00  0.00     0.000 C 
BRANCH  17  18
ATOM     18  C   UNL     1       5.191  16.184  21.748  1.00  0.00    -0.000 C 
BRANCH  18  19
ATOM     19  C   UNL     1       5.599  15.362  22.982  1.00  0.00    -0.000 C 
BRANCH  19  20
ATOM     20  C   UNL     1       7.067  14.898  22.937  1.00  0.00    -0.000 C 
BRANCH  20  21
ATOM     21  C   UNL     1       7.369  13.760  21.941  1.00  0.00    -0.000 C 
BRANCH  21  22
ATOM     22  C   UNL     1       8.681  13.915  21.148  1.00  0.00    -0.000 C 
BRANCH  22  23
ATOM     23  C   UNL     1       9.773  14.742  21.857  1.00  0.00    -0.000 C 
BRANCH  23  24
ATOM     24  C   UNL     1      10.584  15.676  20.936  1.00  0.00    -0.000 C 
BRANCH  24  25
ATOM     25  C   UNL     1       9.738  16.618  20.061  1.00  0.00    -0.003 C 
ATOM     26  C   UNL     1       8.874  17.576  20.880  1.00  0.00     0.004 C 
ENDBRANCH  24  25
ENDBRANCH  23  24
ENDBRANCH  22  23
ENDBRANCH  21  22
ENDBRANCH  20  21
ENDBRANCH  19  20
ENDBRANCH  18  19
ENDBRANCH  17  18
ENDBRANCH  16  17
ENDBRANCH  15  16
ENDBRANCH   1  15
TORSDOF 22
ENDMDL
MODEL 5
REMARK VINA RESULT:    -4.070      5.492     14.596
REMARK INTER + INTRA:         -10.813
REMARK INTER:                  -9.510
REMARK INTRA:                  -1.304
REMARK UNBOUND:                -1.508
REMARK SMILES CCCCCCCCCCCCCCCCCCCCCCCC(=O)[O-]
REMARK SMILES IDX 13 1 14 2 15 3 16 4 17 5 18 6 19 7 20 8 21 9 22 10 23 11
REMARK SMILES IDX 24 12 25 13 26 14 12 15 11 16 10 17 9 18 8 19 7 20 6 21 5 22
REMARK SMILES IDX 4 23 3 24 2 25 1 26
REMARK H PARENT
REMARK Flexibility Score: inf
ROOT
ATOM      1  C   UNL     1       1.212  15.979  21.648  1.00  0.00     0.000 C 
ENDROOT
BRANCH   1   2
ATOM      2  C   UNL     1      -0.116  16.206  22.397  1.00  0.00     0.000 C 
BRANCH   2   3
ATOM      3  C   UNL     1      -1.340  15.960  21.496  1.00  0.00     0.000 C 
BRANCH   3   4
ATOM      4  C   UNL     1      -2.519  16.887  21.833  1.00  0.00     0.000 C 
BRANCH   4   5
ATOM      5  C   UNL     1      -3.478  16.273  22.862  1.00  0.00     0.000 C 
BRANCH   5   6
ATOM      6  C   UNL     1      -4.933  16.384  22.390  1.00  0.00     0.000 C 
BRANCH   6   7
ATOM      7  C   UNL     1      -5.275  15.267  21.393  1.00  0.00     0.000 C 
BRANCH   7   8
ATOM      8  C   UNL     1      -6.754  14.856  21.452  1.00  0.00     0.000 C 
BRANCH   8   9
ATOM      9  C   UNL     1      -7.580  15.754  22.389  1.00  0.00     0.000 C 
BRANCH   9  10
ATOM     10  C   UNL     1      -8.776  16.414  21.678  1.00  0.00     0.006 C 
BRANCH  10  11
ATOM     11  C   UNL     1      -8.932  17.915  21.971  1.00  0.00     0.053 C 
BRANCH  11  12
ATOM     12  C   UNL     1      -8.671  18.752  20.757  1.00  0.00     0.041 C 
ATOM     13  O   UNL     1      -9.037  19.956  20.726  1.00  0.00    -0.550 OA
ATOM     14  O   UNL     1      -7.996  18.209  19.671  1.00  0.00    -0.550 OA
ENDBRANCH  11  12
ENDBRANCH  10  11
ENDBRANCH   9  10
ENDBRANCH   8   9
ENDBRANCH   7   8
ENDBRANCH   6   7
ENDBRANCH   5   6
ENDBRANCH   4   5
ENDBRANCH   3   4
ENDBRANCH   2   3
ENDBRANCH   1   2
BRANCH   1  15
ATOM     15  C   UNL     1       2.438  16.603  22.345  1.00  0.00     0.000 C 
BRANCH  15  16
ATOM     16  C   UNL     1       3.316  15.590  23.113  1.00  0.00     0.000 C 
BRANCH  16  17
ATOM     17  C   UNL     1       4.592  15.138  22.371  1.00  0.00     0.000 C 
BRANCH  17  18
ATOM     18  C   UNL     1       5.926  15.594  22.995  1.00  0.00    -0.000 C 
BRANCH  18  19
ATOM     19  C   UNL     1       7.151  15.218  22.145  1.00  0.00    -0.000 C 
BRANCH  19  20
ATOM     20  C   UNL     1       8.238  16.310  22.143  1.00  0.00    -0.000 C 
BRANCH  20  21
ATOM     21  C   UNL     1       8.333  17.144  20.849  1.00  0.00    -0.000 C 
BRANCH  21  22
ATOM     22  C   UNL     1       9.766  17.459  20.378  1.00  0.00    -0.000 C 
BRANCH  22  23
ATOM     23  C   UNL     1      10.780  16.314  20.575  1.00  0.00    -0.000 C 
BRANCH  23  24
ATOM     24  C   UNL     1      10.818  15.274  19.438  1.00  0.00    -0.000 C 
BRANCH  24  25
ATOM     25  C   UNL     1      10.995  13.816  19.898  1.00  0.00    -0.003 C 
ATOM     26  C   UNL     1       9.721  13.221  20.496  1.00  0.00     0.004 C 
ENDBRANCH  24  25
ENDBRANCH  23  24
ENDBRANCH  22  23
ENDBRANCH  21  22
ENDBRANCH  20  21
ENDBRANCH  19  20
ENDBRANCH  18  19
ENDBRANCH  17  18
ENDBRANCH  16  17
ENDBRANCH  15  16
ENDBRANCH   1  15
TORSDOF 22
ENDMDL
MODEL 6
REMARK VINA RESULT:    -3.597      1.318      2.292
REMARK INTER + INTRA:          -9.732
REMARK INTER:                  -8.324
REMARK INTRA:                  -1.408
REMARK UNBOUND:                -1.508
REMARK SMILES CCCCCCCCCCCCCCCCCCCCCCCC(=O)[O-]
REMARK SMILES IDX 13 1 14 2 15 3 16 4 17 5 18 6 19 7 20 8 21 9 22 10 23 11
REMARK SMILES IDX 24 12 25 13 26 14 12 15 11 16 10 17 9 18 8 19 7 20 6 21 5 22
REMARK SMILES IDX 4 23 3 24 2 25 1 26
REMARK H PARENT
REMARK Flexibility Score: inf
ROOT
ATOM      1  C   UNL     1      -1.029  17.092  21.650  1.00  0.00     0.000 C 
ENDROOT
BRANCH   1   2
ATOM      2  C   UNL     1      -0.051  16.286  22.528  1.00  0.00     0.000 C 
BRANCH   2   3
ATOM      3  C   UNL     1       1.198  15.840  21.746  1.00  0.00     0.000 C 
BRANCH   3   4
ATOM      4  C   UNL     1       2.493  16.453  22.301  1.00  0.00     0.000 C 
BRANCH   4   5
ATOM      5  C   UNL     1       3.316  15.452  23.125  1.00  0.00     0.000 C 
BRANCH   5   6
ATOM      6  C   UNL     1       4.662  15.163  22.452  1.00  0.00     0.000 C 
BRANCH   6   7
ATOM      7  C   UNL     1       5.784  16.002  23.082  1.00  0.00     0.000 C 
BRANCH   7   8
ATOM      8  C   UNL     1       7.173  15.633  22.539  1.00  0.00     0.000 C 
BRANCH   8   9
ATOM      9  C   UNL     1       7.163  14.324  21.730  1.00  0.00     0.000 C 
BRANCH   9  10
ATOM     10  C   UNL     1       8.557  13.945  21.198  1.00  0.00     0.006 C 
BRANCH  10  11
ATOM     11  C   UNL     1       9.636  15.013  21.438  1.00  0.00     0.053 C 
BRANCH  11  12
ATOM     12  C   UNL     1      10.013  15.723  20.175  1.00  0.00     0.041 C 
ATOM     13  O   UNL     1       9.671  16.921  19.993  1.00  0.00    -0.550 OA
ATOM     14  O   UNL     1      10.767  15.069  19.209  1.00  0.00    -0.550 OA
ENDBRANCH  11  12
ENDBRANCH  10  11
ENDBRANCH   9  10
ENDBRANCH   8   9
ENDBRANCH   7   8
ENDBRANCH   6   7
ENDBRANCH   5   6
ENDBRANCH   4   5
ENDBRANCH   3   4
ENDBRANCH   2   3
ENDBRANCH   1   2
BRANCH   1  15
ATOM     15  C   UNL     1      -2.153  17.789  22.443  1.00  0.00     0.000 C 
BRANCH  15  16
ATOM     16  C   UNL     1      -3.200  16.825  23.042  1.00  0.00     0.000 C 
BRANCH  16  17
ATOM     17  C   UNL     1      -3.956  15.960  22.012  1.00  0.00     0.000 C 
BRANCH  17  18
ATOM     18  C   UNL     1      -5.455  15.736  22.296  1.00  0.00    -0.000 C 
BRANCH  18  19
ATOM     19  C   UNL     1      -6.141  14.835  21.256  1.00  0.00    -0.000 C 
BRANCH  19  20
ATOM     20  C   UNL     1      -7.658  14.703  21.483  1.00  0.00    -0.000 C 
BRANCH  20  21
ATOM     21  C   UNL     1      -8.234  15.568  22.623  1.00  0.00    -0.000 C 
BRANCH  21  22
ATOM     22  C   UNL     1      -9.111  16.750  22.168  1.00  0.00    -0.000 C 
BRANCH  22  23
ATOM     23  C   UNL     1      -8.441  17.705  21.160  1.00  0.00    -0.000 C 
BRANCH  23  24
ATOM     24  C   UNL     1      -8.812  19.192  21.326  1.00  0.00    -0.000 C 
BRANCH  24  25
ATOM     25  C   UNL     1      -8.045  19.932  22.437  1.00  0.00    -0.003 C 
ATOM     26  C   UNL     1      -6.718  19.262  22.792  1.00  0.00     0.004 C 
ENDBRANCH  24  25
ENDBRANCH  23  24
ENDBRANCH  22  23
ENDBRANCH  21  22
ENDBRANCH  20  21
ENDBRANCH  19  20
ENDBRANCH  18  19
ENDBRANCH  17  18
ENDBRANCH  16  17
ENDBRANCH  15  16
ENDBRANCH   1  15
TORSDOF 22
ENDMDL
MODEL 7
REMARK VINA RESULT:    -3.593      2.290      4.554
REMARK INTER + INTRA:          -9.721
REMARK INTER:                  -8.676
REMARK INTRA:                  -1.046
REMARK UNBOUND:                -1.508
REMARK SMILES CCCCCCCCCCCCCCCCCCCCCCCC(=O)[O-]
REMARK SMILES IDX 13 1 14 2 15 3 16 4 17 5 18 6 19 7 20 8 21 9 22 10 23 11
REMARK SMILES IDX 24 12 25 13 26 14 12 15 11 16 10 17 9 18 8 19 7 20 6 21 5 22
REMARK SMILES IDX 4 23 3 24 2 25 1 26
REMARK H PARENT
REMARK Flexibility Score: inf
ROOT
ATOM      1  C   UNL     1       4.929  16.250  21.714  1.00  0.00     0.000 C 
ENDROOT
BRANCH   1   2
ATOM      2  C   UNL     1       5.680  16.242  23.061  1.00  0.00     0.000 C 
BRANCH   2   3
ATOM      3  C   UNL     1       7.206  16.320  22.874  1.00  0.00     0.000 C 
BRANCH   3   4
ATOM      4  C   UNL     1       7.708  15.432  21.724  1.00  0.00     0.000 C 
BRANCH   4   5
ATOM      5  C   UNL     1       8.881  16.062  20.960  1.00  0.00     0.000 C 
BRANCH   5   6
ATOM      6  C   UNL     1      10.202  15.368  21.315  1.00  0.00     0.000 C 
BRANCH   6   7
ATOM      7  C   UNL     1      11.125  15.283  20.090  1.00  0.00     0.000 C 
BRANCH   7   8
ATOM      8  C   UNL     1      10.553  14.387  18.981  1.00  0.00     0.000 C 
BRANCH   8   9
ATOM      9  C   UNL     1      10.590  12.894  19.349  1.00  0.00     0.000 C 
BRANCH   9  10
ATOM     10  C   UNL     1      10.843  11.987  18.131  1.00  0.00     0.006 C 
BRANCH  10  11
ATOM     11  C   UNL     1       9.660  11.074  17.769  1.00  0.00     0.053 C 
BRANCH  11  12
ATOM     12  C   UNL     1       9.854   9.679  18.278  1.00  0.00     0.041 C 
ATOM     13  O   UNL     1      10.537   9.472  19.317  1.00  0.00    -0.550 OA
ATOM     14  O   UNL     1       9.257   8.611  17.623  1.00  0.00    -0.550 OA
ENDBRANCH  11  12
ENDBRANCH  10  11
ENDBRANCH   9  10
ENDBRANCH   8   9
ENDBRANCH   7   8
ENDBRANCH   6   7
ENDBRANCH   5   6
ENDBRANCH   4   5
ENDBRANCH   3   4
ENDBRANCH   2   3
ENDBRANCH   1   2
BRANCH   1  15
ATOM     15  C   UNL     1       3.422  16.550  21.839  1.00  0.00     0.000 C 
BRANCH  15  16
ATOM     16  C   UNL     1       2.758  15.951  23.099  1.00  0.00     0.000 C 
BRANCH  16  17
ATOM     17  C   UNL     1       1.217  16.031  23.125  1.00  0.00     0.000 C 
BRANCH  17  18
ATOM     18  C   UNL     1       0.539  16.337  21.774  1.00  0.00    -0.000 C 
BRANCH  18  19
ATOM     19  C   UNL     1      -0.450  15.247  21.332  1.00  0.00    -0.000 C 
BRANCH  19  20
ATOM     20  C   UNL     1      -1.866  15.792  21.064  1.00  0.00    -0.000 C 
BRANCH  20  21
ATOM     21  C   UNL     1      -2.664  16.201  22.319  1.00  0.00    -0.000 C 
BRANCH  21  22
ATOM     22  C   UNL     1      -4.137  16.576  22.064  1.00  0.00    -0.000 C 
BRANCH  22  23
ATOM     23  C   UNL     1      -5.161  15.507  22.497  1.00  0.00    -0.000 C 
BRANCH  23  24
ATOM     24  C   UNL     1      -6.121  15.037  21.387  1.00  0.00    -0.000 C 
BRANCH  24  25
ATOM     25  C   UNL     1      -7.178  16.073  20.962  1.00  0.00    -0.003 C 
ATOM     26  C   UNL     1      -8.324  16.201  21.965  1.00  0.00     0.004 C 
ENDBRANCH  24  25
ENDBRANCH  23  24
ENDBRANCH  22  23
ENDBRANCH  21  22
ENDBRANCH  20  21
ENDBRANCH  19  20
ENDBRANCH  18  19
ENDBRANCH  17  18
ENDBRANCH  16  17
ENDBRANCH  15  16
ENDBRANCH   1  15
TORSDOF 22
ENDMDL
MODEL 8
REMARK VINA RESULT:    -3.506      5.927     14.444
REMARK INTER + INTRA:          -9.524
REMARK INTER:                  -8.332
REMARK INTRA:                  -1.192
REMARK UNBOUND:                -1.508
REMARK SMILES CCCCCCCCCCCCCCCCCCCCCCCC(=O)[O-]
REMARK SMILES IDX 13 1 14 2 15 3 16 4 17 5 18 6 19 7 20 8 21 9 22 10 23 11
REMARK SMILES IDX 24 12 25 13 26 14 12 15 11 16 10 17 9 18 8 19 7 20 6 21 5 22
REMARK SMILES IDX 4 23 3 24 2 25 1 26
REMARK H PARENT
REMARK Flexibility Score: inf
ROOT
ATOM      1  C   UNL     1      -2.338  16.367  21.621  1.00  0.00     0.000 C 
ENDROOT
BRANCH   1   2
ATOM      2  C   UNL     1      -3.409  17.366  22.103  1.00  0.00     0.000 C 
BRANCH   2   3
ATOM      3  C   UNL     1      -4.742  16.672  22.436  1.00  0.00     0.000 C 
BRANCH   3   4
ATOM      4  C   UNL     1      -4.930  15.354  21.670  1.00  0.00     0.000 C 
BRANCH   4   5
ATOM      5  C   UNL     1      -6.262  15.298  20.908  1.00  0.00     0.000 C 
BRANCH   5   6
ATOM      6  C   UNL     1      -7.439  15.118  21.874  1.00  0.00     0.000 C 
BRANCH   6   7
ATOM      7  C   UNL     1      -8.515  16.188  21.635  1.00  0.00     0.000 C 
BRANCH   7   8
ATOM      8  C   UNL     1      -8.448  17.332  22.659  1.00  0.00     0.000 C 
BRANCH   8   9
ATOM      9  C   UNL     1      -7.844  18.618  22.071  1.00  0.00     0.000 C 
BRANCH   9  10
ATOM     10  C   UNL     1      -8.906  19.542  21.448  1.00  0.00     0.006 C 
BRANCH  10  11
ATOM     11  C   UNL     1      -9.014  20.920  22.121  1.00  0.00     0.053 C 
BRANCH  11  12
ATOM     12  C   UNL     1      -8.811  22.037  21.145  1.00  0.00     0.041 C 
ATOM     13  O   UNL     1      -8.857  21.814  19.906  1.00  0.00    -0.550 OA
ATOM     14  O   UNL     1      -8.599  23.331  21.604  1.00  0.00    -0.550 OA
ENDBRANCH  11  12
ENDBRANCH  10  11
ENDBRANCH   9  10
ENDBRANCH   8   9
ENDBRANCH   7   8
ENDBRANCH   6   7
ENDBRANCH   5   6
ENDBRANCH   4   5
ENDBRANCH   3   4
ENDBRANCH   2   3
ENDBRANCH   1   2
BRANCH   1  15
ATOM     15  C   UNL     1      -1.063  16.350  22.487  1.00  0.00     0.000 C 
BRANCH  15  16
ATOM     16  C   UNL     1       0.216  15.933  21.728  1.00  0.00     0.000 C 
BRANCH  16  17
ATOM     17  C   UNL     1       1.501  16.671  22.158  1.00  0.00     0.000 C 
BRANCH  17  18
ATOM     18  C   UNL     1       2.769  15.800  22.268  1.00  0.00    -0.000 C 
BRANCH  18  19
ATOM     19  C   UNL     1       4.001  16.439  21.607  1.00  0.00    -0.000 C 
BRANCH  19  20
ATOM     20  C   UNL     1       5.326  16.016  22.270  1.00  0.00    -0.000 C 
BRANCH  20  21
ATOM     21  C   UNL     1       5.722  14.539  22.070  1.00  0.00    -0.000 C 
BRANCH  21  22
ATOM     22  C   UNL     1       7.234  14.251  22.148  1.00  0.00    -0.000 C 
BRANCH  22  23
ATOM     23  C   UNL     1       8.140  15.423  21.717  1.00  0.00    -0.000 C 
BRANCH  23  24
ATOM     24  C   UNL     1       9.315  15.034  20.798  1.00  0.00    -0.000 C 
BRANCH  24  25
ATOM     25  C   UNL     1      10.274  16.186  20.449  1.00  0.00    -0.003 C 
ATOM     26  C   UNL     1       9.588  17.552  20.446  1.00  0.00     0.004 C 
ENDBRANCH  24  25
ENDBRANCH  23  24
ENDBRANCH  22  23
ENDBRANCH  21  22
ENDBRANCH  20  21
ENDBRANCH  19  20
ENDBRANCH  18  19
ENDBRANCH  17  18
ENDBRANCH  16  17
ENDBRANCH  15  16
ENDBRANCH   1  15
TORSDOF 22
ENDMDL
MODEL 9
REMARK VINA RESULT:    -3.470      5.376     14.359
REMARK INTER + INTRA:          -9.440
REMARK INTER:                  -8.315
REMARK INTRA:                  -1.126
REMARK UNBOUND:                -1.508
REMARK SMILES CCCCCCCCCCCCCCCCCCCCCCCC(=O)[O-]
REMARK SMILES IDX 13 1 14 2 15 3 16 4 17 5 18 6 19 7 20 8 21 9 22 10 23 11
REMARK SMILES IDX 24 12 25 13 26 14 12 15 11 16 10 17 9 18 8 19 7 20 6 21 5 22
REMARK SMILES IDX 4 23 3 24 2 25 1 26
REMARK H PARENT
REMARK Flexibility Score: inf
ROOT
ATOM      1  C   UNL     1       4.865  15.967  21.814  1.00  0.00     0.000 C 
ENDROOT
BRANCH   1   2
ATOM      2  C   UNL     1       3.650  16.904  21.970  1.00  0.00     0.000 C 
BRANCH   2   3
ATOM      3  C   UNL     1       2.319  16.175  21.711  1.00  0.00     0.000 C 
BRANCH   3   4
ATOM      4  C   UNL     1       1.482  16.000  22.988  1.00  0.00     0.000 C 
BRANCH   4   5
ATOM      5  C   UNL     1       0.042  16.507  22.826  1.00  0.00     0.000 C 
BRANCH   5   6
ATOM      6  C   UNL     1      -0.705  15.703  21.755  1.00  0.00     0.000 C 
BRANCH   6   7
ATOM      7  C   UNL     1      -1.944  16.465  21.260  1.00  0.00     0.000 C 
BRANCH   7   8
ATOM      8  C   UNL     1      -3.250  15.920  21.858  1.00  0.00     0.000 C 
BRANCH   8   9
ATOM      9  C   UNL     1      -4.054  16.998  22.605  1.00  0.00     0.000 C 
BRANCH   9  10
ATOM     10  C   UNL     1      -5.446  17.233  21.992  1.00  0.00     0.006 C 
BRANCH  10  11
ATOM     11  C   UNL     1      -6.102  15.967  21.415  1.00  0.00     0.053 C 
BRANCH  11  12
ATOM     12  C   UNL     1      -7.529  15.831  21.846  1.00  0.00     0.041 C 
ATOM     13  O   UNL     1      -8.150  16.824  22.310  1.00  0.00    -0.550 OA
ATOM     14  O   UNL     1      -8.183  14.613  21.708  1.00  0.00    -0.550 OA
ENDBRANCH  11  12
ENDBRANCH  10  11
ENDBRANCH   9  10
ENDBRANCH   8   9
ENDBRANCH   7   8
ENDBRANCH   6   7
ENDBRANCH   5   6
ENDBRANCH   4   5
ENDBRANCH   3   4
ENDBRANCH   2   3
ENDBRANCH   1   2
BRANCH   1  15
ATOM     15  C   UNL     1       5.648  15.734  23.121  1.00  0.00     0.000 C 
BRANCH  15  16
ATOM     16  C   UNL     1       7.183  15.824  22.968  1.00  0.00     0.000 C 
BRANCH  16  17
ATOM     17  C   UNL     1       7.685  15.996  21.519  1.00  0.00     0.000 C 
BRANCH  17  18
ATOM     18  C   UNL     1       8.532  17.256  21.249  1.00  0.00    -0.000 C 
BRANCH  18  19
ATOM     19  C   UNL     1       9.481  17.103  20.049  1.00  0.00    -0.000 C 
BRANCH  19  20
ATOM     20  C   UNL     1      10.903  16.676  20.458  1.00  0.00    -0.000 C 
BRANCH  20  21
ATOM     21  C   UNL     1      10.994  15.354  21.247  1.00  0.00    -0.000 C 
BRANCH  21  22
ATOM     22  C   UNL     1      10.617  14.089  20.452  1.00  0.00    -0.000 C 
BRANCH  22  23
ATOM     23  C   UNL     1      11.019  14.116  18.963  1.00  0.00    -0.000 C 
BRANCH  23  24
ATOM     24  C   UNL     1      11.107  12.733  18.287  1.00  0.00    -0.000 C 
BRANCH  24  25
ATOM     25  C   UNL     1      10.742  11.544  19.194  1.00  0.00    -0.003 C 
ATOM     26  C   UNL     1      10.533  10.245  18.416  1.00  0.00     0.004 C 
ENDBRANCH  24  25
ENDBRANCH  23  24
ENDBRANCH  22  23
ENDBRANCH  21  22
ENDBRANCH  20  21
ENDBRANCH  19  20
ENDBRANCH  18  19
ENDBRANCH  17  18
ENDBRANCH  16  17
ENDBRANCH  15  16
ENDBRANCH   1  15
TORSDOF 22
ENDMDL
