MODEL 1
REMARK VINA RESULT:    -4.027      0.000      0.000
REMARK INTER + INTRA:          -4.204
REMARK INTER:                  -4.968
REMARK INTRA:                   0.764
REMARK UNBOUND:                 0.764
REMARK SMILES CC1=CC=CC(C)(C)CC1=O
REMARK SMILES IDX 1 1 2 2 3 3 10 4 11 5 9 6 4 8 5 9 6 10 7 11 8 12
REMARK H PARENT
REMARK Flexibility Score: 80.00
ROOT
ATOM      1  C   UNL     1      10.893 -29.308  22.164  1.00  0.00     0.048 C 
ATOM      2  C   UNL     1      12.206 -30.049  22.077  1.00  0.00    -0.008 C 
ATOM      3  C   UNL     1      12.336 -30.978  21.106  1.00  0.00     0.007 C 
ENDROOT
BRANCH   2   4
ATOM      4  C   UNL     1      13.223 -29.747  23.116  1.00  0.00     0.159 C 
ATOM      5  O   UNL     1      12.884 -29.057  24.116  1.00  0.00    -0.295 OA
BRANCH   4   6
ATOM      6  C   UNL     1      14.645 -30.208  23.038  1.00  0.00     0.091 CG0
ATOM      7  G   UNL     1      14.786 -31.745  22.969  1.00  0.00     0.000 G0
ENDBRANCH   4   6
ENDBRANCH   2   4
BRANCH   3   8
ATOM      8  C   UNL     1      13.477 -31.870  20.790  1.00  0.00    -0.003 C 
ATOM      9  C   UNL     1      14.515 -32.218  21.561  1.00  0.00    -0.020 C 
BRANCH   9  10
ATOM     10  C   UNL     1      14.787 -31.743  22.968  1.00  0.00    -0.010 CG0
ATOM     11  C   UNL     1      13.853 -32.472  23.962  1.00  0.00     0.016 C 
ATOM     12  C   UNL     1      16.245 -32.107  23.330  1.00  0.00     0.016 C 
ATOM     13  G   UNL     1      14.644 -30.205  23.036  1.00  0.00     0.000 G0
ENDBRANCH   9  10
ENDBRANCH   3   8
TORSDOF 0
ENDMDL
MODEL 2
REMARK VINA RESULT:    -3.741      1.550      3.342
REMARK INTER + INTRA:          -3.853
REMARK INTER:                  -4.608
REMARK INTRA:                   0.755
REMARK UNBOUND:                 0.764
REMARK SMILES CC1=CC=CC(C)(C)CC1=O
REMARK SMILES IDX 1 1 2 2 3 3 10 4 11 5 9 6 4 8 5 9 6 10 7 11 8 12
REMARK H PARENT
REMARK Flexibility Score: 80.00
ROOT
ATOM      1  C   UNL     1      15.042 -32.930  21.059  1.00  0.00     0.048 C 
ATOM      2  C   UNL     1      14.110 -31.939  21.715  1.00  0.00    -0.008 C 
ATOM      3  C   UNL     1      13.024 -31.545  21.015  1.00  0.00     0.007 C 
ENDROOT
BRANCH   2   4
ATOM      4  C   UNL     1      14.503 -31.421  23.049  1.00  0.00     0.159 C 
ATOM      5  O   UNL     1      15.663 -31.669  23.480  1.00  0.00    -0.295 OA
BRANCH   4   6
ATOM      6  C   UNL     1      13.590 -30.623  23.927  1.00  0.00     0.091 CG0
ATOM      7  G   UNL     1      13.096 -29.316  23.267  1.00  0.00     0.000 G0
ENDBRANCH   4   6
ENDBRANCH   2   4
BRANCH   3   8
ATOM      8  C   UNL     1      11.958 -30.581  21.376  1.00  0.00    -0.003 C 
ATOM      9  C   UNL     1      11.968 -29.622  22.312  1.00  0.00    -0.020 C 
BRANCH   9  10
ATOM     10  C   UNL     1      13.096 -29.311  23.266  1.00  0.00    -0.010 CG0
ATOM     11  C   UNL     1      14.217 -28.544  22.526  1.00  0.00     0.016 C 
ATOM     12  C   UNL     1      12.549 -28.394  24.382  1.00  0.00     0.016 C 
ATOM     13  G   UNL     1      13.601 -30.618  23.919  1.00  0.00     0.000 G0
ENDBRANCH   9  10
ENDBRANCH   3   8
TORSDOF 0
ENDMDL
MODEL 3
REMARK VINA RESULT:    -3.634      1.988      2.420
REMARK INTER + INTRA:          -3.720
REMARK INTER:                  -4.479
REMARK INTRA:                   0.759
REMARK UNBOUND:                 0.764
REMARK SMILES CC1=CC=CC(C)(C)CC1=O
REMARK SMILES IDX 1 1 2 2 3 3 10 4 11 5 9 6 4 8 5 9 6 10 7 11 8 12
REMARK H PARENT
REMARK Flexibility Score: 80.00
ROOT
ATOM      1  C   UNL     1      14.213 -28.626  22.715  1.00  0.00     0.048 C 
ATOM      2  C   UNL     1      14.489 -29.966  22.075  1.00  0.00    -0.008 C 
ATOM      3  C   UNL     1      13.488 -30.541  21.373  1.00  0.00     0.007 C 
ENDROOT
BRANCH   2   4
ATOM      4  C   UNL     1      15.816 -30.578  22.331  1.00  0.00     0.159 C 
ATOM      5  O   UNL     1      16.556 -30.075  23.221  1.00  0.00    -0.295 OA
BRANCH   4   6
ATOM      6  C   UNL     1      16.340 -31.762  21.578  1.00  0.00     0.091 CG0
ATOM      7  G   UNL     1      15.451 -33.018  21.723  1.00  0.00     0.000 G0
ENDBRANCH   4   6
ENDBRANCH   2   4
BRANCH   3   8
ATOM      8  C   UNL     1      13.449 -31.842  20.664  1.00  0.00    -0.003 C 
ATOM      9  C   UNL     1      14.250 -32.905  20.807  1.00  0.00    -0.020 C 
BRANCH   9  10
ATOM     10  C   UNL     1      15.437 -33.017  21.733  1.00  0.00    -0.010 CG0
ATOM     11  C   UNL     1      14.954 -33.235  23.186  1.00  0.00     0.016 C 
ATOM     12  C   UNL     1      16.264 -34.253  21.315  1.00  0.00     0.016 C 
ATOM     13  G   UNL     1      16.333 -31.766  21.586  1.00  0.00     0.000 G0
ENDBRANCH   9  10
ENDBRANCH   3   8
TORSDOF 0
ENDMDL
MODEL 4
REMARK VINA RESULT:    -3.623      9.778     10.996
REMARK INTER + INTRA:          -3.706
REMARK INTER:                  -4.461
REMARK INTRA:                   0.755
REMARK UNBOUND:                 0.764
REMARK SMILES CC1=CC=CC(C)(C)CC1=O
REMARK SMILES IDX 1 1 2 2 3 3 10 4 11 5 9 6 4 8 5 9 6 10 7 11 8 12
REMARK H PARENT
REMARK Flexibility Score: 80.00
ROOT
ATOM      1  C   UNL     1      24.142 -22.473  21.183  1.00  0.00     0.048 C 
ATOM      2  C   UNL     1      23.247 -23.680  21.336  1.00  0.00    -0.008 C 
ATOM      3  C   UNL     1      22.810 -23.981  22.578  1.00  0.00     0.007 C 
ENDROOT
BRANCH   2   4
ATOM      4  C   UNL     1      22.980 -24.482  20.116  1.00  0.00     0.159 C 
ATOM      5  O   UNL     1      23.647 -24.243  19.073  1.00  0.00    -0.295 OA
BRANCH   4   6
ATOM      6  C   UNL     1      21.943 -25.561  20.047  1.00  0.00     0.091 CG0
ATOM      7  G   UNL     1      22.177 -26.697  21.069  1.00  0.00     0.000 G0
ENDBRANCH   4   6
ENDBRANCH   2   4
BRANCH   3   8
ATOM      8  C   UNL     1      21.954 -25.099  23.040  1.00  0.00    -0.003 C 
ATOM      9  C   UNL     1      21.679 -26.260  22.430  1.00  0.00    -0.020 C 
BRANCH   9  10
ATOM     10  C   UNL     1      22.172 -26.698  21.072  1.00  0.00    -0.010 CG0
ATOM     11  C   UNL     1      23.649 -27.145  21.165  1.00  0.00     0.016 C 
ATOM     12  C   UNL     1      21.333 -27.916  20.622  1.00  0.00     0.016 C 
ATOM     13  G   UNL     1      21.957 -25.561  20.048  1.00  0.00     0.000 G0
ENDBRANCH   9  10
ENDBRANCH   3   8
TORSDOF 0
ENDMDL
MODEL 5
REMARK VINA RESULT:    -3.612      1.532      2.418
REMARK INTER + INTRA:          -3.692
REMARK INTER:                  -4.465
REMARK INTRA:                   0.773
REMARK UNBOUND:                 0.764
REMARK SMILES CC1=CC=CC(C)(C)CC1=O
REMARK SMILES IDX 1 1 2 2 3 3 10 4 11 5 9 6 4 8 5 9 6 10 7 11 8 12
REMARK H PARENT
REMARK Flexibility Score: 80.00
ROOT
ATOM      1  C   UNL     1      13.050 -27.505  24.178  1.00  0.00     0.048 C 
ATOM      2  C   UNL     1      12.935 -28.583  23.126  1.00  0.00    -0.008 C 
ATOM      3  C   UNL     1      11.695 -28.949  22.739  1.00  0.00     0.007 C 
ENDROOT
BRANCH   2   4
ATOM      4  C   UNL     1      14.198 -29.206  22.658  1.00  0.00     0.159 C 
ATOM      5  O   UNL     1      15.267 -28.957  23.280  1.00  0.00    -0.295 OA
BRANCH   4   6
ATOM      6  C   UNL     1      14.280 -30.113  21.469  1.00  0.00     0.091 CG0
ATOM      7  G   UNL     1      13.387 -31.368  21.596  1.00  0.00     0.000 G0
ENDBRANCH   4   6
ENDBRANCH   2   4
BRANCH   3   8
ATOM      8  C   UNL     1      11.269 -29.979  21.762  1.00  0.00    -0.003 C 
ATOM      9  C   UNL     1      11.960 -31.018  21.275  1.00  0.00    -0.020 C 
BRANCH   9  10
ATOM     10  C   UNL     1      13.391 -31.374  21.598  1.00  0.00    -0.010 CG0
ATOM     11  C   UNL     1      13.471 -32.014  23.004  1.00  0.00     0.016 C 
ATOM     12  C   UNL     1      13.874 -32.422  20.570  1.00  0.00     0.016 C 
ATOM     13  G   UNL     1      14.284 -30.120  21.463  1.00  0.00     0.000 G0
ENDBRANCH   9  10
ENDBRANCH   3   8
TORSDOF 0
ENDMDL
MODEL 6
REMARK VINA RESULT:    -3.606      1.840      2.362
REMARK INTER + INTRA:          -3.686
REMARK INTER:                  -4.445
REMARK INTRA:                   0.759
REMARK UNBOUND:                 0.764
REMARK SMILES CC1=CC=CC(C)(C)CC1=O
REMARK SMILES IDX 1 1 2 2 3 3 10 4 11 5 9 6 4 8 5 9 6 10 7 11 8 12
REMARK H PARENT
REMARK Flexibility Score: 80.00
ROOT
ATOM      1  C   UNL     1      12.751 -29.031  23.767  1.00  0.00     0.048 C 
ATOM      2  C   UNL     1      13.661 -30.148  23.312  1.00  0.00    -0.008 C 
ATOM      3  C   UNL     1      13.512 -31.354  23.900  1.00  0.00     0.007 C 
ENDROOT
BRANCH   2   4
ATOM      4  C   UNL     1      14.697 -29.807  22.306  1.00  0.00     0.159 C 
ATOM      5  O   UNL     1      14.915 -28.591  22.045  1.00  0.00    -0.295 OA
BRANCH   4   6
ATOM      6  C   UNL     1      15.498 -30.832  21.566  1.00  0.00     0.091 CG0
ATOM      7  G   UNL     1      16.348 -31.729  22.494  1.00  0.00     0.000 G0
ENDBRANCH   4   6
ENDBRANCH   2   4
BRANCH   3   8
ATOM      8  C   UNL     1      14.262 -32.615  23.687  1.00  0.00    -0.003 C 
ATOM      9  C   UNL     1      15.458 -32.799  23.114  1.00  0.00    -0.020 C 
BRANCH   9  10
ATOM     10  C   UNL     1      16.336 -31.731  22.506  1.00  0.00    -0.010 CG0
ATOM     11  C   UNL     1      17.043 -30.930  23.624  1.00  0.00     0.016 C 
ATOM     12  C   UNL     1      17.424 -32.423  21.655  1.00  0.00     0.016 C 
ATOM     13  G   UNL     1      15.494 -30.832  21.572  1.00  0.00     0.000 G0
ENDBRANCH   9  10
ENDBRANCH   3   8
TORSDOF 0
ENDMDL
MODEL 7
REMARK VINA RESULT:    -3.556      3.248      4.939
REMARK INTER + INTRA:          -3.624
REMARK INTER:                  -4.383
REMARK INTRA:                   0.759
REMARK UNBOUND:                 0.764
REMARK SMILES CC1=CC=CC(C)(C)CC1=O
REMARK SMILES IDX 1 1 2 2 3 3 10 4 11 5 9 6 4 8 5 9 6 10 7 11 8 12
REMARK H PARENT
REMARK Flexibility Score: 80.00
ROOT
ATOM      1  C   UNL     1      17.986 -34.697  19.117  1.00  0.00     0.048 C 
ATOM      2  C   UNL     1      17.214 -33.676  19.920  1.00  0.00    -0.008 C 
ATOM      3  C   UNL     1      17.847 -32.528  20.244  1.00  0.00     0.007 C 
ENDROOT
BRANCH   2   4
ATOM      4  C   UNL     1      15.845 -34.052  20.352  1.00  0.00     0.159 C 
ATOM      5  O   UNL     1      15.473 -35.251  20.223  1.00  0.00    -0.295 OA
BRANCH   4   6
ATOM      6  C   UNL     1      14.863 -33.077  20.925  1.00  0.00     0.091 CG0
ATOM      7  G   UNL     1      15.365 -32.395  22.219  1.00  0.00     0.000 G0
ENDBRANCH   4   6
ENDBRANCH   2   4
BRANCH   3   8
ATOM      8  C   UNL     1      17.367 -31.368  21.033  1.00  0.00    -0.003 C 
ATOM      9  C   UNL     1      16.331 -31.292  21.877  1.00  0.00    -0.020 C 
BRANCH   9  10
ATOM     10  C   UNL     1      15.361 -32.401  22.210  1.00  0.00    -0.010 CG0
ATOM     11  C   UNL     1      16.020 -33.402  23.188  1.00  0.00     0.016 C 
ATOM     12  C   UNL     1      14.138 -31.778  22.919  1.00  0.00     0.016 C 
ATOM     13  G   UNL     1      14.872 -33.074  20.908  1.00  0.00     0.000 G0
ENDBRANCH   9  10
ENDBRANCH   3   8
TORSDOF 0
ENDMDL
MODEL 8
REMARK VINA RESULT:    -3.533      1.910      2.772
REMARK INTER + INTRA:          -3.595
REMARK INTER:                  -4.354
REMARK INTRA:                   0.759
REMARK UNBOUND:                 0.764
REMARK SMILES CC1=CC=CC(C)(C)CC1=O
REMARK SMILES IDX 1 1 2 2 3 3 10 4 11 5 9 6 4 8 5 9 6 10 7 11 8 12
REMARK H PARENT
REMARK Flexibility Score: 80.00
ROOT
ATOM      1  C   UNL     1      14.039 -28.798  23.153  1.00  0.00     0.048 C 
ATOM      2  C   UNL     1      14.931 -29.957  22.777  1.00  0.00    -0.008 C 
ATOM      3  C   UNL     1      15.913 -29.726  21.879  1.00  0.00     0.007 C 
ENDROOT
BRANCH   2   4
ATOM      4  C   UNL     1      14.608 -31.278  23.371  1.00  0.00     0.159 C 
ATOM      5  O   UNL     1      13.513 -31.419  23.982  1.00  0.00    -0.295 OA
BRANCH   4   6
ATOM      6  C   UNL     1      15.522 -32.462  23.299  1.00  0.00     0.091 CG0
ATOM      7  G   UNL     1      15.848 -32.894  21.851  1.00  0.00     0.000 G0
ENDBRANCH   4   6
ENDBRANCH   2   4
BRANCH   3   8
ATOM      8  C   UNL     1      16.914 -30.655  21.303  1.00  0.00    -0.003 C 
ATOM      9  C   UNL     1      16.900 -31.993  21.266  1.00  0.00    -0.020 C 
BRANCH   9  10
ATOM     10  C   UNL     1      15.838 -32.896  21.847  1.00  0.00    -0.010 CG0
ATOM     11  C   UNL     1      14.588 -32.895  20.936  1.00  0.00     0.016 C 
ATOM     12  C   UNL     1      16.396 -34.337  21.887  1.00  0.00     0.016 C 
ATOM     13  G   UNL     1      15.520 -32.462  23.295  1.00  0.00     0.000 G0
ENDBRANCH   9  10
ENDBRANCH   3   8
TORSDOF 0
ENDMDL
MODEL 9
REMARK VINA RESULT:    -3.447      2.681      3.945
REMARK INTER + INTRA:          -3.489
REMARK INTER:                  -4.243
REMARK INTRA:                   0.754
REMARK UNBOUND:                 0.764
REMARK SMILES CC1=CC=CC(C)(C)CC1=O
REMARK SMILES IDX 1 1 2 2 3 3 10 4 11 5 9 6 4 8 5 9 6 10 7 11 8 12
REMARK H PARENT
REMARK Flexibility Score: 80.00
ROOT
ATOM      1  C   UNL     1      13.039 -31.352  21.000  1.00  0.00     0.048 C 
ATOM      2  C   UNL     1      14.299 -31.944  21.586  1.00  0.00    -0.008 C 
ATOM      3  C   UNL     1      14.916 -31.253  22.568  1.00  0.00     0.007 C 
ENDROOT
BRANCH   2   4
ATOM      4  C   UNL     1      14.799 -33.204  20.980  1.00  0.00     0.159 C 
ATOM      5  O   UNL     1      14.276 -33.612  19.906  1.00  0.00    -0.295 OA
BRANCH   4   6
ATOM      6  C   UNL     1      15.889 -34.035  21.583  1.00  0.00     0.091 CG0
ATOM      7  G   UNL     1      17.219 -33.266  21.753  1.00  0.00     0.000 G0
ENDBRANCH   4   6
ENDBRANCH   2   4
BRANCH   3   8
ATOM      8  C   UNL     1      16.163 -31.560  23.308  1.00  0.00    -0.003 C 
ATOM      9  C   UNL     1      17.155 -32.398  22.979  1.00  0.00    -0.020 C 
BRANCH   9  10
ATOM     10  C   UNL     1      17.220 -33.274  21.751  1.00  0.00    -0.010 CG0
ATOM     11  C   UNL     1      17.590 -32.423  20.514  1.00  0.00     0.016 C 
ATOM     12  C   UNL     1      18.338 -34.320  21.961  1.00  0.00     0.016 C 
ATOM     13  G   UNL     1      15.882 -34.028  21.577  1.00  0.00     0.000 G0
ENDBRANCH   9  10
ENDBRANCH   3   8
TORSDOF 0
ENDMDL
