MODEL 1
REMARK VINA RESULT:    -5.316      0.000      0.000
REMARK INTER + INTRA:          -5.627
REMARK INTER:                  -5.627
REMARK INTRA:                   0.000
REMARK UNBOUND:                 0.000
REMARK SMILES O=c1ccc2cc(O)c(O)cc2o1
REMARK SMILES IDX 4 1 3 2 2 3 1 4 13 5 12 6 11 7 9 8 7 9 6 10 5 11 8 12 10 14
REMARK H PARENT 8 13 10 15
REMARK Flexibility Score: inf
ROOT
ATOM      1  C   UNL     1      -5.689 -25.253  33.631  1.00  0.00     0.019 A 
ATOM      2  C   UNL     1      -5.125 -23.980  33.574  1.00  0.00     0.094 A 
ATOM      3  C   UNL     1      -5.665 -22.962  34.368  1.00  0.00     0.336 A 
ATOM      4  O   UNL     1      -5.169 -21.807  34.331  1.00  0.00    -0.246 OA
ATOM      5  O   UNL     1      -6.702 -23.209  35.165  1.00  0.00    -0.423 OA
ATOM      6  C   UNL     1      -7.270 -24.409  35.249  1.00  0.00     0.142 A 
ATOM      7  C   UNL     1      -8.358 -24.609  36.104  1.00  0.00     0.098 A 
ATOM      8  C   UNL     1      -8.961 -25.869  36.199  1.00  0.00     0.161 A 
ATOM      9  C   UNL     1      -8.472 -26.942  35.431  1.00  0.00     0.158 A 
ATOM     10  C   UNL     1      -7.381 -26.746  34.571  1.00  0.00     0.062 A 
ATOM     11  C   UNL     1      -6.778 -25.484  34.478  1.00  0.00     0.022 A 
ENDROOT
BRANCH   9  12
ATOM     12  O   UNL     1      -9.072 -28.196  35.523  1.00  0.00    -0.504 OA
ATOM     13  H   UNL     1      -8.717 -28.910  36.148  1.00  0.00     0.293 HD
ENDBRANCH   9  12
BRANCH   8  14
ATOM     14  O   UNL     1     -10.045 -26.036  37.061  1.00  0.00    -0.504 OA
ATOM     15  H   UNL     1     -10.900 -25.504  36.960  1.00  0.00     0.293 HD
ENDBRANCH   8  14
TORSDOF 2
ENDMDL
MODEL 2
REMARK VINA RESULT:    -5.163      1.464      2.670
REMARK INTER + INTRA:          -5.465
REMARK INTER:                  -5.465
REMARK INTRA:                   0.000
REMARK UNBOUND:                 0.000
REMARK SMILES O=c1ccc2cc(O)c(O)cc2o1
REMARK SMILES IDX 4 1 3 2 2 3 1 4 13 5 12 6 11 7 9 8 7 9 6 10 5 11 8 12 10 14
REMARK H PARENT 8 13 10 15
REMARK Flexibility Score: inf
ROOT
ATOM      1  C   UNL     1      -8.101 -24.168  37.125  1.00  0.00     0.019 A 
ATOM      2  C   UNL     1      -7.276 -23.051  37.000  1.00  0.00     0.094 A 
ATOM      3  C   UNL     1      -6.387 -22.980  35.923  1.00  0.00     0.336 A 
ATOM      4  O   UNL     1      -5.635 -21.980  35.793  1.00  0.00    -0.246 OA
ATOM      5  O   UNL     1      -6.332 -23.966  35.030  1.00  0.00    -0.423 OA
ATOM      6  C   UNL     1      -7.102 -25.048  35.111  1.00  0.00     0.142 A 
ATOM      7  C   UNL     1      -7.000 -26.053  34.144  1.00  0.00     0.098 A 
ATOM      8  C   UNL     1      -7.805 -27.195  34.222  1.00  0.00     0.161 A 
ATOM      9  C   UNL     1      -8.724 -27.336  35.278  1.00  0.00     0.158 A 
ATOM     10  C   UNL     1      -8.830 -26.332  36.252  1.00  0.00     0.062 A 
ATOM     11  C   UNL     1      -8.022 -25.188  36.172  1.00  0.00     0.022 A 
ENDROOT
BRANCH   9  12
ATOM     12  O   UNL     1      -9.526 -28.473  35.358  1.00  0.00    -0.504 OA
ATOM     13  H   UNL     1      -9.147 -29.373  35.626  1.00  0.00     0.293 HD
ENDBRANCH   9  12
BRANCH   8  14
ATOM     14  O   UNL     1      -7.680 -28.179  33.241  1.00  0.00    -0.504 OA
ATOM     15  H   UNL     1      -7.862 -27.990  32.263  1.00  0.00     0.293 HD
ENDBRANCH   8  14
TORSDOF 2
ENDMDL
MODEL 3
REMARK VINA RESULT:    -4.993      2.170      4.930
REMARK INTER + INTRA:          -5.285
REMARK INTER:                  -5.285
REMARK INTRA:                   0.000
REMARK UNBOUND:                 0.000
REMARK SMILES O=c1ccc2cc(O)c(O)cc2o1
REMARK SMILES IDX 4 1 3 2 2 3 1 4 13 5 12 6 11 7 9 8 7 9 6 10 5 11 8 12 10 14
REMARK H PARENT 8 13 10 15
REMARK Flexibility Score: inf
ROOT
ATOM      1  C   UNL     1      -6.100 -26.339  36.147  1.00  0.00     0.019 A 
ATOM      2  C   UNL     1      -6.806 -27.280  35.399  1.00  0.00     0.094 A 
ATOM      3  C   UNL     1      -7.135 -26.985  34.072  1.00  0.00     0.336 A 
ATOM      4  O   UNL     1      -7.772 -27.822  33.382  1.00  0.00    -0.246 OA
ATOM      5  O   UNL     1      -6.778 -25.822  33.533  1.00  0.00    -0.423 OA
ATOM      6  C   UNL     1      -6.104 -24.897  34.210  1.00  0.00     0.142 A 
ATOM      7  C   UNL     1      -5.756 -23.692  33.591  1.00  0.00     0.098 A 
ATOM      8  C   UNL     1      -5.046 -22.713  34.297  1.00  0.00     0.161 A 
ATOM      9  C   UNL     1      -4.680 -22.939  35.636  1.00  0.00     0.158 A 
ATOM     10  C   UNL     1      -5.027 -24.146  36.262  1.00  0.00     0.062 A 
ATOM     11  C   UNL     1      -5.737 -25.125  35.554  1.00  0.00     0.022 A 
ENDROOT
BRANCH   9  12
ATOM     12  O   UNL     1      -3.974 -21.965  36.340  1.00  0.00    -0.504 OA
ATOM     13  H   UNL     1      -3.028 -22.126  36.666  1.00  0.00     0.293 HD
ENDBRANCH   9  12
BRANCH   8  14
ATOM     14  O   UNL     1      -4.714 -21.522  33.651  1.00  0.00    -0.504 OA
ATOM     15  H   UNL     1      -4.088 -20.842  34.065  1.00  0.00     0.293 HD
ENDBRANCH   8  14
TORSDOF 2
ENDMDL
MODEL 4
REMARK VINA RESULT:    -4.920      3.394      4.240
REMARK INTER + INTRA:          -5.208
REMARK INTER:                  -5.208
REMARK INTRA:                   0.000
REMARK UNBOUND:                 0.000
REMARK SMILES O=c1ccc2cc(O)c(O)cc2o1
REMARK SMILES IDX 4 1 3 2 2 3 1 4 13 5 12 6 11 7 9 8 7 9 6 10 5 11 8 12 10 14
REMARK H PARENT 8 13 10 15
REMARK Flexibility Score: inf
ROOT
ATOM      1  C   UNL     1      -6.984 -23.909  32.218  1.00  0.00     0.019 A 
ATOM      2  C   UNL     1      -5.783 -24.546  32.522  1.00  0.00     0.094 A 
ATOM      3  C   UNL     1      -5.105 -24.194  33.694  1.00  0.00     0.336 A 
ATOM      4  O   UNL     1      -4.019 -24.759  33.986  1.00  0.00    -0.246 OA
ATOM      5  O   UNL     1      -5.603 -23.264  34.506  1.00  0.00    -0.423 OA
ATOM      6  C   UNL     1      -6.746 -22.632  34.253  1.00  0.00     0.142 A 
ATOM      7  C   UNL     1      -7.220 -21.663  35.143  1.00  0.00     0.098 A 
ATOM      8  C   UNL     1      -8.422 -20.993  34.885  1.00  0.00     0.161 A 
ATOM      9  C   UNL     1      -9.159 -21.295  33.725  1.00  0.00     0.158 A 
ATOM     10  C   UNL     1      -8.688 -22.266  32.829  1.00  0.00     0.062 A 
ATOM     11  C   UNL     1      -7.484 -22.936  33.089  1.00  0.00     0.022 A 
ENDROOT
BRANCH   9  12
ATOM     12  O   UNL     1     -10.356 -20.628  33.467  1.00  0.00    -0.504 OA
ATOM     13  H   UNL     1     -10.938 -20.272  34.216  1.00  0.00     0.293 HD
ENDBRANCH   9  12
BRANCH   8  14
ATOM     14  O   UNL     1      -8.869 -20.032  35.792  1.00  0.00    -0.504 OA
ATOM     15  H   UNL     1      -8.696 -19.044  35.657  1.00  0.00     0.293 HD
ENDBRANCH   8  14
TORSDOF 2
ENDMDL
MODEL 5
REMARK VINA RESULT:    -4.904      1.921      4.294
REMARK INTER + INTRA:          -5.191
REMARK INTER:                  -5.191
REMARK INTRA:                   0.000
REMARK UNBOUND:                 0.000
REMARK SMILES O=c1ccc2cc(O)c(O)cc2o1
REMARK SMILES IDX 4 1 3 2 2 3 1 4 13 5 12 6 11 7 9 8 7 9 6 10 5 11 8 12 10 14
REMARK H PARENT 8 13 10 15
REMARK Flexibility Score: inf
ROOT
ATOM      1  C   UNL     1      -5.471 -25.442  34.855  1.00  0.00     0.019 A 
ATOM      2  C   UNL     1      -5.837 -26.497  35.691  1.00  0.00     0.094 A 
ATOM      3  C   UNL     1      -7.082 -26.459  36.326  1.00  0.00     0.336 A 
ATOM      4  O   UNL     1      -7.430 -27.402  37.084  1.00  0.00    -0.246 OA
ATOM      5  O   UNL     1      -7.905 -25.431  36.134  1.00  0.00    -0.423 OA
ATOM      6  C   UNL     1      -7.596 -24.406  35.344  1.00  0.00     0.142 A 
ATOM      7  C   UNL     1      -8.502 -23.353  35.181  1.00  0.00     0.098 A 
ATOM      8  C   UNL     1      -8.184 -22.269  34.352  1.00  0.00     0.161 A 
ATOM      9  C   UNL     1      -6.949 -22.238  33.680  1.00  0.00     0.158 A 
ATOM     10  C   UNL     1      -6.037 -23.291  33.841  1.00  0.00     0.062 A 
ATOM     11  C   UNL     1      -6.357 -24.375  34.671  1.00  0.00     0.022 A 
ENDROOT
BRANCH   9  12
ATOM     12  O   UNL     1      -6.632 -21.159  32.855  1.00  0.00    -0.504 OA
ATOM     13  H   UNL     1      -7.184 -20.938  32.035  1.00  0.00     0.293 HD
ENDBRANCH   9  12
BRANCH   8  14
ATOM     14  O   UNL     1      -9.109 -21.234  34.209  1.00  0.00    -0.504 OA
ATOM     15  H   UNL     1      -9.995 -21.366  33.739  1.00  0.00     0.293 HD
ENDBRANCH   8  14
TORSDOF 2
ENDMDL
MODEL 6
REMARK VINA RESULT:    -4.892      1.454      1.988
REMARK INTER + INTRA:          -5.178
REMARK INTER:                  -5.178
REMARK INTRA:                   0.000
REMARK UNBOUND:                 0.000
REMARK SMILES O=c1ccc2cc(O)c(O)cc2o1
REMARK SMILES IDX 4 1 3 2 2 3 1 4 13 5 12 6 11 7 9 8 7 9 6 10 5 11 8 12 10 14
REMARK H PARENT 8 13 10 15
REMARK Flexibility Score: inf
ROOT
ATOM      1  C   UNL     1      -6.000 -23.716  34.244  1.00  0.00     0.019 A 
ATOM      2  C   UNL     1      -5.985 -22.643  35.133  1.00  0.00     0.094 A 
ATOM      3  C   UNL     1      -6.737 -22.725  36.310  1.00  0.00     0.336 A 
ATOM      4  O   UNL     1      -6.736 -21.767  37.125  1.00  0.00    -0.246 OA
ATOM      5  O   UNL     1      -7.455 -23.814  36.575  1.00  0.00    -0.423 OA
ATOM      6  C   UNL     1      -7.496 -24.861  35.754  1.00  0.00     0.142 A 
ATOM      7  C   UNL     1      -8.269 -25.978  36.085  1.00  0.00     0.098 A 
ATOM      8  C   UNL     1      -8.318 -27.084  35.227  1.00  0.00     0.161 A 
ATOM      9  C   UNL     1      -7.587 -27.073  34.025  1.00  0.00     0.158 A 
ATOM     10  C   UNL     1      -6.811 -25.954  33.688  1.00  0.00     0.062 A 
ATOM     11  C   UNL     1      -6.763 -24.848  34.549  1.00  0.00     0.022 A 
ENDROOT
BRANCH   9  12
ATOM     12  O   UNL     1      -7.636 -28.172  33.170  1.00  0.00    -0.504 OA
ATOM     13  H   UNL     1      -8.508 -28.644  32.961  1.00  0.00     0.293 HD
ENDBRANCH   9  12
BRANCH   8  14
ATOM     14  O   UNL     1      -9.098 -28.184  35.586  1.00  0.00    -0.504 OA
ATOM     15  H   UNL     1      -9.521 -28.791  34.895  1.00  0.00     0.293 HD
ENDBRANCH   8  14
TORSDOF 2
ENDMDL
MODEL 7
REMARK VINA RESULT:    -4.748      1.426      4.951
REMARK INTER + INTRA:          -5.026
REMARK INTER:                  -5.026
REMARK INTRA:                   0.000
REMARK UNBOUND:                 0.000
REMARK SMILES O=c1ccc2cc(O)c(O)cc2o1
REMARK SMILES IDX 4 1 3 2 2 3 1 4 13 5 12 6 11 7 9 8 7 9 6 10 5 11 8 12 10 14
REMARK H PARENT 8 13 10 15
REMARK Flexibility Score: inf
ROOT
ATOM      1  C   UNL     1      -8.891 -24.712  36.256  1.00  0.00     0.019 A 
ATOM      2  C   UNL     1      -9.010 -25.969  36.845  1.00  0.00     0.094 A 
ATOM      3  C   UNL     1      -8.025 -26.931  36.599  1.00  0.00     0.336 A 
ATOM      4  O   UNL     1      -8.115 -28.071  37.122  1.00  0.00    -0.246 OA
ATOM      5  O   UNL     1      -6.988 -26.646  35.814  1.00  0.00    -0.423 OA
ATOM      6  C   UNL     1      -6.836 -25.459  35.233  1.00  0.00     0.142 A 
ATOM      7  C   UNL     1      -5.726 -25.218  34.417  1.00  0.00     0.098 A 
ATOM      8  C   UNL     1      -5.558 -23.972  33.801  1.00  0.00     0.161 A 
ATOM      9  C   UNL     1      -6.509 -22.955  34.003  1.00  0.00     0.158 A 
ATOM     10  C   UNL     1      -7.624 -23.192  34.820  1.00  0.00     0.062 A 
ATOM     11  C   UNL     1      -7.791 -24.441  35.436  1.00  0.00     0.022 A 
ENDROOT
BRANCH   9  12
ATOM     12  O   UNL     1      -6.343 -21.714  33.390  1.00  0.00    -0.504 OA
ATOM     13  H   UNL     1      -6.890 -20.907  33.667  1.00  0.00     0.293 HD
ENDBRANCH   9  12
BRANCH   8  14
ATOM     14  O   UNL     1      -4.439 -23.762  32.994  1.00  0.00    -0.504 OA
ATOM     15  H   UNL     1      -3.692 -23.135  33.263  1.00  0.00     0.293 HD
ENDBRANCH   8  14
TORSDOF 2
ENDMDL
MODEL 8
REMARK VINA RESULT:    -4.649      3.250      4.654
REMARK INTER + INTRA:          -4.921
REMARK INTER:                  -4.921
REMARK INTRA:                   0.000
REMARK UNBOUND:                 0.000
REMARK SMILES O=c1ccc2cc(O)c(O)cc2o1
REMARK SMILES IDX 4 1 3 2 2 3 1 4 13 5 12 6 11 7 9 8 7 9 6 10 5 11 8 12 10 14
REMARK H PARENT 8 13 10 15
REMARK Flexibility Score: inf
ROOT
ATOM      1  C   UNL     1      -4.778 -23.425  34.298  1.00  0.00     0.019 A 
ATOM      2  C   UNL     1      -5.070 -24.354  33.301  1.00  0.00     0.094 A 
ATOM      3  C   UNL     1      -6.356 -24.381  32.753  1.00  0.00     0.336 A 
ATOM      4  O   UNL     1      -6.638 -25.212  31.852  1.00  0.00    -0.246 OA
ATOM      5  O   UNL     1      -7.287 -23.529  33.178  1.00  0.00    -0.423 OA
ATOM      6  C   UNL     1      -7.050 -22.626  34.126  1.00  0.00     0.142 A 
ATOM      7  C   UNL     1      -8.068 -21.757  34.533  1.00  0.00     0.098 A 
ATOM      8  C   UNL     1      -7.828 -20.805  35.530  1.00  0.00     0.161 A 
ATOM      9  C   UNL     1      -6.557 -20.719  36.128  1.00  0.00     0.158 A 
ATOM     10  C   UNL     1      -5.533 -21.588  35.724  1.00  0.00     0.062 A 
ATOM     11  C   UNL     1      -5.775 -22.542  34.725  1.00  0.00     0.022 A 
ENDROOT
BRANCH   9  12
ATOM     12  O   UNL     1      -6.317 -19.771  37.122  1.00  0.00    -0.504 OA
ATOM     13  H   UNL     1      -5.379 -19.566  37.444  1.00  0.00     0.293 HD
ENDBRANCH   9  12
BRANCH   8  14
ATOM     14  O   UNL     1      -8.863 -19.952  35.914  1.00  0.00    -0.504 OA
ATOM     15  H   UNL     1      -8.959 -19.018  35.535  1.00  0.00     0.293 HD
ENDBRANCH   8  14
TORSDOF 2
ENDMDL
MODEL 9
REMARK VINA RESULT:    -4.547      1.204      4.487
REMARK INTER + INTRA:          -4.813
REMARK INTER:                  -4.813
REMARK INTRA:                   0.000
REMARK UNBOUND:                 0.000
REMARK SMILES O=c1ccc2cc(O)c(O)cc2o1
REMARK SMILES IDX 4 1 3 2 2 3 1 4 13 5 12 6 11 7 9 8 7 9 6 10 5 11 8 12 10 14
REMARK H PARENT 8 13 10 15
REMARK Flexibility Score: inf
ROOT
ATOM      1  C   UNL     1      -6.982 -26.466  33.322  1.00  0.00     0.019 A 
ATOM      2  C   UNL     1      -7.793 -27.432  33.916  1.00  0.00     0.094 A 
ATOM      3  C   UNL     1      -8.325 -27.184  35.186  1.00  0.00     0.336 A 
ATOM      4  O   UNL     1      -9.060 -28.044  35.738  1.00  0.00    -0.246 OA
ATOM      5  O   UNL     1      -8.060 -26.042  35.815  1.00  0.00    -0.423 OA
ATOM      6  C   UNL     1      -7.292 -25.094  35.285  1.00  0.00     0.142 A 
ATOM      7  C   UNL     1      -7.049 -23.914  35.994  1.00  0.00     0.098 A 
ATOM      8  C   UNL     1      -6.241 -22.911  35.443  1.00  0.00     0.161 A 
ATOM      9  C   UNL     1      -5.672 -23.090  34.169  1.00  0.00     0.158 A 
ATOM     10  C   UNL     1      -5.912 -24.272  33.453  1.00  0.00     0.062 A 
ATOM     11  C   UNL     1      -6.721 -25.275  34.007  1.00  0.00     0.022 A 
ENDROOT
BRANCH   9  12
ATOM     12  O   UNL     1      -4.867 -22.093  33.619  1.00  0.00    -0.504 OA
ATOM     13  H   UNL     1      -4.844 -21.919  32.621  1.00  0.00     0.293 HD
ENDBRANCH   9  12
BRANCH   8  14
ATOM     14  O   UNL     1      -6.017 -21.745  36.175  1.00  0.00    -0.504 OA
ATOM     15  H   UNL     1      -6.616 -21.470  36.944  1.00  0.00     0.293 HD
ENDBRANCH   8  14
TORSDOF 2
ENDMDL
