MODEL 1
REMARK VINA RESULT:    -6.404      0.000      0.000
REMARK INTER + INTRA:         -10.527
REMARK INTER:                  -9.024
REMARK INTRA:                  -1.503
REMARK UNBOUND:                -1.503
REMARK SMILES COc1c(O[C@H]2O[C@@H](C(=O)[O-])[C@@H](O)[C@H](O)[C@@H]2O)cc(O)c2c(=O)cc(-c3ccccc3)oc12
REMARK SMILES IDX 5 1 6 2 8 3 12 4 7 5 14 6 16 7 9 8 10 9 11 10 13 11 15 13
REMARK SMILES IDX 17 15 4 17 3 18 18 19 33 20 19 21 21 22 32 23 22 24 25 25
REMARK SMILES IDX 24 26 23 27 2 28 1 29 20 30 26 32 27 33 31 34 28 35 30 36
REMARK SMILES IDX 29 37
REMARK H PARENT 13 12 15 14 17 16 20 31
REMARK Flexibility Score: inf
ROOT
ATOM      1  O   UNL     1      28.785  -4.379 -28.770  1.00  0.00    -0.458 OA
ENDROOT
BRANCH   1   2
ATOM      2  C   UNL     1      28.661  -5.165 -29.997  1.00  0.00     0.339 C 
ATOM      3  C   UNL     1      30.007  -6.085 -31.670  1.00  0.00     0.199 C 
ATOM      4  C   UNL     1      29.942  -7.532 -31.161  1.00  0.00     0.180 C 
ATOM      5  O   UNL     1      29.972  -5.229 -30.537  1.00  0.00    -0.328 OA
ATOM      6  C   UNL     1      28.419  -7.730 -30.768  1.00  0.00     0.181 C 
ATOM      7  C   UNL     1      28.032  -6.629 -29.701  1.00  0.00     0.214 C 
BRANCH   3   8
ATOM      8  C   UNL     1      31.220  -5.671 -32.474  1.00  0.00     0.073 C 
ATOM      9  O   UNL     1      32.258  -6.406 -32.399  1.00  0.00    -0.547 OA
ATOM     10  O   UNL     1      31.407  -4.333 -32.750  1.00  0.00    -0.547 OA
ENDBRANCH   3   8
BRANCH   4  11
ATOM     11  O   UNL     1      30.747  -7.635 -30.016  1.00  0.00    -0.387 OA
ATOM     12  H   UNL     1      31.659  -7.788 -30.350  1.00  0.00     0.211 HD
ENDBRANCH   4  11
BRANCH   6  13
ATOM     13  O   UNL     1      27.563  -7.739 -31.926  1.00  0.00    -0.387 OA
ATOM     14  H   UNL     1      27.800  -8.468 -32.581  1.00  0.00     0.211 HD
ENDBRANCH   6  13
BRANCH   7  15
ATOM     15  O   UNL     1      26.628  -6.593 -29.659  1.00  0.00    -0.384 OA
ATOM     16  H   UNL     1      26.308  -7.438 -30.098  1.00  0.00     0.211 HD
ENDBRANCH   7  15
ENDBRANCH   1   2
BRANCH   1  17
ATOM     17  C   UNL     1      27.841  -4.182 -27.684  1.00  0.00     0.172 A 
ATOM     18  C   UNL     1      27.891  -4.810 -26.403  1.00  0.00     0.205 A 
ATOM     19  C   UNL     1      26.544  -3.711 -27.981  1.00  0.00     0.097 A 
ATOM     20  C   UNL     1      26.848  -5.715 -26.104  1.00  0.00     0.188 A 
ATOM     21  C   UNL     1      25.392  -4.201 -27.294  1.00  0.00     0.134 A 
ATOM     22  C   UNL     1      25.528  -5.342 -26.482  1.00  0.00     0.111 A 
ATOM     23  O   UNL     1      27.059  -6.764 -25.326  1.00  0.00    -0.452 OA
ATOM     24  C   UNL     1      24.468  -6.156 -26.005  1.00  0.00     0.197 A 
ATOM     25  C   UNL     1      26.075  -7.571 -24.890  1.00  0.00     0.138 A 
ATOM     26  C   UNL     1      24.748  -7.313 -25.263  1.00  0.00     0.100 A 
ATOM     27  O   UNL     1      23.250  -5.873 -26.222  1.00  0.00    -0.289 OA
BRANCH  18  28
ATOM     28  O   UNL     1      28.531  -4.176 -25.271  1.00  0.00    -0.490 OA
ATOM     29  C   UNL     1      27.799  -3.424 -24.248  1.00  0.00     0.278 C 
ENDBRANCH  18  28
BRANCH  21  30
ATOM     30  O   UNL     1      24.223  -3.425 -27.204  1.00  0.00    -0.507 OA
ATOM     31  H   UNL     1      24.059  -3.177 -26.190  1.00  0.00     0.293 HD
ENDBRANCH  21  30
BRANCH  25  32
ATOM     32  C   UNL     1      26.438  -8.712 -24.019  1.00  0.00     0.017 A 
ATOM     33  C   UNL     1      25.528  -9.694 -23.565  1.00  0.00     0.012 A 
ATOM     34  C   UNL     1      27.817  -8.893 -23.733  1.00  0.00     0.012 A 
ATOM     35  C   UNL     1      25.970 -10.770 -22.796  1.00  0.00     0.001 A 
ATOM     36  C   UNL     1      28.255  -9.987 -22.985  1.00  0.00     0.001 A 
ATOM     37  C   UNL     1      27.336 -10.904 -22.495  1.00  0.00     0.000 A 
ENDBRANCH  25  32
ENDBRANCH   1  17
TORSDOF 9
ENDMDL
MODEL 2
REMARK VINA RESULT:    -6.212      3.400      6.914
REMARK INTER + INTRA:         -10.256
REMARK INTER:                  -8.480
REMARK INTRA:                  -1.776
REMARK UNBOUND:                -1.503
REMARK SMILES COc1c(O[C@H]2O[C@@H](C(=O)[O-])[C@@H](O)[C@H](O)[C@@H]2O)cc(O)c2c(=O)cc(-c3ccccc3)oc12
REMARK SMILES IDX 5 1 6 2 8 3 12 4 7 5 14 6 16 7 9 8 10 9 11 10 13 11 15 13
REMARK SMILES IDX 17 15 4 17 3 18 18 19 33 20 19 21 21 22 32 23 22 24 25 25
REMARK SMILES IDX 24 26 23 27 2 28 1 29 20 30 26 32 27 33 31 34 28 35 30 36
REMARK SMILES IDX 29 37
REMARK H PARENT 13 12 15 14 17 16 20 31
REMARK Flexibility Score: inf
ROOT
ATOM      1  O   UNL     1      33.375  -8.509 -27.480  1.00  0.00    -0.458 OA
ENDROOT
BRANCH   1   2
ATOM      2  C   UNL     1      32.942  -8.871 -26.129  1.00  0.00     0.339 C 
ATOM      3  C   UNL     1      32.269  -7.851 -24.139  1.00  0.00     0.199 C 
ATOM      4  C   UNL     1      30.768  -8.127 -24.308  1.00  0.00     0.180 C 
ATOM      5  O   UNL     1      32.816  -7.641 -25.433  1.00  0.00    -0.328 OA
ATOM      6  C   UNL     1      30.712  -9.623 -24.829  1.00  0.00     0.181 C 
ATOM      7  C   UNL     1      31.563  -9.721 -26.159  1.00  0.00     0.214 C 
BRANCH   3   8
ATOM      8  C   UNL     1      32.680  -6.655 -23.308  1.00  0.00     0.073 C 
ATOM      9  O   UNL     1      31.868  -5.675 -23.241  1.00  0.00    -0.547 OA
ATOM     10  O   UNL     1      34.023  -6.379 -23.161  1.00  0.00    -0.547 OA
ENDBRANCH   3   8
BRANCH   4  11
ATOM     11  O   UNL     1      30.267  -7.260 -25.292  1.00  0.00    -0.387 OA
ATOM     12  H   UNL     1      29.365  -7.013 -24.989  1.00  0.00     0.211 HD
ENDBRANCH   4  11
BRANCH   6  13
ATOM     13  O   UNL     1      31.117 -10.561 -23.814  1.00  0.00    -0.387 OA
ATOM     14  H   UNL     1      30.335 -10.987 -23.343  1.00  0.00     0.211 HD
ENDBRANCH   6  13
BRANCH   7  15
ATOM     15  O   UNL     1      31.798 -11.088 -26.380  1.00  0.00    -0.384 OA
ATOM     16  H   UNL     1      32.140 -11.462 -25.513  1.00  0.00     0.211 HD
ENDBRANCH   7  15
ENDBRANCH   1   2
BRANCH   1  17
ATOM     17  C   UNL     1      32.693  -7.745 -28.509  1.00  0.00     0.172 A 
ATOM     18  C   UNL     1      31.630  -6.816 -28.301  1.00  0.00     0.205 A 
ATOM     19  C   UNL     1      32.719  -8.214 -29.840  1.00  0.00     0.097 A 
ATOM     20  C   UNL     1      30.369  -7.173 -28.828  1.00  0.00     0.188 A 
ATOM     21  C   UNL     1      31.580  -8.109 -30.695  1.00  0.00     0.134 A 
ATOM     22  C   UNL     1      30.343  -7.755 -30.126  1.00  0.00     0.111 A 
ATOM     23  O   UNL     1      29.250  -6.794 -28.233  1.00  0.00    -0.452 OA
ATOM     24  C   UNL     1      29.070  -7.926 -30.729  1.00  0.00     0.197 A 
ATOM     25  C   UNL     1      28.029  -6.977 -28.768  1.00  0.00     0.138 A 
ATOM     26  C   UNL     1      27.905  -7.598 -30.020  1.00  0.00     0.100 A 
ATOM     27  O   UNL     1      28.937  -8.368 -31.911  1.00  0.00    -0.289 OA
BRANCH  18  28
ATOM     28  O   UNL     1      31.879  -5.399 -28.143  1.00  0.00    -0.490 OA
ATOM     29  C   UNL     1      31.985  -4.470 -29.270  1.00  0.00     0.278 C 
ENDBRANCH  18  28
BRANCH  21  30
ATOM     30  O   UNL     1      31.728  -8.089 -32.094  1.00  0.00    -0.507 OA
ATOM     31  H   UNL     1      31.123  -8.849 -32.509  1.00  0.00     0.293 HD
ENDBRANCH  21  30
BRANCH  25  32
ATOM     32  C   UNL     1      26.851  -6.505 -28.006  1.00  0.00     0.017 A 
ATOM     33  C   UNL     1      26.311  -7.162 -26.877  1.00  0.00     0.012 A 
ATOM     34  C   UNL     1      26.315  -5.239 -28.364  1.00  0.00     0.012 A 
ATOM     35  C   UNL     1      25.235  -6.613 -26.182  1.00  0.00     0.001 A 
ATOM     36  C   UNL     1      25.254  -4.683 -27.647  1.00  0.00     0.001 A 
ATOM     37  C   UNL     1      24.699  -5.377 -26.582  1.00  0.00     0.000 A 
ENDBRANCH  25  32
ENDBRANCH   1  17
TORSDOF 9
ENDMDL
MODEL 3
REMARK VINA RESULT:    -6.119      2.551      4.684
REMARK INTER + INTRA:         -10.126
REMARK INTER:                  -8.620
REMARK INTRA:                  -1.506
REMARK UNBOUND:                -1.503
REMARK SMILES COc1c(O[C@H]2O[C@@H](C(=O)[O-])[C@@H](O)[C@H](O)[C@@H]2O)cc(O)c2c(=O)cc(-c3ccccc3)oc12
REMARK SMILES IDX 5 1 6 2 8 3 12 4 7 5 14 6 16 7 9 8 10 9 11 10 13 11 15 13
REMARK SMILES IDX 17 15 4 17 3 18 18 19 33 20 19 21 21 22 32 23 22 24 25 25
REMARK SMILES IDX 24 26 23 27 2 28 1 29 20 30 26 32 27 33 31 34 28 35 30 36
REMARK SMILES IDX 29 37
REMARK H PARENT 13 12 15 14 17 16 20 31
REMARK Flexibility Score: inf
ROOT
ATOM      1  O   UNL     1      31.426  -7.318 -28.613  1.00  0.00    -0.458 OA
ENDROOT
BRANCH   1   2
ATOM      2  C   UNL     1      30.254  -7.793 -29.349  1.00  0.00     0.339 C 
ATOM      3  C   UNL     1      27.990  -7.288 -29.618  1.00  0.00     0.199 C 
ATOM      4  C   UNL     1      28.131  -6.609 -30.988  1.00  0.00     0.180 C 
ATOM      5  O   UNL     1      29.170  -7.010 -28.877  1.00  0.00    -0.328 OA
ATOM      6  C   UNL     1      29.129  -7.552 -31.779  1.00  0.00     0.181 C 
ATOM      7  C   UNL     1      30.471  -7.667 -30.950  1.00  0.00     0.214 C 
BRANCH   3   8
ATOM      8  C   UNL     1      26.831  -6.872 -28.738  1.00  0.00     0.073 C 
ATOM      9  O   UNL     1      26.474  -5.649 -28.769  1.00  0.00    -0.547 OA
ATOM     10  O   UNL     1      26.599  -7.572 -27.572  1.00  0.00    -0.547 OA
ENDBRANCH   3   8
BRANCH   4  11
ATOM     11  O   UNL     1      28.716  -5.347 -30.798  1.00  0.00    -0.387 OA
ATOM     12  H   UNL     1      28.135  -4.715 -31.277  1.00  0.00     0.211 HD
ENDBRANCH   4  11
BRANCH   6  13
ATOM     13  O   UNL     1      28.532  -8.825 -32.091  1.00  0.00    -0.387 OA
ATOM     14  H   UNL     1      27.570  -8.743 -32.381  1.00  0.00     0.211 HD
ENDBRANCH   6  13
BRANCH   7  15
ATOM     15  O   UNL     1      31.166  -8.771 -31.470  1.00  0.00    -0.384 OA
ATOM     16  H   UNL     1      31.001  -8.771 -32.460  1.00  0.00     0.211 HD
ENDBRANCH   7  15
ENDBRANCH   1   2
BRANCH   1  17
ATOM     17  C   UNL     1      31.665  -7.238 -27.183  1.00  0.00     0.172 A 
ATOM     18  C   UNL     1      31.193  -8.158 -26.199  1.00  0.00     0.205 A 
ATOM     19  C   UNL     1      31.987  -5.988 -26.611  1.00  0.00     0.097 A 
ATOM     20  C   UNL     1      30.244  -7.665 -25.277  1.00  0.00     0.188 A 
ATOM     21  C   UNL     1      31.484  -5.594 -25.335  1.00  0.00     0.134 A 
ATOM     22  C   UNL     1      30.458  -6.360 -24.751  1.00  0.00     0.111 A 
ATOM     23  O   UNL     1      29.312  -8.455 -24.770  1.00  0.00    -0.452 OA
ATOM     24  C   UNL     1      29.618  -5.952 -23.684  1.00  0.00     0.197 A 
ATOM     25  C   UNL     1      28.480  -8.079 -23.783  1.00  0.00     0.138 A 
ATOM     26  C   UNL     1      28.581  -6.788 -23.244  1.00  0.00     0.100 A 
ATOM     27  O   UNL     1      29.770  -4.839 -23.093  1.00  0.00    -0.289 OA
BRANCH  18  28
ATOM     28  O   UNL     1      32.004  -9.269 -25.748  1.00  0.00    -0.490 OA
ATOM     29  C   UNL     1      31.819 -10.645 -26.215  1.00  0.00     0.278 C 
ENDBRANCH  18  28
BRANCH  21  30
ATOM     30  O   UNL     1      32.164  -4.642 -24.555  1.00  0.00    -0.507 OA
ATOM     31  H   UNL     1      33.201  -4.736 -24.734  1.00  0.00     0.293 HD
ENDBRANCH  21  30
BRANCH  25  32
ATOM     32  C   UNL     1      27.481  -9.057 -23.296  1.00  0.00     0.017 A 
ATOM     33  C   UNL     1      26.127  -9.087 -23.700  1.00  0.00     0.012 A 
ATOM     34  C   UNL     1      27.957 -10.108 -22.467  1.00  0.00     0.012 A 
ATOM     35  C   UNL     1      25.270 -10.083 -23.236  1.00  0.00     0.001 A 
ATOM     36  C   UNL     1      27.098 -11.117 -22.028  1.00  0.00     0.001 A 
ATOM     37  C   UNL     1      25.757 -11.090 -22.386  1.00  0.00     0.000 A 
ENDBRANCH  25  32
ENDBRANCH   1  17
TORSDOF 9
ENDMDL
MODEL 4
REMARK VINA RESULT:    -6.103      1.706      2.711
REMARK INTER + INTRA:         -10.104
REMARK INTER:                  -8.948
REMARK INTRA:                  -1.155
REMARK UNBOUND:                -1.503
REMARK SMILES COc1c(O[C@H]2O[C@@H](C(=O)[O-])[C@@H](O)[C@H](O)[C@@H]2O)cc(O)c2c(=O)cc(-c3ccccc3)oc12
REMARK SMILES IDX 5 1 6 2 8 3 12 4 7 5 14 6 16 7 9 8 10 9 11 10 13 11 15 13
REMARK SMILES IDX 17 15 4 17 3 18 18 19 33 20 19 21 21 22 32 23 22 24 25 25
REMARK SMILES IDX 24 26 23 27 2 28 1 29 20 30 26 32 27 33 31 34 28 35 30 36
REMARK SMILES IDX 29 37
REMARK H PARENT 13 12 15 14 17 16 20 31
REMARK Flexibility Score: inf
ROOT
ATOM      1  O   UNL     1      28.867  -6.893 -30.459  1.00  0.00    -0.458 OA
ENDROOT
BRANCH   1   2
ATOM      2  C   UNL     1      30.029  -6.832 -31.347  1.00  0.00     0.339 C 
ATOM      3  C   UNL     1      31.800  -5.403 -31.872  1.00  0.00     0.199 C 
ATOM      4  C   UNL     1      32.877  -6.181 -31.102  1.00  0.00     0.180 C 
ATOM      5  O   UNL     1      30.580  -5.538 -31.157  1.00  0.00    -0.328 OA
ATOM      6  C   UNL     1      32.573  -7.697 -31.448  1.00  0.00     0.181 C 
ATOM      7  C   UNL     1      31.084  -8.018 -31.022  1.00  0.00     0.214 C 
BRANCH   3   8
ATOM      8  C   UNL     1      32.008  -3.918 -32.074  1.00  0.00     0.073 C 
ATOM      9  O   UNL     1      32.625  -3.545 -33.125  1.00  0.00    -0.547 OA
ATOM     10  O   UNL     1      32.093  -3.102 -30.965  1.00  0.00    -0.547 OA
ENDBRANCH   3   8
BRANCH   4  11
ATOM     11  O   UNL     1      32.688  -5.958 -29.729  1.00  0.00    -0.387 OA
ATOM     12  H   UNL     1      32.420  -5.015 -29.651  1.00  0.00     0.211 HD
ENDBRANCH   4  11
BRANCH   6  13
ATOM     13  O   UNL     1      32.856  -8.000 -32.828  1.00  0.00    -0.387 OA
ATOM     14  H   UNL     1      32.155  -7.641 -33.458  1.00  0.00     0.211 HD
ENDBRANCH   6  13
BRANCH   7  15
ATOM     15  O   UNL     1      30.735  -9.216 -31.666  1.00  0.00    -0.384 OA
ATOM     16  H   UNL     1      30.363  -9.823 -30.958  1.00  0.00     0.211 HD
ENDBRANCH   7  15
ENDBRANCH   1   2
BRANCH   1  17
ATOM     17  C   UNL     1      28.516  -6.068 -29.317  1.00  0.00     0.172 A 
ATOM     18  C   UNL     1      28.452  -6.499 -27.958  1.00  0.00     0.205 A 
ATOM     19  C   UNL     1      27.759  -4.895 -29.526  1.00  0.00     0.097 A 
ATOM     20  C   UNL     1      27.173  -6.504 -27.358  1.00  0.00     0.188 A 
ATOM     21  C   UNL     1      26.740  -4.488 -28.613  1.00  0.00     0.134 A 
ATOM     22  C   UNL     1      26.320  -5.396 -27.624  1.00  0.00     0.111 A 
ATOM     23  O   UNL     1      26.860  -7.392 -26.429  1.00  0.00    -0.452 OA
ATOM     24  C   UNL     1      25.125  -5.309 -26.866  1.00  0.00     0.197 A 
ATOM     25  C   UNL     1      25.717  -7.351 -25.721  1.00  0.00     0.138 A 
ATOM     26  C   UNL     1      24.789  -6.326 -25.960  1.00  0.00     0.100 A 
ATOM     27  O   UNL     1      24.329  -4.325 -26.971  1.00  0.00    -0.289 OA
BRANCH  18  28
ATOM     28  O   UNL     1      29.578  -6.352 -27.061  1.00  0.00    -0.490 OA
ATOM     29  C   UNL     1      30.714  -7.277 -27.035  1.00  0.00     0.278 C 
ENDBRANCH  18  28
BRANCH  21  30
ATOM     30  O   UNL     1      26.353  -3.139 -28.520  1.00  0.00    -0.507 OA
ATOM     31  H   UNL     1      25.876  -2.861 -29.421  1.00  0.00     0.293 HD
ENDBRANCH  21  30
BRANCH  25  32
ATOM     32  C   UNL     1      25.483  -8.401 -24.704  1.00  0.00     0.017 A 
ATOM     33  C   UNL     1      24.244  -9.048 -24.491  1.00  0.00     0.012 A 
ATOM     34  C   UNL     1      26.616  -8.870 -23.989  1.00  0.00     0.012 A 
ATOM     35  C   UNL     1      24.130 -10.070 -23.551  1.00  0.00     0.001 A 
ATOM     36  C   UNL     1      26.499  -9.913 -23.068  1.00  0.00     0.001 A 
ATOM     37  C   UNL     1      25.260 -10.490 -22.829  1.00  0.00     0.000 A 
ENDBRANCH  25  32
ENDBRANCH   1  17
TORSDOF 9
ENDMDL
MODEL 5
REMARK VINA RESULT:    -6.086      3.011      4.794
REMARK INTER + INTRA:         -10.079
REMARK INTER:                  -8.452
REMARK INTRA:                  -1.627
REMARK UNBOUND:                -1.503
REMARK SMILES COc1c(O[C@H]2O[C@@H](C(=O)[O-])[C@@H](O)[C@H](O)[C@@H]2O)cc(O)c2c(=O)cc(-c3ccccc3)oc12
REMARK SMILES IDX 5 1 6 2 8 3 12 4 7 5 14 6 16 7 9 8 10 9 11 10 13 11 15 13
REMARK SMILES IDX 17 15 4 17 3 18 18 19 33 20 19 21 21 22 32 23 22 24 25 25
REMARK SMILES IDX 24 26 23 27 2 28 1 29 20 30 26 32 27 33 31 34 28 35 30 36
REMARK SMILES IDX 29 37
REMARK H PARENT 13 12 15 14 17 16 20 31
REMARK Flexibility Score: inf
ROOT
ATOM      1  O   UNL     1      31.526  -5.366 -27.447  1.00  0.00    -0.458 OA
ENDROOT
BRANCH   1   2
ATOM      2  C   UNL     1      30.546  -5.335 -28.533  1.00  0.00     0.339 C 
ATOM      3  C   UNL     1      29.997  -6.511 -30.475  1.00  0.00     0.199 C 
ATOM      4  C   UNL     1      28.790  -7.254 -29.885  1.00  0.00     0.180 C 
ATOM      5  O   UNL     1      30.953  -6.352 -29.436  1.00  0.00    -0.328 OA
ATOM      6  C   UNL     1      28.034  -6.144 -29.044  1.00  0.00     0.181 C 
ATOM      7  C   UNL     1      29.040  -5.554 -27.977  1.00  0.00     0.214 C 
BRANCH   3   8
ATOM      8  C   UNL     1      30.733  -7.158 -31.628  1.00  0.00     0.073 C 
ATOM      9  O   UNL     1      30.877  -8.424 -31.602  1.00  0.00    -0.547 OA
ATOM     10  O   UNL     1      31.686  -6.424 -32.303  1.00  0.00    -0.547 OA
ENDBRANCH   3   8
BRANCH   4  11
ATOM     11  O   UNL     1      29.264  -8.260 -29.030  1.00  0.00    -0.387 OA
ATOM     12  H   UNL     1      29.943  -7.827 -28.466  1.00  0.00     0.211 HD
ENDBRANCH   4  11
BRANCH   6  13
ATOM     13  O   UNL     1      27.436  -5.143 -29.890  1.00  0.00    -0.387 OA
ATOM     14  H   UNL     1      26.805  -5.534 -30.571  1.00  0.00     0.211 HD
ENDBRANCH   6  13
BRANCH   7  15
ATOM     15  O   UNL     1      28.475  -4.353 -27.518  1.00  0.00    -0.384 OA
ATOM     16  H   UNL     1      28.834  -3.625 -28.109  1.00  0.00     0.211 HD
ENDBRANCH   7  15
ENDBRANCH   1   2
BRANCH   1  17
ATOM     17  C   UNL     1      31.900  -6.446 -26.552  1.00  0.00     0.172 A 
ATOM     18  C   UNL     1      31.129  -7.616 -26.280  1.00  0.00     0.205 A 
ATOM     19  C   UNL     1      32.840  -6.195 -25.530  1.00  0.00     0.097 A 
ATOM     20  C   UNL     1      30.626  -7.748 -24.966  1.00  0.00     0.188 A 
ATOM     21  C   UNL     1      32.708  -6.771 -24.231  1.00  0.00     0.134 A 
ATOM     22  C   UNL     1      31.496  -7.401 -23.894  1.00  0.00     0.111 A 
ATOM     23  O   UNL     1      29.477  -8.360 -24.735  1.00  0.00    -0.452 OA
ATOM     24  C   UNL     1      31.060  -7.722 -22.583  1.00  0.00     0.197 A 
ATOM     25  C   UNL     1      29.025  -8.644 -23.500  1.00  0.00     0.138 A 
ATOM     26  C   UNL     1      29.790  -8.283 -22.381  1.00  0.00     0.100 A 
ATOM     27  O   UNL     1      31.787  -7.523 -21.562  1.00  0.00    -0.289 OA
BRANCH  18  28
ATOM     28  O   UNL     1      31.332  -8.847 -27.012  1.00  0.00    -0.490 OA
ATOM     29  C   UNL     1      31.970 -10.033 -26.435  1.00  0.00     0.278 C 
ENDBRANCH  18  28
BRANCH  21  30
ATOM     30  O   UNL     1      33.832  -6.952 -23.405  1.00  0.00    -0.507 OA
ATOM     31  H   UNL     1      33.930  -7.982 -23.188  1.00  0.00     0.293 HD
ENDBRANCH  21  30
BRANCH  25  32
ATOM     32  C   UNL     1      27.724  -9.337 -23.371  1.00  0.00     0.017 A 
ATOM     33  C   UNL     1      27.528 -10.551 -22.674  1.00  0.00     0.012 A 
ATOM     34  C   UNL     1      26.580  -8.662 -23.876  1.00  0.00     0.012 A 
ATOM     35  C   UNL     1      26.254 -11.102 -22.552  1.00  0.00     0.001 A 
ATOM     36  C   UNL     1      25.304  -9.208 -23.726  1.00  0.00     0.001 A 
ATOM     37  C   UNL     1      25.144 -10.433 -23.094  1.00  0.00     0.000 A 
ENDBRANCH  25  32
ENDBRANCH   1  17
TORSDOF 9
ENDMDL
MODEL 6
REMARK VINA RESULT:    -6.007      9.248     13.319
REMARK INTER + INTRA:          -9.968
REMARK INTER:                  -8.274
REMARK INTRA:                  -1.694
REMARK UNBOUND:                -1.503
REMARK SMILES COc1c(O[C@H]2O[C@@H](C(=O)[O-])[C@@H](O)[C@H](O)[C@@H]2O)cc(O)c2c(=O)cc(-c3ccccc3)oc12
REMARK SMILES IDX 5 1 6 2 8 3 12 4 7 5 14 6 16 7 9 8 10 9 11 10 13 11 15 13
REMARK SMILES IDX 17 15 4 17 3 18 18 19 33 20 19 21 21 22 32 23 22 24 25 25
REMARK SMILES IDX 24 26 23 27 2 28 1 29 20 30 26 32 27 33 31 34 28 35 30 36
REMARK SMILES IDX 29 37
REMARK H PARENT 13 12 15 14 17 16 20 31
REMARK Flexibility Score: inf
ROOT
ATOM      1  O   UNL     1      21.702   3.364 -26.581  1.00  0.00    -0.458 OA
ENDROOT
BRANCH   1   2
ATOM      2  C   UNL     1      20.713   2.312 -26.345  1.00  0.00     0.339 C 
ATOM      3  C   UNL     1      20.618   0.029 -25.862  1.00  0.00     0.199 C 
ATOM      4  C   UNL     1      20.281   0.187 -24.372  1.00  0.00     0.180 C 
ATOM      5  O   UNL     1      21.461   1.112 -26.228  1.00  0.00    -0.328 OA
ATOM      6  C   UNL     1      19.197   1.342 -24.347  1.00  0.00     0.181 C 
ATOM      7  C   UNL     1      19.819   2.626 -25.030  1.00  0.00     0.214 C 
BRANCH   3   8
ATOM      8  C   UNL     1      21.337  -1.230 -26.296  1.00  0.00     0.073 C 
ATOM      9  O   UNL     1      20.776  -1.956 -27.180  1.00  0.00    -0.547 OA
ATOM     10  O   UNL     1      22.178  -1.856 -25.400  1.00  0.00    -0.547 OA
ENDBRANCH   3   8
BRANCH   4  11
ATOM     11  O   UNL     1      21.439   0.604 -23.698  1.00  0.00    -0.387 OA
ATOM     12  H   UNL     1      21.134   0.897 -22.810  1.00  0.00     0.211 HD
ENDBRANCH   4  11
BRANCH   6  13
ATOM     13  O   UNL     1      17.950   0.922 -24.936  1.00  0.00    -0.387 OA
ATOM     14  H   UNL     1      17.496   1.658 -25.453  1.00  0.00     0.211 HD
ENDBRANCH   6  13
BRANCH   7  15
ATOM     15  O   UNL     1      18.744   3.481 -25.323  1.00  0.00    -0.384 OA
ATOM     16  H   UNL     1      18.185   3.532 -24.491  1.00  0.00     0.211 HD
ENDBRANCH   7  15
ENDBRANCH   1   2
BRANCH   1  17
ATOM     17  C   UNL     1      22.978   3.614 -25.935  1.00  0.00     0.172 A 
ATOM     18  C   UNL     1      23.211   3.665 -24.528  1.00  0.00     0.205 A 
ATOM     19  C   UNL     1      23.989   4.288 -26.654  1.00  0.00     0.097 A 
ATOM     20  C   UNL     1      23.582   4.920 -23.995  1.00  0.00     0.188 A 
ATOM     21  C   UNL     1      24.845   5.243 -26.027  1.00  0.00     0.134 A 
ATOM     22  C   UNL     1      24.517   5.695 -24.736  1.00  0.00     0.111 A 
ATOM     23  O   UNL     1      23.236   5.267 -22.767  1.00  0.00    -0.452 OA
ATOM     24  C   UNL     1      25.034   6.855 -24.103  1.00  0.00     0.197 A 
ATOM     25  C   UNL     1      23.684   6.380 -22.158  1.00  0.00     0.138 A 
ATOM     26  C   UNL     1      24.564   7.236 -22.837  1.00  0.00     0.100 A 
ATOM     27  O   UNL     1      25.927   7.578 -24.644  1.00  0.00    -0.289 OA
BRANCH  18  28
ATOM     28  O   UNL     1      23.653   2.502 -23.789  1.00  0.00    -0.490 OA
ATOM     29  C   UNL     1      25.060   2.119 -23.654  1.00  0.00     0.278 C 
ENDBRANCH  18  28
BRANCH  21  30
ATOM     30  O   UNL     1      26.119   5.524 -26.554  1.00  0.00    -0.507 OA
ATOM     31  H   UNL     1      26.031   5.655 -27.598  1.00  0.00     0.293 HD
ENDBRANCH  21  30
BRANCH  25  32
ATOM     32  C   UNL     1      23.227   6.658 -20.778  1.00  0.00     0.017 A 
ATOM     33  C   UNL     1      23.257   5.721 -19.720  1.00  0.00     0.012 A 
ATOM     34  C   UNL     1      22.856   7.996 -20.478  1.00  0.00     0.012 A 
ATOM     35  C   UNL     1      22.862   6.089 -18.435  1.00  0.00     0.001 A 
ATOM     36  C   UNL     1      22.489   8.363 -19.183  1.00  0.00     0.001 A 
ATOM     37  C   UNL     1      22.463   7.410 -18.174  1.00  0.00     0.000 A 
ENDBRANCH  25  32
ENDBRANCH   1  17
TORSDOF 9
ENDMDL
MODEL 7
REMARK VINA RESULT:    -5.989      1.462      1.759
REMARK INTER + INTRA:          -9.942
REMARK INTER:                  -8.017
REMARK INTRA:                  -1.924
REMARK UNBOUND:                -1.503
REMARK SMILES COc1c(O[C@H]2O[C@@H](C(=O)[O-])[C@@H](O)[C@H](O)[C@@H]2O)cc(O)c2c(=O)cc(-c3ccccc3)oc12
REMARK SMILES IDX 5 1 6 2 8 3 12 4 7 5 14 6 16 7 9 8 10 9 11 10 13 11 15 13
REMARK SMILES IDX 17 15 4 17 3 18 18 19 33 20 19 21 21 22 32 23 22 24 25 25
REMARK SMILES IDX 24 26 23 27 2 28 1 29 20 30 26 32 27 33 31 34 28 35 30 36
REMARK SMILES IDX 29 37
REMARK H PARENT 13 12 15 14 17 16 20 31
REMARK Flexibility Score: inf
ROOT
ATOM      1  O   UNL     1      27.736  -4.298 -29.352  1.00  0.00    -0.458 OA
ENDROOT
BRANCH   1   2
ATOM      2  C   UNL     1      28.582  -5.373 -29.871  1.00  0.00     0.339 C 
ATOM      3  C   UNL     1      30.584  -6.467 -29.372  1.00  0.00     0.199 C 
ATOM      4  C   UNL     1      29.942  -7.735 -28.792  1.00  0.00     0.180 C 
ATOM      5  O   UNL     1      29.738  -5.372 -29.049  1.00  0.00    -0.328 OA
ATOM      6  C   UNL     1      28.757  -8.055 -29.794  1.00  0.00     0.181 C 
ATOM      7  C   UNL     1      27.804  -6.795 -29.859  1.00  0.00     0.214 C 
BRANCH   3   8
ATOM      8  C   UNL     1      31.967  -6.088 -28.888  1.00  0.00     0.073 C 
ATOM      9  O   UNL     1      32.848  -5.817 -29.769  1.00  0.00    -0.547 OA
ATOM     10  O   UNL     1      32.409  -6.591 -27.682  1.00  0.00    -0.547 OA
ENDBRANCH   3   8
BRANCH   4  11
ATOM     11  O   UNL     1      29.425  -7.429 -27.523  1.00  0.00    -0.387 OA
ATOM     12  H   UNL     1      30.207  -7.221 -26.965  1.00  0.00     0.211 HD
ENDBRANCH   4  11
BRANCH   6  13
ATOM     13  O   UNL     1      29.243  -8.479 -31.082  1.00  0.00    -0.387 OA
ATOM     14  H   UNL     1      29.195  -7.750 -31.776  1.00  0.00     0.211 HD
ENDBRANCH   6  13
BRANCH   7  15
ATOM     15  O   UNL     1      27.004  -6.960 -31.001  1.00  0.00    -0.384 OA
ATOM     16  H   UNL     1      26.261  -6.289 -30.928  1.00  0.00     0.211 HD
ENDBRANCH   7  15
ENDBRANCH   1   2
BRANCH   1  17
ATOM     17  C   UNL     1      27.002  -4.203 -28.103  1.00  0.00     0.172 A 
ATOM     18  C   UNL     1      27.430  -4.704 -26.837  1.00  0.00     0.205 A 
ATOM     19  C   UNL     1      25.603  -4.020 -28.142  1.00  0.00     0.097 A 
ATOM     20  C   UNL     1      26.678  -5.768 -26.293  1.00  0.00     0.188 A 
ATOM     21  C   UNL     1      24.735  -4.669 -27.213  1.00  0.00     0.134 A 
ATOM     22  C   UNL     1      25.261  -5.692 -26.403  1.00  0.00     0.111 A 
ATOM     23  O   UNL     1      27.250  -6.690 -25.535  1.00  0.00    -0.452 OA
ATOM     24  C   UNL     1      24.508  -6.656 -25.685  1.00  0.00     0.197 A 
ATOM     25  C   UNL     1      26.560  -7.636 -24.873  1.00  0.00     0.138 A 
ATOM     26  C   UNL     1      25.161  -7.673 -24.973  1.00  0.00     0.100 A 
ATOM     27  O   UNL     1      23.239  -6.636 -25.655  1.00  0.00    -0.289 OA
BRANCH  18  28
ATOM     28  O   UNL     1      28.133  -3.868 -25.887  1.00  0.00    -0.490 OA
ATOM     29  C   UNL     1      27.457  -2.956 -24.961  1.00  0.00     0.278 C 
ENDBRANCH  18  28
BRANCH  21  30
ATOM     30  O   UNL     1      23.470  -4.132 -26.912  1.00  0.00    -0.507 OA
ATOM     31  H   UNL     1      23.308  -3.286 -27.524  1.00  0.00     0.293 HD
ENDBRANCH  21  30
BRANCH  25  32
ATOM     32  C   UNL     1      27.315  -8.609 -24.053  1.00  0.00     0.017 A 
ATOM     33  C   UNL     1      26.729  -9.679 -23.338  1.00  0.00     0.012 A 
ATOM     34  C   UNL     1      28.732  -8.530 -24.098  1.00  0.00     0.012 A 
ATOM     35  C   UNL     1      27.524 -10.586 -22.639  1.00  0.00     0.001 A 
ATOM     36  C   UNL     1      29.523  -9.458 -23.418  1.00  0.00     0.001 A 
ATOM     37  C   UNL     1      28.924 -10.462 -22.670  1.00  0.00     0.000 A 
ENDBRANCH  25  32
ENDBRANCH   1  17
TORSDOF 9
ENDMDL
MODEL 8
REMARK VINA RESULT:    -5.944      1.462      2.658
REMARK INTER + INTRA:          -9.878
REMARK INTER:                  -8.633
REMARK INTRA:                  -1.246
REMARK UNBOUND:                -1.503
REMARK SMILES COc1c(O[C@H]2O[C@@H](C(=O)[O-])[C@@H](O)[C@H](O)[C@@H]2O)cc(O)c2c(=O)cc(-c3ccccc3)oc12
REMARK SMILES IDX 5 1 6 2 8 3 12 4 7 5 14 6 16 7 9 8 10 9 11 10 13 11 15 13
REMARK SMILES IDX 17 15 4 17 3 18 18 19 33 20 19 21 21 22 32 23 22 24 25 25
REMARK SMILES IDX 24 26 23 27 2 28 1 29 20 30 26 32 27 33 31 34 28 35 30 36
REMARK SMILES IDX 29 37
REMARK H PARENT 13 12 15 14 17 16 20 31
REMARK Flexibility Score: inf
ROOT
ATOM      1  O   UNL     1      28.752  -5.598 -29.895  1.00  0.00    -0.458 OA
ENDROOT
BRANCH   1   2
ATOM      2  C   UNL     1      30.166  -5.895 -30.131  1.00  0.00     0.339 C 
ATOM      3  C   UNL     1      31.728  -7.581 -29.718  1.00  0.00     0.199 C 
ATOM      4  C   UNL     1      31.738  -8.153 -31.143  1.00  0.00     0.180 C 
ATOM      5  O   UNL     1      30.412  -7.116 -29.452  1.00  0.00    -0.328 OA
ATOM      6  C   UNL     1      31.755  -6.867 -32.070  1.00  0.00     0.181 C 
ATOM      7  C   UNL     1      30.495  -5.980 -31.716  1.00  0.00     0.214 C 
BRANCH   3   8
ATOM      8  C   UNL     1      32.085  -8.511 -28.579  1.00  0.00     0.073 C 
ATOM      9  O   UNL     1      31.157  -8.836 -27.768  1.00  0.00    -0.547 OA
ATOM     10  O   UNL     1      33.377  -8.503 -28.096  1.00  0.00    -0.547 OA
ENDBRANCH   3   8
BRANCH   4  11
ATOM     11  O   UNL     1      30.547  -8.868 -31.341  1.00  0.00    -0.387 OA
ATOM     12  H   UNL     1      29.943  -8.575 -30.623  1.00  0.00     0.211 HD
ENDBRANCH   4  11
BRANCH   6  13
ATOM     13  O   UNL     1      33.006  -6.157 -31.979  1.00  0.00    -0.387 OA
ATOM     14  H   UNL     1      33.783  -6.689 -32.338  1.00  0.00     0.211 HD
ENDBRANCH   6  13
BRANCH   7  15
ATOM     15  O   UNL     1      30.736  -4.710 -32.266  1.00  0.00    -0.384 OA
ATOM     16  H   UNL     1      31.732  -4.590 -32.280  1.00  0.00     0.211 HD
ENDBRANCH   7  15
ENDBRANCH   1   2
BRANCH   1  17
ATOM     17  C   UNL     1      28.094  -5.044 -28.726  1.00  0.00     0.172 A 
ATOM     18  C   UNL     1      28.233  -5.508 -27.384  1.00  0.00     0.205 A 
ATOM     19  C   UNL     1      26.905  -4.301 -28.898  1.00  0.00     0.097 A 
ATOM     20  C   UNL     1      27.086  -6.080 -26.792  1.00  0.00     0.188 A 
ATOM     21  C   UNL     1      25.819  -4.401 -27.977  1.00  0.00     0.134 A 
ATOM     22  C   UNL     1      25.838  -5.435 -27.023  1.00  0.00     0.111 A 
ATOM     23  O   UNL     1      27.192  -7.048 -25.897  1.00  0.00    -0.452 OA
ATOM     24  C   UNL     1      24.728  -5.895 -26.269  1.00  0.00     0.197 A 
ATOM     25  C   UNL     1      26.149  -7.525 -25.195  1.00  0.00     0.138 A 
ATOM     26  C   UNL     1      24.869  -6.988 -25.403  1.00  0.00     0.100 A 
ATOM     27  O   UNL     1      23.587  -5.343 -26.344  1.00  0.00    -0.289 OA
BRANCH  18  28
ATOM     28  O   UNL     1      29.197  -4.924 -26.475  1.00  0.00    -0.490 OA
ATOM     29  C   UNL     1      30.609  -5.314 -26.438  1.00  0.00     0.278 C 
ENDBRANCH  18  28
BRANCH  21  30
ATOM     30  O   UNL     1      24.892  -3.352 -27.838  1.00  0.00    -0.507 OA
ATOM     31  H   UNL     1      24.337  -3.507 -26.953  1.00  0.00     0.293 HD
ENDBRANCH  21  30
BRANCH  25  32
ATOM     32  C   UNL     1      26.396  -8.608 -24.217  1.00  0.00     0.017 A 
ATOM     33  C   UNL     1      25.405  -9.489 -23.729  1.00  0.00     0.012 A 
ATOM     34  C   UNL     1      27.747  -8.851 -23.851  1.00  0.00     0.012 A 
ATOM     35  C   UNL     1      25.740 -10.521 -22.854  1.00  0.00     0.001 A 
ATOM     36  C   UNL     1      28.079  -9.903 -22.996  1.00  0.00     0.001 A 
ATOM     37  C   UNL     1      27.080 -10.716 -22.478  1.00  0.00     0.000 A 
ENDBRANCH  25  32
ENDBRANCH   1  17
TORSDOF 9
ENDMDL
MODEL 9
REMARK VINA RESULT:    -5.820      2.714      6.511
REMARK INTER + INTRA:          -9.704
REMARK INTER:                  -7.950
REMARK INTRA:                  -1.754
REMARK UNBOUND:                -1.503
REMARK SMILES COc1c(O[C@H]2O[C@@H](C(=O)[O-])[C@@H](O)[C@H](O)[C@@H]2O)cc(O)c2c(=O)cc(-c3ccccc3)oc12
REMARK SMILES IDX 5 1 6 2 8 3 12 4 7 5 14 6 16 7 9 8 10 9 11 10 13 11 15 13
REMARK SMILES IDX 17 15 4 17 3 18 18 19 33 20 19 21 21 22 32 23 22 24 25 25
REMARK SMILES IDX 24 26 23 27 2 28 1 29 20 30 26 32 27 33 31 34 28 35 30 36
REMARK SMILES IDX 29 37
REMARK H PARENT 13 12 15 14 17 16 20 31
REMARK Flexibility Score: inf
ROOT
ATOM      1  O   UNL     1      28.803  -5.123 -30.710  1.00  0.00    -0.458 OA
ENDROOT
BRANCH   1   2
ATOM      2  C   UNL     1      28.479  -4.299 -29.545  1.00  0.00     0.339 C 
ATOM      3  C   UNL     1      27.119  -4.349 -27.647  1.00  0.00     0.199 C 
ATOM      4  C   UNL     1      28.235  -4.689 -26.649  1.00  0.00     0.180 C 
ATOM      5  O   UNL     1      27.433  -4.987 -28.877  1.00  0.00    -0.328 OA
ATOM      6  C   UNL     1      29.439  -3.758 -27.092  1.00  0.00     0.181 C 
ATOM      7  C   UNL     1      29.779  -4.067 -28.605  1.00  0.00     0.214 C 
BRANCH   3   8
ATOM      8  C   UNL     1      25.708  -4.772 -27.301  1.00  0.00     0.073 C 
ATOM      9  O   UNL     1      25.495  -6.013 -27.100  1.00  0.00    -0.547 OA
ATOM     10  O   UNL     1      24.655  -4.014 -27.769  1.00  0.00    -0.547 OA
ENDBRANCH   3   8
BRANCH   4  11
ATOM     11  O   UNL     1      28.587  -6.037 -26.821  1.00  0.00    -0.387 OA
ATOM     12  H   UNL     1      28.816  -6.364 -25.923  1.00  0.00     0.211 HD
ENDBRANCH   4  11
BRANCH   6  13
ATOM     13  O   UNL     1      29.164  -2.367 -26.834  1.00  0.00    -0.387 OA
ATOM     14  H   UNL     1      29.916  -1.761 -27.124  1.00  0.00     0.211 HD
ENDBRANCH   6  13
BRANCH   7  15
ATOM     15  O   UNL     1      30.567  -2.997 -29.062  1.00  0.00    -0.384 OA
ATOM     16  H   UNL     1      31.437  -3.052 -28.565  1.00  0.00     0.211 HD
ENDBRANCH   7  15
ENDBRANCH   1   2
BRANCH   1  17
ATOM     17  C   UNL     1      29.441  -6.425 -30.789  1.00  0.00     0.172 A 
ATOM     18  C   UNL     1      29.442  -7.423 -29.768  1.00  0.00     0.205 A 
ATOM     19  C   UNL     1      30.502  -6.614 -31.701  1.00  0.00     0.097 A 
ATOM     20  C   UNL     1      30.690  -7.716 -29.174  1.00  0.00     0.188 A 
ATOM     21  C   UNL     1      31.641  -7.409 -31.372  1.00  0.00     0.134 A 
ATOM     22  C   UNL     1      31.820  -7.809 -30.035  1.00  0.00     0.111 A 
ATOM     23  O   UNL     1      30.771  -8.090 -27.908  1.00  0.00    -0.452 OA
ATOM     24  C   UNL     1      33.024  -8.296 -29.465  1.00  0.00     0.197 A 
ATOM     25  C   UNL     1      31.909  -8.522 -27.335  1.00  0.00     0.138 A 
ATOM     26  C   UNL     1      33.086  -8.589 -28.095  1.00  0.00     0.100 A 
ATOM     27  O   UNL     1      34.070  -8.487 -30.158  1.00  0.00    -0.289 OA
BRANCH  18  28
ATOM     28  O   UNL     1      28.458  -8.484 -29.742  1.00  0.00    -0.490 OA
ATOM     29  C   UNL     1      27.013  -8.242 -29.735  1.00  0.00     0.278 C 
ENDBRANCH  18  28
BRANCH  21  30
ATOM     30  O   UNL     1      32.416  -8.009 -32.381  1.00  0.00    -0.507 OA
ATOM     31  H   UNL     1      31.768  -8.477 -33.072  1.00  0.00     0.293 HD
ENDBRANCH  21  30
BRANCH  25  32
ATOM     32  C   UNL     1      31.870  -8.918 -25.910  1.00  0.00     0.017 A 
ATOM     33  C   UNL     1      31.144 -10.020 -25.403  1.00  0.00     0.012 A 
ATOM     34  C   UNL     1      32.726  -8.214 -25.021  1.00  0.00     0.012 A 
ATOM     35  C   UNL     1      31.214 -10.356 -24.052  1.00  0.00     0.001 A 
ATOM     36  C   UNL     1      32.812  -8.574 -23.675  1.00  0.00     0.001 A 
ATOM     37  C   UNL     1      32.040  -9.618 -23.187  1.00  0.00     0.000 A 
ENDBRANCH  25  32
ENDBRANCH   1  17
TORSDOF 9
ENDMDL
