MODEL 1
REMARK VINA RESULT:    -3.468      0.000      0.000
REMARK INTER + INTRA:          -4.639
REMARK INTER:                  -4.482
REMARK INTRA:                  -0.157
REMARK UNBOUND:                -0.157
REMARK SMILES CCCCCCC(=O)[O-]
REMARK SMILES IDX 5 1 6 2 7 3 8 4 9 5 4 6 3 7 2 8 1 9
REMARK H PARENT
REMARK Flexibility Score: inf
ROOT
ATOM      1  C   UNL     1       5.488  -4.969  -8.336  1.00  0.00     0.006 C 
ENDROOT
BRANCH   1   2
ATOM      2  C   UNL     1       5.342  -6.198  -7.428  1.00  0.00     0.053 C 
BRANCH   2   3
ATOM      3  C   UNL     1       5.046  -5.776  -6.024  1.00  0.00     0.041 C 
ATOM      4  O   UNL     1       5.260  -4.589  -5.660  1.00  0.00    -0.550 OA
ATOM      5  O   UNL     1       4.487  -6.679  -5.129  1.00  0.00    -0.550 OA
ENDBRANCH   2   3
ENDBRANCH   1   2
BRANCH   1   6
ATOM      6  C   UNL     1       4.697  -5.106  -9.647  1.00  0.00     0.000 C 
BRANCH   6   7
ATOM      7  C   UNL     1       3.838  -3.870  -9.953  1.00  0.00    -0.000 C 
BRANCH   7   8
ATOM      8  C   UNL     1       4.619  -2.579  -9.680  1.00  0.00    -0.003 C 
ATOM      9  C   UNL     1       3.691  -1.368  -9.658  1.00  0.00     0.004 C 
ENDBRANCH   7   8
ENDBRANCH   6   7
ENDBRANCH   1   6
TORSDOF 5
ENDMDL
MODEL 2
REMARK VINA RESULT:    -3.449     10.881     12.182
REMARK INTER + INTRA:          -4.615
REMARK INTER:                  -4.372
REMARK INTRA:                  -0.243
REMARK UNBOUND:                -0.157
REMARK SMILES CCCCCCC(=O)[O-]
REMARK SMILES IDX 5 1 6 2 7 3 8 4 9 5 4 6 3 7 2 8 1 9
REMARK H PARENT
REMARK Flexibility Score: inf
ROOT
ATOM      1  C   UNL     1       5.239  -7.235   3.756  1.00  0.00     0.006 C 
ENDROOT
BRANCH   1   2
ATOM      2  C   UNL     1       4.211  -6.881   2.674  1.00  0.00     0.053 C 
BRANCH   2   3
ATOM      3  C   UNL     1       3.554  -8.120   2.154  1.00  0.00     0.041 C 
ATOM      4  O   UNL     1       2.732  -8.750   2.870  1.00  0.00    -0.550 OA
ATOM      5  O   UNL     1       3.812  -8.553   0.859  1.00  0.00    -0.550 OA
ENDBRANCH   2   3
ENDBRANCH   1   2
BRANCH   1   6
ATOM      6  C   UNL     1       6.479  -7.940   3.185  1.00  0.00     0.000 C 
BRANCH   6   7
ATOM      7  C   UNL     1       7.793  -7.371   3.740  1.00  0.00    -0.000 C 
BRANCH   7   8
ATOM      8  C   UNL     1       7.521  -6.305   4.809  1.00  0.00    -0.003 C 
ATOM      9  C   UNL     1       8.560  -5.189   4.751  1.00  0.00     0.004 C 
ENDBRANCH   7   8
ENDBRANCH   6   7
ENDBRANCH   1   6
TORSDOF 5
ENDMDL
MODEL 3
REMARK VINA RESULT:    -3.435     11.019     12.226
REMARK INTER + INTRA:          -4.597
REMARK INTER:                  -4.362
REMARK INTRA:                  -0.235
REMARK UNBOUND:                -0.157
REMARK SMILES CCCCCCC(=O)[O-]
REMARK SMILES IDX 5 1 6 2 7 3 8 4 9 5 4 6 3 7 2 8 1 9
REMARK H PARENT
REMARK Flexibility Score: inf
ROOT
ATOM      1  C   UNL     1       5.357  -7.148   3.764  1.00  0.00     0.006 C 
ENDROOT
BRANCH   1   2
ATOM      2  C   UNL     1       4.272  -6.810   2.733  1.00  0.00     0.053 C 
BRANCH   2   3
ATOM      3  C   UNL     1       3.522  -8.045   2.343  1.00  0.00     0.041 C 
ATOM      4  O   UNL     1       3.549  -8.453   1.152  1.00  0.00    -0.550 OA
ATOM      5  O   UNL     1       2.833  -8.773   3.304  1.00  0.00    -0.550 OA
ENDBRANCH   2   3
ENDBRANCH   1   2
BRANCH   1   6
ATOM      6  C   UNL     1       6.621  -7.740   3.119  1.00  0.00     0.000 C 
BRANCH   6   7
ATOM      7  C   UNL     1       7.909  -7.316   3.841  1.00  0.00    -0.000 C 
BRANCH   7   8
ATOM      8  C   UNL     1       7.631  -6.185   4.839  1.00  0.00    -0.003 C 
ATOM      9  C   UNL     1       8.649  -5.058   4.691  1.00  0.00     0.004 C 
ENDBRANCH   7   8
ENDBRANCH   6   7
ENDBRANCH   1   6
TORSDOF 5
ENDMDL
MODEL 4
REMARK VINA RESULT:    -3.301     19.539     20.579
REMARK INTER + INTRA:          -4.423
REMARK INTER:                  -4.151
REMARK INTRA:                  -0.272
REMARK UNBOUND:                -0.157
REMARK SMILES CCCCCCC(=O)[O-]
REMARK SMILES IDX 5 1 6 2 7 3 8 4 9 5 4 6 3 7 2 8 1 9
REMARK H PARENT
REMARK Flexibility Score: inf
ROOT
ATOM      1  C   UNL     1      -9.554  -4.668   7.659  1.00  0.00     0.006 C 
ENDROOT
BRANCH   1   2
ATOM      2  C   UNL     1      -9.692  -3.163   7.928  1.00  0.00     0.053 C 
BRANCH   2   3
ATOM      3  C   UNL     1      -8.797  -2.386   7.015  1.00  0.00     0.041 C 
ATOM      4  O   UNL     1      -7.917  -1.622   7.490  1.00  0.00    -0.550 OA
ATOM      5  O   UNL     1      -8.902  -2.543   5.639  1.00  0.00    -0.550 OA
ENDBRANCH   2   3
ENDBRANCH   1   2
BRANCH   1   6
ATOM      6  C   UNL     1      -8.144  -5.196   7.966  1.00  0.00     0.000 C 
BRANCH   6   7
ATOM      7  C   UNL     1      -7.576  -6.063   6.832  1.00  0.00    -0.000 C 
BRANCH   7   8
ATOM      8  C   UNL     1      -8.623  -7.066   6.332  1.00  0.00    -0.003 C 
ATOM      9  C   UNL     1      -8.428  -8.434   6.981  1.00  0.00     0.004 C 
ENDBRANCH   7   8
ENDBRANCH   6   7
ENDBRANCH   1   6
TORSDOF 5
ENDMDL
MODEL 5
REMARK VINA RESULT:    -3.258     19.857     20.591
REMARK INTER + INTRA:          -4.367
REMARK INTER:                  -4.183
REMARK INTRA:                  -0.183
REMARK UNBOUND:                -0.157
REMARK SMILES CCCCCCC(=O)[O-]
REMARK SMILES IDX 5 1 6 2 7 3 8 4 9 5 4 6 3 7 2 8 1 9
REMARK H PARENT
REMARK Flexibility Score: inf
ROOT
ATOM      1  C   UNL     1      -9.172  -4.947   7.318  1.00  0.00     0.006 C 
ENDROOT
BRANCH   1   2
ATOM      2  C   UNL     1      -9.585  -3.517   7.693  1.00  0.00     0.053 C 
BRANCH   2   3
ATOM      3  C   UNL     1      -8.808  -2.523   6.889  1.00  0.00     0.041 C 
ATOM      4  O   UNL     1      -7.986  -1.754   7.454  1.00  0.00    -0.550 OA
ATOM      5  O   UNL     1      -8.954  -2.478   5.508  1.00  0.00    -0.550 OA
ENDBRANCH   2   3
ENDBRANCH   1   2
BRANCH   1   6
ATOM      6  C   UNL     1     -10.170  -5.618   6.362  1.00  0.00     0.000 C 
BRANCH   6   7
ATOM      7  C   UNL     1      -9.711  -7.013   5.911  1.00  0.00    -0.000 C 
BRANCH   7   8
ATOM      8  C   UNL     1      -8.376  -7.389   6.564  1.00  0.00    -0.003 C 
ATOM      9  C   UNL     1      -8.406  -8.819   7.095  1.00  0.00     0.004 C 
ENDBRANCH   7   8
ENDBRANCH   6   7
ENDBRANCH   1   6
TORSDOF 5
ENDMDL
MODEL 6
REMARK VINA RESULT:    -3.179     19.693     20.461
REMARK INTER + INTRA:          -4.265
REMARK INTER:                  -3.897
REMARK INTRA:                  -0.369
REMARK UNBOUND:                -0.157
REMARK SMILES CCCCCCC(=O)[O-]
REMARK SMILES IDX 5 1 6 2 7 3 8 4 9 5 4 6 3 7 2 8 1 9
REMARK H PARENT
REMARK Flexibility Score: inf
ROOT
ATOM      1  C   UNL     1      -8.850  -5.330   8.063  1.00  0.00     0.006 C 
ENDROOT
BRANCH   1   2
ATOM      2  C   UNL     1      -8.698  -3.808   7.945  1.00  0.00     0.053 C 
BRANCH   2   3
ATOM      3  C   UNL     1      -9.061  -3.353   6.567  1.00  0.00     0.041 C 
ATOM      4  O   UNL     1     -10.157  -3.699   6.054  1.00  0.00    -0.550 OA
ATOM      5  O   UNL     1      -8.210  -2.506   5.868  1.00  0.00    -0.550 OA
ENDBRANCH   2   3
ENDBRANCH   1   2
BRANCH   1   6
ATOM      6  C   UNL     1      -7.785  -6.094   7.262  1.00  0.00     0.000 C 
BRANCH   6   7
ATOM      7  C   UNL     1      -8.383  -7.216   6.400  1.00  0.00    -0.000 C 
BRANCH   7   8
ATOM      8  C   UNL     1      -9.915  -7.208   6.475  1.00  0.00    -0.003 C 
ATOM      9  C   UNL     1     -10.532  -6.907   5.112  1.00  0.00     0.004 C 
ENDBRANCH   7   8
ENDBRANCH   6   7
ENDBRANCH   1   6
TORSDOF 5
ENDMDL
MODEL 7
REMARK VINA RESULT:    -3.129     23.737     24.497
REMARK INTER + INTRA:          -4.201
REMARK INTER:                  -3.796
REMARK INTRA:                  -0.405
REMARK UNBOUND:                -0.157
REMARK SMILES CCCCCCC(=O)[O-]
REMARK SMILES IDX 5 1 6 2 7 3 8 4 9 5 4 6 3 7 2 8 1 9
REMARK H PARENT
REMARK Flexibility Score: inf
ROOT
ATOM      1  C   UNL     1      -6.671   7.558   9.650  1.00  0.00     0.006 C 
ENDROOT
BRANCH   1   2
ATOM      2  C   UNL     1      -7.805   7.343   8.638  1.00  0.00     0.053 C 
BRANCH   2   3
ATOM      3  C   UNL     1      -8.701   8.540   8.597  1.00  0.00     0.041 C 
ATOM      4  O   UNL     1      -9.766   8.511   7.927  1.00  0.00    -0.550 OA
ATOM      5  O   UNL     1      -8.385   9.672   9.338  1.00  0.00    -0.550 OA
ENDBRANCH   2   3
ENDBRANCH   1   2
BRANCH   1   6
ATOM      6  C   UNL     1      -5.344   7.942   8.978  1.00  0.00     0.000 C 
BRANCH   6   7
ATOM      7  C   UNL     1      -4.764   9.257   9.519  1.00  0.00    -0.000 C 
BRANCH   7   8
ATOM      8  C   UNL     1      -4.978  10.402   8.522  1.00  0.00    -0.003 C 
ATOM      9  C   UNL     1      -5.373   9.868   7.148  1.00  0.00     0.004 C 
ENDBRANCH   7   8
ENDBRANCH   6   7
ENDBRANCH   1   6
TORSDOF 5
ENDMDL
MODEL 8
REMARK VINA RESULT:    -3.067     18.694     19.894
REMARK INTER + INTRA:          -4.120
REMARK INTER:                  -3.981
REMARK INTRA:                  -0.139
REMARK UNBOUND:                -0.157
REMARK SMILES CCCCCCC(=O)[O-]
REMARK SMILES IDX 5 1 6 2 7 3 8 4 9 5 4 6 3 7 2 8 1 9
REMARK H PARENT
REMARK Flexibility Score: inf
ROOT
ATOM      1  C   UNL     1       6.864   8.139   4.979  1.00  0.00     0.006 C 
ENDROOT
BRANCH   1   2
ATOM      2  C   UNL     1       6.710   9.575   5.500  1.00  0.00     0.053 C 
BRANCH   2   3
ATOM      3  C   UNL     1       6.800  10.552   4.371  1.00  0.00     0.041 C 
ATOM      4  O   UNL     1       5.762  10.900   3.750  1.00  0.00    -0.550 OA
ATOM      5  O   UNL     1       8.025  11.115   4.035  1.00  0.00    -0.550 OA
ENDBRANCH   2   3
ENDBRANCH   1   2
BRANCH   1   6
ATOM      6  C   UNL     1       6.130   7.111   5.854  1.00  0.00     0.000 C 
BRANCH   6   7
ATOM      7  C   UNL     1       6.014   7.555   7.320  1.00  0.00    -0.000 C 
BRANCH   7   8
ATOM      8  C   UNL     1       6.052   6.347   8.264  1.00  0.00    -0.003 C 
ATOM      9  C   UNL     1       6.734   6.699   9.583  1.00  0.00     0.004 C 
ENDBRANCH   7   8
ENDBRANCH   6   7
ENDBRANCH   1   6
TORSDOF 5
ENDMDL
MODEL 9
REMARK VINA RESULT:    -3.008     23.352     24.427
REMARK INTER + INTRA:          -4.045
REMARK INTER:                  -3.781
REMARK INTRA:                  -0.263
REMARK UNBOUND:                -0.157
REMARK SMILES CCCCCCC(=O)[O-]
REMARK SMILES IDX 5 1 6 2 7 3 8 4 9 5 4 6 3 7 2 8 1 9
REMARK H PARENT
REMARK Flexibility Score: inf
ROOT
ATOM      1  C   UNL     1      -5.943   8.170   7.612  1.00  0.00     0.006 C 
ENDROOT
BRANCH   1   2
ATOM      2  C   UNL     1      -5.519   9.504   6.984  1.00  0.00     0.053 C 
BRANCH   2   3
ATOM      3  C   UNL     1      -5.562  10.597   8.004  1.00  0.00     0.041 C 
ATOM      4  O   UNL     1      -6.668  11.012   8.442  1.00  0.00    -0.550 OA
ATOM      5  O   UNL     1      -4.381  11.125   8.510  1.00  0.00    -0.550 OA
ENDBRANCH   2   3
ENDBRANCH   1   2
BRANCH   1   6
ATOM      6  C   UNL     1      -5.342   7.957   9.010  1.00  0.00     0.000 C 
BRANCH   6   7
ATOM      7  C   UNL     1      -6.357   7.381  10.009  1.00  0.00    -0.000 C 
BRANCH   7   8
ATOM      8  C   UNL     1      -7.758   7.316   9.392  1.00  0.00    -0.003 C 
ATOM      9  C   UNL     1      -8.667   8.396   9.971  1.00  0.00     0.004 C 
ENDBRANCH   7   8
ENDBRANCH   6   7
ENDBRANCH   1   6
TORSDOF 5
ENDMDL
