MODEL 1
REMARK VINA RESULT:    -3.940      0.000      0.000
REMARK INTER + INTRA:         -14.492
REMARK INTER:                  -9.928
REMARK INTRA:                  -4.564
REMARK UNBOUND:                -4.564
REMARK SMILES CCCCCCCCCCCCCCCCCCCCCCCCCCCC(=O)[O-]
REMARK SMILES IDX 15 1 16 2 17 3 18 4 19 5 20 6 21 7 22 8 23 9 24 10 25 11
REMARK SMILES IDX 26 12 27 13 28 14 29 15 30 16 14 17 13 18 12 19 11 20 10 21
REMARK SMILES IDX 9 22 8 23 7 24 6 25 5 26 4 27 3 28 2 29 1 30
REMARK H PARENT
REMARK Flexibility Score: inf
ROOT
ATOM      1  C   UNL     1      14.354  15.951  16.351  1.00  0.00     0.000 C 
ENDROOT
BRANCH   1   2
ATOM      2  C   UNL     1      13.305  15.979  17.479  1.00  0.00     0.000 C 
BRANCH   2   3
ATOM      3  C   UNL     1      11.926  15.478  17.023  1.00  0.00     0.000 C 
BRANCH   3   4
ATOM      4  C   UNL     1      10.975  16.617  16.608  1.00  0.00     0.000 C 
BRANCH   4   5
ATOM      5  C   UNL     1      10.966  16.960  15.106  1.00  0.00     0.000 C 
BRANCH   5   6
ATOM      6  C   UNL     1      11.969  18.064  14.734  1.00  0.00     0.000 C 
BRANCH   6   7
ATOM      7  C   UNL     1      11.858  19.302  15.640  1.00  0.00     0.000 C 
BRANCH   7   8
ATOM      8  C   UNL     1      10.865  20.365  15.125  1.00  0.00     0.000 C 
BRANCH   8   9
ATOM      9  C   UNL     1      10.696  20.308  13.596  1.00  0.00     0.000 C 
BRANCH   9  10
ATOM     10  C   UNL     1       9.225  20.191  13.160  1.00  0.00     0.000 C 
BRANCH  10  11
ATOM     11  C   UNL     1       8.888  18.925  12.349  1.00  0.00     0.000 C 
BRANCH  11  12
ATOM     12  C   UNL     1      10.108  18.334  11.626  1.00  0.00     0.006 C 
BRANCH  12  13
ATOM     13  C   UNL     1      10.052  16.803  11.608  1.00  0.00     0.053 C 
BRANCH  13  14
ATOM     14  C   UNL     1       8.771  16.332  10.996  1.00  0.00     0.041 C 
ATOM     15  O   UNL     1       7.923  15.712  11.692  1.00  0.00    -0.550 OA
ATOM     16  O   UNL     1       8.493  16.614   9.664  1.00  0.00    -0.550 OA
ENDBRANCH  13  14
ENDBRANCH  12  13
ENDBRANCH  11  12
ENDBRANCH  10  11
ENDBRANCH   9  10
ENDBRANCH   8   9
ENDBRANCH   7   8
ENDBRANCH   6   7
ENDBRANCH   5   6
ENDBRANCH   4   5
ENDBRANCH   3   4
ENDBRANCH   2   3
ENDBRANCH   1   2
BRANCH   1  17
ATOM     17  C   UNL     1      15.321  17.153  16.326  1.00  0.00     0.000 C 
BRANCH  17  18
ATOM     18  C   UNL     1      16.409  17.099  15.235  1.00  0.00     0.000 C 
BRANCH  18  19
ATOM     19  C   UNL     1      16.500  18.354  14.343  1.00  0.00     0.000 C 
BRANCH  19  20
ATOM     20  C   UNL     1      15.413  19.416  14.601  1.00  0.00     0.000 C 
BRANCH  20  21
ATOM     21  C   UNL     1      15.900  20.676  15.337  1.00  0.00     0.000 C 
BRANCH  21  22
ATOM     22  C   UNL     1      15.131  20.937  16.642  1.00  0.00    -0.000 C 
BRANCH  22  23
ATOM     23  C   UNL     1      16.068  20.880  17.854  1.00  0.00    -0.000 C 
BRANCH  23  24
ATOM     24  C   UNL     1      15.686  19.729  18.794  1.00  0.00    -0.000 C 
BRANCH  24  25
ATOM     25  C   UNL     1      16.889  18.811  19.057  1.00  0.00    -0.000 C 
BRANCH  25  26
ATOM     26  C   UNL     1      18.047  19.037  18.066  1.00  0.00    -0.000 C 
BRANCH  26  27
ATOM     27  C   UNL     1      19.112  17.926  18.045  1.00  0.00    -0.000 C 
BRANCH  27  28
ATOM     28  C   UNL     1      20.322  18.270  17.164  1.00  0.00    -0.000 C 
BRANCH  28  29
ATOM     29  C   UNL     1      19.979  18.122  15.678  1.00  0.00    -0.003 C 
ATOM     30  C   UNL     1      20.037  19.468  14.962  1.00  0.00     0.004 C 
ENDBRANCH  28  29
ENDBRANCH  27  28
ENDBRANCH  26  27
ENDBRANCH  25  26
ENDBRANCH  24  25
ENDBRANCH  23  24
ENDBRANCH  22  23
ENDBRANCH  21  22
ENDBRANCH  20  21
ENDBRANCH  19  20
ENDBRANCH  18  19
ENDBRANCH  17  18
ENDBRANCH   1  17
TORSDOF 26
ENDMDL
MODEL 2
REMARK VINA RESULT:    -3.932      3.599      8.612
REMARK INTER + INTRA:         -14.473
REMARK INTER:                  -9.997
REMARK INTRA:                  -4.476
REMARK UNBOUND:                -4.564
REMARK SMILES CCCCCCCCCCCCCCCCCCCCCCCCCCCC(=O)[O-]
REMARK SMILES IDX 15 1 16 2 17 3 18 4 19 5 20 6 21 7 22 8 23 9 24 10 25 11
REMARK SMILES IDX 26 12 27 13 28 14 29 15 30 16 14 17 13 18 12 19 11 20 10 21
REMARK SMILES IDX 9 22 8 23 7 24 6 25 5 26 4 27 3 28 2 29 1 30
REMARK H PARENT
REMARK Flexibility Score: inf
ROOT
ATOM      1  C   UNL     1      12.238  15.728  16.884  1.00  0.00     0.000 C 
ENDROOT
BRANCH   1   2
ATOM      2  C   UNL     1      13.589  16.265  16.376  1.00  0.00     0.000 C 
BRANCH   2   3
ATOM      3  C   UNL     1      14.343  17.081  17.439  1.00  0.00     0.000 C 
BRANCH   3   4
ATOM      4  C   UNL     1      13.780  18.503  17.622  1.00  0.00     0.000 C 
BRANCH   4   5
ATOM      5  C   UNL     1      14.832  19.622  17.741  1.00  0.00     0.000 C 
BRANCH   5   6
ATOM      6  C   UNL     1      14.822  20.589  16.546  1.00  0.00     0.000 C 
BRANCH   6   7
ATOM      7  C   UNL     1      13.664  20.319  15.570  1.00  0.00     0.000 C 
BRANCH   7   8
ATOM      8  C   UNL     1      14.093  19.588  14.280  1.00  0.00     0.000 C 
BRANCH   8   9
ATOM      9  C   UNL     1      14.724  20.546  13.253  1.00  0.00     0.000 C 
BRANCH   9  10
ATOM     10  C   UNL     1      16.047  20.017  12.673  1.00  0.00     0.000 C 
BRANCH  10  11
ATOM     11  C   UNL     1      17.186  19.855  13.698  1.00  0.00     0.000 C 
BRANCH  11  12
ATOM     12  C   UNL     1      17.488  18.386  14.031  1.00  0.00     0.006 C 
BRANCH  12  13
ATOM     13  C   UNL     1      17.410  18.135  15.541  1.00  0.00     0.053 C 
BRANCH  13  14
ATOM     14  C   UNL     1      18.781  17.979  16.118  1.00  0.00     0.041 C 
ATOM     15  O   UNL     1      18.936  17.478  17.264  1.00  0.00    -0.550 OA
ATOM     16  O   UNL     1      19.894  18.351  15.374  1.00  0.00    -0.550 OA
ENDBRANCH  13  14
ENDBRANCH  12  13
ENDBRANCH  11  12
ENDBRANCH  10  11
ENDBRANCH   9  10
ENDBRANCH   8   9
ENDBRANCH   7   8
ENDBRANCH   6   7
ENDBRANCH   5   6
ENDBRANCH   4   5
ENDBRANCH   3   4
ENDBRANCH   2   3
ENDBRANCH   1   2
BRANCH   1  17
ATOM     17  C   UNL     1      10.997  16.278  16.151  1.00  0.00     0.000 C 
BRANCH  17  18
ATOM     18  C   UNL     1      11.262  17.476  15.217  1.00  0.00     0.000 C 
BRANCH  18  19
ATOM     19  C   UNL     1      10.968  17.218  13.726  1.00  0.00     0.000 C 
BRANCH  19  20
ATOM     20  C   UNL     1      10.570  18.467  12.915  1.00  0.00     0.000 C 
BRANCH  20  21
ATOM     21  C   UNL     1      10.450  19.762  13.737  1.00  0.00     0.000 C 
BRANCH  21  22
ATOM     22  C   UNL     1       9.120  20.494  13.503  1.00  0.00    -0.000 C 
BRANCH  22  23
ATOM     23  C   UNL     1       8.146  19.624  12.698  1.00  0.00    -0.000 C 
BRANCH  23  24
ATOM     24  C   UNL     1       7.400  20.458  11.649  1.00  0.00    -0.000 C 
BRANCH  24  25
ATOM     25  C   UNL     1       7.539  19.836  10.251  1.00  0.00    -0.000 C 
BRANCH  25  26
ATOM     26  C   UNL     1       8.996  19.795   9.753  1.00  0.00    -0.000 C 
BRANCH  26  27
ATOM     27  C   UNL     1       9.494  18.407   9.310  1.00  0.00    -0.000 C 
BRANCH  27  28
ATOM     28  C   UNL     1       8.402  17.328   9.375  1.00  0.00    -0.000 C 
BRANCH  28  29
ATOM     29  C   UNL     1       8.754  16.254  10.410  1.00  0.00    -0.003 C 
ATOM     30  C   UNL     1       7.697  16.182  11.509  1.00  0.00     0.004 C 
ENDBRANCH  28  29
ENDBRANCH  27  28
ENDBRANCH  26  27
ENDBRANCH  25  26
ENDBRANCH  24  25
ENDBRANCH  23  24
ENDBRANCH  22  23
ENDBRANCH  21  22
ENDBRANCH  20  21
ENDBRANCH  19  20
ENDBRANCH  18  19
ENDBRANCH  17  18
ENDBRANCH   1  17
TORSDOF 26
ENDMDL
MODEL 3
REMARK VINA RESULT:    -3.925      3.642      8.590
REMARK INTER + INTRA:         -14.454
REMARK INTER:                  -9.937
REMARK INTRA:                  -4.517
REMARK UNBOUND:                -4.564
REMARK SMILES CCCCCCCCCCCCCCCCCCCCCCCCCCCC(=O)[O-]
REMARK SMILES IDX 15 1 16 2 17 3 18 4 19 5 20 6 21 7 22 8 23 9 24 10 25 11
REMARK SMILES IDX 26 12 27 13 28 14 29 15 30 16 14 17 13 18 12 19 11 20 10 21
REMARK SMILES IDX 9 22 8 23 7 24 6 25 5 26 4 27 3 28 2 29 1 30
REMARK H PARENT
REMARK Flexibility Score: inf
ROOT
ATOM      1  C   UNL     1      14.929  16.240  15.993  1.00  0.00     0.000 C 
ENDROOT
BRANCH   1   2
ATOM      2  C   UNL     1      16.261  17.010  15.930  1.00  0.00     0.000 C 
BRANCH   2   3
ATOM      3  C   UNL     1      16.387  17.882  14.671  1.00  0.00     0.000 C 
BRANCH   3   4
ATOM      4  C   UNL     1      15.430  19.089  14.674  1.00  0.00     0.000 C 
BRANCH   4   5
ATOM      5  C   UNL     1      15.715  20.158  15.747  1.00  0.00     0.000 C 
BRANCH   5   6
ATOM      6  C   UNL     1      14.437  20.765  16.348  1.00  0.00     0.000 C 
BRANCH   6   7
ATOM      7  C   UNL     1      14.567  21.063  17.851  1.00  0.00     0.000 C 
BRANCH   7   8
ATOM      8  C   UNL     1      14.382  19.824  18.752  1.00  0.00     0.000 C 
BRANCH   8   9
ATOM      9  C   UNL     1      15.580  19.606  19.692  1.00  0.00     0.000 C 
BRANCH   9  10
ATOM     10  C   UNL     1      16.549  18.522  19.188  1.00  0.00     0.000 C 
BRANCH  10  11
ATOM     11  C   UNL     1      17.860  19.057  18.580  1.00  0.00     0.000 C 
BRANCH  11  12
ATOM     12  C   UNL     1      19.075  18.177  18.910  1.00  0.00     0.006 C 
BRANCH  12  13
ATOM     13  C   UNL     1      19.499  17.341  17.698  1.00  0.00     0.053 C 
BRANCH  13  14
ATOM     14  C   UNL     1      20.222  18.192  16.701  1.00  0.00     0.041 C 
ATOM     15  O   UNL     1      21.125  18.986  17.079  1.00  0.00    -0.550 OA
ATOM     16  O   UNL     1      19.927  18.079  15.349  1.00  0.00    -0.550 OA
ENDBRANCH  13  14
ENDBRANCH  12  13
ENDBRANCH  11  12
ENDBRANCH  10  11
ENDBRANCH   9  10
ENDBRANCH   8   9
ENDBRANCH   7   8
ENDBRANCH   6   7
ENDBRANCH   5   6
ENDBRANCH   4   5
ENDBRANCH   3   4
ENDBRANCH   2   3
ENDBRANCH   1   2
BRANCH   1  17
ATOM     17  C   UNL     1      13.975  16.673  17.125  1.00  0.00     0.000 C 
BRANCH  17  18
ATOM     18  C   UNL     1      13.052  15.563  17.668  1.00  0.00     0.000 C 
BRANCH  18  19
ATOM     19  C   UNL     1      11.722  15.393  16.906  1.00  0.00     0.000 C 
BRANCH  19  20
ATOM     20  C   UNL     1      11.077  16.707  16.420  1.00  0.00     0.000 C 
BRANCH  20  21
ATOM     21  C   UNL     1      10.997  16.862  14.892  1.00  0.00     0.000 C 
BRANCH  21  22
ATOM     22  C   UNL     1      11.826  18.046  14.371  1.00  0.00    -0.000 C 
BRANCH  22  23
ATOM     23  C   UNL     1      11.361  19.365  15.001  1.00  0.00    -0.000 C 
BRANCH  23  24
ATOM     24  C   UNL     1      11.350  20.497  13.965  1.00  0.00    -0.000 C 
BRANCH  24  25
ATOM     25  C   UNL     1      10.319  20.221  12.860  1.00  0.00    -0.000 C 
BRANCH  25  26
ATOM     26  C   UNL     1      10.940  20.202  11.450  1.00  0.00    -0.000 C 
BRANCH  26  27
ATOM     27  C   UNL     1      10.498  19.026  10.560  1.00  0.00    -0.000 C 
BRANCH  27  28
ATOM     28  C   UNL     1       9.381  18.181  11.192  1.00  0.00    -0.000 C 
BRANCH  28  29
ATOM     29  C   UNL     1       9.792  16.708  11.282  1.00  0.00    -0.003 C 
ATOM     30  C   UNL     1       8.720  15.879  11.984  1.00  0.00     0.004 C 
ENDBRANCH  28  29
ENDBRANCH  27  28
ENDBRANCH  26  27
ENDBRANCH  25  26
ENDBRANCH  24  25
ENDBRANCH  23  24
ENDBRANCH  22  23
ENDBRANCH  21  22
ENDBRANCH  20  21
ENDBRANCH  19  20
ENDBRANCH  18  19
ENDBRANCH  17  18
ENDBRANCH   1  17
TORSDOF 26
ENDMDL
MODEL 4
REMARK VINA RESULT:    -3.838      3.221      5.841
REMARK INTER + INTRA:         -14.235
REMARK INTER:                 -10.092
REMARK INTRA:                  -4.143
REMARK UNBOUND:                -4.564
REMARK SMILES CCCCCCCCCCCCCCCCCCCCCCCCCCCC(=O)[O-]
REMARK SMILES IDX 15 1 16 2 17 3 18 4 19 5 20 6 21 7 22 8 23 9 24 10 25 11
REMARK SMILES IDX 26 12 27 13 28 14 29 15 30 16 14 17 13 18 12 19 11 20 10 21
REMARK SMILES IDX 9 22 8 23 7 24 6 25 5 26 4 27 3 28 2 29 1 30
REMARK H PARENT
REMARK Flexibility Score: inf
ROOT
ATOM      1  C   UNL     1      11.007  17.963  13.669  1.00  0.00     0.000 C 
ENDROOT
BRANCH   1   2
ATOM      2  C   UNL     1       9.794  17.831  12.729  1.00  0.00     0.000 C 
BRANCH   2   3
ATOM      3  C   UNL     1       9.769  16.493  11.973  1.00  0.00     0.000 C 
BRANCH   3   4
ATOM      4  C   UNL     1       9.377  16.643  10.491  1.00  0.00     0.000 C 
BRANCH   4   5
ATOM      5  C   UNL     1       9.056  18.078  10.032  1.00  0.00     0.000 C 
BRANCH   5   6
ATOM      6  C   UNL     1      10.194  18.721   9.223  1.00  0.00     0.000 C 
BRANCH   6   7
ATOM      7  C   UNL     1      10.652  20.070   9.805  1.00  0.00     0.000 C 
BRANCH   7   8
ATOM      8  C   UNL     1      12.020  20.010  10.516  1.00  0.00     0.000 C 
BRANCH   8   9
ATOM      9  C   UNL     1      13.082  20.867   9.804  1.00  0.00     0.000 C 
BRANCH   9  10
ATOM     10  C   UNL     1      14.370  20.088   9.491  1.00  0.00     0.000 C 
BRANCH  10  11
ATOM     11  C   UNL     1      14.390  19.394   8.115  1.00  0.00     0.000 C 
BRANCH  11  12
ATOM     12  C   UNL     1      13.463  20.067   7.091  1.00  0.00     0.006 C 
BRANCH  12  13
ATOM     13  C   UNL     1      12.585  19.034   6.378  1.00  0.00     0.053 C 
BRANCH  13  14
ATOM     14  C   UNL     1      11.470  19.711   5.643  1.00  0.00     0.041 C 
ATOM     15  O   UNL     1      10.759  20.575   6.223  1.00  0.00    -0.550 OA
ATOM     16  O   UNL     1      11.242  19.417   4.305  1.00  0.00    -0.550 OA
ENDBRANCH  13  14
ENDBRANCH  12  13
ENDBRANCH  11  12
ENDBRANCH  10  11
ENDBRANCH   9  10
ENDBRANCH   8   9
ENDBRANCH   7   8
ENDBRANCH   6   7
ENDBRANCH   5   6
ENDBRANCH   4   5
ENDBRANCH   3   4
ENDBRANCH   2   3
ENDBRANCH   1   2
BRANCH   1  17
ATOM     17  C   UNL     1      11.033  19.244  14.528  1.00  0.00     0.000 C 
BRANCH  17  18
ATOM     18  C   UNL     1      12.153  20.246  14.183  1.00  0.00     0.000 C 
BRANCH  18  19
ATOM     19  C   UNL     1      13.580  19.662  14.211  1.00  0.00     0.000 C 
BRANCH  19  20
ATOM     20  C   UNL     1      14.598  20.388  13.308  1.00  0.00     0.000 C 
BRANCH  20  21
ATOM     21  C   UNL     1      15.987  19.731  13.240  1.00  0.00     0.000 C 
BRANCH  21  22
ATOM     22  C   UNL     1      16.499  19.280  14.617  1.00  0.00    -0.000 C 
BRANCH  22  23
ATOM     23  C   UNL     1      16.849  17.787  14.612  1.00  0.00    -0.000 C 
BRANCH  23  24
ATOM     24  C   UNL     1      15.881  16.991  15.496  1.00  0.00    -0.000 C 
BRANCH  24  25
ATOM     25  C   UNL     1      15.734  17.644  16.879  1.00  0.00    -0.000 C 
BRANCH  25  26
ATOM     26  C   UNL     1      14.265  17.828  17.304  1.00  0.00    -0.000 C 
BRANCH  26  27
ATOM     27  C   UNL     1      13.256  16.930  16.566  1.00  0.00    -0.000 C 
BRANCH  27  28
ATOM     28  C   UNL     1      12.889  15.664  17.356  1.00  0.00    -0.000 C 
BRANCH  28  29
ATOM     29  C   UNL     1      11.504  15.148  16.952  1.00  0.00    -0.003 C 
ATOM     30  C   UNL     1      10.481  16.281  16.925  1.00  0.00     0.004 C 
ENDBRANCH  28  29
ENDBRANCH  27  28
ENDBRANCH  26  27
ENDBRANCH  25  26
ENDBRANCH  24  25
ENDBRANCH  23  24
ENDBRANCH  22  23
ENDBRANCH  21  22
ENDBRANCH  20  21
ENDBRANCH  19  20
ENDBRANCH  18  19
ENDBRANCH  17  18
ENDBRANCH   1  17
TORSDOF 26
ENDMDL
MODEL 5
REMARK VINA RESULT:    -3.791      3.732      9.224
REMARK INTER + INTRA:         -14.117
REMARK INTER:                  -9.954
REMARK INTRA:                  -4.163
REMARK UNBOUND:                -4.564
REMARK SMILES CCCCCCCCCCCCCCCCCCCCCCCCCCCC(=O)[O-]
REMARK SMILES IDX 15 1 16 2 17 3 18 4 19 5 20 6 21 7 22 8 23 9 24 10 25 11
REMARK SMILES IDX 26 12 27 13 28 14 29 15 30 16 14 17 13 18 12 19 11 20 10 21
REMARK SMILES IDX 9 22 8 23 7 24 6 25 5 26 4 27 3 28 2 29 1 30
REMARK H PARENT
REMARK Flexibility Score: inf
ROOT
ATOM      1  C   UNL     1      12.964  15.608  17.503  1.00  0.00     0.000 C 
ENDROOT
BRANCH   1   2
ATOM      2  C   UNL     1      13.782  16.842  17.080  1.00  0.00     0.000 C 
BRANCH   2   3
ATOM      3  C   UNL     1      15.010  16.480  16.229  1.00  0.00     0.000 C 
BRANCH   3   4
ATOM      4  C   UNL     1      15.526  17.657  15.380  1.00  0.00     0.000 C 
BRANCH   4   5
ATOM      5  C   UNL     1      14.640  18.917  15.386  1.00  0.00     0.000 C 
BRANCH   5   6
ATOM      6  C   UNL     1      15.422  20.207  15.092  1.00  0.00     0.000 C 
BRANCH   6   7
ATOM      7  C   UNL     1      15.561  21.116  16.325  1.00  0.00     0.000 C 
BRANCH   7   8
ATOM      8  C   UNL     1      14.795  20.607  17.564  1.00  0.00     0.000 C 
BRANCH   8   9
ATOM      9  C   UNL     1      15.717  20.426  18.783  1.00  0.00     0.000 C 
BRANCH   9  10
ATOM     10  C   UNL     1      16.053  18.952  19.067  1.00  0.00     0.000 C 
BRANCH  10  11
ATOM     11  C   UNL     1      17.344  18.441  18.401  1.00  0.00     0.000 C 
BRANCH  11  12
ATOM     12  C   UNL     1      18.398  19.543  18.213  1.00  0.00     0.006 C 
BRANCH  12  13
ATOM     13  C   UNL     1      18.919  19.570  16.772  1.00  0.00     0.053 C 
BRANCH  13  14
ATOM     14  C   UNL     1      19.923  18.482  16.557  1.00  0.00     0.041 C 
ATOM     15  O   UNL     1      20.099  17.997  15.408  1.00  0.00    -0.550 OA
ATOM     16  O   UNL     1      20.695  18.030  17.620  1.00  0.00    -0.550 OA
ENDBRANCH  13  14
ENDBRANCH  12  13
ENDBRANCH  11  12
ENDBRANCH  10  11
ENDBRANCH   9  10
ENDBRANCH   8   9
ENDBRANCH   7   8
ENDBRANCH   6   7
ENDBRANCH   5   6
ENDBRANCH   4   5
ENDBRANCH   3   4
ENDBRANCH   2   3
ENDBRANCH   1   2
BRANCH   1  17
ATOM     17  C   UNL     1      11.570  15.492  16.853  1.00  0.00     0.000 C 
BRANCH  17  18
ATOM     18  C   UNL     1      11.001  16.805  16.277  1.00  0.00     0.000 C 
BRANCH  18  19
ATOM     19  C   UNL     1      11.098  16.940  14.744  1.00  0.00     0.000 C 
BRANCH  19  20
ATOM     20  C   UNL     1      11.214  18.388  14.225  1.00  0.00     0.000 C 
BRANCH  20  21
ATOM     21  C   UNL     1      10.579  18.634  12.846  1.00  0.00     0.000 C 
BRANCH  21  22
ATOM     22  C   UNL     1       9.218  19.343  12.937  1.00  0.00    -0.000 C 
BRANCH  22  23
ATOM     23  C   UNL     1       9.134  20.503  11.938  1.00  0.00    -0.000 C 
BRANCH  23  24
ATOM     24  C   UNL     1       9.996  20.228  10.700  1.00  0.00    -0.000 C 
BRANCH  24  25
ATOM     25  C   UNL     1       9.153  19.624   9.566  1.00  0.00    -0.000 C 
BRANCH  25  26
ATOM     26  C   UNL     1       9.564  18.182   9.214  1.00  0.00    -0.000 C 
BRANCH  26  27
ATOM     27  C   UNL     1       8.419  17.153   9.247  1.00  0.00    -0.000 C 
BRANCH  27  28
ATOM     28  C   UNL     1       7.289  17.541  10.212  1.00  0.00    -0.000 C 
BRANCH  28  29
ATOM     29  C   UNL     1       7.083  16.460  11.278  1.00  0.00    -0.003 C 
ATOM     30  C   UNL     1       8.415  15.858  11.717  1.00  0.00     0.004 C 
ENDBRANCH  28  29
ENDBRANCH  27  28
ENDBRANCH  26  27
ENDBRANCH  25  26
ENDBRANCH  24  25
ENDBRANCH  23  24
ENDBRANCH  22  23
ENDBRANCH  21  22
ENDBRANCH  20  21
ENDBRANCH  19  20
ENDBRANCH  18  19
ENDBRANCH  17  18
ENDBRANCH   1  17
TORSDOF 26
ENDMDL
MODEL 6
REMARK VINA RESULT:    -3.737      4.324      9.573
REMARK INTER + INTRA:         -13.982
REMARK INTER:                 -10.369
REMARK INTRA:                  -3.612
REMARK UNBOUND:                -4.564
REMARK SMILES CCCCCCCCCCCCCCCCCCCCCCCCCCCC(=O)[O-]
REMARK SMILES IDX 15 1 16 2 17 3 18 4 19 5 20 6 21 7 22 8 23 9 24 10 25 11
REMARK SMILES IDX 26 12 27 13 28 14 29 15 30 16 14 17 13 18 12 19 11 20 10 21
REMARK SMILES IDX 9 22 8 23 7 24 6 25 5 26 4 27 3 28 2 29 1 30
REMARK H PARENT
REMARK Flexibility Score: inf
ROOT
ATOM      1  C   UNL     1      11.895  15.273  16.885  1.00  0.00     0.000 C 
ENDROOT
BRANCH   1   2
ATOM      2  C   UNL     1      13.102  15.937  17.573  1.00  0.00     0.000 C 
BRANCH   2   3
ATOM      3  C   UNL     1      14.243  16.259  16.594  1.00  0.00     0.000 C 
BRANCH   3   4
ATOM      4  C   UNL     1      15.024  17.532  16.974  1.00  0.00     0.000 C 
BRANCH   4   5
ATOM      5  C   UNL     1      14.383  18.860  16.529  1.00  0.00     0.000 C 
BRANCH   5   6
ATOM      6  C   UNL     1      14.349  19.033  15.002  1.00  0.00     0.000 C 
BRANCH   6   7
ATOM      7  C   UNL     1      15.622  19.694  14.447  1.00  0.00     0.000 C 
BRANCH   7   8
ATOM      8  C   UNL     1      16.621  18.697  13.823  1.00  0.00     0.000 C 
BRANCH   8   9
ATOM      9  C   UNL     1      17.994  18.739  14.518  1.00  0.00     0.000 C 
BRANCH   9  10
ATOM     10  C   UNL     1      17.986  19.575  15.810  1.00  0.00     0.000 C 
BRANCH  10  11
ATOM     11  C   UNL     1      18.519  18.844  17.057  1.00  0.00     0.000 C 
BRANCH  11  12
ATOM     12  C   UNL     1      19.589  17.793  16.725  1.00  0.00     0.006 C 
BRANCH  12  13
ATOM     13  C   UNL     1      20.028  17.035  17.982  1.00  0.00     0.053 C 
BRANCH  13  14
ATOM     14  C   UNL     1      21.270  17.644  18.555  1.00  0.00     0.041 C 
ATOM     15  O   UNL     1      21.766  18.681  18.038  1.00  0.00    -0.550 OA
ATOM     16  O   UNL     1      21.856  17.091  19.686  1.00  0.00    -0.550 OA
ENDBRANCH  13  14
ENDBRANCH  12  13
ENDBRANCH  11  12
ENDBRANCH  10  11
ENDBRANCH   9  10
ENDBRANCH   8   9
ENDBRANCH   7   8
ENDBRANCH   6   7
ENDBRANCH   5   6
ENDBRANCH   4   5
ENDBRANCH   3   4
ENDBRANCH   2   3
ENDBRANCH   1   2
BRANCH   1  17
ATOM     17  C   UNL     1      10.693  16.206  16.627  1.00  0.00     0.000 C 
BRANCH  17  18
ATOM     18  C   UNL     1      11.009  17.473  15.807  1.00  0.00     0.000 C 
BRANCH  18  19
ATOM     19  C   UNL     1      11.217  17.238  14.298  1.00  0.00     0.000 C 
BRANCH  19  20
ATOM     20  C   UNL     1      10.472  18.224  13.376  1.00  0.00     0.000 C 
BRANCH  20  21
ATOM     21  C   UNL     1      11.348  19.333  12.771  1.00  0.00     0.000 C 
BRANCH  21  22
ATOM     22  C   UNL     1      10.551  20.306  11.887  1.00  0.00    -0.000 C 
BRANCH  22  23
ATOM     23  C   UNL     1       9.042  20.108  12.074  1.00  0.00    -0.000 C 
BRANCH  23  24
ATOM     24  C   UNL     1       8.347  19.862  10.728  1.00  0.00    -0.000 C 
BRANCH  24  25
ATOM     25  C   UNL     1       9.369  19.821   9.582  1.00  0.00    -0.000 C 
BRANCH  25  26
ATOM     26  C   UNL     1       9.523  18.418   8.964  1.00  0.00    -0.000 C 
BRANCH  26  27
ATOM     27  C   UNL     1       8.563  17.351   9.523  1.00  0.00    -0.000 C 
BRANCH  27  28
ATOM     28  C   UNL     1       9.232  16.415  10.540  1.00  0.00    -0.000 C 
BRANCH  28  29
ATOM     29  C   UNL     1       8.191  15.778  11.467  1.00  0.00    -0.003 C 
ATOM     30  C   UNL     1       6.945  16.652  11.577  1.00  0.00     0.004 C 
ENDBRANCH  28  29
ENDBRANCH  27  28
ENDBRANCH  26  27
ENDBRANCH  25  26
ENDBRANCH  24  25
ENDBRANCH  23  24
ENDBRANCH  22  23
ENDBRANCH  21  22
ENDBRANCH  20  21
ENDBRANCH  19  20
ENDBRANCH  18  19
ENDBRANCH  17  18
ENDBRANCH   1  17
TORSDOF 26
ENDMDL
MODEL 7
REMARK VINA RESULT:    -3.736      3.567      8.721
REMARK INTER + INTRA:         -13.979
REMARK INTER:                 -10.821
REMARK INTRA:                  -3.158
REMARK UNBOUND:                -4.564
REMARK SMILES CCCCCCCCCCCCCCCCCCCCCCCCCCCC(=O)[O-]
REMARK SMILES IDX 15 1 16 2 17 3 18 4 19 5 20 6 21 7 22 8 23 9 24 10 25 11
REMARK SMILES IDX 26 12 27 13 28 14 29 15 30 16 14 17 13 18 12 19 11 20 10 21
REMARK SMILES IDX 9 22 8 23 7 24 6 25 5 26 4 27 3 28 2 29 1 30
REMARK H PARENT
REMARK Flexibility Score: inf
ROOT
ATOM      1  C   UNL     1      14.080  19.236   8.110  1.00  0.00     0.000 C 
ENDROOT
BRANCH   1   2
ATOM      2  C   UNL     1      15.152  20.326   7.922  1.00  0.00     0.000 C 
BRANCH   2   3
ATOM      3  C   UNL     1      16.054  20.494   9.156  1.00  0.00     0.000 C 
BRANCH   3   4
ATOM      4  C   UNL     1      15.310  20.259  10.485  1.00  0.00     0.000 C 
BRANCH   4   5
ATOM      5  C   UNL     1      16.203  19.908  11.691  1.00  0.00     0.000 C 
BRANCH   5   6
ATOM      6  C   UNL     1      15.730  20.559  13.001  1.00  0.00     0.000 C 
BRANCH   6   7
ATOM      7  C   UNL     1      15.680  19.567  14.176  1.00  0.00     0.000 C 
BRANCH   7   8
ATOM      8  C   UNL     1      16.633  18.364  14.018  1.00  0.00     0.000 C 
BRANCH   8   9
ATOM      9  C   UNL     1      16.299  17.227  14.999  1.00  0.00     0.000 C 
BRANCH   9  10
ATOM     10  C   UNL     1      16.086  17.721  16.440  1.00  0.00     0.000 C 
BRANCH  10  11
ATOM     11  C   UNL     1      14.725  17.351  17.059  1.00  0.00     0.000 C 
BRANCH  11  12
ATOM     12  C   UNL     1      13.685  16.929  16.009  1.00  0.00     0.006 C 
BRANCH  12  13
ATOM     13  C   UNL     1      12.654  15.966  16.608  1.00  0.00     0.053 C 
BRANCH  13  14
ATOM     14  C   UNL     1      11.405  16.701  16.981  1.00  0.00     0.041 C 
ATOM     15  O   UNL     1      11.443  17.937  17.226  1.00  0.00    -0.550 OA
ATOM     16  O   UNL     1      10.189  16.029  17.017  1.00  0.00    -0.550 OA
ENDBRANCH  13  14
ENDBRANCH  12  13
ENDBRANCH  11  12
ENDBRANCH  10  11
ENDBRANCH   9  10
ENDBRANCH   8   9
ENDBRANCH   7   8
ENDBRANCH   6   7
ENDBRANCH   5   6
ENDBRANCH   4   5
ENDBRANCH   3   4
ENDBRANCH   2   3
ENDBRANCH   1   2
BRANCH   1  17
ATOM     17  C   UNL     1      13.587  18.572   6.808  1.00  0.00     0.000 C 
BRANCH  17  18
ATOM     18  C   UNL     1      12.561  19.391   5.999  1.00  0.00     0.000 C 
BRANCH  18  19
ATOM     19  C   UNL     1      11.104  19.278   6.489  1.00  0.00     0.000 C 
BRANCH  19  20
ATOM     20  C   UNL     1      10.625  20.441   7.381  1.00  0.00     0.000 C 
BRANCH  20  21
ATOM     21  C   UNL     1       9.922  20.013   8.681  1.00  0.00     0.000 C 
BRANCH  21  22
ATOM     22  C   UNL     1       9.954  18.492   8.901  1.00  0.00    -0.000 C 
BRANCH  22  23
ATOM     23  C   UNL     1       8.611  17.986   9.441  1.00  0.00    -0.000 C 
BRANCH  23  24
ATOM     24  C   UNL     1       8.699  16.507   9.840  1.00  0.00    -0.000 C 
BRANCH  24  25
ATOM     25  C   UNL     1       8.684  16.348  11.368  1.00  0.00    -0.000 C 
BRANCH  25  26
ATOM     26  C   UNL     1      10.022  16.733  12.026  1.00  0.00    -0.000 C 
BRANCH  26  27
ATOM     27  C   UNL     1      10.013  18.070  12.789  1.00  0.00    -0.000 C 
BRANCH  27  28
ATOM     28  C   UNL     1      11.267  18.279  13.651  1.00  0.00    -0.000 C 
BRANCH  28  29
ATOM     29  C   UNL     1      11.931  19.624  13.334  1.00  0.00    -0.003 C 
ATOM     30  C   UNL     1      11.864  19.933  11.841  1.00  0.00     0.004 C 
ENDBRANCH  28  29
ENDBRANCH  27  28
ENDBRANCH  26  27
ENDBRANCH  25  26
ENDBRANCH  24  25
ENDBRANCH  23  24
ENDBRANCH  22  23
ENDBRANCH  21  22
ENDBRANCH  20  21
ENDBRANCH  19  20
ENDBRANCH  18  19
ENDBRANCH  17  18
ENDBRANCH   1  17
TORSDOF 26
ENDMDL
MODEL 8
REMARK VINA RESULT:    -3.708      2.633      4.316
REMARK INTER + INTRA:         -13.908
REMARK INTER:                 -10.699
REMARK INTRA:                  -3.209
REMARK UNBOUND:                -4.564
REMARK SMILES CCCCCCCCCCCCCCCCCCCCCCCCCCCC(=O)[O-]
REMARK SMILES IDX 15 1 16 2 17 3 18 4 19 5 20 6 21 7 22 8 23 9 24 10 25 11
REMARK SMILES IDX 26 12 27 13 28 14 29 15 30 16 14 17 13 18 12 19 11 20 10 21
REMARK SMILES IDX 9 22 8 23 7 24 6 25 5 26 4 27 3 28 2 29 1 30
REMARK H PARENT
REMARK Flexibility Score: inf
ROOT
ATOM      1  C   UNL     1      12.112  15.864  16.880  1.00  0.00     0.000 C 
ENDROOT
BRANCH   1   2
ATOM      2  C   UNL     1      10.952  16.250  15.943  1.00  0.00     0.000 C 
BRANCH   2   3
ATOM      3  C   UNL     1      11.182  17.592  15.230  1.00  0.00     0.000 C 
BRANCH   3   4
ATOM      4  C   UNL     1      11.336  17.447  13.704  1.00  0.00     0.000 C 
BRANCH   4   5
ATOM      5  C   UNL     1      10.025  17.508  12.897  1.00  0.00     0.000 C 
BRANCH   5   6
ATOM      6  C   UNL     1       9.844  16.312  11.949  1.00  0.00     0.000 C 
BRANCH   6   7
ATOM      7  C   UNL     1       8.367  15.937  11.735  1.00  0.00     0.000 C 
BRANCH   7   8
ATOM      8  C   UNL     1       7.614  16.888  10.782  1.00  0.00     0.000 C 
BRANCH   8   9
ATOM      9  C   UNL     1       8.409  17.167   9.494  1.00  0.00     0.000 C 
BRANCH   9  10
ATOM     10  C   UNL     1       8.861  18.633   9.375  1.00  0.00     0.000 C 
BRANCH  10  11
ATOM     11  C   UNL     1      10.385  18.834   9.271  1.00  0.00     0.000 C 
BRANCH  11  12
ATOM     12  C   UNL     1      10.846  19.197   7.851  1.00  0.00     0.006 C 
BRANCH  12  13
ATOM     13  C   UNL     1      12.365  19.389   7.795  1.00  0.00     0.053 C 
BRANCH  13  14
ATOM     14  C   UNL     1      12.876  19.134   6.411  1.00  0.00     0.041 C 
ATOM     15  O   UNL     1      12.672  19.972   5.493  1.00  0.00    -0.550 OA
ATOM     16  O   UNL     1      13.613  17.987   6.144  1.00  0.00    -0.550 OA
ENDBRANCH  13  14
ENDBRANCH  12  13
ENDBRANCH  11  12
ENDBRANCH  10  11
ENDBRANCH   9  10
ENDBRANCH   8   9
ENDBRANCH   7   8
ENDBRANCH   6   7
ENDBRANCH   5   6
ENDBRANCH   4   5
ENDBRANCH   3   4
ENDBRANCH   2   3
ENDBRANCH   1   2
BRANCH   1  17
ATOM     17  C   UNL     1      13.517  16.250  16.374  1.00  0.00     0.000 C 
BRANCH  17  18
ATOM     18  C   UNL     1      14.418  16.956  17.408  1.00  0.00     0.000 C 
BRANCH  18  19
ATOM     19  C   UNL     1      14.080  18.439  17.663  1.00  0.00     0.000 C 
BRANCH  19  20
ATOM     20  C   UNL     1      15.226  19.428  17.368  1.00  0.00     0.000 C 
BRANCH  20  21
ATOM     21  C   UNL     1      14.854  20.588  16.429  1.00  0.00     0.000 C 
BRANCH  21  22
ATOM     22  C   UNL     1      13.777  20.201  15.403  1.00  0.00    -0.000 C 
BRANCH  22  23
ATOM     23  C   UNL     1      14.385  19.407  14.240  1.00  0.00    -0.000 C 
BRANCH  23  24
ATOM     24  C   UNL     1      15.664  20.079  13.723  1.00  0.00    -0.000 C 
BRANCH  24  25
ATOM     25  C   UNL     1      16.723  19.030  13.348  1.00  0.00    -0.000 C 
BRANCH  25  26
ATOM     26  C   UNL     1      17.039  18.057  14.499  1.00  0.00    -0.000 C 
BRANCH  26  27
ATOM     27  C   UNL     1      18.332  18.367  15.277  1.00  0.00    -0.000 C 
BRANCH  27  28
ATOM     28  C   UNL     1      18.389  17.676  16.647  1.00  0.00    -0.000 C 
BRANCH  28  29
ATOM     29  C   UNL     1      19.834  17.338  17.031  1.00  0.00    -0.003 C 
ATOM     30  C   UNL     1      20.537  18.546  17.643  1.00  0.00     0.004 C 
ENDBRANCH  28  29
ENDBRANCH  27  28
ENDBRANCH  26  27
ENDBRANCH  25  26
ENDBRANCH  24  25
ENDBRANCH  23  24
ENDBRANCH  22  23
ENDBRANCH  21  22
ENDBRANCH  20  21
ENDBRANCH  19  20
ENDBRANCH  18  19
ENDBRANCH  17  18
ENDBRANCH   1  17
TORSDOF 26
ENDMDL
MODEL 9
REMARK VINA RESULT:    -3.666      4.206      9.233
REMARK INTER + INTRA:         -13.802
REMARK INTER:                  -9.820
REMARK INTRA:                  -3.982
REMARK UNBOUND:                -4.564
REMARK SMILES CCCCCCCCCCCCCCCCCCCCCCCCCCCC(=O)[O-]
REMARK SMILES IDX 15 1 16 2 17 3 18 4 19 5 20 6 21 7 22 8 23 9 24 10 25 11
REMARK SMILES IDX 26 12 27 13 28 14 29 15 30 16 14 17 13 18 12 19 11 20 10 21
REMARK SMILES IDX 9 22 8 23 7 24 6 25 5 26 4 27 3 28 2 29 1 30
REMARK H PARENT
REMARK Flexibility Score: inf
ROOT
ATOM      1  C   UNL     1      10.585  17.140  12.805  1.00  0.00     0.000 C 
ENDROOT
BRANCH   1   2
ATOM      2  C   UNL     1      10.169  18.543  13.287  1.00  0.00     0.000 C 
BRANCH   2   3
ATOM      3  C   UNL     1      11.370  19.416  13.684  1.00  0.00     0.000 C 
BRANCH   3   4
ATOM      4  C   UNL     1      12.298  18.738  14.709  1.00  0.00     0.000 C 
BRANCH   4   5
ATOM      5  C   UNL     1      11.819  18.787  16.173  1.00  0.00     0.000 C 
BRANCH   5   6
ATOM      6  C   UNL     1      11.392  17.414  16.715  1.00  0.00     0.000 C 
BRANCH   6   7
ATOM      7  C   UNL     1      12.317  16.276  16.251  1.00  0.00     0.000 C 
BRANCH   7   8
ATOM      8  C   UNL     1      13.641  16.187  17.038  1.00  0.00     0.000 C 
BRANCH   8   9
ATOM      9  C   UNL     1      14.871  16.278  16.118  1.00  0.00     0.000 C 
BRANCH   9  10
ATOM     10  C   UNL     1      15.449  17.701  16.029  1.00  0.00     0.000 C 
BRANCH  10  11
ATOM     11  C   UNL     1      15.528  18.453  17.371  1.00  0.00     0.000 C 
BRANCH  11  12
ATOM     12  C   UNL     1      16.839  19.235  17.543  1.00  0.00     0.006 C 
BRANCH  12  13
ATOM     13  C   UNL     1      17.708  18.621  18.645  1.00  0.00     0.053 C 
BRANCH  13  14
ATOM     14  C   UNL     1      18.968  18.056  18.067  1.00  0.00     0.041 C 
ATOM     15  O   UNL     1      18.930  17.365  17.014  1.00  0.00    -0.550 OA
ATOM     16  O   UNL     1      20.190  18.328  18.668  1.00  0.00    -0.550 OA
ENDBRANCH  13  14
ENDBRANCH  12  13
ENDBRANCH  11  12
ENDBRANCH  10  11
ENDBRANCH   9  10
ENDBRANCH   8   9
ENDBRANCH   7   8
ENDBRANCH   6   7
ENDBRANCH   5   6
ENDBRANCH   4   5
ENDBRANCH   3   4
ENDBRANCH   2   3
ENDBRANCH   1   2
BRANCH   1  17
ATOM     17  C   UNL     1       9.806  16.611  11.583  1.00  0.00     0.000 C 
BRANCH  17  18
ATOM     18  C   UNL     1       8.492  15.872  11.910  1.00  0.00     0.000 C 
BRANCH  18  19
ATOM     19  C   UNL     1       7.270  16.318  11.082  1.00  0.00     0.000 C 
BRANCH  19  20
ATOM     20  C   UNL     1       7.361  17.745  10.505  1.00  0.00     0.000 C 
BRANCH  20  21
ATOM     21  C   UNL     1       6.880  18.858  11.451  1.00  0.00     0.000 C 
BRANCH  21  22
ATOM     22  C   UNL     1       7.638  20.180  11.247  1.00  0.00    -0.000 C 
BRANCH  22  23
ATOM     23  C   UNL     1       8.480  20.140   9.967  1.00  0.00    -0.000 C 
BRANCH  23  24
ATOM     24  C   UNL     1       9.868  20.752  10.200  1.00  0.00    -0.000 C 
BRANCH  24  25
ATOM     25  C   UNL     1      10.977  19.749   9.850  1.00  0.00    -0.000 C 
BRANCH  25  26
ATOM     26  C   UNL     1      10.582  18.787   8.713  1.00  0.00    -0.000 C 
BRANCH  26  27
ATOM     27  C   UNL     1      10.997  19.242   7.302  1.00  0.00    -0.000 C 
BRANCH  27  28
ATOM     28  C   UNL     1      12.340  19.988   7.282  1.00  0.00    -0.000 C 
BRANCH  28  29
ATOM     29  C   UNL     1      13.514  19.005   7.339  1.00  0.00    -0.003 C 
ATOM     30  C   UNL     1      14.601  19.501   8.289  1.00  0.00     0.004 C 
ENDBRANCH  28  29
ENDBRANCH  27  28
ENDBRANCH  26  27
ENDBRANCH  25  26
ENDBRANCH  24  25
ENDBRANCH  23  24
ENDBRANCH  22  23
ENDBRANCH  21  22
ENDBRANCH  20  21
ENDBRANCH  19  20
ENDBRANCH  18  19
ENDBRANCH  17  18
ENDBRANCH   1  17
TORSDOF 26
ENDMDL
