MODEL 1
REMARK VINA RESULT:    -5.550      0.000      0.000
REMARK INTER + INTRA:          -7.723
REMARK INTER:                  -7.497
REMARK INTRA:                  -0.226
REMARK UNBOUND:                -0.226
REMARK SMILES CCCCCCC=CC(=O)[O-]
REMARK SMILES IDX 5 1 6 2 7 3 8 4 9 5 10 6 11 7 4 8 3 9 2 10 1 11
REMARK H PARENT
REMARK Flexibility Score: inf
ROOT
ATOM      1  C   UNL     1      18.399 125.272  15.383  1.00  0.00     0.004 C 
ENDROOT
BRANCH   1   2
ATOM      2  C   UNL     1      18.366 123.739  15.317  1.00  0.00     0.027 C 
BRANCH   2   3
ATOM      3  C   UNL     1      18.250 123.120  16.687  1.00  0.00    -0.025 C 
ATOM      4  C   UNL     1      17.654 121.958  17.004  1.00  0.00     0.020 C 
BRANCH   4   5
ATOM      5  C   UNL     1      16.999 121.000  16.088  1.00  0.00     0.064 C 
ATOM      6  O   UNL     1      17.594 120.496  15.102  1.00  0.00    -0.545 OA
ATOM      7  O   UNL     1      15.677 120.646  16.327  1.00  0.00    -0.545 OA
ENDBRANCH   4   5
ENDBRANCH   2   3
ENDBRANCH   1   2
BRANCH   1   8
ATOM      8  C   UNL     1      19.581 125.802  16.210  1.00  0.00     0.000 C 
BRANCH   8   9
ATOM      9  C   UNL     1      19.993 127.227  15.807  1.00  0.00    -0.000 C 
BRANCH   9  10
ATOM     10  C   UNL     1      19.147 128.305  16.500  1.00  0.00    -0.003 C 
ATOM     11  C   UNL     1      18.790 127.891  17.925  1.00  0.00     0.004 C 
ENDBRANCH   9  10
ENDBRANCH   8   9
ENDBRANCH   1   8
TORSDOF 6
ENDMDL
MODEL 2
REMARK VINA RESULT:    -5.439      1.252      1.734
REMARK INTER + INTRA:          -7.573
REMARK INTER:                  -7.344
REMARK INTRA:                  -0.229
REMARK UNBOUND:                -0.226
REMARK SMILES CCCCCCC=CC(=O)[O-]
REMARK SMILES IDX 5 1 6 2 7 3 8 4 9 5 10 6 11 7 4 8 3 9 2 10 1 11
REMARK H PARENT
REMARK Flexibility Score: inf
ROOT
ATOM      1  C   UNL     1      18.832 124.075  16.481  1.00  0.00     0.004 C 
ENDROOT
BRANCH   1   2
ATOM      2  C   UNL     1      17.994 122.841  16.844  1.00  0.00     0.027 C 
BRANCH   2   3
ATOM      3  C   UNL     1      17.668 122.008  15.630  1.00  0.00    -0.025 C 
ATOM      4  C   UNL     1      16.922 120.889  15.590  1.00  0.00     0.020 C 
BRANCH   4   5
ATOM      5  C   UNL     1      16.226 120.229  16.715  1.00  0.00     0.064 C 
ATOM      6  O   UNL     1      16.838 119.779  17.716  1.00  0.00    -0.545 OA
ATOM      7  O   UNL     1      14.843 120.104  16.662  1.00  0.00    -0.545 OA
ENDBRANCH   4   5
ENDBRANCH   2   3
ENDBRANCH   1   2
BRANCH   1   8
ATOM      8  C   UNL     1      17.982 125.349  16.360  1.00  0.00     0.000 C 
BRANCH   8   9
ATOM      9  C   UNL     1      18.425 126.247  15.194  1.00  0.00    -0.000 C 
BRANCH   9  10
ATOM     10  C   UNL     1      19.534 127.232  15.594  1.00  0.00    -0.003 C 
ATOM     11  C   UNL     1      19.147 128.016  16.845  1.00  0.00     0.004 C 
ENDBRANCH   9  10
ENDBRANCH   8   9
ENDBRANCH   1   8
TORSDOF 6
ENDMDL
MODEL 3
REMARK VINA RESULT:    -5.434      3.465      6.244
REMARK INTER + INTRA:          -7.566
REMARK INTER:                  -7.348
REMARK INTRA:                  -0.218
REMARK UNBOUND:                -0.226
REMARK SMILES CCCCCCC=CC(=O)[O-]
REMARK SMILES IDX 5 1 6 2 7 3 8 4 9 5 10 6 11 7 4 8 3 9 2 10 1 11
REMARK H PARENT
REMARK Flexibility Score: inf
ROOT
ATOM      1  C   UNL     1      17.838 122.765  15.859  1.00  0.00     0.004 C 
ENDROOT
BRANCH   1   2
ATOM      2  C   UNL     1      18.025 124.079  16.630  1.00  0.00     0.027 C 
BRANCH   2   3
ATOM      3  C   UNL     1      19.211 124.862  16.127  1.00  0.00    -0.025 C 
ATOM      4  C   UNL     1      19.535 126.131  16.432  1.00  0.00     0.020 C 
BRANCH   4   5
ATOM      5  C   UNL     1      18.826 127.046  17.352  1.00  0.00     0.064 C 
ATOM      6  O   UNL     1      18.756 126.837  18.589  1.00  0.00    -0.545 OA
ATOM      7  O   UNL     1      18.217 128.179  16.827  1.00  0.00    -0.545 OA
ENDBRANCH   4   5
ENDBRANCH   2   3
ENDBRANCH   1   2
BRANCH   1   8
ATOM      8  C   UNL     1      17.587 121.567  16.789  1.00  0.00     0.000 C 
BRANCH   8   9
ATOM      9  C   UNL     1      16.630 120.532  16.175  1.00  0.00    -0.000 C 
BRANCH   9  10
ATOM     10  C   UNL     1      16.099 119.530  17.212  1.00  0.00    -0.003 C 
ATOM     11  C   UNL     1      16.721 119.777  18.583  1.00  0.00     0.004 C 
ENDBRANCH   9  10
ENDBRANCH   8   9
ENDBRANCH   1   8
TORSDOF 6
ENDMDL
MODEL 4
REMARK VINA RESULT:    -5.337      2.083      2.684
REMARK INTER + INTRA:          -7.436
REMARK INTER:                  -7.119
REMARK INTRA:                  -0.317
REMARK UNBOUND:                -0.226
REMARK SMILES CCCCCCC=CC(=O)[O-]
REMARK SMILES IDX 5 1 6 2 7 3 8 4 9 5 10 6 11 7 4 8 3 9 2 10 1 11
REMARK H PARENT
REMARK Flexibility Score: inf
ROOT
ATOM      1  C   UNL     1      18.031 124.513  16.719  1.00  0.00     0.004 C 
ENDROOT
BRANCH   1   2
ATOM      2  C   UNL     1      18.372 123.752  15.429  1.00  0.00     0.027 C 
BRANCH   2   3
ATOM      3  C   UNL     1      17.942 122.309  15.499  1.00  0.00    -0.025 C 
ATOM      4  C   UNL     1      17.986 121.401  14.508  1.00  0.00     0.020 C 
BRANCH   4   5
ATOM      5  C   UNL     1      18.489 121.592  13.131  1.00  0.00     0.064 C 
ATOM      6  O   UNL     1      17.722 121.781  12.153  1.00  0.00    -0.545 OA
ATOM      7  O   UNL     1      19.860 121.562  12.913  1.00  0.00    -0.545 OA
ENDBRANCH   4   5
ENDBRANCH   2   3
ENDBRANCH   1   2
BRANCH   1   8
ATOM      8  C   UNL     1      17.874 126.024  16.487  1.00  0.00     0.000 C 
BRANCH   8   9
ATOM      9  C   UNL     1      19.001 126.842  17.139  1.00  0.00    -0.000 C 
BRANCH   9  10
ATOM     10  C   UNL     1      19.384 128.081  16.315  1.00  0.00    -0.003 C 
ATOM     11  C   UNL     1      20.121 127.686  15.039  1.00  0.00     0.004 C 
ENDBRANCH   9  10
ENDBRANCH   8   9
ENDBRANCH   1   8
TORSDOF 6
ENDMDL
MODEL 5
REMARK VINA RESULT:    -5.247      3.374      5.771
REMARK INTER + INTRA:          -7.314
REMARK INTER:                  -7.150
REMARK INTRA:                  -0.163
REMARK UNBOUND:                -0.226
REMARK SMILES CCCCCCC=CC(=O)[O-]
REMARK SMILES IDX 5 1 6 2 7 3 8 4 9 5 10 6 11 7 4 8 3 9 2 10 1 11
REMARK H PARENT
REMARK Flexibility Score: inf
ROOT
ATOM      1  C   UNL     1      19.157 124.820  15.290  1.00  0.00     0.004 C 
ENDROOT
BRANCH   1   2
ATOM      2  C   UNL     1      18.328 126.108  15.394  1.00  0.00     0.027 C 
BRANCH   2   3
ATOM      3  C   UNL     1      19.184 127.302  15.729  1.00  0.00    -0.025 C 
ATOM      4  C   UNL     1      19.270 127.934  16.913  1.00  0.00     0.020 C 
BRANCH   4   5
ATOM      5  C   UNL     1      18.570 127.591  18.170  1.00  0.00     0.064 C 
ATOM      6  O   UNL     1      18.356 126.403  18.520  1.00  0.00    -0.545 OA
ATOM      7  O   UNL     1      18.136 128.622  18.993  1.00  0.00    -0.545 OA
ENDBRANCH   4   5
ENDBRANCH   2   3
ENDBRANCH   1   2
BRANCH   1   8
ATOM      8  C   UNL     1      18.294 123.553  15.391  1.00  0.00     0.000 C 
BRANCH   8   9
ATOM      9  C   UNL     1      18.095 123.087  16.843  1.00  0.00    -0.000 C 
BRANCH   9  10
ATOM     10  C   UNL     1      17.462 121.691  16.934  1.00  0.00    -0.003 C 
ATOM     11  C   UNL     1      16.658 121.370  15.678  1.00  0.00     0.004 C 
ENDBRANCH   9  10
ENDBRANCH   8   9
ENDBRANCH   1   8
TORSDOF 6
ENDMDL
MODEL 6
REMARK VINA RESULT:    -5.189      3.783      5.861
REMARK INTER + INTRA:          -7.235
REMARK INTER:                  -7.016
REMARK INTRA:                  -0.219
REMARK UNBOUND:                -0.226
REMARK SMILES CCCCCCC=CC(=O)[O-]
REMARK SMILES IDX 5 1 6 2 7 3 8 4 9 5 10 6 11 7 4 8 3 9 2 10 1 11
REMARK H PARENT
REMARK Flexibility Score: inf
ROOT
ATOM      1  C   UNL     1      18.094 122.885  16.880  1.00  0.00     0.004 C 
ENDROOT
BRANCH   1   2
ATOM      2  C   UNL     1      18.730 124.262  16.640  1.00  0.00     0.027 C 
BRANCH   2   3
ATOM      3  C   UNL     1      17.689 125.334  16.444  1.00  0.00    -0.025 C 
ATOM      4  C   UNL     1      17.884 126.665  16.448  1.00  0.00     0.020 C 
BRANCH   4   5
ATOM      5  C   UNL     1      19.162 127.389  16.615  1.00  0.00     0.064 C 
ATOM      6  O   UNL     1      20.102 127.298  15.784  1.00  0.00    -0.545 OA
ATOM      7  O   UNL     1      19.329 128.199  17.731  1.00  0.00    -0.545 OA
ENDBRANCH   4   5
ENDBRANCH   2   3
ENDBRANCH   1   2
BRANCH   1   8
ATOM      8  C   UNL     1      17.687 122.188  15.573  1.00  0.00     0.000 C 
BRANCH   8   9
ATOM      9  C   UNL     1      18.493 122.684  14.362  1.00  0.00    -0.000 C 
BRANCH   9  10
ATOM     10  C   UNL     1      18.428 121.715  13.171  1.00  0.00    -0.003 C 
ATOM     11  C   UNL     1      19.824 121.265  12.752  1.00  0.00     0.004 C 
ENDBRANCH   9  10
ENDBRANCH   8   9
ENDBRANCH   1   8
TORSDOF 6
ENDMDL
MODEL 7
REMARK VINA RESULT:    -5.139      3.065      6.273
REMARK INTER + INTRA:          -7.168
REMARK INTER:                  -6.873
REMARK INTRA:                  -0.295
REMARK UNBOUND:                -0.226
REMARK SMILES CCCCCCC=CC(=O)[O-]
REMARK SMILES IDX 5 1 6 2 7 3 8 4 9 5 10 6 11 7 4 8 3 9 2 10 1 11
REMARK H PARENT
REMARK Flexibility Score: inf
ROOT
ATOM      1  C   UNL     1      17.182 121.398  15.715  1.00  0.00     0.004 C 
ENDROOT
BRANCH   1   2
ATOM      2  C   UNL     1      18.033 122.667  15.557  1.00  0.00     0.027 C 
BRANCH   2   3
ATOM      3  C   UNL     1      18.018 123.512  16.804  1.00  0.00    -0.025 C 
ATOM      4  C   UNL     1      18.391 124.800  16.917  1.00  0.00     0.020 C 
BRANCH   4   5
ATOM      5  C   UNL     1      18.874 125.695  15.845  1.00  0.00     0.064 C 
ATOM      6  O   UNL     1      18.137 126.075  14.900  1.00  0.00    -0.545 OA
ATOM      7  O   UNL     1      20.192 126.133  15.885  1.00  0.00    -0.545 OA
ENDBRANCH   4   5
ENDBRANCH   2   3
ENDBRANCH   1   2
BRANCH   1   8
ATOM      8  C   UNL     1      17.032 120.970  17.183  1.00  0.00     0.000 C 
BRANCH   8   9
ATOM      9  C   UNL     1      16.351 119.600  17.333  1.00  0.00    -0.000 C 
BRANCH   9  10
ATOM     10  C   UNL     1      14.933 119.577  16.740  1.00  0.00    -0.003 C 
ATOM     11  C   UNL     1      13.903 119.184  17.795  1.00  0.00     0.004 C 
ENDBRANCH   9  10
ENDBRANCH   8   9
ENDBRANCH   1   8
TORSDOF 6
ENDMDL
MODEL 8
REMARK VINA RESULT:    -5.074      1.670      2.643
REMARK INTER + INTRA:          -7.080
REMARK INTER:                  -6.828
REMARK INTRA:                  -0.251
REMARK UNBOUND:                -0.226
REMARK SMILES CCCCCCC=CC(=O)[O-]
REMARK SMILES IDX 5 1 6 2 7 3 8 4 9 5 10 6 11 7 4 8 3 9 2 10 1 11
REMARK H PARENT
REMARK Flexibility Score: inf
ROOT
ATOM      1  C   UNL     1      17.982 122.557  15.323  1.00  0.00     0.004 C 
ENDROOT
BRANCH   1   2
ATOM      2  C   UNL     1      16.887 121.497  15.515  1.00  0.00     0.027 C 
BRANCH   2   3
ATOM      3  C   UNL     1      17.100 120.692  16.772  1.00  0.00    -0.025 C 
ATOM      4  C   UNL     1      16.275 119.764  17.290  1.00  0.00     0.020 C 
BRANCH   4   5
ATOM      5  C   UNL     1      14.986 119.295  16.740  1.00  0.00     0.064 C 
ATOM      6  O   UNL     1      14.867 118.192  16.150  1.00  0.00    -0.545 OA
ATOM      7  O   UNL     1      13.866 120.105  16.882  1.00  0.00    -0.545 OA
ENDBRANCH   4   5
ENDBRANCH   2   3
ENDBRANCH   1   2
BRANCH   1   8
ATOM      8  C   UNL     1      18.141 123.467  16.550  1.00  0.00     0.000 C 
BRANCH   8   9
ATOM      9  C   UNL     1      18.767 124.827  16.200  1.00  0.00    -0.000 C 
BRANCH   9  10
ATOM     10  C   UNL     1      17.979 126.009  16.786  1.00  0.00    -0.003 C 
ATOM     11  C   UNL     1      18.913 127.144  17.192  1.00  0.00     0.004 C 
ENDBRANCH   9  10
ENDBRANCH   8   9
ENDBRANCH   1   8
TORSDOF 6
ENDMDL
MODEL 9
REMARK VINA RESULT:    -4.884      2.542      3.445
REMARK INTER + INTRA:          -6.823
REMARK INTER:                  -6.496
REMARK INTRA:                  -0.327
REMARK UNBOUND:                -0.226
REMARK SMILES CCCCCCC=CC(=O)[O-]
REMARK SMILES IDX 5 1 6 2 7 3 8 4 9 5 10 6 11 7 4 8 3 9 2 10 1 11
REMARK H PARENT
REMARK Flexibility Score: inf
ROOT
ATOM      1  C   UNL     1      18.332 123.381  15.070  1.00  0.00     0.004 C 
ENDROOT
BRANCH   1   2
ATOM      2  C   UNL     1      17.936 121.900  14.980  1.00  0.00     0.027 C 
BRANCH   2   3
ATOM      3  C   UNL     1      17.452 121.532  13.601  1.00  0.00    -0.025 C 
ATOM      4  C   UNL     1      18.137 120.875  12.648  1.00  0.00     0.020 C 
BRANCH   4   5
ATOM      5  C   UNL     1      19.511 120.336  12.736  1.00  0.00     0.064 C 
ATOM      6  O   UNL     1      20.527 121.077  12.739  1.00  0.00    -0.545 OA
ATOM      7  O   UNL     1      19.683 118.960  12.820  1.00  0.00    -0.545 OA
ENDBRANCH   4   5
ENDBRANCH   2   3
ENDBRANCH   1   2
BRANCH   1   8
ATOM      8  C   UNL     1      18.392 123.888  16.519  1.00  0.00     0.000 C 
BRANCH   8   9
ATOM      9  C   UNL     1      17.888 125.333  16.662  1.00  0.00    -0.000 C 
BRANCH   9  10
ATOM     10  C   UNL     1      18.357 126.238  15.512  1.00  0.00    -0.003 C 
ATOM     11  C   UNL     1      19.742 126.812  15.795  1.00  0.00     0.004 C 
ENDBRANCH   9  10
ENDBRANCH   8   9
ENDBRANCH   1   8
TORSDOF 6
ENDMDL
