MODEL 1
REMARK VINA RESULT:    -4.815      0.000      0.000
REMARK INTER + INTRA:          -5.588
REMARK INTER:                  -5.378
REMARK INTRA:                  -0.211
REMARK UNBOUND:                -0.211
REMARK SMILES CC(C)c1ccc(C(=O)[O-])cc1
REMARK SMILES IDX 7 1 6 2 11 3 5 4 12 5 4 6 8 7 9 8 10 9 2 10 1 11 3 12
REMARK H PARENT
REMARK Flexibility Score: inf
ROOT
ATOM      1  C   UNL     1     157.741 139.488 161.068  1.00  0.00    -0.003 A 
ATOM      2  C   UNL     1     157.896 139.515 159.671  1.00  0.00     0.010 A 
ATOM      3  C   UNL     1     157.335 138.293 161.686  1.00  0.00     0.010 A 
ATOM      4  C   UNL     1     157.651 138.369 158.909  1.00  0.00     0.004 A 
ATOM      5  C   UNL     1     157.090 137.148 160.923  1.00  0.00     0.004 A 
ATOM      6  C   UNL     1     157.244 137.172 159.526  1.00  0.00    -0.045 A 
ENDROOT
BRANCH   1   7
ATOM      7  C   UNL     1     158.002 140.702 161.871  1.00  0.00     0.071 C 
ATOM      8  O   UNL     1     158.125 140.629 163.123  1.00  0.00    -0.545 OA
ATOM      9  O   UNL     1     158.116 141.944 161.255  1.00  0.00    -0.545 OA
ENDBRANCH   1   7
BRANCH   6  10
ATOM     10  C   UNL     1     156.975 135.921 158.711  1.00  0.00     0.013 C 
ATOM     11  C   UNL     1     155.636 135.284 159.101  1.00  0.00     0.012 C 
ATOM     12  C   UNL     1     158.125 134.916 158.845  1.00  0.00     0.012 C 
ENDBRANCH   6  10
TORSDOF 2
ENDMDL
MODEL 2
REMARK VINA RESULT:    -2.971     11.812     13.039
REMARK INTER + INTRA:          -3.529
REMARK INTER:                  -3.316
REMARK INTRA:                  -0.213
REMARK UNBOUND:                -0.211
REMARK SMILES CC(C)c1ccc(C(=O)[O-])cc1
REMARK SMILES IDX 7 1 6 2 11 3 5 4 12 5 4 6 8 7 9 8 10 9 2 10 1 11 3 12
REMARK H PARENT
REMARK Flexibility Score: inf
ROOT
ATOM      1  C   UNL     1     155.028 142.004 148.189  1.00  0.00    -0.003 A 
ATOM      2  C   UNL     1     155.008 142.615 149.454  1.00  0.00     0.010 A 
ATOM      3  C   UNL     1     153.880 141.327 147.741  1.00  0.00     0.010 A 
ATOM      4  C   UNL     1     153.864 142.549 150.255  1.00  0.00     0.004 A 
ATOM      5  C   UNL     1     152.737 141.262 148.543  1.00  0.00     0.004 A 
ATOM      6  C   UNL     1     152.716 141.871 149.809  1.00  0.00    -0.045 A 
ENDROOT
BRANCH   1   7
ATOM      7  C   UNL     1     156.239 142.076 147.343  1.00  0.00     0.071 C 
ATOM      8  O   UNL     1     157.318 141.547 147.723  1.00  0.00    -0.545 OA
ATOM      9  O   UNL     1     156.205 142.730 146.116  1.00  0.00    -0.545 OA
ENDBRANCH   1   7
BRANCH   6  10
ATOM     10  C   UNL     1     151.468 141.793 150.669  1.00  0.00     0.013 C 
ATOM     11  C   UNL     1     151.811 141.380 152.105  1.00  0.00     0.012 C 
ATOM     12  C   UNL     1     150.432 140.843 150.053  1.00  0.00     0.012 C 
ENDBRANCH   6  10
TORSDOF 2
ENDMDL
MODEL 3
REMARK VINA RESULT:    -2.778     20.714     21.645
REMARK INTER + INTRA:          -3.314
REMARK INTER:                  -3.094
REMARK INTRA:                  -0.219
REMARK UNBOUND:                -0.211
REMARK SMILES CC(C)c1ccc(C(=O)[O-])cc1
REMARK SMILES IDX 7 1 6 2 11 3 5 4 12 5 4 6 8 7 9 8 10 9 2 10 1 11 3 12
REMARK H PARENT
REMARK Flexibility Score: inf
ROOT
ATOM      1  C   UNL     1     144.796 147.531 145.111  1.00  0.00    -0.003 A 
ATOM      2  C   UNL     1     145.566 148.162 144.119  1.00  0.00     0.010 A 
ATOM      3  C   UNL     1     145.002 146.165 145.367  1.00  0.00     0.010 A 
ATOM      4  C   UNL     1     146.521 147.440 143.398  1.00  0.00     0.004 A 
ATOM      5  C   UNL     1     145.957 145.444 144.645  1.00  0.00     0.004 A 
ATOM      6  C   UNL     1     146.728 146.072 143.652  1.00  0.00    -0.045 A 
ENDROOT
BRANCH   1   7
ATOM      7  C   UNL     1     143.787 148.298 145.873  1.00  0.00     0.071 C 
ATOM      8  O   UNL     1     143.494 149.478 145.543  1.00  0.00    -0.545 OA
ATOM      9  O   UNL     1     143.145 147.727 146.967  1.00  0.00    -0.545 OA
ENDBRANCH   1   7
BRANCH   6  10
ATOM     10  C   UNL     1     147.762 145.278 142.876  1.00  0.00     0.013 C 
ATOM     11  C   UNL     1     147.884 143.850 143.420  1.00  0.00     0.012 C 
ATOM     12  C   UNL     1     149.120 145.989 142.879  1.00  0.00     0.012 C 
ENDBRANCH   6  10
TORSDOF 2
ENDMDL
MODEL 4
REMARK VINA RESULT:    -2.166     18.304     19.279
REMARK INTER + INTRA:          -2.630
REMARK INTER:                  -2.420
REMARK INTRA:                  -0.211
REMARK UNBOUND:                -0.211
REMARK SMILES CC(C)c1ccc(C(=O)[O-])cc1
REMARK SMILES IDX 7 1 6 2 11 3 5 4 12 5 4 6 8 7 9 8 10 9 2 10 1 11 3 12
REMARK H PARENT
REMARK Flexibility Score: inf
ROOT
ATOM      1  C   UNL     1     148.557 147.576 147.045  1.00  0.00    -0.003 A 
ATOM      2  C   UNL     1     149.126 146.293 146.967  1.00  0.00     0.010 A 
ATOM      3  C   UNL     1     147.671 147.991 146.037  1.00  0.00     0.010 A 
ATOM      4  C   UNL     1     148.815 145.444 145.901  1.00  0.00     0.004 A 
ATOM      5  C   UNL     1     147.361 147.141 144.971  1.00  0.00     0.004 A 
ATOM      6  C   UNL     1     147.929 145.858 144.890  1.00  0.00    -0.045 A 
ENDROOT
BRANCH   1   7
ATOM      7  C   UNL     1     148.888 148.472 148.175  1.00  0.00     0.071 C 
ATOM      8  O   UNL     1     147.974 149.001 148.862  1.00  0.00    -0.545 OA
ATOM      9  O   UNL     1     150.214 148.744 148.494  1.00  0.00    -0.545 OA
ENDBRANCH   1   7
BRANCH   6  10
ATOM     10  C   UNL     1     147.583 144.946 143.728  1.00  0.00     0.013 C 
ATOM     11  C   UNL     1     148.821 144.643 142.875  1.00  0.00     0.012 C 
ATOM     12  C   UNL     1     146.456 145.542 142.875  1.00  0.00     0.012 C 
ENDBRANCH   6  10
TORSDOF 2
ENDMDL
MODEL 5
REMARK VINA RESULT:    -1.946     11.765     12.984
REMARK INTER + INTRA:          -2.384
REMARK INTER:                  -2.173
REMARK INTRA:                  -0.211
REMARK UNBOUND:                -0.211
REMARK SMILES CC(C)c1ccc(C(=O)[O-])cc1
REMARK SMILES IDX 7 1 6 2 11 3 5 4 12 5 4 6 8 7 9 8 10 9 2 10 1 11 3 12
REMARK H PARENT
REMARK Flexibility Score: inf
ROOT
ATOM      1  C   UNL     1     152.628 141.671 149.752  1.00  0.00    -0.003 A 
ATOM      2  C   UNL     1     152.819 141.162 148.457  1.00  0.00     0.010 A 
ATOM      3  C   UNL     1     153.663 142.408 150.354  1.00  0.00     0.010 A 
ATOM      4  C   UNL     1     154.020 141.386 147.777  1.00  0.00     0.004 A 
ATOM      5  C   UNL     1     154.863 142.630 149.674  1.00  0.00     0.004 A 
ATOM      6  C   UNL     1     155.056 142.122 148.378  1.00  0.00    -0.045 A 
ENDROOT
BRANCH   1   7
ATOM      7  C   UNL     1     151.356 141.433 150.468  1.00  0.00     0.071 C 
ATOM      8  O   UNL     1     150.353 140.974 149.859  1.00  0.00    -0.545 OA
ATOM      9  O   UNL     1     151.248 141.713 151.827  1.00  0.00    -0.545 OA
ENDBRANCH   1   7
BRANCH   6  10
ATOM     10  C   UNL     1     156.365 142.372 147.651  1.00  0.00     0.013 C 
ATOM     11  C   UNL     1     156.152 142.428 146.134  1.00  0.00     0.012 C 
ATOM     12  C   UNL     1     157.413 141.317 148.024  1.00  0.00     0.012 C 
ENDBRANCH   6  10
TORSDOF 2
ENDMDL
MODEL 6
REMARK VINA RESULT:    -1.944     18.452     19.694
REMARK INTER + INTRA:          -2.382
REMARK INTER:                  -2.174
REMARK INTRA:                  -0.208
REMARK UNBOUND:                -0.211
REMARK SMILES CC(C)c1ccc(C(=O)[O-])cc1
REMARK SMILES IDX 7 1 6 2 11 3 5 4 12 5 4 6 8 7 9 8 10 9 2 10 1 11 3 12
REMARK H PARENT
REMARK Flexibility Score: inf
ROOT
ATOM      1  C   UNL     1     147.878 145.971 144.932  1.00  0.00    -0.003 A 
ATOM      2  C   UNL     1     147.378 147.262 145.172  1.00  0.00     0.010 A 
ATOM      3  C   UNL     1     148.787 145.411 145.846  1.00  0.00     0.010 A 
ATOM      4  C   UNL     1     147.779 147.978 146.304  1.00  0.00     0.004 A 
ATOM      5  C   UNL     1     149.188 146.128 146.977  1.00  0.00     0.004 A 
ATOM      6  C   UNL     1     148.690 147.420 147.219  1.00  0.00    -0.045 A 
ENDROOT
BRANCH   1   7
ATOM      7  C   UNL     1     147.450 145.215 143.735  1.00  0.00     0.071 C 
ATOM      8  O   UNL     1     146.228 145.110 143.445  1.00  0.00    -0.545 OA
ATOM      9  O   UNL     1     148.392 144.610 142.909  1.00  0.00    -0.545 OA
ENDBRANCH   1   7
BRANCH   6  10
ATOM     10  C   UNL     1     149.133 148.186 148.451  1.00  0.00     0.013 C 
ATOM     11  C   UNL     1     148.179 149.348 148.753  1.00  0.00     0.012 C 
ATOM     12  C   UNL     1     150.577 148.682 148.302  1.00  0.00     0.012 C 
ENDBRANCH   6  10
TORSDOF 2
ENDMDL
MODEL 7
REMARK VINA RESULT:    -1.932     11.799     13.048
REMARK INTER + INTRA:          -2.369
REMARK INTER:                  -2.156
REMARK INTRA:                  -0.213
REMARK UNBOUND:                -0.211
REMARK SMILES CC(C)c1ccc(C(=O)[O-])cc1
REMARK SMILES IDX 7 1 6 2 11 3 5 4 12 5 4 6 8 7 9 8 10 9 2 10 1 11 3 12
REMARK H PARENT
REMARK Flexibility Score: inf
ROOT
ATOM      1  C   UNL     1     152.579 141.660 149.703  1.00  0.00    -0.003 A 
ATOM      2  C   UNL     1     153.607 142.375 150.340  1.00  0.00     0.010 A 
ATOM      3  C   UNL     1     152.788 141.183 148.398  1.00  0.00     0.010 A 
ATOM      4  C   UNL     1     154.819 142.609 149.684  1.00  0.00     0.004 A 
ATOM      5  C   UNL     1     154.001 141.418 147.743  1.00  0.00     0.004 A 
ATOM      6  C   UNL     1     155.030 142.133 148.377  1.00  0.00    -0.045 A 
ENDROOT
BRANCH   1   7
ATOM      7  C   UNL     1     151.298 141.414 150.400  1.00  0.00     0.071 C 
ATOM      8  O   UNL     1     150.309 140.943 149.777  1.00  0.00    -0.545 OA
ATOM      9  O   UNL     1     151.166 141.698 151.755  1.00  0.00    -0.545 OA
ENDBRANCH   1   7
BRANCH   6  10
ATOM     10  C   UNL     1     156.341 142.380 147.655  1.00  0.00     0.013 C 
ATOM     11  C   UNL     1     156.139 142.407 146.135  1.00  0.00     0.012 C 
ATOM     12  C   UNL     1     157.395 141.340 148.053  1.00  0.00     0.012 C 
ENDBRANCH   6  10
TORSDOF 2
ENDMDL
MODEL 8
REMARK VINA RESULT:    -1.910     12.345     13.566
REMARK INTER + INTRA:          -2.344
REMARK INTER:                  -2.126
REMARK INTRA:                  -0.218
REMARK UNBOUND:                -0.211
REMARK SMILES CC(C)c1ccc(C(=O)[O-])cc1
REMARK SMILES IDX 7 1 6 2 11 3 5 4 12 5 4 6 8 7 9 8 10 9 2 10 1 11 3 12
REMARK H PARENT
REMARK Flexibility Score: inf
ROOT
ATOM      1  C   UNL     1     154.768 142.049 147.547  1.00  0.00    -0.003 A 
ATOM      2  C   UNL     1     154.924 142.360 148.909  1.00  0.00     0.010 A 
ATOM      3  C   UNL     1     153.585 141.420 147.123  1.00  0.00     0.010 A 
ATOM      4  C   UNL     1     153.916 142.048 149.827  1.00  0.00     0.004 A 
ATOM      5  C   UNL     1     152.579 141.108 148.042  1.00  0.00     0.004 A 
ATOM      6  C   UNL     1     152.732 141.418 149.404  1.00  0.00    -0.045 A 
ENDROOT
BRANCH   1   7
ATOM      7  C   UNL     1     155.835 142.382 146.578  1.00  0.00     0.071 C 
ATOM      8  O   UNL     1     157.048 142.275 146.900  1.00  0.00    -0.545 OA
ATOM      9  O   UNL     1     155.513 142.817 145.297  1.00  0.00    -0.545 OA
ENDBRANCH   1   7
BRANCH   6  10
ATOM     10  C   UNL     1     151.632 141.074 150.390  1.00  0.00     0.013 C 
ATOM     11  C   UNL     1     150.249 141.192 149.739  1.00  0.00     0.012 C 
ATOM     12  C   UNL     1     151.726 141.945 151.649  1.00  0.00     0.012 C 
ENDBRANCH   6  10
TORSDOF 2
ENDMDL
