MODEL 1
REMARK VINA RESULT:    -3.863      0.000      0.000
REMARK INTER + INTRA:          -4.833
REMARK INTER:                  -4.767
REMARK INTRA:                  -0.067
REMARK UNBOUND:                -0.067
REMARK SMILES CCCCCC(=O)[O-]
REMARK SMILES IDX 4 1 5 2 6 3 7 4 8 5 3 6 2 7 1 8
REMARK H PARENT
REMARK Flexibility Score: inf
ROOT
ATOM      1  C   UNL     1      38.527  82.512  24.189  1.00  0.00     0.006 C 
ENDROOT
BRANCH   1   2
ATOM      2  C   UNL     1      37.271  81.638  24.051  1.00  0.00     0.053 C 
BRANCH   2   3
ATOM      3  C   UNL     1      36.295  82.207  23.068  1.00  0.00     0.041 C 
ATOM      4  O   UNL     1      35.295  81.535  22.706  1.00  0.00    -0.550 OA
ATOM      5  O   UNL     1      36.509  83.467  22.525  1.00  0.00    -0.550 OA
ENDBRANCH   2   3
ENDBRANCH   1   2
BRANCH   1   6
ATOM      6  C   UNL     1      39.412  82.174  25.408  1.00  0.00     0.000 C 
BRANCH   6   7
ATOM      7  C   UNL     1      39.881  80.710  25.481  1.00  0.00    -0.003 C 
ATOM      8  C   UNL     1      41.393  80.576  25.664  1.00  0.00     0.004 C 
ENDBRANCH   6   7
ENDBRANCH   1   6
TORSDOF 4
ENDMDL
MODEL 2
REMARK VINA RESULT:    -3.406     15.296     16.620
REMARK INTER + INTRA:          -4.269
REMARK INTER:                  -4.052
REMARK INTRA:                  -0.218
REMARK UNBOUND:                -0.067
REMARK SMILES CCCCCC(=O)[O-]
REMARK SMILES IDX 4 1 5 2 6 3 7 4 8 5 3 6 2 7 1 8
REMARK H PARENT
REMARK Flexibility Score: inf
ROOT
ATOM      1  C   UNL     1      34.498  76.973   8.505  1.00  0.00     0.006 C 
ENDROOT
BRANCH   1   2
ATOM      2  C   UNL     1      34.749  75.465   8.342  1.00  0.00     0.053 C 
BRANCH   2   3
ATOM      3  C   UNL     1      36.115  75.179   7.798  1.00  0.00     0.041 C 
ATOM      4  O   UNL     1      36.261  74.858   6.589  1.00  0.00    -0.550 OA
ATOM      5  O   UNL     1      37.222  75.232   8.634  1.00  0.00    -0.550 OA
ENDBRANCH   2   3
ENDBRANCH   1   2
BRANCH   1   6
ATOM      6  C   UNL     1      34.196  77.418   9.952  1.00  0.00     0.000 C 
BRANCH   6   7
ATOM      7  C   UNL     1      35.080  76.764  11.029  1.00  0.00    -0.003 C 
ATOM      8  C   UNL     1      36.353  77.558  11.320  1.00  0.00     0.004 C 
ENDBRANCH   6   7
ENDBRANCH   1   6
TORSDOF 4
ENDMDL
MODEL 3
REMARK VINA RESULT:    -3.373     14.908     16.316
REMARK INTER + INTRA:          -4.229
REMARK INTER:                  -4.140
REMARK INTRA:                  -0.088
REMARK UNBOUND:                -0.067
REMARK SMILES CCCCCC(=O)[O-]
REMARK SMILES IDX 4 1 5 2 6 3 7 4 8 5 3 6 2 7 1 8
REMARK H PARENT
REMARK Flexibility Score: inf
ROOT
ATOM      1  C   UNL     1      34.721  76.646   9.019  1.00  0.00     0.006 C 
ENDROOT
BRANCH   1   2
ATOM      2  C   UNL     1      35.654  76.247  10.173  1.00  0.00     0.053 C 
BRANCH   2   3
ATOM      3  C   UNL     1      35.720  77.304  11.233  1.00  0.00     0.041 C 
ATOM      4  O   UNL     1      36.834  77.718  11.646  1.00  0.00    -0.550 OA
ATOM      5  O   UNL     1      34.550  77.806  11.788  1.00  0.00    -0.550 OA
ENDBRANCH   2   3
ENDBRANCH   1   2
BRANCH   1   6
ATOM      6  C   UNL     1      34.951  75.861   7.709  1.00  0.00     0.000 C 
BRANCH   6   7
ATOM      7  C   UNL     1      36.320  75.166   7.603  1.00  0.00    -0.003 C 
ATOM      8  C   UNL     1      36.397  74.174   6.442  1.00  0.00     0.004 C 
ENDBRANCH   6   7
ENDBRANCH   1   6
TORSDOF 4
ENDMDL
MODEL 4
REMARK VINA RESULT:    -3.294     14.488     15.999
REMARK INTER + INTRA:          -4.131
REMARK INTER:                  -3.896
REMARK INTRA:                  -0.235
REMARK UNBOUND:                -0.067
REMARK SMILES CCCCCC(=O)[O-]
REMARK SMILES IDX 4 1 5 2 6 3 7 4 8 5 3 6 2 7 1 8
REMARK H PARENT
REMARK Flexibility Score: inf
ROOT
ATOM      1  C   UNL     1      33.568  77.236   9.526  1.00  0.00     0.006 C 
ENDROOT
BRANCH   1   2
ATOM      2  C   UNL     1      34.402  78.022  10.551  1.00  0.00     0.053 C 
BRANCH   2   3
ATOM      3  C   UNL     1      35.521  77.201  11.113  1.00  0.00     0.041 C 
ATOM      4  O   UNL     1      35.379  75.960  11.271  1.00  0.00    -0.550 OA
ATOM      5  O   UNL     1      36.708  77.811  11.496  1.00  0.00    -0.550 OA
ENDBRANCH   2   3
ENDBRANCH   1   2
BRANCH   1   6
ATOM      6  C   UNL     1      34.253  77.042   8.157  1.00  0.00     0.000 C 
BRANCH   6   7
ATOM      7  C   UNL     1      34.566  75.581   7.789  1.00  0.00    -0.003 C 
ATOM      8  C   UNL     1      36.059  75.259   7.838  1.00  0.00     0.004 C 
ENDBRANCH   6   7
ENDBRANCH   1   6
TORSDOF 4
ENDMDL
MODEL 5
REMARK VINA RESULT:    -3.201     14.687     15.775
REMARK INTER + INTRA:          -4.017
REMARK INTER:                  -3.781
REMARK INTRA:                  -0.236
REMARK UNBOUND:                -0.067
REMARK SMILES CCCCCC(=O)[O-]
REMARK SMILES IDX 4 1 5 2 6 3 7 4 8 5 3 6 2 7 1 8
REMARK H PARENT
REMARK Flexibility Score: inf
ROOT
ATOM      1  C   UNL     1      36.373  76.598  10.687  1.00  0.00     0.006 C 
ENDROOT
BRANCH   1   2
ATOM      2  C   UNL     1      35.472  75.591   9.955  1.00  0.00     0.053 C 
BRANCH   2   3
ATOM      3  C   UNL     1      35.392  75.873   8.486  1.00  0.00     0.041 C 
ATOM      4  O   UNL     1      36.158  75.276   7.685  1.00  0.00    -0.550 OA
ATOM      5  O   UNL     1      34.497  76.819   8.007  1.00  0.00    -0.550 OA
ENDBRANCH   2   3
ENDBRANCH   1   2
BRANCH   1   6
ATOM      6  C   UNL     1      35.612  77.724  11.419  1.00  0.00     0.000 C 
BRANCH   6   7
ATOM      7  C   UNL     1      34.109  77.465  11.622  1.00  0.00    -0.003 C 
ATOM      8  C   UNL     1      33.226  78.537  10.983  1.00  0.00     0.004 C 
ENDBRANCH   6   7
ENDBRANCH   1   6
TORSDOF 4
ENDMDL
MODEL 6
REMARK VINA RESULT:    -3.199     16.082     17.285
REMARK INTER + INTRA:          -4.014
REMARK INTER:                  -3.967
REMARK INTRA:                  -0.048
REMARK UNBOUND:                -0.067
REMARK SMILES CCCCCC(=O)[O-]
REMARK SMILES IDX 4 1 5 2 6 3 7 4 8 5 3 6 2 7 1 8
REMARK H PARENT
REMARK Flexibility Score: inf
ROOT
ATOM      1  C   UNL     1      35.493  75.803   8.644  1.00  0.00     0.006 C 
ENDROOT
BRANCH   1   2
ATOM      2  C   UNL     1      36.379  75.111   7.595  1.00  0.00     0.053 C 
BRANCH   2   3
ATOM      3  C   UNL     1      35.570  74.344   6.595  1.00  0.00     0.041 C 
ATOM      4  O   UNL     1      35.982  73.235   6.165  1.00  0.00    -0.550 OA
ATOM      5  O   UNL     1      34.380  74.870   6.111  1.00  0.00    -0.550 OA
ENDBRANCH   2   3
ENDBRANCH   1   2
BRANCH   1   6
ATOM      6  C   UNL     1      36.129  75.915  10.046  1.00  0.00     0.000 C 
BRANCH   6   7
ATOM      7  C   UNL     1      35.530  77.013  10.943  1.00  0.00    -0.003 C 
ATOM      8  C   UNL     1      36.591  77.805  11.707  1.00  0.00     0.004 C 
ENDBRANCH   6   7
ENDBRANCH   1   6
TORSDOF 4
ENDMDL
MODEL 7
REMARK VINA RESULT:    -3.166     14.614     16.175
REMARK INTER + INTRA:          -3.973
REMARK INTER:                  -3.756
REMARK INTRA:                  -0.217
REMARK UNBOUND:                -0.067
REMARK SMILES CCCCCC(=O)[O-]
REMARK SMILES IDX 4 1 5 2 6 3 7 4 8 5 3 6 2 7 1 8
REMARK H PARENT
REMARK Flexibility Score: inf
ROOT
ATOM      1  C   UNL     1      36.294  75.666   9.259  1.00  0.00     0.006 C 
ENDROOT
BRANCH   1   2
ATOM      2  C   UNL     1      35.620  75.883  10.623  1.00  0.00     0.053 C 
BRANCH   2   3
ATOM      3  C   UNL     1      35.693  77.313  11.064  1.00  0.00     0.041 C 
ATOM      4  O   UNL     1      34.792  78.126  10.729  1.00  0.00    -0.550 OA
ATOM      5  O   UNL     1      36.774  77.755  11.814  1.00  0.00    -0.550 OA
ENDBRANCH   2   3
ENDBRANCH   1   2
BRANCH   1   6
ATOM      6  C   UNL     1      35.328  75.267   8.123  1.00  0.00     0.000 C 
BRANCH   6   7
ATOM      7  C   UNL     1      34.377  76.385   7.659  1.00  0.00    -0.003 C 
ATOM      8  C   UNL     1      32.923  76.137   8.062  1.00  0.00     0.004 C 
ENDBRANCH   6   7
ENDBRANCH   1   6
TORSDOF 4
ENDMDL
MODEL 8
REMARK VINA RESULT:    -3.162     14.744     16.130
REMARK INTER + INTRA:          -3.968
REMARK INTER:                  -3.699
REMARK INTRA:                  -0.269
REMARK UNBOUND:                -0.067
REMARK SMILES CCCCCC(=O)[O-]
REMARK SMILES IDX 4 1 5 2 6 3 7 4 8 5 3 6 2 7 1 8
REMARK H PARENT
REMARK Flexibility Score: inf
ROOT
ATOM      1  C   UNL     1      33.981  76.296   8.360  1.00  0.00     0.006 C 
ENDROOT
BRANCH   1   2
ATOM      2  C   UNL     1      35.397  75.853   8.761  1.00  0.00     0.053 C 
BRANCH   2   3
ATOM      3  C   UNL     1      35.612  75.930  10.241  1.00  0.00     0.041 C 
ATOM      4  O   UNL     1      36.559  76.616  10.709  1.00  0.00    -0.550 OA
ATOM      5  O   UNL     1      34.788  75.218  11.102  1.00  0.00    -0.550 OA
ENDBRANCH   2   3
ENDBRANCH   1   2
BRANCH   1   6
ATOM      6  C   UNL     1      33.647  77.762   8.706  1.00  0.00     0.000 C 
BRANCH   6   7
ATOM      7  C   UNL     1      32.562  77.943   9.782  1.00  0.00    -0.003 C 
ATOM      8  C   UNL     1      33.095  78.577  11.067  1.00  0.00     0.004 C 
ENDBRANCH   6   7
ENDBRANCH   1   6
TORSDOF 4
ENDMDL
