MODEL 1
REMARK VINA RESULT:    -4.130      0.000      0.000
REMARK INTER + INTRA:          -8.549
REMARK INTER:                  -7.511
REMARK INTRA:                  -1.038
REMARK UNBOUND:                -1.038
REMARK SMILES CCCCCCCCCCCCCC[C@H](C)C(=O)[O-]
REMARK SMILES IDX 9 1 10 2 11 3 12 4 13 5 14 6 15 7 16 8 17 9 18 10 19 11 8 12
REMARK SMILES IDX 7 13 6 14 5 15 4 16 3 17 2 18 1 19
REMARK H PARENT
REMARK Flexibility Score: inf
ROOT
ATOM      1  C   UNL     1     -37.479  -9.691  -0.769  1.00  0.00     0.000 C 
ENDROOT
BRANCH   1   2
ATOM      2  C   UNL     1     -35.949  -9.702  -0.906  1.00  0.00     0.000 C 
BRANCH   2   3
ATOM      3  C   UNL     1     -35.455 -10.668  -1.999  1.00  0.00     0.000 C 
BRANCH   3   4
ATOM      4  C   UNL     1     -34.668 -11.858  -1.411  1.00  0.00     0.000 C 
BRANCH   4   5
ATOM      5  C   UNL     1     -34.890 -12.058   0.098  1.00  0.00     0.001 C 
BRANCH   5   6
ATOM      6  C   UNL     1     -33.580 -12.053   0.902  1.00  0.00     0.009 C 
BRANCH   6   7
ATOM      7  C   UNL     1     -33.815 -11.762   2.399  1.00  0.00     0.032 C 
ATOM      8  C   UNL     1     -34.846 -10.642   2.575  1.00  0.00     0.014 C 
BRANCH   7   9
ATOM      9  C   UNL     1     -32.533 -11.384   3.091  1.00  0.00     0.044 C 
ATOM     10  O   UNL     1     -32.562 -10.897   4.252  1.00  0.00    -0.550 OA
ATOM     11  O   UNL     1     -31.311 -11.563   2.454  1.00  0.00    -0.550 OA
ENDBRANCH   7   9
ENDBRANCH   6   7
ENDBRANCH   5   6
ENDBRANCH   4   5
ENDBRANCH   3   4
ENDBRANCH   2   3
ENDBRANCH   1   2
BRANCH   1  12
ATOM     12  C   UNL     1     -37.945  -9.189   0.609  1.00  0.00     0.000 C 
BRANCH  12  13
ATOM     13  C   UNL     1     -37.971  -7.655   0.699  1.00  0.00    -0.000 C 
BRANCH  13  14
ATOM     14  C   UNL     1     -38.125  -6.982  -0.676  1.00  0.00    -0.000 C 
BRANCH  14  15
ATOM     15  C   UNL     1     -37.780  -5.484  -0.639  1.00  0.00    -0.000 C 
BRANCH  15  16
ATOM     16  C   UNL     1     -37.491  -4.912  -2.038  1.00  0.00    -0.000 C 
BRANCH  16  17
ATOM     17  C   UNL     1     -37.423  -3.376  -2.045  1.00  0.00    -0.000 C 
BRANCH  17  18
ATOM     18  C   UNL     1     -37.120  -2.794  -0.656  1.00  0.00    -0.003 C 
ATOM     19  C   UNL     1     -36.662  -1.341  -0.759  1.00  0.00     0.004 C 
ENDBRANCH  17  18
ENDBRANCH  16  17
ENDBRANCH  15  16
ENDBRANCH  14  15
ENDBRANCH  13  14
ENDBRANCH  12  13
ENDBRANCH   1  12
TORSDOF 14
ENDMDL
MODEL 2
REMARK VINA RESULT:    -4.024     16.340     18.076
REMARK INTER + INTRA:          -8.355
REMARK INTER:                  -7.851
REMARK INTRA:                  -0.504
REMARK UNBOUND:                -1.038
REMARK SMILES CCCCCCCCCCCCCC[C@H](C)C(=O)[O-]
REMARK SMILES IDX 9 1 10 2 11 3 12 4 13 5 14 6 15 7 16 8 17 9 18 10 19 11 8 12
REMARK SMILES IDX 7 13 6 14 5 15 4 16 3 17 2 18 1 19
REMARK H PARENT
REMARK Flexibility Score: inf
ROOT
ATOM      1  C   UNL     1     -19.781  -0.518  -3.377  1.00  0.00     0.000 C 
ENDROOT
BRANCH   1   2
ATOM      2  C   UNL     1     -19.924  -1.988  -2.952  1.00  0.00     0.000 C 
BRANCH   2   3
ATOM      3  C   UNL     1     -20.215  -2.149  -1.448  1.00  0.00     0.000 C 
BRANCH   3   4
ATOM      4  C   UNL     1     -19.645  -3.466  -0.883  1.00  0.00     0.000 C 
BRANCH   4   5
ATOM      5  C   UNL     1     -19.724  -3.565   0.651  1.00  0.00     0.001 C 
BRANCH   5   6
ATOM      6  C   UNL     1     -19.218  -4.913   1.191  1.00  0.00     0.009 C 
BRANCH   6   7
ATOM      7  C   UNL     1     -20.351  -5.751   1.818  1.00  0.00     0.032 C 
ATOM      8  C   UNL     1     -20.473  -5.456   3.317  1.00  0.00     0.014 C 
BRANCH   7   9
ATOM      9  C   UNL     1     -20.122  -7.224   1.609  1.00  0.00     0.044 C 
ATOM     10  O   UNL     1     -21.022  -8.052   1.909  1.00  0.00    -0.550 OA
ATOM     11  O   UNL     1     -18.917  -7.681   1.090  1.00  0.00    -0.550 OA
ENDBRANCH   7   9
ENDBRANCH   6   7
ENDBRANCH   5   6
ENDBRANCH   4   5
ENDBRANCH   3   4
ENDBRANCH   2   3
ENDBRANCH   1   2
BRANCH   1  12
ATOM     12  C   UNL     1     -18.575  -0.285  -4.303  1.00  0.00     0.000 C 
BRANCH  12  13
ATOM     13  C   UNL     1     -17.959   1.111  -4.128  1.00  0.00    -0.000 C 
BRANCH  13  14
ATOM     14  C   UNL     1     -19.015   2.230  -4.113  1.00  0.00    -0.000 C 
BRANCH  14  15
ATOM     15  C   UNL     1     -18.409   3.608  -3.805  1.00  0.00    -0.000 C 
BRANCH  15  16
ATOM     16  C   UNL     1     -18.735   4.651  -4.888  1.00  0.00    -0.000 C 
BRANCH  16  17
ATOM     17  C   UNL     1     -19.793   5.668  -4.429  1.00  0.00    -0.000 C 
BRANCH  17  18
ATOM     18  C   UNL     1     -20.318   5.375  -3.016  1.00  0.00    -0.003 C 
ATOM     19  C   UNL     1     -21.684   4.696  -3.069  1.00  0.00     0.004 C 
ENDBRANCH  17  18
ENDBRANCH  16  17
ENDBRANCH  15  16
ENDBRANCH  14  15
ENDBRANCH  13  14
ENDBRANCH  12  13
ENDBRANCH   1  12
TORSDOF 14
ENDMDL
MODEL 3
REMARK VINA RESULT:    -3.959      4.015      6.947
REMARK INTER + INTRA:          -8.237
REMARK INTER:                  -6.666
REMARK INTRA:                  -1.571
REMARK UNBOUND:                -1.038
REMARK SMILES CCCCCCCCCCCCCC[C@H](C)C(=O)[O-]
REMARK SMILES IDX 9 1 10 2 11 3 12 4 13 5 14 6 15 7 16 8 17 9 18 10 19 11 8 12
REMARK SMILES IDX 7 13 6 14 5 15 4 16 3 17 2 18 1 19
REMARK H PARENT
REMARK Flexibility Score: inf
ROOT
ATOM      1  C   UNL     1     -36.185  -9.087   1.494  1.00  0.00     0.000 C 
ENDROOT
BRANCH   1   2
ATOM      2  C   UNL     1     -37.238  -8.355   0.647  1.00  0.00     0.000 C 
BRANCH   2   3
ATOM      3  C   UNL     1     -37.568  -9.093  -0.663  1.00  0.00     0.000 C 
BRANCH   3   4
ATOM      4  C   UNL     1     -38.124 -10.510  -0.408  1.00  0.00     0.000 C 
BRANCH   4   5
ATOM      5  C   UNL     1     -37.421 -11.605  -1.229  1.00  0.00     0.001 C 
BRANCH   5   6
ATOM      6  C   UNL     1     -35.890 -11.460  -1.233  1.00  0.00     0.009 C 
BRANCH   6   7
ATOM      7  C   UNL     1     -35.259 -11.978  -2.543  1.00  0.00     0.032 C 
ATOM      8  C   UNL     1     -33.735 -11.829  -2.503  1.00  0.00     0.014 C 
BRANCH   7   9
ATOM      9  C   UNL     1     -35.808 -11.250  -3.740  1.00  0.00     0.044 C 
ATOM     10  O   UNL     1     -36.115 -11.888  -4.781  1.00  0.00    -0.550 OA
ATOM     11  O   UNL     1     -35.974  -9.871  -3.708  1.00  0.00    -0.550 OA
ENDBRANCH   7   9
ENDBRANCH   6   7
ENDBRANCH   5   6
ENDBRANCH   4   5
ENDBRANCH   3   4
ENDBRANCH   2   3
ENDBRANCH   1   2
BRANCH   1  12
ATOM     12  C   UNL     1     -36.719  -9.494   2.879  1.00  0.00     0.000 C 
BRANCH  12  13
ATOM     13  C   UNL     1     -37.026 -10.996   2.973  1.00  0.00    -0.000 C 
BRANCH  13  14
ATOM     14  C   UNL     1     -35.785 -11.837   3.318  1.00  0.00    -0.000 C 
BRANCH  14  15
ATOM     15  C   UNL     1     -34.909 -12.125   2.088  1.00  0.00    -0.000 C 
BRANCH  15  16
ATOM     16  C   UNL     1     -33.406 -11.989   2.389  1.00  0.00    -0.000 C 
BRANCH  16  17
ATOM     17  C   UNL     1     -33.133 -11.539   3.833  1.00  0.00    -0.000 C 
BRANCH  17  18
ATOM     18  C   UNL     1     -31.760 -10.868   3.991  1.00  0.00    -0.003 C 
ATOM     19  C   UNL     1     -30.884 -11.117   2.766  1.00  0.00     0.004 C 
ENDBRANCH  17  18
ENDBRANCH  16  17
ENDBRANCH  15  16
ENDBRANCH  14  15
ENDBRANCH  13  14
ENDBRANCH  12  13
ENDBRANCH   1  12
TORSDOF 14
ENDMDL
MODEL 4
REMARK VINA RESULT:    -3.836     20.156     22.081
REMARK INTER + INTRA:          -8.013
REMARK INTER:                  -6.125
REMARK INTRA:                  -1.888
REMARK UNBOUND:                -1.038
REMARK SMILES CCCCCCCCCCCCCC[C@H](C)C(=O)[O-]
REMARK SMILES IDX 9 1 10 2 11 3 12 4 13 5 14 6 15 7 16 8 17 9 18 10 19 11 8 12
REMARK SMILES IDX 7 13 6 14 5 15 4 16 3 17 2 18 1 19
REMARK H PARENT
REMARK Flexibility Score: inf
ROOT
ATOM      1  C   UNL     1     -22.140   2.886  10.099  1.00  0.00     0.000 C 
ENDROOT
BRANCH   1   2
ATOM      2  C   UNL     1     -21.831   1.426   9.733  1.00  0.00     0.000 C 
BRANCH   2   3
ATOM      3  C   UNL     1     -20.395   1.233   9.210  1.00  0.00     0.000 C 
BRANCH   3   4
ATOM      4  C   UNL     1     -19.341   1.811  10.178  1.00  0.00     0.000 C 
BRANCH   4   5
ATOM      5  C   UNL     1     -18.560   3.003   9.598  1.00  0.00     0.001 C 
BRANCH   5   6
ATOM      6  C   UNL     1     -18.559   3.027   8.061  1.00  0.00     0.009 C 
BRANCH   6   7
ATOM      7  C   UNL     1     -18.810   4.442   7.500  1.00  0.00     0.032 C 
ATOM      8  C   UNL     1     -19.867   5.173   8.333  1.00  0.00     0.014 C 
BRANCH   7   9
ATOM      9  C   UNL     1     -19.246   4.391   6.061  1.00  0.00     0.044 C 
ATOM     10  O   UNL     1     -19.364   3.283   5.475  1.00  0.00    -0.550 OA
ATOM     11  O   UNL     1     -19.516   5.564   5.366  1.00  0.00    -0.550 OA
ENDBRANCH   7   9
ENDBRANCH   6   7
ENDBRANCH   5   6
ENDBRANCH   4   5
ENDBRANCH   3   4
ENDBRANCH   2   3
ENDBRANCH   1   2
BRANCH   1  12
ATOM     12  C   UNL     1     -22.653   3.039  11.541  1.00  0.00     0.000 C 
BRANCH  12  13
ATOM     13  C   UNL     1     -21.604   3.657  12.478  1.00  0.00    -0.000 C 
BRANCH  13  14
ATOM     14  C   UNL     1     -20.919   4.894  11.870  1.00  0.00    -0.000 C 
BRANCH  14  15
ATOM     15  C   UNL     1     -21.922   5.997  11.496  1.00  0.00    -0.000 C 
BRANCH  15  16
ATOM     16  C   UNL     1     -22.787   6.437  12.690  1.00  0.00    -0.000 C 
BRANCH  16  17
ATOM     17  C   UNL     1     -24.234   6.759  12.283  1.00  0.00    -0.000 C 
BRANCH  17  18
ATOM     18  C   UNL     1     -25.164   5.543  12.401  1.00  0.00    -0.003 C 
ATOM     19  C   UNL     1     -26.575   5.885  11.928  1.00  0.00     0.004 C 
ENDBRANCH  17  18
ENDBRANCH  16  17
ENDBRANCH  15  16
ENDBRANCH  14  15
ENDBRANCH  13  14
ENDBRANCH  12  13
ENDBRANCH   1  12
TORSDOF 14
ENDMDL
MODEL 5
REMARK VINA RESULT:    -3.784      4.239      8.359
REMARK INTER + INTRA:          -7.920
REMARK INTER:                  -7.542
REMARK INTRA:                  -0.378
REMARK UNBOUND:                -1.038
REMARK SMILES CCCCCCCCCCCCCC[C@H](C)C(=O)[O-]
REMARK SMILES IDX 9 1 10 2 11 3 12 4 13 5 14 6 15 7 16 8 17 9 18 10 19 11 8 12
REMARK SMILES IDX 7 13 6 14 5 15 4 16 3 17 2 18 1 19
REMARK H PARENT
REMARK Flexibility Score: inf
ROOT
ATOM      1  C   UNL     1     -36.268  -9.072   0.829  1.00  0.00     0.000 C 
ENDROOT
BRANCH   1   2
ATOM      2  C   UNL     1     -37.052  -7.882   0.253  1.00  0.00     0.000 C 
BRANCH   2   3
ATOM      3  C   UNL     1     -37.748  -8.216  -1.080  1.00  0.00     0.000 C 
BRANCH   3   4
ATOM      4  C   UNL     1     -38.125  -6.946  -1.872  1.00  0.00     0.000 C 
BRANCH   4   5
ATOM      5  C   UNL     1     -38.064  -5.657  -1.035  1.00  0.00     0.001 C 
BRANCH   5   6
ATOM      6  C   UNL     1     -37.177  -4.573  -1.670  1.00  0.00     0.009 C 
BRANCH   6   7
ATOM      7  C   UNL     1     -36.920  -3.394  -0.708  1.00  0.00     0.032 C 
ATOM      8  C   UNL     1     -38.048  -3.282   0.322  1.00  0.00     0.014 C 
BRANCH   7   9
ATOM      9  C   UNL     1     -36.789  -2.095  -1.457  1.00  0.00     0.044 C 
ATOM     10  O   UNL     1     -36.691  -2.097  -2.713  1.00  0.00    -0.550 OA
ATOM     11  O   UNL     1     -36.768  -0.887  -0.771  1.00  0.00    -0.550 OA
ENDBRANCH   7   9
ENDBRANCH   6   7
ENDBRANCH   5   6
ENDBRANCH   4   5
ENDBRANCH   3   4
ENDBRANCH   2   3
ENDBRANCH   1   2
BRANCH   1  12
ATOM     12  C   UNL     1     -36.327  -9.131   2.366  1.00  0.00     0.000 C 
BRANCH  12  13
ATOM     13  C   UNL     1     -37.340 -10.165   2.877  1.00  0.00    -0.000 C 
BRANCH  13  14
ATOM     14  C   UNL     1     -36.840 -11.613   2.728  1.00  0.00    -0.000 C 
BRANCH  14  15
ATOM     15  C   UNL     1     -35.372 -11.684   2.279  1.00  0.00    -0.000 C 
BRANCH  15  16
ATOM     16  C   UNL     1     -34.396 -11.775   3.466  1.00  0.00    -0.000 C 
BRANCH  16  17
ATOM     17  C   UNL     1     -32.924 -11.743   3.023  1.00  0.00    -0.000 C 
BRANCH  17  18
ATOM     18  C   UNL     1     -32.131 -10.614   3.696  1.00  0.00    -0.003 C 
ATOM     19  C   UNL     1     -30.634 -10.913   3.684  1.00  0.00     0.004 C 
ENDBRANCH  17  18
ENDBRANCH  16  17
ENDBRANCH  15  16
ENDBRANCH  14  15
ENDBRANCH  13  14
ENDBRANCH  12  13
ENDBRANCH   1  12
TORSDOF 14
ENDMDL
MODEL 6
REMARK VINA RESULT:    -3.702     20.293     22.695
REMARK INTER + INTRA:          -7.769
REMARK INTER:                  -5.397
REMARK INTRA:                  -2.372
REMARK UNBOUND:                -1.038
REMARK SMILES CCCCCCCCCCCCCC[C@H](C)C(=O)[O-]
REMARK SMILES IDX 9 1 10 2 11 3 12 4 13 5 14 6 15 7 16 8 17 9 18 10 19 11 8 12
REMARK SMILES IDX 7 13 6 14 5 15 4 16 3 17 2 18 1 19
REMARK H PARENT
REMARK Flexibility Score: inf
ROOT
ATOM      1  C   UNL     1     -21.553   1.686   8.371  1.00  0.00     0.000 C 
ENDROOT
BRANCH   1   2
ATOM      2  C   UNL     1     -22.036   1.379   9.797  1.00  0.00     0.000 C 
BRANCH   2   3
ATOM      3  C   UNL     1     -22.616   2.615  10.510  1.00  0.00     0.000 C 
BRANCH   3   4
ATOM      4  C   UNL     1     -21.966   2.849  11.889  1.00  0.00     0.000 C 
BRANCH   4   5
ATOM      5  C   UNL     1     -22.582   4.023  12.669  1.00  0.00     0.001 C 
BRANCH   5   6
ATOM      6  C   UNL     1     -23.709   4.729  11.897  1.00  0.00     0.009 C 
BRANCH   6   7
ATOM      7  C   UNL     1     -24.291   5.925  12.679  1.00  0.00     0.032 C 
ATOM      8  C   UNL     1     -25.749   6.171  12.281  1.00  0.00     0.014 C 
BRANCH   7   9
ATOM      9  C   UNL     1     -23.485   7.175  12.446  1.00  0.00     0.044 C 
ATOM     10  O   UNL     1     -22.421   7.370  13.090  1.00  0.00    -0.550 OA
ATOM     11  O   UNL     1     -23.911   8.124  11.525  1.00  0.00    -0.550 OA
ENDBRANCH   7   9
ENDBRANCH   6   7
ENDBRANCH   5   6
ENDBRANCH   4   5
ENDBRANCH   3   4
ENDBRANCH   2   3
ENDBRANCH   1   2
BRANCH   1  12
ATOM     12  C   UNL     1     -20.108   2.213   8.336  1.00  0.00     0.000 C 
BRANCH  12  13
ATOM     13  C   UNL     1     -19.229   1.594   9.433  1.00  0.00    -0.000 C 
BRANCH  13  14
ATOM     14  C   UNL     1     -18.264   2.611  10.067  1.00  0.00    -0.000 C 
BRANCH  14  15
ATOM     15  C   UNL     1     -18.544   4.052   9.610  1.00  0.00    -0.000 C 
BRANCH  15  16
ATOM     16  C   UNL     1     -18.468   5.063  10.767  1.00  0.00    -0.000 C 
BRANCH  16  17
ATOM     17  C   UNL     1     -19.820   5.737  11.052  1.00  0.00    -0.000 C 
BRANCH  17  18
ATOM     18  C   UNL     1     -20.750   5.731   9.830  1.00  0.00    -0.003 C 
ATOM     19  C   UNL     1     -21.107   7.154   9.406  1.00  0.00     0.004 C 
ENDBRANCH  17  18
ENDBRANCH  16  17
ENDBRANCH  15  16
ENDBRANCH  14  15
ENDBRANCH  13  14
ENDBRANCH  12  13
ENDBRANCH   1  12
TORSDOF 14
ENDMDL
MODEL 7
REMARK VINA RESULT:    -3.675     20.408     22.638
REMARK INTER + INTRA:          -7.721
REMARK INTER:                  -5.698
REMARK INTRA:                  -2.022
REMARK UNBOUND:                -1.038
REMARK SMILES CCCCCCCCCCCCCC[C@H](C)C(=O)[O-]
REMARK SMILES IDX 9 1 10 2 11 3 12 4 13 5 14 6 15 7 16 8 17 9 18 10 19 11 8 12
REMARK SMILES IDX 7 13 6 14 5 15 4 16 3 17 2 18 1 19
REMARK H PARENT
REMARK Flexibility Score: inf
ROOT
ATOM      1  C   UNL     1     -20.834   1.939   9.112  1.00  0.00     0.000 C 
ENDROOT
BRANCH   1   2
ATOM      2  C   UNL     1     -19.673   0.966   9.369  1.00  0.00     0.000 C 
BRANCH   2   3
ATOM      3  C   UNL     1     -18.400   1.675   9.867  1.00  0.00     0.000 C 
BRANCH   3   4
ATOM      4  C   UNL     1     -18.349   1.766  11.406  1.00  0.00     0.000 C 
BRANCH   4   5
ATOM      5  C   UNL     1     -18.335   3.209  11.939  1.00  0.00     0.001 C 
BRANCH   5   6
ATOM      6  C   UNL     1     -18.446   4.260  10.822  1.00  0.00     0.009 C 
BRANCH   6   7
ATOM      7  C   UNL     1     -18.941   5.622  11.351  1.00  0.00     0.032 C 
ATOM      8  C   UNL     1     -19.552   5.468  12.748  1.00  0.00     0.014 C 
BRANCH   7   9
ATOM      9  C   UNL     1     -19.953   6.235  10.421  1.00  0.00     0.044 C 
ATOM     10  O   UNL     1     -20.235   7.459  10.512  1.00  0.00    -0.550 OA
ATOM     11  O   UNL     1     -20.586   5.457   9.460  1.00  0.00    -0.550 OA
ENDBRANCH   7   9
ENDBRANCH   6   7
ENDBRANCH   5   6
ENDBRANCH   4   5
ENDBRANCH   3   4
ENDBRANCH   2   3
ENDBRANCH   1   2
BRANCH   1  12
ATOM     12  C   UNL     1     -21.990   1.758  10.112  1.00  0.00     0.000 C 
BRANCH  12  13
ATOM     13  C   UNL     1     -21.939   2.777  11.261  1.00  0.00    -0.000 C 
BRANCH  13  14
ATOM     14  C   UNL     1     -23.151   3.724  11.270  1.00  0.00    -0.000 C 
BRANCH  14  15
ATOM     15  C   UNL     1     -23.152   4.668  12.483  1.00  0.00    -0.000 C 
BRANCH  15  16
ATOM     16  C   UNL     1     -23.187   6.151  12.076  1.00  0.00    -0.000 C 
BRANCH  16  17
ATOM     17  C   UNL     1     -24.576   6.782  12.263  1.00  0.00    -0.000 C 
BRANCH  17  18
ATOM     18  C   UNL     1     -25.639   5.755  12.678  1.00  0.00    -0.003 C 
ATOM     19  C   UNL     1     -26.793   5.727  11.680  1.00  0.00     0.004 C 
ENDBRANCH  17  18
ENDBRANCH  16  17
ENDBRANCH  15  16
ENDBRANCH  14  15
ENDBRANCH  13  14
ENDBRANCH  12  13
ENDBRANCH   1  12
TORSDOF 14
ENDMDL
MODEL 8
REMARK VINA RESULT:    -3.595      4.204      7.395
REMARK INTER + INTRA:          -7.575
REMARK INTER:                  -6.473
REMARK INTRA:                  -1.102
REMARK UNBOUND:                -1.038
REMARK SMILES CCCCCCCCCCCCCC[C@H](C)C(=O)[O-]
REMARK SMILES IDX 9 1 10 2 11 3 12 4 13 5 14 6 15 7 16 8 17 9 18 10 19 11 8 12
REMARK SMILES IDX 7 13 6 14 5 15 4 16 3 17 2 18 1 19
REMARK H PARENT
REMARK Flexibility Score: inf
ROOT
ATOM      1  C   UNL     1     -36.229  -8.488   0.382  1.00  0.00     0.000 C 
ENDROOT
BRANCH   1   2
ATOM      2  C   UNL     1     -37.109  -7.677  -0.583  1.00  0.00     0.000 C 
BRANCH   2   3
ATOM      3  C   UNL     1     -37.457  -8.453  -1.867  1.00  0.00     0.000 C 
BRANCH   3   4
ATOM      4  C   UNL     1     -36.247  -9.234  -2.420  1.00  0.00     0.000 C 
BRANCH   4   5
ATOM      5  C   UNL     1     -36.548 -10.715  -2.709  1.00  0.00     0.001 C 
BRANCH   5   6
ATOM      6  C   UNL     1     -36.783 -10.998  -4.202  1.00  0.00     0.009 C 
BRANCH   6   7
ATOM      7  C   UNL     1     -35.778 -12.024  -4.765  1.00  0.00     0.032 C 
ATOM      8  C   UNL     1     -34.546 -12.125  -3.860  1.00  0.00     0.014 C 
BRANCH   7   9
ATOM      9  C   UNL     1     -35.351 -11.661  -6.162  1.00  0.00     0.044 C 
ATOM     10  O   UNL     1     -34.188 -11.936  -6.559  1.00  0.00    -0.550 OA
ATOM     11  O   UNL     1     -36.233 -11.017  -7.022  1.00  0.00    -0.550 OA
ENDBRANCH   7   9
ENDBRANCH   6   7
ENDBRANCH   5   6
ENDBRANCH   4   5
ENDBRANCH   3   4
ENDBRANCH   2   3
ENDBRANCH   1   2
BRANCH   1  12
ATOM     12  C   UNL     1     -37.041  -9.141   1.515  1.00  0.00     0.000 C 
BRANCH  12  13
ATOM     13  C   UNL     1     -37.400 -10.604   1.214  1.00  0.00    -0.000 C 
BRANCH  13  14
ATOM     14  C   UNL     1     -36.686 -11.596   2.148  1.00  0.00    -0.000 C 
BRANCH  14  15
ATOM     15  C   UNL     1     -35.293 -11.992   1.632  1.00  0.00    -0.000 C 
BRANCH  15  16
ATOM     16  C   UNL     1     -34.160 -11.255   2.367  1.00  0.00    -0.000 C 
BRANCH  16  17
ATOM     17  C   UNL     1     -32.781 -11.878   2.100  1.00  0.00    -0.000 C 
BRANCH  17  18
ATOM     18  C   UNL     1     -31.658 -11.181   2.882  1.00  0.00    -0.003 C 
ATOM     19  C   UNL     1     -32.020 -11.047   4.359  1.00  0.00     0.004 C 
ENDBRANCH  17  18
ENDBRANCH  16  17
ENDBRANCH  15  16
ENDBRANCH  14  15
ENDBRANCH  13  14
ENDBRANCH  12  13
ENDBRANCH   1  12
TORSDOF 14
ENDMDL
MODEL 9
REMARK VINA RESULT:    -3.484     21.556     23.095
REMARK INTER + INTRA:          -7.374
REMARK INTER:                  -5.071
REMARK INTRA:                  -2.303
REMARK UNBOUND:                -1.038
REMARK SMILES CCCCCCCCCCCCCC[C@H](C)C(=O)[O-]
REMARK SMILES IDX 9 1 10 2 11 3 12 4 13 5 14 6 15 7 16 8 17 9 18 10 19 11 8 12
REMARK SMILES IDX 7 13 6 14 5 15 4 16 3 17 2 18 1 19
REMARK H PARENT
REMARK Flexibility Score: inf
ROOT
ATOM      1  C   UNL     1     -20.626   2.222  10.558  1.00  0.00     0.000 C 
ENDROOT
BRANCH   1   2
ATOM      2  C   UNL     1     -19.456   2.188  11.555  1.00  0.00     0.000 C 
BRANCH   2   3
ATOM      3  C   UNL     1     -18.288   3.099  11.135  1.00  0.00     0.000 C 
BRANCH   3   4
ATOM      4  C   UNL     1     -18.317   4.457  11.868  1.00  0.00     0.000 C 
BRANCH   4   5
ATOM      5  C   UNL     1     -18.642   5.647  10.948  1.00  0.00     0.001 C 
BRANCH   5   6
ATOM      6  C   UNL     1     -18.129   5.451   9.512  1.00  0.00     0.009 C 
BRANCH   6   7
ATOM      7  C   UNL     1     -19.230   5.705   8.461  1.00  0.00     0.032 C 
ATOM      8  C   UNL     1     -20.610   5.747   9.125  1.00  0.00     0.014 C 
BRANCH   7   9
ATOM      9  C   UNL     1     -19.217   4.650   7.388  1.00  0.00     0.044 C 
ATOM     10  O   UNL     1     -19.506   4.953   6.200  1.00  0.00    -0.550 OA
ATOM     11  O   UNL     1     -18.891   3.335   7.699  1.00  0.00    -0.550 OA
ENDBRANCH   7   9
ENDBRANCH   6   7
ENDBRANCH   5   6
ENDBRANCH   4   5
ENDBRANCH   3   4
ENDBRANCH   2   3
ENDBRANCH   1   2
BRANCH   1  12
ATOM     12  C   UNL     1     -21.850   2.976  11.107  1.00  0.00     0.000 C 
BRANCH  12  13
ATOM     13  C   UNL     1     -21.733   3.272  12.610  1.00  0.00    -0.000 C 
BRANCH  13  14
ATOM     14  C   UNL     1     -22.760   4.312  13.093  1.00  0.00    -0.000 C 
BRANCH  14  15
ATOM     15  C   UNL     1     -23.654   4.828  11.954  1.00  0.00    -0.000 C 
BRANCH  15  16
ATOM     16  C   UNL     1     -24.664   5.886  12.431  1.00  0.00    -0.000 C 
BRANCH  16  17
ATOM     17  C   UNL     1     -24.078   7.307  12.425  1.00  0.00    -0.000 C 
BRANCH  17  18
ATOM     18  C   UNL     1     -22.947   7.473  11.399  1.00  0.00    -0.003 C 
ATOM     19  C   UNL     1     -21.654   7.921  12.075  1.00  0.00     0.004 C 
ENDBRANCH  17  18
ENDBRANCH  16  17
ENDBRANCH  15  16
ENDBRANCH  14  15
ENDBRANCH  13  14
ENDBRANCH  12  13
ENDBRANCH   1  12
TORSDOF 14
ENDMDL
