MODEL 1
REMARK VINA RESULT:    -3.477      0.000      0.000
REMARK INTER + INTRA:         -14.181
REMARK INTER:                  -8.762
REMARK INTRA:                  -5.419
REMARK UNBOUND:                -5.419
REMARK SMILES CCCCCCCCCCCCCCCCCCCCCCCCCCCC(=O)[O-]
REMARK SMILES IDX 15 1 16 2 17 3 18 4 19 5 20 6 21 7 22 8 23 9 24 10 25 11
REMARK SMILES IDX 26 12 27 13 28 14 29 15 30 16 14 17 13 18 12 19 11 20 10 21
REMARK SMILES IDX 9 22 8 23 7 24 6 25 5 26 4 27 3 28 2 29 1 30
REMARK H PARENT
REMARK Flexibility Score: inf
ROOT
ATOM      1  C   UNL     1      29.132  32.528   2.601  1.00  0.00     0.000 C 
ENDROOT
BRANCH   1   2
ATOM      2  C   UNL     1      27.651  32.937   2.494  1.00  0.00     0.000 C 
BRANCH   2   3
ATOM      3  C   UNL     1      27.303  34.151   3.373  1.00  0.00     0.000 C 
BRANCH   3   4
ATOM      4  C   UNL     1      27.336  35.472   2.586  1.00  0.00     0.000 C 
BRANCH   4   5
ATOM      5  C   UNL     1      28.566  36.331   2.930  1.00  0.00     0.000 C 
BRANCH   5   6
ATOM      6  C   UNL     1      29.715  36.151   1.922  1.00  0.00     0.000 C 
BRANCH   6   7
ATOM      7  C   UNL     1      29.316  36.365   0.450  1.00  0.00     0.000 C 
BRANCH   7   8
ATOM      8  C   UNL     1      29.340  35.067  -0.389  1.00  0.00     0.000 C 
BRANCH   8   9
ATOM      9  C   UNL     1      28.047  34.840  -1.193  1.00  0.00     0.000 C 
BRANCH   9  10
ATOM     10  C   UNL     1      26.972  35.889  -0.861  1.00  0.00     0.000 C 
BRANCH  10  11
ATOM     11  C   UNL     1      25.566  35.283  -0.712  1.00  0.00     0.000 C 
BRANCH  11  12
ATOM     12  C   UNL     1      25.529  33.860  -0.126  1.00  0.00     0.006 C 
BRANCH  12  13
ATOM     13  C   UNL     1      24.229  33.559   0.636  1.00  0.00     0.053 C 
BRANCH  13  14
ATOM     14  C   UNL     1      23.242  32.869  -0.253  1.00  0.00     0.041 C 
ATOM     15  O   UNL     1      22.799  31.729   0.055  1.00  0.00    -0.550 OA
ATOM     16  O   UNL     1      22.798  33.487  -1.416  1.00  0.00    -0.550 OA
ENDBRANCH  13  14
ENDBRANCH  12  13
ENDBRANCH  11  12
ENDBRANCH  10  11
ENDBRANCH   9  10
ENDBRANCH   8   9
ENDBRANCH   7   8
ENDBRANCH   6   7
ENDBRANCH   5   6
ENDBRANCH   4   5
ENDBRANCH   3   4
ENDBRANCH   2   3
ENDBRANCH   1   2
BRANCH   1  17
ATOM     17  C   UNL     1      29.842  32.983   3.888  1.00  0.00     0.000 C 
BRANCH  17  18
ATOM     18  C   UNL     1      31.349  33.211   3.695  1.00  0.00     0.000 C 
BRANCH  18  19
ATOM     19  C   UNL     1      31.723  33.162   2.206  1.00  0.00     0.000 C 
BRANCH  19  20
ATOM     20  C   UNL     1      33.120  32.560   1.962  1.00  0.00     0.000 C 
BRANCH  20  21
ATOM     21  C   UNL     1      33.726  32.912   0.585  1.00  0.00     0.000 C 
BRANCH  21  22
ATOM     22  C   UNL     1      32.715  33.524  -0.406  1.00  0.00    -0.000 C 
BRANCH  22  23
ATOM     23  C   UNL     1      33.069  34.931  -0.919  1.00  0.00    -0.000 C 
BRANCH  23  24
ATOM     24  C   UNL     1      33.988  35.702   0.042  1.00  0.00    -0.000 C 
BRANCH  24  25
ATOM     25  C   UNL     1      33.211  36.443   1.146  1.00  0.00    -0.000 C 
BRANCH  25  26
ATOM     26  C   UNL     1      33.777  36.269   2.568  1.00  0.00    -0.000 C 
BRANCH  26  27
ATOM     27  C   UNL     1      35.192  35.672   2.581  1.00  0.00    -0.000 C 
BRANCH  27  28
ATOM     28  C   UNL     1      35.652  35.373   4.015  1.00  0.00    -0.000 C 
BRANCH  28  29
ATOM     29  C   UNL     1      34.618  34.557   4.807  1.00  0.00    -0.003 C 
ATOM     30  C   UNL     1      34.803  34.678   6.320  1.00  0.00     0.004 C 
ENDBRANCH  28  29
ENDBRANCH  27  28
ENDBRANCH  26  27
ENDBRANCH  25  26
ENDBRANCH  24  25
ENDBRANCH  23  24
ENDBRANCH  22  23
ENDBRANCH  21  22
ENDBRANCH  20  21
ENDBRANCH  19  20
ENDBRANCH  18  19
ENDBRANCH  17  18
ENDBRANCH   1  17
TORSDOF 26
ENDMDL
MODEL 2
REMARK VINA RESULT:    -3.375      1.526      3.565
REMARK INTER + INTRA:         -13.925
REMARK INTER:                  -8.517
REMARK INTRA:                  -5.409
REMARK UNBOUND:                -5.419
REMARK SMILES CCCCCCCCCCCCCCCCCCCCCCCCCCCC(=O)[O-]
REMARK SMILES IDX 15 1 16 2 17 3 18 4 19 5 20 6 21 7 22 8 23 9 24 10 25 11
REMARK SMILES IDX 26 12 27 13 28 14 29 15 30 16 14 17 13 18 12 19 11 20 10 21
REMARK SMILES IDX 9 22 8 23 7 24 6 25 5 26 4 27 3 28 2 29 1 30
REMARK H PARENT
REMARK Flexibility Score: inf
ROOT
ATOM      1  C   UNL     1      30.215  32.871   3.638  1.00  0.00     0.000 C 
ENDROOT
BRANCH   1   2
ATOM      2  C   UNL     1      29.378  32.819   2.347  1.00  0.00     0.000 C 
BRANCH   2   3
ATOM      3  C   UNL     1      27.863  32.870   2.616  1.00  0.00     0.000 C 
BRANCH   3   4
ATOM      4  C   UNL     1      27.463  34.074   3.486  1.00  0.00     0.000 C 
BRANCH   4   5
ATOM      5  C   UNL     1      28.032  35.400   2.951  1.00  0.00     0.000 C 
BRANCH   5   6
ATOM      6  C   UNL     1      27.049  36.133   2.019  1.00  0.00     0.000 C 
BRANCH   6   7
ATOM      7  C   UNL     1      27.715  36.916   0.873  1.00  0.00     0.000 C 
BRANCH   7   8
ATOM      8  C   UNL     1      27.290  36.432  -0.532  1.00  0.00     0.000 C 
BRANCH   8   9
ATOM      9  C   UNL     1      27.361  34.903  -0.694  1.00  0.00     0.000 C 
BRANCH   9  10
ATOM     10  C   UNL     1      25.980  34.291  -0.987  1.00  0.00     0.000 C 
BRANCH  10  11
ATOM     11  C   UNL     1      25.396  33.524   0.213  1.00  0.00     0.000 C 
BRANCH  11  12
ATOM     12  C   UNL     1      23.952  33.902   0.586  1.00  0.00     0.006 C 
BRANCH  12  13
ATOM     13  C   UNL     1      23.709  35.419   0.584  1.00  0.00     0.053 C 
BRANCH  13  14
ATOM     14  C   UNL     1      22.467  35.756  -0.180  1.00  0.00     0.041 C 
ATOM     15  O   UNL     1      22.363  35.439  -1.395  1.00  0.00    -0.550 OA
ATOM     16  O   UNL     1      21.416  36.411   0.452  1.00  0.00    -0.550 OA
ENDBRANCH  13  14
ENDBRANCH  12  13
ENDBRANCH  11  12
ENDBRANCH  10  11
ENDBRANCH   9  10
ENDBRANCH   8   9
ENDBRANCH   7   8
ENDBRANCH   6   7
ENDBRANCH   5   6
ENDBRANCH   4   5
ENDBRANCH   3   4
ENDBRANCH   2   3
ENDBRANCH   1   2
BRANCH   1  17
ATOM     17  C   UNL     1      31.701  33.222   3.436  1.00  0.00     0.000 C 
BRANCH  17  18
ATOM     18  C   UNL     1      32.309  32.566   2.188  1.00  0.00     0.000 C 
BRANCH  18  19
ATOM     19  C   UNL     1      33.637  33.239   1.807  1.00  0.00     0.000 C 
BRANCH  19  20
ATOM     20  C   UNL     1      34.196  34.132   2.931  1.00  0.00     0.000 C 
BRANCH  20  21
ATOM     21  C   UNL     1      34.635  35.536   2.460  1.00  0.00     0.000 C 
BRANCH  21  22
ATOM     22  C   UNL     1      33.715  36.675   2.944  1.00  0.00    -0.000 C 
BRANCH  22  23
ATOM     23  C   UNL     1      32.732  37.217   1.892  1.00  0.00    -0.000 C 
BRANCH  23  24
ATOM     24  C   UNL     1      31.358  36.531   1.951  1.00  0.00    -0.000 C 
BRANCH  24  25
ATOM     25  C   UNL     1      31.067  35.670   0.707  1.00  0.00    -0.000 C 
BRANCH  25  26
ATOM     26  C   UNL     1      31.961  35.964  -0.511  1.00  0.00    -0.000 C 
BRANCH  26  27
ATOM     27  C   UNL     1      32.316  34.703  -1.312  1.00  0.00    -0.000 C 
BRANCH  27  28
ATOM     28  C   UNL     1      31.183  33.669  -1.244  1.00  0.00    -0.000 C 
BRANCH  28  29
ATOM     29  C   UNL     1      31.660  32.250  -1.592  1.00  0.00    -0.003 C 
ATOM     30  C   UNL     1      33.143  32.198  -1.961  1.00  0.00     0.004 C 
ENDBRANCH  28  29
ENDBRANCH  27  28
ENDBRANCH  26  27
ENDBRANCH  25  26
ENDBRANCH  24  25
ENDBRANCH  23  24
ENDBRANCH  22  23
ENDBRANCH  21  22
ENDBRANCH  20  21
ENDBRANCH  19  20
ENDBRANCH  18  19
ENDBRANCH  17  18
ENDBRANCH   1  17
TORSDOF 26
ENDMDL
MODEL 3
REMARK VINA RESULT:    -3.345      1.230      3.210
REMARK INTER + INTRA:         -13.849
REMARK INTER:                  -8.389
REMARK INTRA:                  -5.460
REMARK UNBOUND:                -5.419
REMARK SMILES CCCCCCCCCCCCCCCCCCCCCCCCCCCC(=O)[O-]
REMARK SMILES IDX 15 1 16 2 17 3 18 4 19 5 20 6 21 7 22 8 23 9 24 10 25 11
REMARK SMILES IDX 26 12 27 13 28 14 29 15 30 16 14 17 13 18 12 19 11 20 10 21
REMARK SMILES IDX 9 22 8 23 7 24 6 25 5 26 4 27 3 28 2 29 1 30
REMARK H PARENT
REMARK Flexibility Score: inf
ROOT
ATOM      1  C   UNL     1      27.429  32.873   2.326  1.00  0.00     0.000 C 
ENDROOT
BRANCH   1   2
ATOM      2  C   UNL     1      26.809  34.111   2.998  1.00  0.00     0.000 C 
BRANCH   2   3
ATOM      3  C   UNL     1      26.989  35.394   2.166  1.00  0.00     0.000 C 
BRANCH   3   4
ATOM      4  C   UNL     1      28.120  36.286   2.705  1.00  0.00     0.000 C 
BRANCH   4   5
ATOM      5  C   UNL     1      28.368  37.521   1.820  1.00  0.00     0.000 C 
BRANCH   5   6
ATOM      6  C   UNL     1      29.727  37.470   1.100  1.00  0.00     0.000 C 
BRANCH   6   7
ATOM      7  C   UNL     1      30.578  36.228   1.423  1.00  0.00     0.000 C 
BRANCH   7   8
ATOM      8  C   UNL     1      30.790  35.295   0.209  1.00  0.00     0.000 C 
BRANCH   8   9
ATOM      9  C   UNL     1      29.977  35.715  -1.028  1.00  0.00     0.000 C 
BRANCH   9  10
ATOM     10  C   UNL     1      28.860  34.707  -1.351  1.00  0.00     0.000 C 
BRANCH  10  11
ATOM     11  C   UNL     1      27.457  35.339  -1.334  1.00  0.00     0.000 C 
BRANCH  11  12
ATOM     12  C   UNL     1      26.292  34.341  -1.461  1.00  0.00     0.006 C 
BRANCH  12  13
ATOM     13  C   UNL     1      24.974  34.882  -0.887  1.00  0.00     0.053 C 
BRANCH  13  14
ATOM     14  C   UNL     1      24.096  33.760  -0.427  1.00  0.00     0.041 C 
ATOM     15  O   UNL     1      23.337  33.173  -1.244  1.00  0.00    -0.550 OA
ATOM     16  O   UNL     1      24.123  33.353   0.902  1.00  0.00    -0.550 OA
ENDBRANCH  13  14
ENDBRANCH  12  13
ENDBRANCH  11  12
ENDBRANCH  10  11
ENDBRANCH   9  10
ENDBRANCH   8   9
ENDBRANCH   7   8
ENDBRANCH   6   7
ENDBRANCH   5   6
ENDBRANCH   4   5
ENDBRANCH   3   4
ENDBRANCH   2   3
ENDBRANCH   1   2
BRANCH   1  17
ATOM     17  C   UNL     1      28.968  32.821   2.350  1.00  0.00     0.000 C 
BRANCH  17  18
ATOM     18  C   UNL     1      29.555  33.062   3.748  1.00  0.00     0.000 C 
BRANCH  18  19
ATOM     19  C   UNL     1      31.081  33.232   3.679  1.00  0.00     0.000 C 
BRANCH  19  20
ATOM     20  C   UNL     1      31.677  32.735   2.349  1.00  0.00     0.000 C 
BRANCH  20  21
ATOM     21  C   UNL     1      33.221  32.719   2.318  1.00  0.00     0.000 C 
BRANCH  21  22
ATOM     22  C   UNL     1      33.879  33.648   3.358  1.00  0.00    -0.000 C 
BRANCH  22  23
ATOM     23  C   UNL     1      34.826  34.713   2.779  1.00  0.00    -0.000 C 
BRANCH  23  24
ATOM     24  C   UNL     1      34.094  35.765   1.929  1.00  0.00    -0.000 C 
BRANCH  24  25
ATOM     25  C   UNL     1      34.899  36.197   0.690  1.00  0.00    -0.000 C 
BRANCH  25  26
ATOM     26  C   UNL     1      34.308  35.748  -0.659  1.00  0.00    -0.000 C 
BRANCH  26  27
ATOM     27  C   UNL     1      34.570  34.266  -0.964  1.00  0.00    -0.000 C 
BRANCH  27  28
ATOM     28  C   UNL     1      33.491  33.694  -1.893  1.00  0.00    -0.000 C 
BRANCH  28  29
ATOM     29  C   UNL     1      32.774  32.479  -1.284  1.00  0.00    -0.003 C 
ATOM     30  C   UNL     1      31.585  32.011  -2.125  1.00  0.00     0.004 C 
ENDBRANCH  28  29
ENDBRANCH  27  28
ENDBRANCH  26  27
ENDBRANCH  25  26
ENDBRANCH  24  25
ENDBRANCH  23  24
ENDBRANCH  22  23
ENDBRANCH  21  22
ENDBRANCH  20  21
ENDBRANCH  19  20
ENDBRANCH  18  19
ENDBRANCH  17  18
ENDBRANCH   1  17
TORSDOF 26
ENDMDL
MODEL 4
REMARK VINA RESULT:    -3.344      3.994      8.476
REMARK INTER + INTRA:         -13.847
REMARK INTER:                  -9.269
REMARK INTRA:                  -4.578
REMARK UNBOUND:                -5.419
REMARK SMILES CCCCCCCCCCCCCCCCCCCCCCCCCCCC(=O)[O-]
REMARK SMILES IDX 15 1 16 2 17 3 18 4 19 5 20 6 21 7 22 8 23 9 24 10 25 11
REMARK SMILES IDX 26 12 27 13 28 14 29 15 30 16 14 17 13 18 12 19 11 20 10 21
REMARK SMILES IDX 9 22 8 23 7 24 6 25 5 26 4 27 3 28 2 29 1 30
REMARK H PARENT
REMARK Flexibility Score: inf
ROOT
ATOM      1  C   UNL     1      27.131  34.356   2.926  1.00  0.00     0.000 C 
ENDROOT
BRANCH   1   2
ATOM      2  C   UNL     1      27.573  33.172   2.047  1.00  0.00     0.000 C 
BRANCH   2   3
ATOM      3  C   UNL     1      29.054  32.800   2.247  1.00  0.00     0.000 C 
BRANCH   3   4
ATOM      4  C   UNL     1      29.517  33.004   3.699  1.00  0.00     0.000 C 
BRANCH   4   5
ATOM      5  C   UNL     1      31.050  33.061   3.824  1.00  0.00     0.000 C 
BRANCH   5   6
ATOM      6  C   UNL     1      31.764  32.784   2.489  1.00  0.00     0.000 C 
BRANCH   6   7
ATOM      7  C   UNL     1      33.276  33.077   2.497  1.00  0.00     0.000 C 
BRANCH   7   8
ATOM      8  C   UNL     1      33.739  33.891   3.726  1.00  0.00     0.000 C 
BRANCH   8   9
ATOM      9  C   UNL     1      35.028  34.692   3.473  1.00  0.00     0.000 C 
BRANCH   9  10
ATOM     10  C   UNL     1      35.692  35.143   4.785  1.00  0.00     0.000 C 
BRANCH  10  11
ATOM     11  C   UNL     1      34.900  34.722   6.036  1.00  0.00     0.000 C 
BRANCH  11  12
ATOM     12  C   UNL     1      35.662  34.858   7.365  1.00  0.00     0.006 C 
BRANCH  12  13
ATOM     13  C   UNL     1      35.739  36.308   7.866  1.00  0.00     0.053 C 
BRANCH  13  14
ATOM     14  C   UNL     1      34.370  36.847   8.143  1.00  0.00     0.041 C 
ATOM     15  O   UNL     1      33.656  36.335   9.047  1.00  0.00    -0.550 OA
ATOM     16  O   UNL     1      33.883  37.925   7.411  1.00  0.00    -0.550 OA
ENDBRANCH  13  14
ENDBRANCH  12  13
ENDBRANCH  11  12
ENDBRANCH  10  11
ENDBRANCH   9  10
ENDBRANCH   8   9
ENDBRANCH   7   8
ENDBRANCH   6   7
ENDBRANCH   5   6
ENDBRANCH   4   5
ENDBRANCH   3   4
ENDBRANCH   2   3
ENDBRANCH   1   2
BRANCH   1  17
ATOM     17  C   UNL     1      27.466  35.748   2.360  1.00  0.00     0.000 C 
BRANCH  17  18
ATOM     18  C   UNL     1      28.738  36.354   2.971  1.00  0.00     0.000 C 
BRANCH  18  19
ATOM     19  C   UNL     1      29.032  37.736   2.367  1.00  0.00     0.000 C 
BRANCH  19  20
ATOM     20  C   UNL     1      30.525  37.943   2.050  1.00  0.00     0.000 C 
BRANCH  20  21
ATOM     21  C   UNL     1      31.409  36.714   2.357  1.00  0.00     0.000 C 
BRANCH  21  22
ATOM     22  C   UNL     1      32.181  36.177   1.135  1.00  0.00    -0.000 C 
BRANCH  22  23
ATOM     23  C   UNL     1      31.478  36.365  -0.220  1.00  0.00    -0.000 C 
BRANCH  23  24
ATOM     24  C   UNL     1      30.444  35.265  -0.514  1.00  0.00    -0.000 C 
BRANCH  24  25
ATOM     25  C   UNL     1      29.042  35.827  -0.812  1.00  0.00    -0.000 C 
BRANCH  25  26
ATOM     26  C   UNL     1      27.999  34.779  -1.240  1.00  0.00    -0.000 C 
BRANCH  26  27
ATOM     27  C   UNL     1      26.560  35.316  -1.202  1.00  0.00    -0.000 C 
BRANCH  27  28
ATOM     28  C   UNL     1      25.545  34.168  -1.102  1.00  0.00    -0.000 C 
BRANCH  28  29
ATOM     29  C   UNL     1      24.679  34.257   0.164  1.00  0.00    -0.003 C 
ATOM     30  C   UNL     1      23.959  32.946   0.482  1.00  0.00     0.004 C 
ENDBRANCH  28  29
ENDBRANCH  27  28
ENDBRANCH  26  27
ENDBRANCH  25  26
ENDBRANCH  24  25
ENDBRANCH  23  24
ENDBRANCH  22  23
ENDBRANCH  21  22
ENDBRANCH  20  21
ENDBRANCH  19  20
ENDBRANCH  18  19
ENDBRANCH  17  18
ENDBRANCH   1  17
TORSDOF 26
ENDMDL
MODEL 5
REMARK VINA RESULT:    -3.342      1.771      3.403
REMARK INTER + INTRA:         -13.842
REMARK INTER:                  -9.444
REMARK INTRA:                  -4.398
REMARK UNBOUND:                -5.419
REMARK SMILES CCCCCCCCCCCCCCCCCCCCCCCCCCCC(=O)[O-]
REMARK SMILES IDX 15 1 16 2 17 3 18 4 19 5 20 6 21 7 22 8 23 9 24 10 25 11
REMARK SMILES IDX 26 12 27 13 28 14 29 15 30 16 14 17 13 18 12 19 11 20 10 21
REMARK SMILES IDX 9 22 8 23 7 24 6 25 5 26 4 27 3 28 2 29 1 30
REMARK H PARENT
REMARK Flexibility Score: inf
ROOT
ATOM      1  C   UNL     1      27.046  33.592   3.724  1.00  0.00     0.000 C 
ENDROOT
BRANCH   1   2
ATOM      2  C   UNL     1      26.815  32.890   2.374  1.00  0.00     0.000 C 
BRANCH   2   3
ATOM      3  C   UNL     1      25.795  33.624   1.485  1.00  0.00     0.000 C 
BRANCH   3   4
ATOM      4  C   UNL     1      26.453  34.285   0.262  1.00  0.00     0.000 C 
BRANCH   4   5
ATOM      5  C   UNL     1      26.732  35.782   0.481  1.00  0.00     0.000 C 
BRANCH   5   6
ATOM      6  C   UNL     1      25.887  36.381   1.619  1.00  0.00     0.000 C 
BRANCH   6   7
ATOM      7  C   UNL     1      24.676  37.210   1.151  1.00  0.00     0.000 C 
BRANCH   7   8
ATOM      8  C   UNL     1      23.335  36.446   1.243  1.00  0.00     0.000 C 
BRANCH   8   9
ATOM      9  C   UNL     1      22.579  36.385  -0.096  1.00  0.00     0.000 C 
BRANCH   9  10
ATOM     10  C   UNL     1      23.494  35.949  -1.254  1.00  0.00     0.000 C 
BRANCH  10  11
ATOM     11  C   UNL     1      23.240  34.501  -1.708  1.00  0.00     0.000 C 
BRANCH  11  12
ATOM     12  C   UNL     1      22.300  33.690  -0.800  1.00  0.00     0.006 C 
BRANCH  12  13
ATOM     13  C   UNL     1      22.772  32.244  -0.588  1.00  0.00     0.053 C 
BRANCH  13  14
ATOM     14  C   UNL     1      21.851  31.279  -1.268  1.00  0.00     0.041 C 
ATOM     15  O   UNL     1      20.616  31.523  -1.338  1.00  0.00    -0.550 OA
ATOM     16  O   UNL     1      22.355  30.115  -1.837  1.00  0.00    -0.550 OA
ENDBRANCH  13  14
ENDBRANCH  12  13
ENDBRANCH  11  12
ENDBRANCH  10  11
ENDBRANCH   9  10
ENDBRANCH   8   9
ENDBRANCH   7   8
ENDBRANCH   6   7
ENDBRANCH   5   6
ENDBRANCH   4   5
ENDBRANCH   3   4
ENDBRANCH   2   3
ENDBRANCH   1   2
BRANCH   1  17
ATOM     17  C   UNL     1      28.502  34.008   4.001  1.00  0.00     0.000 C 
BRANCH  17  18
ATOM     18  C   UNL     1      29.525  32.972   3.516  1.00  0.00     0.000 C 
BRANCH  18  19
ATOM     19  C   UNL     1      30.668  33.649   2.744  1.00  0.00     0.000 C 
BRANCH  19  20
ATOM     20  C   UNL     1      30.335  35.096   2.335  1.00  0.00     0.000 C 
BRANCH  20  21
ATOM     21  C   UNL     1      30.604  35.407   0.846  1.00  0.00     0.000 C 
BRANCH  21  22
ATOM     22  C   UNL     1      30.083  34.328  -0.124  1.00  0.00    -0.000 C 
BRANCH  22  23
ATOM     23  C   UNL     1      31.032  33.971  -1.281  1.00  0.00    -0.000 C 
BRANCH  23  24
ATOM     24  C   UNL     1      31.754  32.631  -1.068  1.00  0.00    -0.000 C 
BRANCH  24  25
ATOM     25  C   UNL     1      33.250  32.694  -1.431  1.00  0.00    -0.000 C 
BRANCH  25  26
ATOM     26  C   UNL     1      33.998  33.926  -0.891  1.00  0.00    -0.000 C 
BRANCH  26  27
ATOM     27  C   UNL     1      34.811  33.626   0.376  1.00  0.00    -0.000 C 
BRANCH  27  28
ATOM     28  C   UNL     1      33.913  33.625   1.621  1.00  0.00    -0.000 C 
BRANCH  28  29
ATOM     29  C   UNL     1      34.471  34.506   2.750  1.00  0.00    -0.003 C 
ATOM     30  C   UNL     1      33.874  35.915   2.751  1.00  0.00     0.004 C 
ENDBRANCH  28  29
ENDBRANCH  27  28
ENDBRANCH  26  27
ENDBRANCH  25  26
ENDBRANCH  24  25
ENDBRANCH  23  24
ENDBRANCH  22  23
ENDBRANCH  21  22
ENDBRANCH  20  21
ENDBRANCH  19  20
ENDBRANCH  18  19
ENDBRANCH  17  18
ENDBRANCH   1  17
TORSDOF 26
ENDMDL
MODEL 6
REMARK VINA RESULT:    -3.329      1.892      3.979
REMARK INTER + INTRA:         -13.808
REMARK INTER:                  -8.614
REMARK INTRA:                  -5.195
REMARK UNBOUND:                -5.419
REMARK SMILES CCCCCCCCCCCCCCCCCCCCCCCCCCCC(=O)[O-]
REMARK SMILES IDX 15 1 16 2 17 3 18 4 19 5 20 6 21 7 22 8 23 9 24 10 25 11
REMARK SMILES IDX 26 12 27 13 28 14 29 15 30 16 14 17 13 18 12 19 11 20 10 21
REMARK SMILES IDX 9 22 8 23 7 24 6 25 5 26 4 27 3 28 2 29 1 30
REMARK H PARENT
REMARK Flexibility Score: inf
ROOT
ATOM      1  C   UNL     1      27.005  32.939   2.361  1.00  0.00     0.000 C 
ENDROOT
BRANCH   1   2
ATOM      2  C   UNL     1      25.806  33.369   1.497  1.00  0.00     0.000 C 
BRANCH   2   3
ATOM      3  C   UNL     1      26.211  33.760   0.065  1.00  0.00     0.000 C 
BRANCH   3   4
ATOM      4  C   UNL     1      27.378  34.763   0.040  1.00  0.00     0.000 C 
BRANCH   4   5
ATOM      5  C   UNL     1      27.153  35.902  -0.969  1.00  0.00     0.000 C 
BRANCH   5   6
ATOM      6  C   UNL     1      26.782  37.232  -0.288  1.00  0.00     0.000 C 
BRANCH   6   7
ATOM      7  C   UNL     1      26.826  37.198   1.251  1.00  0.00     0.000 C 
BRANCH   7   8
ATOM      8  C   UNL     1      25.428  37.118   1.905  1.00  0.00     0.000 C 
BRANCH   8   9
ATOM      9  C   UNL     1      24.279  37.368   0.912  1.00  0.00     0.000 C 
BRANCH   9  10
ATOM     10  C   UNL     1      23.419  36.110   0.699  1.00  0.00     0.000 C 
BRANCH  10  11
ATOM     11  C   UNL     1      22.999  35.909  -0.767  1.00  0.00     0.000 C 
BRANCH  11  12
ATOM     12  C   UNL     1      23.187  34.481  -1.309  1.00  0.00     0.006 C 
BRANCH  12  13
ATOM     13  C   UNL     1      21.871  33.696  -1.401  1.00  0.00     0.053 C 
BRANCH  13  14
ATOM     14  C   UNL     1      22.032  32.321  -0.831  1.00  0.00     0.041 C 
ATOM     15  O   UNL     1      23.006  32.057  -0.076  1.00  0.00    -0.550 OA
ATOM     16  O   UNL     1      21.099  31.332  -1.121  1.00  0.00    -0.550 OA
ENDBRANCH  13  14
ENDBRANCH  12  13
ENDBRANCH  11  12
ENDBRANCH  10  11
ENDBRANCH   9  10
ENDBRANCH   8   9
ENDBRANCH   7   8
ENDBRANCH   6   7
ENDBRANCH   5   6
ENDBRANCH   4   5
ENDBRANCH   3   4
ENDBRANCH   2   3
ENDBRANCH   1   2
BRANCH   1  17
ATOM     17  C   UNL     1      27.102  33.633   3.732  1.00  0.00     0.000 C 
BRANCH  17  18
ATOM     18  C   UNL     1      28.541  34.010   4.114  1.00  0.00     0.000 C 
BRANCH  18  19
ATOM     19  C   UNL     1      29.086  35.104   3.183  1.00  0.00     0.000 C 
BRANCH  19  20
ATOM     20  C   UNL     1      30.360  34.670   2.435  1.00  0.00     0.000 C 
BRANCH  20  21
ATOM     21  C   UNL     1      30.936  33.316   2.906  1.00  0.00     0.000 C 
BRANCH  21  22
ATOM     22  C   UNL     1      32.472  33.298   3.033  1.00  0.00    -0.000 C 
BRANCH  22  23
ATOM     23  C   UNL     1      33.231  34.040   1.919  1.00  0.00    -0.000 C 
BRANCH  23  24
ATOM     24  C   UNL     1      33.775  33.095   0.835  1.00  0.00    -0.000 C 
BRANCH  24  25
ATOM     25  C   UNL     1      33.142  33.344  -0.546  1.00  0.00    -0.000 C 
BRANCH  25  26
ATOM     26  C   UNL     1      31.684  32.869  -0.689  1.00  0.00    -0.000 C 
BRANCH  26  27
ATOM     27  C   UNL     1      30.735  33.983  -1.157  1.00  0.00    -0.000 C 
BRANCH  27  28
ATOM     28  C   UNL     1      31.505  35.278  -1.449  1.00  0.00    -0.000 C 
BRANCH  28  29
ATOM     29  C   UNL     1      30.824  36.517  -0.846  1.00  0.00    -0.003 C 
ATOM     30  C   UNL     1      31.656  37.174   0.255  1.00  0.00     0.004 C 
ENDBRANCH  28  29
ENDBRANCH  27  28
ENDBRANCH  26  27
ENDBRANCH  25  26
ENDBRANCH  24  25
ENDBRANCH  23  24
ENDBRANCH  22  23
ENDBRANCH  21  22
ENDBRANCH  20  21
ENDBRANCH  19  20
ENDBRANCH  18  19
ENDBRANCH  17  18
ENDBRANCH   1  17
TORSDOF 26
ENDMDL
MODEL 7
REMARK VINA RESULT:    -3.260      3.710      7.707
REMARK INTER + INTRA:         -13.633
REMARK INTER:                  -8.229
REMARK INTRA:                  -5.405
REMARK UNBOUND:                -5.419
REMARK SMILES CCCCCCCCCCCCCCCCCCCCCCCCCCCC(=O)[O-]
REMARK SMILES IDX 15 1 16 2 17 3 18 4 19 5 20 6 21 7 22 8 23 9 24 10 25 11
REMARK SMILES IDX 26 12 27 13 28 14 29 15 30 16 14 17 13 18 12 19 11 20 10 21
REMARK SMILES IDX 9 22 8 23 7 24 6 25 5 26 4 27 3 28 2 29 1 30
REMARK H PARENT
REMARK Flexibility Score: inf
ROOT
ATOM      1  C   UNL     1      24.913  33.217   1.411  1.00  0.00     0.000 C 
ENDROOT
BRANCH   1   2
ATOM      2  C   UNL     1      26.393  33.616   1.267  1.00  0.00     0.000 C 
BRANCH   2   3
ATOM      3  C   UNL     1      26.903  34.454   2.453  1.00  0.00     0.000 C 
BRANCH   3   4
ATOM      4  C   UNL     1      27.241  33.588   3.679  1.00  0.00     0.000 C 
BRANCH   4   5
ATOM      5  C   UNL     1      28.591  33.968   4.313  1.00  0.00     0.000 C 
BRANCH   5   6
ATOM      6  C   UNL     1      29.715  32.984   3.945  1.00  0.00     0.000 C 
BRANCH   6   7
ATOM      7  C   UNL     1      30.600  33.433   2.767  1.00  0.00     0.000 C 
BRANCH   7   8
ATOM      8  C   UNL     1      30.106  32.919   1.396  1.00  0.00     0.000 C 
BRANCH   8   9
ATOM      9  C   UNL     1      30.995  33.371   0.223  1.00  0.00     0.000 C 
BRANCH   9  10
ATOM     10  C   UNL     1      32.190  34.214   0.699  1.00  0.00     0.000 C 
BRANCH  10  11
ATOM     11  C   UNL     1      33.542  33.676   0.201  1.00  0.00     0.000 C 
BRANCH  11  12
ATOM     12  C   UNL     1      34.745  34.000   1.104  1.00  0.00     0.006 C 
BRANCH  12  13
ATOM     13  C   UNL     1      34.415  35.028   2.197  1.00  0.00     0.053 C 
BRANCH  13  14
ATOM     14  C   UNL     1      34.690  34.464   3.556  1.00  0.00     0.041 C 
ATOM     15  O   UNL     1      33.808  33.793   4.156  1.00  0.00    -0.550 OA
ATOM     16  O   UNL     1      35.926  34.668   4.159  1.00  0.00    -0.550 OA
ENDBRANCH  13  14
ENDBRANCH  12  13
ENDBRANCH  11  12
ENDBRANCH  10  11
ENDBRANCH   9  10
ENDBRANCH   8   9
ENDBRANCH   7   8
ENDBRANCH   6   7
ENDBRANCH   5   6
ENDBRANCH   4   5
ENDBRANCH   3   4
ENDBRANCH   2   3
ENDBRANCH   1   2
BRANCH   1  17
ATOM     17  C   UNL     1      24.083  33.315   0.118  1.00  0.00     0.000 C 
BRANCH  17  18
ATOM     18  C   UNL     1      24.806  34.075  -1.004  1.00  0.00     0.000 C 
BRANCH  18  19
ATOM     19  C   UNL     1      23.959  35.258  -1.498  1.00  0.00     0.000 C 
BRANCH  19  20
ATOM     20  C   UNL     1      23.072  35.860  -0.391  1.00  0.00     0.000 C 
BRANCH  20  21
ATOM     21  C   UNL     1      23.592  37.201   0.172  1.00  0.00     0.000 C 
BRANCH  21  22
ATOM     22  C   UNL     1      24.642  37.046   1.290  1.00  0.00    -0.000 C 
BRANCH  22  23
ATOM     23  C   UNL     1      26.023  37.651   0.982  1.00  0.00    -0.000 C 
BRANCH  23  24
ATOM     24  C   UNL     1      26.156  38.121  -0.476  1.00  0.00    -0.000 C 
BRANCH  24  25
ATOM     25  C   UNL     1      27.107  37.236  -1.303  1.00  0.00    -0.000 C 
BRANCH  25  26
ATOM     26  C   UNL     1      27.998  36.290  -0.478  1.00  0.00    -0.000 C 
BRANCH  26  27
ATOM     27  C   UNL     1      29.473  36.717  -0.462  1.00  0.00    -0.000 C 
BRANCH  27  28
ATOM     28  C   UNL     1      29.776  37.612   0.748  1.00  0.00    -0.000 C 
BRANCH  28  29
ATOM     29  C   UNL     1      29.852  36.820   2.062  1.00  0.00    -0.003 C 
ATOM     30  C   UNL     1      29.048  37.467   3.191  1.00  0.00     0.004 C 
ENDBRANCH  28  29
ENDBRANCH  27  28
ENDBRANCH  26  27
ENDBRANCH  25  26
ENDBRANCH  24  25
ENDBRANCH  23  24
ENDBRANCH  22  23
ENDBRANCH  21  22
ENDBRANCH  20  21
ENDBRANCH  19  20
ENDBRANCH  18  19
ENDBRANCH  17  18
ENDBRANCH   1  17
TORSDOF 26
ENDMDL
MODEL 8
REMARK VINA RESULT:    -3.250      1.900      3.810
REMARK INTER + INTRA:         -13.609
REMARK INTER:                  -8.329
REMARK INTRA:                  -5.280
REMARK UNBOUND:                -5.419
REMARK SMILES CCCCCCCCCCCCCCCCCCCCCCCCCCCC(=O)[O-]
REMARK SMILES IDX 15 1 16 2 17 3 18 4 19 5 20 6 21 7 22 8 23 9 24 10 25 11
REMARK SMILES IDX 26 12 27 13 28 14 29 15 30 16 14 17 13 18 12 19 11 20 10 21
REMARK SMILES IDX 9 22 8 23 7 24 6 25 5 26 4 27 3 28 2 29 1 30
REMARK H PARENT
REMARK Flexibility Score: inf
ROOT
ATOM      1  C   UNL     1      29.389  34.191   3.501  1.00  0.00     0.000 C 
ENDROOT
BRANCH   1   2
ATOM      2  C   UNL     1      27.875  33.958   3.648  1.00  0.00     0.000 C 
BRANCH   2   3
ATOM      3  C   UNL     1      27.353  32.831   2.739  1.00  0.00     0.000 C 
BRANCH   3   4
ATOM      4  C   UNL     1      26.385  33.348   1.661  1.00  0.00     0.000 C 
BRANCH   4   5
ATOM      5  C   UNL     1      26.149  34.866   1.763  1.00  0.00     0.000 C 
BRANCH   5   6
ATOM      6  C   UNL     1      26.686  35.632   0.541  1.00  0.00     0.000 C 
BRANCH   6   7
ATOM      7  C   UNL     1      26.260  37.110   0.473  1.00  0.00     0.000 C 
BRANCH   7   8
ATOM      8  C   UNL     1      25.695  37.650   1.806  1.00  0.00     0.000 C 
BRANCH   8   9
ATOM      9  C   UNL     1      24.201  38.010   1.730  1.00  0.00     0.000 C 
BRANCH   9  10
ATOM     10  C   UNL     1      23.601  37.686   0.350  1.00  0.00     0.000 C 
BRANCH  10  11
ATOM     11  C   UNL     1      22.131  37.240   0.423  1.00  0.00     0.000 C 
BRANCH  11  12
ATOM     12  C   UNL     1      21.845  35.843  -0.155  1.00  0.00     0.006 C 
BRANCH  12  13
ATOM     13  C   UNL     1      23.103  34.968  -0.257  1.00  0.00     0.053 C 
BRANCH  13  14
ATOM     14  C   UNL     1      22.738  33.550  -0.572  1.00  0.00     0.041 C 
ATOM     15  O   UNL     1      21.949  33.293  -1.521  1.00  0.00    -0.550 OA
ATOM     16  O   UNL     1      23.279  32.509   0.173  1.00  0.00    -0.550 OA
ENDBRANCH  13  14
ENDBRANCH  12  13
ENDBRANCH  11  12
ENDBRANCH  10  11
ENDBRANCH   9  10
ENDBRANCH   8   9
ENDBRANCH   7   8
ENDBRANCH   6   7
ENDBRANCH   5   6
ENDBRANCH   4   5
ENDBRANCH   3   4
ENDBRANCH   2   3
ENDBRANCH   1   2
BRANCH   1  17
ATOM     17  C   UNL     1      29.781  35.494   2.779  1.00  0.00     0.000 C 
BRANCH  17  18
ATOM     18  C   UNL     1      28.959  36.706   3.239  1.00  0.00     0.000 C 
BRANCH  18  19
ATOM     19  C   UNL     1      29.358  37.967   2.458  1.00  0.00     0.000 C 
BRANCH  19  20
ATOM     20  C   UNL     1      30.335  37.670   1.305  1.00  0.00     0.000 C 
BRANCH  20  21
ATOM     21  C   UNL     1      29.782  38.020  -0.094  1.00  0.00     0.000 C 
BRANCH  21  22
ATOM     22  C   UNL     1      29.857  36.860  -1.107  1.00  0.00    -0.000 C 
BRANCH  22  23
ATOM     23  C   UNL     1      30.802  35.710  -0.718  1.00  0.00    -0.000 C 
BRANCH  23  24
ATOM     24  C   UNL     1      30.090  34.348  -0.660  1.00  0.00    -0.000 C 
BRANCH  24  25
ATOM     25  C   UNL     1      30.882  33.295   0.139  1.00  0.00    -0.000 C 
BRANCH  25  26
ATOM     26  C   UNL     1      32.286  32.984  -0.410  1.00  0.00    -0.000 C 
BRANCH  26  27
ATOM     27  C   UNL     1      33.367  32.976   0.682  1.00  0.00    -0.000 C 
BRANCH  27  28
ATOM     28  C   UNL     1      32.760  32.665   2.057  1.00  0.00    -0.000 C 
BRANCH  28  29
ATOM     29  C   UNL     1      33.218  33.654   3.140  1.00  0.00    -0.003 C 
ATOM     30  C   UNL     1      33.382  35.079   2.608  1.00  0.00     0.004 C 
ENDBRANCH  28  29
ENDBRANCH  27  28
ENDBRANCH  26  27
ENDBRANCH  25  26
ENDBRANCH  24  25
ENDBRANCH  23  24
ENDBRANCH  22  23
ENDBRANCH  21  22
ENDBRANCH  20  21
ENDBRANCH  19  20
ENDBRANCH  18  19
ENDBRANCH  17  18
ENDBRANCH   1  17
TORSDOF 26
ENDMDL
MODEL 9
REMARK VINA RESULT:    -3.237      3.961      7.992
REMARK INTER + INTRA:         -13.577
REMARK INTER:                  -8.733
REMARK INTRA:                  -4.844
REMARK UNBOUND:                -5.419
REMARK SMILES CCCCCCCCCCCCCCCCCCCCCCCCCCCC(=O)[O-]
REMARK SMILES IDX 15 1 16 2 17 3 18 4 19 5 20 6 21 7 22 8 23 9 24 10 25 11
REMARK SMILES IDX 26 12 27 13 28 14 29 15 30 16 14 17 13 18 12 19 11 20 10 21
REMARK SMILES IDX 9 22 8 23 7 24 6 25 5 26 4 27 3 28 2 29 1 30
REMARK H PARENT
REMARK Flexibility Score: inf
ROOT
ATOM      1  C   UNL     1      30.510  34.098   0.367  1.00  0.00     0.000 C 
ENDROOT
BRANCH   1   2
ATOM      2  C   UNL     1      30.862  34.978  -0.846  1.00  0.00     0.000 C 
BRANCH   2   3
ATOM      3  C   UNL     1      31.430  34.169  -2.026  1.00  0.00     0.000 C 
BRANCH   3   4
ATOM      4  C   UNL     1      31.560  32.671  -1.700  1.00  0.00     0.000 C 
BRANCH   4   5
ATOM      5  C   UNL     1      33.006  32.162  -1.840  1.00  0.00     0.000 C 
BRANCH   5   6
ATOM      6  C   UNL     1      34.047  33.278  -1.643  1.00  0.00     0.000 C 
BRANCH   6   7
ATOM      7  C   UNL     1      34.503  33.480  -0.186  1.00  0.00     0.000 C 
BRANCH   7   8
ATOM      8  C   UNL     1      35.200  34.837   0.059  1.00  0.00     0.000 C 
BRANCH   8   9
ATOM      9  C   UNL     1      34.239  35.932   0.555  1.00  0.00     0.000 C 
BRANCH   9  10
ATOM     10  C   UNL     1      34.920  36.886   1.551  1.00  0.00     0.000 C 
BRANCH  10  11
ATOM     11  C   UNL     1      34.365  36.761   2.981  1.00  0.00     0.000 C 
BRANCH  11  12
ATOM     12  C   UNL     1      34.389  35.338   3.566  1.00  0.00     0.006 C 
BRANCH  12  13
ATOM     13  C   UNL     1      35.542  35.115   4.555  1.00  0.00     0.053 C 
BRANCH  13  14
ATOM     14  C   UNL     1      35.102  35.404   5.957  1.00  0.00     0.041 C 
ATOM     15  O   UNL     1      34.861  34.459   6.754  1.00  0.00    -0.550 OA
ATOM     16  O   UNL     1      34.970  36.719   6.389  1.00  0.00    -0.550 OA
ENDBRANCH  13  14
ENDBRANCH  12  13
ENDBRANCH  11  12
ENDBRANCH  10  11
ENDBRANCH   9  10
ENDBRANCH   8   9
ENDBRANCH   7   8
ENDBRANCH   6   7
ENDBRANCH   5   6
ENDBRANCH   4   5
ENDBRANCH   3   4
ENDBRANCH   2   3
ENDBRANCH   1   2
BRANCH   1  17
ATOM     17  C   UNL     1      31.272  34.436   1.661  1.00  0.00     0.000 C 
BRANCH  17  18
ATOM     18  C   UNL     1      31.698  33.190   2.451  1.00  0.00     0.000 C 
BRANCH  18  19
ATOM     19  C   UNL     1      30.973  33.126   3.805  1.00  0.00     0.000 C 
BRANCH  19  20
ATOM     20  C   UNL     1      29.479  32.779   3.665  1.00  0.00     0.000 C 
BRANCH  20  21
ATOM     21  C   UNL     1      28.527  33.873   4.196  1.00  0.00     0.000 C 
BRANCH  21  22
ATOM     22  C   UNL     1      27.075  33.736   3.697  1.00  0.00    -0.000 C 
BRANCH  22  23
ATOM     23  C   UNL     1      26.915  33.091   2.309  1.00  0.00    -0.000 C 
BRANCH  23  24
ATOM     24  C   UNL     1      26.037  33.924   1.361  1.00  0.00    -0.000 C 
BRANCH  24  25
ATOM     25  C   UNL     1      26.833  34.539   0.195  1.00  0.00    -0.000 C 
BRANCH  25  26
ATOM     26  C   UNL     1      27.394  35.948   0.461  1.00  0.00    -0.000 C 
BRANCH  26  27
ATOM     27  C   UNL     1      26.608  36.711   1.539  1.00  0.00    -0.000 C 
BRANCH  27  28
ATOM     28  C   UNL     1      27.523  37.671   2.312  1.00  0.00    -0.000 C 
BRANCH  28  29
ATOM     29  C   UNL     1      28.841  37.009   2.743  1.00  0.00    -0.003 C 
ATOM     30  C   UNL     1      30.073  37.804   2.309  1.00  0.00     0.004 C 
ENDBRANCH  28  29
ENDBRANCH  27  28
ENDBRANCH  26  27
ENDBRANCH  25  26
ENDBRANCH  24  25
ENDBRANCH  23  24
ENDBRANCH  22  23
ENDBRANCH  21  22
ENDBRANCH  20  21
ENDBRANCH  19  20
ENDBRANCH  18  19
ENDBRANCH  17  18
ENDBRANCH   1  17
TORSDOF 26
ENDMDL
