MODEL 1
REMARK VINA RESULT:    -2.563      0.000      0.000
REMARK INTER + INTRA:          -2.563
REMARK INTER:                  -2.563
REMARK INTRA:                   0.000
REMARK UNBOUND:                 0.000
REMARK SMILES CC(=O)[O-]
REMARK SMILES IDX 1 1 2 2 3 3 4 4
REMARK H PARENT
REMARK Flexibility Score: inf
ROOT
ATOM      1  C   UNL     1      38.312 105.766 259.874  1.00  0.00     0.063 C 
ATOM      2  C   UNL     1      37.147 106.650 260.160  1.00  0.00     0.038 C 
ATOM      3  O   UNL     1      36.714 106.764 261.337  1.00  0.00    -0.550 OA
ATOM      4  O   UNL     1      36.501 107.309 259.122  1.00  0.00    -0.550 OA
ENDROOT
TORSDOF 0
ENDMDL
MODEL 2
REMARK VINA RESULT:    -2.463      1.455      2.070
REMARK INTER + INTRA:          -2.463
REMARK INTER:                  -2.463
REMARK INTRA:                   0.000
REMARK UNBOUND:                 0.000
REMARK SMILES CC(=O)[O-]
REMARK SMILES IDX 1 1 2 2 3 3 4 4
REMARK H PARENT
REMARK Flexibility Score: inf
ROOT
ATOM      1  C   UNL     1      36.789 106.537 261.717  1.00  0.00     0.063 C 
ATOM      2  C   UNL     1      37.353 106.596 260.338  1.00  0.00     0.038 C 
ATOM      3  O   UNL     1      36.698 107.142 259.411  1.00  0.00    -0.550 OA
ATOM      4  O   UNL     1      38.577 106.003 260.060  1.00  0.00    -0.550 OA
ENDROOT
TORSDOF 0
ENDMDL
MODEL 3
REMARK VINA RESULT:    -2.441      1.456      2.014
REMARK INTER + INTRA:          -2.441
REMARK INTER:                  -2.441
REMARK INTRA:                   0.000
REMARK UNBOUND:                 0.000
REMARK SMILES CC(=O)[O-]
REMARK SMILES IDX 1 1 2 2 3 3 4 4
REMARK H PARENT
REMARK Flexibility Score: inf
ROOT
ATOM      1  C   UNL     1      36.642 106.880 259.121  1.00  0.00     0.063 C 
ATOM      2  C   UNL     1      37.351 106.477 260.369  1.00  0.00     0.038 C 
ATOM      3  O   UNL     1      38.457 105.877 260.301  1.00  0.00    -0.550 OA
ATOM      4  O   UNL     1      36.770 106.713 261.608  1.00  0.00    -0.550 OA
ENDROOT
TORSDOF 0
ENDMDL
MODEL 4
REMARK VINA RESULT:    -2.362      1.956      2.427
REMARK INTER + INTRA:          -2.362
REMARK INTER:                  -2.362
REMARK INTRA:                   0.000
REMARK UNBOUND:                 0.000
REMARK SMILES CC(=O)[O-]
REMARK SMILES IDX 1 1 2 2 3 3 4 4
REMARK H PARENT
REMARK Flexibility Score: inf
ROOT
ATOM      1  C   UNL     1      37.595 106.359 260.592  1.00  0.00     0.063 C 
ATOM      2  C   UNL     1      37.419 106.805 262.003  1.00  0.00     0.038 C 
ATOM      3  O   UNL     1      36.271 106.823 262.521  1.00  0.00    -0.550 OA
ATOM      4  O   UNL     1      38.512 107.254 262.733  1.00  0.00    -0.550 OA
ENDROOT
TORSDOF 0
ENDMDL
MODEL 5
REMARK VINA RESULT:    -2.331      2.215      2.455
REMARK INTER + INTRA:          -2.331
REMARK INTER:                  -2.331
REMARK INTRA:                   0.000
REMARK UNBOUND:                 0.000
REMARK SMILES CC(=O)[O-]
REMARK SMILES IDX 1 1 2 2 3 3 4 4
REMARK H PARENT
REMARK Flexibility Score: inf
ROOT
ATOM      1  C   UNL     1      38.979 107.247 262.752  1.00  0.00     0.063 C 
ATOM      2  C   UNL     1      37.593 106.856 262.367  1.00  0.00     0.038 C 
ATOM      3  O   UNL     1      36.782 106.458 263.246  1.00  0.00    -0.550 OA
ATOM      4  O   UNL     1      37.207 106.879 261.034  1.00  0.00    -0.550 OA
ENDROOT
TORSDOF 0
ENDMDL
MODEL 6
REMARK VINA RESULT:    -2.212      3.368      3.854
REMARK INTER + INTRA:          -2.212
REMARK INTER:                  -2.212
REMARK INTRA:                   0.000
REMARK UNBOUND:                 0.000
REMARK SMILES CC(=O)[O-]
REMARK SMILES IDX 1 1 2 2 3 3 4 4
REMARK H PARENT
REMARK Flexibility Score: inf
ROOT
ATOM      1  C   UNL     1      36.678 106.532 262.183  1.00  0.00     0.063 C 
ATOM      2  C   UNL     1      35.794 106.326 263.365  1.00  0.00     0.038 C 
ATOM      3  O   UNL     1      35.026 107.248 263.747  1.00  0.00    -0.550 OA
ATOM      4  O   UNL     1      35.852 105.137 264.079  1.00  0.00    -0.550 OA
ENDROOT
TORSDOF 0
ENDMDL
MODEL 7
REMARK VINA RESULT:    -2.157      7.901      8.475
REMARK INTER + INTRA:          -2.157
REMARK INTER:                  -2.157
REMARK INTRA:                   0.000
REMARK UNBOUND:                 0.000
REMARK SMILES CC(=O)[O-]
REMARK SMILES IDX 1 1 2 2 3 3 4 4
REMARK H PARENT
REMARK Flexibility Score: inf
ROOT
ATOM      1  C   UNL     1      35.344 106.875 269.486  1.00  0.00     0.063 C 
ATOM      2  C   UNL     1      35.136 107.391 268.103  1.00  0.00     0.038 C 
ATOM      3  O   UNL     1      35.245 106.614 267.117  1.00  0.00    -0.550 OA
ATOM      4  O   UNL     1      34.875 108.738 267.894  1.00  0.00    -0.550 OA
ENDROOT
TORSDOF 0
ENDMDL
MODEL 8
REMARK VINA RESULT:    -2.156      7.975      8.636
REMARK INTER + INTRA:          -2.156
REMARK INTER:                  -2.156
REMARK INTRA:                   0.000
REMARK UNBOUND:                 0.000
REMARK SMILES CC(=O)[O-]
REMARK SMILES IDX 1 1 2 2 3 3 4 4
REMARK H PARENT
REMARK Flexibility Score: inf
ROOT
ATOM      1  C   UNL     1      34.958 106.151 267.265  1.00  0.00     0.063 C 
ATOM      2  C   UNL     1      35.072 107.217 268.301  1.00  0.00     0.038 C 
ATOM      3  O   UNL     1      34.879 108.422 267.990  1.00  0.00    -0.550 OA
ATOM      4  O   UNL     1      35.442 106.890 269.598  1.00  0.00    -0.550 OA
ENDROOT
TORSDOF 0
ENDMDL
MODEL 9
REMARK VINA RESULT:    -2.126      8.103      8.591
REMARK INTER + INTRA:          -2.126
REMARK INTER:                  -2.126
REMARK INTRA:                   0.000
REMARK UNBOUND:                 0.000
REMARK SMILES CC(=O)[O-]
REMARK SMILES IDX 1 1 2 2 3 3 4 4
REMARK H PARENT
REMARK Flexibility Score: inf
ROOT
ATOM      1  C   UNL     1      34.875 108.364 267.770  1.00  0.00     0.063 C 
ATOM      2  C   UNL     1      35.167 107.017 268.338  1.00  0.00     0.038 C 
ATOM      3  O   UNL     1      35.479 106.898 269.552  1.00  0.00    -0.550 OA
ATOM      4  O   UNL     1      35.149 105.897 267.518  1.00  0.00    -0.550 OA
ENDROOT
TORSDOF 0
ENDMDL
