MODEL 1
REMARK VINA RESULT:    -3.679      0.000      0.000
REMARK INTER + INTRA:          -3.910
REMARK INTER:                  -3.894
REMARK INTRA:                  -0.016
REMARK UNBOUND:                -0.016
REMARK SMILES O=C([O-])c1cccnc1
REMARK SMILES IDX 4 1 5 2 9 3 6 4 8 5 7 6 2 7 1 8 3 9
REMARK H PARENT
REMARK Flexibility Score: inf
ROOT
ATOM      1  C   UNL     1     -12.279  19.129 -13.391  1.00  0.00     0.016 A 
ATOM      2  C   UNL     1     -11.712  18.215 -12.488  1.00  0.00     0.013 A 
ATOM      3  C   UNL     1     -11.419  19.876 -14.212  1.00  0.00     0.120 A 
ATOM      4  C   UNL     1     -10.326  18.064 -12.420  1.00  0.00     0.021 A 
ATOM      5  N   UNL     1     -10.072  19.710 -14.127  1.00  0.00    -0.264 NA
ATOM      6  C   UNL     1      -9.513  18.829 -13.256  1.00  0.00     0.111 A 
ENDROOT
BRANCH   1   7
ATOM      7  C   UNL     1     -13.745  19.304 -13.478  1.00  0.00     0.073 C 
ATOM      8  O   UNL     1     -14.406  18.727 -14.383  1.00  0.00    -0.545 OA
ATOM      9  O   UNL     1     -14.414  20.110 -12.564  1.00  0.00    -0.545 OA
ENDBRANCH   1   7
TORSDOF 1
ENDMDL
MODEL 2
REMARK VINA RESULT:    -3.381      0.892      1.600
REMARK INTER + INTRA:          -3.594
REMARK INTER:                  -3.578
REMARK INTRA:                  -0.016
REMARK UNBOUND:                -0.016
REMARK SMILES O=C([O-])c1cccnc1
REMARK SMILES IDX 4 1 5 2 9 3 6 4 8 5 7 6 2 7 1 8 3 9
REMARK H PARENT
REMARK Flexibility Score: inf
ROOT
ATOM      1  C   UNL     1     -12.230  19.172 -13.423  1.00  0.00     0.016 A 
ATOM      2  C   UNL     1     -11.402  20.020 -14.177  1.00  0.00     0.013 A 
ATOM      3  C   UNL     1     -11.624  18.197 -12.612  1.00  0.00     0.120 A 
ATOM      4  C   UNL     1     -10.015  19.885 -14.113  1.00  0.00     0.021 A 
ATOM      5  N   UNL     1     -10.269  18.087 -12.567  1.00  0.00    -0.264 NA
ATOM      6  C   UNL     1      -9.460  18.902 -13.293  1.00  0.00     0.111 A 
ENDROOT
BRANCH   1   7
ATOM      7  C   UNL     1     -13.702  19.298 -13.477  1.00  0.00     0.073 C 
ATOM      8  O   UNL     1     -14.362  18.710 -14.376  1.00  0.00    -0.545 OA
ATOM      9  O   UNL     1     -14.379  20.068 -12.537  1.00  0.00    -0.545 OA
ENDBRANCH   1   7
TORSDOF 1
ENDMDL
MODEL 3
REMARK VINA RESULT:    -3.346      2.457      3.470
REMARK INTER + INTRA:          -3.558
REMARK INTER:                  -3.541
REMARK INTRA:                  -0.017
REMARK UNBOUND:                -0.016
REMARK SMILES O=C([O-])c1cccnc1
REMARK SMILES IDX 4 1 5 2 9 3 6 4 8 5 7 6 2 7 1 8 3 9
REMARK H PARENT
REMARK Flexibility Score: inf
ROOT
ATOM      1  C   UNL     1     -12.008  19.053 -13.409  1.00  0.00     0.016 A 
ATOM      2  C   UNL     1     -13.316  19.060 -12.897  1.00  0.00     0.013 A 
ATOM      3  C   UNL     1     -11.783  19.623 -14.673  1.00  0.00     0.120 A 
ATOM      4  C   UNL     1     -14.356  19.622 -13.638  1.00  0.00     0.021 A 
ATOM      5  N   UNL     1     -12.814  20.165 -15.375  1.00  0.00    -0.264 NA
ATOM      6  C   UNL     1     -14.083  20.176 -14.890  1.00  0.00     0.111 A 
ENDROOT
BRANCH   1   7
ATOM      7  C   UNL     1     -10.891  18.462 -12.640  1.00  0.00     0.073 C 
ATOM      8  O   UNL     1     -10.823  17.216 -12.465  1.00  0.00    -0.545 OA
ATOM      9  O   UNL     1      -9.902  19.274 -12.097  1.00  0.00    -0.545 OA
ENDBRANCH   1   7
TORSDOF 1
ENDMDL
MODEL 4
REMARK VINA RESULT:    -3.268      3.408      4.252
REMARK INTER + INTRA:          -3.475
REMARK INTER:                  -3.459
REMARK INTRA:                  -0.016
REMARK UNBOUND:                -0.016
REMARK SMILES O=C([O-])c1cccnc1
REMARK SMILES IDX 4 1 5 2 9 3 6 4 8 5 7 6 2 7 1 8 3 9
REMARK H PARENT
REMARK Flexibility Score: inf
ROOT
ATOM      1  C   UNL     1      -9.564  19.349 -13.453  1.00  0.00     0.016 A 
ATOM      2  C   UNL     1     -10.059  18.354 -12.594  1.00  0.00     0.013 A 
ATOM      3  C   UNL     1     -10.485  20.123 -14.179  1.00  0.00     0.120 A 
ATOM      4  C   UNL     1     -11.435  18.151 -12.475  1.00  0.00     0.021 A 
ATOM      5  N   UNL     1     -11.821  19.904 -14.045  1.00  0.00    -0.264 NA
ATOM      6  C   UNL     1     -12.310  18.945 -13.217  1.00  0.00     0.111 A 
ENDROOT
BRANCH   1   7
ATOM      7  C   UNL     1      -8.110  19.580 -13.594  1.00  0.00     0.073 C 
ATOM      8  O   UNL     1      -7.529  20.450 -12.891  1.00  0.00    -0.545 OA
ATOM      9  O   UNL     1      -7.365  18.841 -14.506  1.00  0.00    -0.545 OA
ENDBRANCH   1   7
TORSDOF 1
ENDMDL
MODEL 5
REMARK VINA RESULT:    -3.038      3.385      4.291
REMARK INTER + INTRA:          -3.232
REMARK INTER:                  -3.215
REMARK INTRA:                  -0.016
REMARK UNBOUND:                -0.016
REMARK SMILES O=C([O-])c1cccnc1
REMARK SMILES IDX 4 1 5 2 9 3 6 4 8 5 7 6 2 7 1 8 3 9
REMARK H PARENT
REMARK Flexibility Score: inf
ROOT
ATOM      1  C   UNL     1      -9.803  19.620 -13.173  1.00  0.00     0.016 A 
ATOM      2  C   UNL     1     -10.703  20.257 -14.044  1.00  0.00     0.013 A 
ATOM      3  C   UNL     1     -10.287  18.591 -12.348  1.00  0.00     0.120 A 
ATOM      4  C   UNL     1     -12.042  19.866 -14.077  1.00  0.00     0.021 A 
ATOM      5  N   UNL     1     -11.597  18.229 -12.400  1.00  0.00    -0.264 NA
ATOM      6  C   UNL     1     -12.476  18.839 -13.238  1.00  0.00     0.111 A 
ENDROOT
BRANCH   1   7
ATOM      7  C   UNL     1      -8.379  20.019 -13.123  1.00  0.00     0.073 C 
ATOM      8  O   UNL     1      -7.570  19.615 -14.000  1.00  0.00    -0.545 OA
ATOM      9  O   UNL     1      -7.915  20.845 -12.105  1.00  0.00    -0.545 OA
ENDBRANCH   1   7
TORSDOF 1
ENDMDL
MODEL 6
REMARK VINA RESULT:    -2.982      3.166      3.940
REMARK INTER + INTRA:          -3.172
REMARK INTER:                  -3.151
REMARK INTRA:                  -0.021
REMARK UNBOUND:                -0.016
REMARK SMILES O=C([O-])c1cccnc1
REMARK SMILES IDX 4 1 5 2 9 3 6 4 8 5 7 6 2 7 1 8 3 9
REMARK H PARENT
REMARK Flexibility Score: inf
ROOT
ATOM      1  C   UNL     1     -14.031  19.616 -14.924  1.00  0.00     0.016 A 
ATOM      2  C   UNL     1     -14.099  20.725 -15.784  1.00  0.00     0.013 A 
ATOM      3  C   UNL     1     -13.632  18.380 -15.460  1.00  0.00     0.120 A 
ATOM      4  C   UNL     1     -13.776  20.587 -17.134  1.00  0.00     0.021 A 
ATOM      5  N   UNL     1     -13.322  18.272 -16.780  1.00  0.00    -0.264 NA
ATOM      6  C   UNL     1     -13.385  19.339 -17.620  1.00  0.00     0.111 A 
ENDROOT
BRANCH   1   7
ATOM      7  C   UNL     1     -14.370  19.740 -13.490  1.00  0.00     0.073 C 
ATOM      8  O   UNL     1     -15.253  20.555 -13.110  1.00  0.00    -0.545 OA
ATOM      9  O   UNL     1     -13.717  18.961 -12.542  1.00  0.00    -0.545 OA
ENDBRANCH   1   7
TORSDOF 1
ENDMDL
MODEL 7
REMARK VINA RESULT:    -2.901      1.813      2.353
REMARK INTER + INTRA:          -3.086
REMARK INTER:                  -3.063
REMARK INTRA:                  -0.024
REMARK UNBOUND:                -0.016
REMARK SMILES O=C([O-])c1cccnc1
REMARK SMILES IDX 4 1 5 2 9 3 6 4 8 5 7 6 2 7 1 8 3 9
REMARK H PARENT
REMARK Flexibility Score: inf
ROOT
ATOM      1  C   UNL     1     -11.948  19.796 -14.190  1.00  0.00     0.016 A 
ATOM      2  C   UNL     1     -10.592  20.137 -14.060  1.00  0.00     0.013 A 
ATOM      3  C   UNL     1     -12.483  18.840 -13.310  1.00  0.00     0.120 A 
ATOM      4  C   UNL     1      -9.808  19.534 -13.075  1.00  0.00     0.021 A 
ATOM      5  N   UNL     1     -11.697  18.266 -12.359  1.00  0.00    -0.264 NA
ATOM      6  C   UNL     1     -10.385  18.590 -12.225  1.00  0.00     0.111 A 
ENDROOT
BRANCH   1   7
ATOM      7  C   UNL     1     -12.796  20.423 -15.227  1.00  0.00     0.073 C 
ATOM      8  O   UNL     1     -12.280  21.120 -16.141  1.00  0.00    -0.545 OA
ATOM      9  O   UNL     1     -14.176  20.254 -15.205  1.00  0.00    -0.545 OA
ENDBRANCH   1   7
TORSDOF 1
ENDMDL
MODEL 8
REMARK VINA RESULT:    -2.886      2.688      3.464
REMARK INTER + INTRA:          -3.070
REMARK INTER:                  -3.054
REMARK INTRA:                  -0.016
REMARK UNBOUND:                -0.016
REMARK SMILES O=C([O-])c1cccnc1
REMARK SMILES IDX 4 1 5 2 9 3 6 4 8 5 7 6 2 7 1 8 3 9
REMARK H PARENT
REMARK Flexibility Score: inf
ROOT
ATOM      1  C   UNL     1      -9.283  19.488 -13.126  1.00  0.00     0.016 A 
ATOM      2  C   UNL     1      -8.858  20.389 -12.136  1.00  0.00     0.013 A 
ATOM      3  C   UNL     1      -8.467  19.303 -14.255  1.00  0.00     0.120 A 
ATOM      4  C   UNL     1      -7.651  21.075 -12.283  1.00  0.00     0.021 A 
ATOM      5  N   UNL     1      -7.296  19.985 -14.375  1.00  0.00    -0.264 NA
ATOM      6  C   UNL     1      -6.875  20.858 -13.422  1.00  0.00     0.111 A 
ENDROOT
BRANCH   1   7
ATOM      7  C   UNL     1     -10.558  18.751 -12.990  1.00  0.00     0.073 C 
ATOM      8  O   UNL     1     -11.647  19.287 -13.327  1.00  0.00    -0.545 OA
ATOM      9  O   UNL     1     -10.572  17.456 -12.484  1.00  0.00    -0.545 OA
ENDBRANCH   1   7
TORSDOF 1
ENDMDL
MODEL 9
REMARK VINA RESULT:    -2.828      3.272      3.838
REMARK INTER + INTRA:          -3.010
REMARK INTER:                  -2.994
REMARK INTRA:                  -0.016
REMARK UNBOUND:                -0.016
REMARK SMILES O=C([O-])c1cccnc1
REMARK SMILES IDX 4 1 5 2 9 3 6 4 8 5 7 6 2 7 1 8 3 9
REMARK H PARENT
REMARK Flexibility Score: inf
ROOT
ATOM      1  C   UNL     1     -13.305  19.666 -15.283  1.00  0.00     0.016 A 
ATOM      2  C   UNL     1     -13.093  18.897 -14.127  1.00  0.00     0.013 A 
ATOM      3  C   UNL     1     -14.140  20.792 -15.192  1.00  0.00     0.120 A 
ATOM      4  C   UNL     1     -13.704  19.256 -12.924  1.00  0.00     0.021 A 
ATOM      5  N   UNL     1     -14.723  21.120 -14.008  1.00  0.00    -0.264 NA
ATOM      6  C   UNL     1     -14.525  20.383 -12.884  1.00  0.00     0.111 A 
ENDROOT
BRANCH   1   7
ATOM      7  C   UNL     1     -12.668  19.303 -16.567  1.00  0.00     0.073 C 
ATOM      8  O   UNL     1     -13.276  18.581 -17.402  1.00  0.00    -0.545 OA
ATOM      9  O   UNL     1     -11.387  19.753 -16.870  1.00  0.00    -0.545 OA
ENDBRANCH   1   7
TORSDOF 1
ENDMDL
