MODEL 1
REMARK VINA RESULT:    -4.649      0.000      0.000
REMARK INTER + INTRA:          -6.712
REMARK INTER:                  -6.280
REMARK INTRA:                  -0.432
REMARK UNBOUND:                -0.432
REMARK SMILES [NH3+]CCCC[C@H]([NH3+])C(=O)[O-]
REMARK SMILES IDX 4 1 3 2 2 3 1 4 5 8 6 9 7 10 8 14 9 15 10 16
REMARK H PARENT 1 5 1 6 1 7 7 11 7 12 7 13
REMARK Flexibility Score: inf
ROOT
ATOM      1  C   UNL     1     128.790 104.538 129.900  1.00  0.00     0.012 C 
ENDROOT
BRANCH   1   2
ATOM      2  C   UNL     1     128.490 104.550 131.410  1.00  0.00     0.061 C 
BRANCH   2   3
ATOM      3  C   UNL     1     127.611 103.387 131.908  1.00  0.00     0.258 C 
BRANCH   3   4
ATOM      4  N   UNL     1     127.573 102.271 130.961  1.00  0.00    -0.358 N 
ATOM      5  H   UNL     1     126.885 101.547 131.274  1.00  0.00     0.344 HD
ATOM      6  H   UNL     1     128.523 101.846 130.865  1.00  0.00     0.344 HD
ATOM      7  H   UNL     1     127.279 102.631 130.024  1.00  0.00     0.344 HD
ENDBRANCH   3   4
ENDBRANCH   2   3
ENDBRANCH   1   2
BRANCH   1   8
ATOM      8  C   UNL     1     127.830 105.429 129.092  1.00  0.00     0.072 C 
BRANCH   8   9
ATOM      9  C   UNL     1     127.302 104.734 127.817  1.00  0.00     0.227 C 
BRANCH   9  10
ATOM     10  N   UNL     1     127.441 105.590 126.629  1.00  0.00    -0.350 N 
ATOM     11  H   UNL     1     128.377 106.059 126.614  1.00  0.00     0.345 HD
ATOM     12  H   UNL     1     127.322 105.024 125.759  1.00  0.00     0.345 HD
ATOM     13  H   UNL     1     126.694 106.323 126.629  1.00  0.00     0.345 HD
ENDBRANCH   9  10
BRANCH   9  14
ATOM     14  C   UNL     1     125.860 104.349 128.010  1.00  0.00     0.099 C 
ATOM     15  O   UNL     1     125.476 103.834 129.093  1.00  0.00    -0.544 OA
ATOM     16  O   UNL     1     124.946 104.543 126.981  1.00  0.00    -0.544 OA
ENDBRANCH   9  14
ENDBRANCH   8   9
ENDBRANCH   1   8
TORSDOF 7
ENDMDL
MODEL 2
REMARK VINA RESULT:    -4.608      2.069      4.362
REMARK INTER + INTRA:          -6.656
REMARK INTER:                  -6.447
REMARK INTRA:                  -0.209
REMARK UNBOUND:                -0.432
REMARK SMILES [NH3+]CCCC[C@H]([NH3+])C(=O)[O-]
REMARK SMILES IDX 4 1 3 2 2 3 1 4 5 8 6 9 7 10 8 14 9 15 10 16
REMARK H PARENT 1 5 1 6 1 7 7 11 7 12 7 13
REMARK Flexibility Score: inf
ROOT
ATOM      1  C   UNL     1     128.370 104.010 128.878  1.00  0.00     0.012 C 
ENDROOT
BRANCH   1   2
ATOM      2  C   UNL     1     127.026 103.723 128.185  1.00  0.00     0.061 C 
BRANCH   2   3
ATOM      3  C   UNL     1     126.472 104.881 127.333  1.00  0.00     0.258 C 
BRANCH   3   4
ATOM      4  N   UNL     1     127.531 105.620 126.642  1.00  0.00    -0.358 N 
ATOM      5  H   UNL     1     127.324 105.687 125.619  1.00  0.00     0.344 HD
ATOM      6  H   UNL     1     128.454 105.155 126.793  1.00  0.00     0.344 HD
ATOM      7  H   UNL     1     127.583 106.587 127.038  1.00  0.00     0.344 HD
ENDBRANCH   3   4
ENDBRANCH   2   3
ENDBRANCH   1   2
BRANCH   1   8
ATOM      8  C   UNL     1     128.205 104.685 130.251  1.00  0.00     0.072 C 
BRANCH   8   9
ATOM      9  C   UNL     1     128.683 103.789 131.416  1.00  0.00     0.227 C 
BRANCH   9  10
ATOM     10  N   UNL     1     129.389 102.594 130.934  1.00  0.00    -0.350 N 
ATOM     11  H   UNL     1     129.387 101.840 131.659  1.00  0.00     0.345 HD
ATOM     12  H   UNL     1     128.941 102.236 130.060  1.00  0.00     0.345 HD
ATOM     13  H   UNL     1     130.380 102.837 130.698  1.00  0.00     0.345 HD
ENDBRANCH   9  10
BRANCH   9  14
ATOM     14  C   UNL     1     127.504 103.386 132.262  1.00  0.00     0.099 C 
ATOM     15  O   UNL     1     127.594 103.374 133.519  1.00  0.00    -0.544 OA
ATOM     16  O   UNL     1     126.313 103.003 131.656  1.00  0.00    -0.544 OA
ENDBRANCH   9  14
ENDBRANCH   8   9
ENDBRANCH   1   8
TORSDOF 7
ENDMDL
MODEL 3
REMARK VINA RESULT:    -4.605      2.002      2.797
REMARK INTER + INTRA:          -6.651
REMARK INTER:                  -6.144
REMARK INTRA:                  -0.507
REMARK UNBOUND:                -0.432
REMARK SMILES [NH3+]CCCC[C@H]([NH3+])C(=O)[O-]
REMARK SMILES IDX 4 1 3 2 2 3 1 4 5 8 6 9 7 10 8 14 9 15 10 16
REMARK H PARENT 1 5 1 6 1 7 7 11 7 12 7 13
REMARK Flexibility Score: inf
ROOT
ATOM      1  C   UNL     1     124.988 103.992 129.187  1.00  0.00     0.012 C 
ENDROOT
BRANCH   1   2
ATOM      2  C   UNL     1     125.240 102.757 130.071  1.00  0.00     0.061 C 
BRANCH   2   3
ATOM      3  C   UNL     1     126.192 102.990 131.260  1.00  0.00     0.258 C 
BRANCH   3   4
ATOM      4  N   UNL     1     127.434 102.224 131.137  1.00  0.00    -0.358 N 
ATOM      5  H   UNL     1     127.346 101.501 130.386  1.00  0.00     0.344 HD
ATOM      6  H   UNL     1     127.670 101.770 132.047  1.00  0.00     0.344 HD
ATOM      7  H   UNL     1     128.211 102.877 130.885  1.00  0.00     0.344 HD
ENDBRANCH   3   4
ENDBRANCH   2   3
ENDBRANCH   1   2
BRANCH   1   8
ATOM      8  C   UNL     1     125.807 103.973 127.884  1.00  0.00     0.072 C 
BRANCH   8   9
ATOM      9  C   UNL     1     126.891 105.074 127.845  1.00  0.00     0.227 C 
BRANCH   9  10
ATOM     10  N   UNL     1     127.141 105.547 126.476  1.00  0.00    -0.350 N 
ATOM     11  H   UNL     1     127.446 106.548 126.477  1.00  0.00     0.345 HD
ATOM     12  H   UNL     1     127.876 104.961 126.019  1.00  0.00     0.345 HD
ATOM     13  H   UNL     1     126.270 105.457 125.903  1.00  0.00     0.345 HD
ENDBRANCH   9  10
BRANCH   9  14
ATOM     14  C   UNL     1     128.166 104.553 128.453  1.00  0.00     0.099 C 
ATOM     15  O   UNL     1     129.039 105.351 128.886  1.00  0.00    -0.544 OA
ATOM     16  O   UNL     1     128.395 103.184 128.519  1.00  0.00    -0.544 OA
ENDBRANCH   9  14
ENDBRANCH   8   9
ENDBRANCH   1   8
TORSDOF 7
ENDMDL
MODEL 4
REMARK VINA RESULT:    -4.543      1.753      3.578
REMARK INTER + INTRA:          -6.568
REMARK INTER:                  -6.048
REMARK INTRA:                  -0.520
REMARK UNBOUND:                -0.432
REMARK SMILES [NH3+]CCCC[C@H]([NH3+])C(=O)[O-]
REMARK SMILES IDX 4 1 3 2 2 3 1 4 5 8 6 9 7 10 8 14 9 15 10 16
REMARK H PARENT 1 5 1 6 1 7 7 11 7 12 7 13
REMARK Flexibility Score: inf
ROOT
ATOM      1  C   UNL     1     128.543 104.595 130.242  1.00  0.00     0.012 C 
ENDROOT
BRANCH   1   2
ATOM      2  C   UNL     1     128.379 105.043 128.779  1.00  0.00     0.061 C 
BRANCH   2   3
ATOM      3  C   UNL     1     127.277 104.309 127.992  1.00  0.00     0.258 C 
BRANCH   3   4
ATOM      4  N   UNL     1     127.540 102.873 127.872  1.00  0.00    -0.358 N 
ATOM      5  H   UNL     1     127.045 102.479 127.039  1.00  0.00     0.344 HD
ATOM      6  H   UNL     1     127.236 102.377 128.739  1.00  0.00     0.344 HD
ATOM      7  H   UNL     1     128.568 102.725 127.753  1.00  0.00     0.344 HD
ENDBRANCH   3   4
ENDBRANCH   2   3
ENDBRANCH   1   2
BRANCH   1   8
ATOM      8  C   UNL     1     127.234 104.685 131.046  1.00  0.00     0.072 C 
BRANCH   8   9
ATOM      9  C   UNL     1     126.787 103.319 131.613  1.00  0.00     0.227 C 
BRANCH   9  10
ATOM     10  N   UNL     1     127.719 102.242 131.245  1.00  0.00    -0.350 N 
ATOM     11  H   UNL     1     128.307 101.961 132.063  1.00  0.00     0.345 HD
ATOM     12  H   UNL     1     127.191 101.411 130.894  1.00  0.00     0.345 HD
ATOM     13  H   UNL     1     128.345 102.563 130.470  1.00  0.00     0.345 HD
ENDBRANCH   9  10
BRANCH   9  14
ATOM     14  C   UNL     1     125.402 102.994 131.119  1.00  0.00     0.099 C 
ATOM     15  O   UNL     1     125.238 102.426 130.006  1.00  0.00    -0.544 OA
ATOM     16  O   UNL     1     124.294 103.340 131.882  1.00  0.00    -0.544 OA
ENDBRANCH   9  14
ENDBRANCH   8   9
ENDBRANCH   1   8
TORSDOF 7
ENDMDL
MODEL 5
REMARK VINA RESULT:    -4.407      1.983      2.480
REMARK INTER + INTRA:          -6.384
REMARK INTER:                  -5.854
REMARK INTRA:                  -0.530
REMARK UNBOUND:                -0.432
REMARK SMILES [NH3+]CCCC[C@H]([NH3+])C(=O)[O-]
REMARK SMILES IDX 4 1 3 2 2 3 1 4 5 8 6 9 7 10 8 14 9 15 10 16
REMARK H PARENT 1 5 1 6 1 7 7 11 7 12 7 13
REMARK Flexibility Score: inf
ROOT
ATOM      1  C   UNL     1     125.923 102.626 130.672  1.00  0.00     0.012 C 
ENDROOT
BRANCH   1   2
ATOM      2  C   UNL     1     126.612 103.389 131.818  1.00  0.00     0.061 C 
BRANCH   2   3
ATOM      3  C   UNL     1     128.124 103.618 131.632  1.00  0.00     0.258 C 
BRANCH   3   4
ATOM      4  N   UNL     1     128.736 102.614 130.759  1.00  0.00    -0.358 N 
ATOM      5  H   UNL     1     128.307 102.648 129.805  1.00  0.00     0.344 HD
ATOM      6  H   UNL     1     128.624 101.661 131.170  1.00  0.00     0.344 HD
ATOM      7  H   UNL     1     129.759 102.816 130.674  1.00  0.00     0.344 HD
ENDBRANCH   3   4
ENDBRANCH   2   3
ENDBRANCH   1   2
BRANCH   1   8
ATOM      8  C   UNL     1     125.346 103.559 129.593  1.00  0.00     0.072 C 
BRANCH   8   9
ATOM      9  C   UNL     1     125.900 103.253 128.183  1.00  0.00     0.227 C 
BRANCH   9  10
ATOM     10  N   UNL     1     126.544 101.933 128.123  1.00  0.00    -0.350 N 
ATOM     11  H   UNL     1     125.862 101.173 128.349  1.00  0.00     0.345 HD
ATOM     12  H   UNL     1     126.944 101.769 127.171  1.00  0.00     0.345 HD
ATOM     13  H   UNL     1     127.337 101.893 128.805  1.00  0.00     0.345 HD
ENDBRANCH   9  10
BRANCH   9  14
ATOM     14  C   UNL     1     126.878 104.324 127.778  1.00  0.00     0.099 C 
ATOM     15  O   UNL     1     128.014 104.389 128.320  1.00  0.00    -0.544 OA
ATOM     16  O   UNL     1     126.521 105.263 126.818  1.00  0.00    -0.544 OA
ENDBRANCH   9  14
ENDBRANCH   8   9
ENDBRANCH   1   8
TORSDOF 7
ENDMDL
MODEL 6
REMARK VINA RESULT:    -4.393      1.785      2.841
REMARK INTER + INTRA:          -6.366
REMARK INTER:                  -5.930
REMARK INTRA:                  -0.436
REMARK UNBOUND:                -0.432
REMARK SMILES [NH3+]CCCC[C@H]([NH3+])C(=O)[O-]
REMARK SMILES IDX 4 1 3 2 2 3 1 4 5 8 6 9 7 10 8 14 9 15 10 16
REMARK H PARENT 1 5 1 6 1 7 7 11 7 12 7 13
REMARK Flexibility Score: inf
ROOT
ATOM      1  C   UNL     1     127.360 104.139 130.827  1.00  0.00     0.012 C 
ENDROOT
BRANCH   1   2
ATOM      2  C   UNL     1     128.706 104.456 130.152  1.00  0.00     0.061 C 
BRANCH   2   3
ATOM      3  C   UNL     1     128.608 105.305 128.871  1.00  0.00     0.258 C 
BRANCH   3   4
ATOM      4  N   UNL     1     127.505 106.267 128.922  1.00  0.00    -0.358 N 
ATOM      5  H   UNL     1     127.719 107.035 129.598  1.00  0.00     0.344 HD
ATOM      6  H   UNL     1     126.619 105.785 129.195  1.00  0.00     0.344 HD
ATOM      7  H   UNL     1     127.372 106.682 127.972  1.00  0.00     0.344 HD
ENDBRANCH   3   4
ENDBRANCH   2   3
ENDBRANCH   1   2
BRANCH   1   8
ATOM      8  C   UNL     1     126.935 102.670 130.656  1.00  0.00     0.072 C 
BRANCH   8   9
ATOM      9  C   UNL     1     125.978 102.462 129.460  1.00  0.00     0.227 C 
BRANCH   9  10
ATOM     10  N   UNL     1     126.710 102.251 128.203  1.00  0.00    -0.350 N 
ATOM     11  H   UNL     1     126.166 102.618 127.388  1.00  0.00     0.345 HD
ATOM     12  H   UNL     1     127.640 102.726 128.242  1.00  0.00     0.345 HD
ATOM     13  H   UNL     1     126.888 101.229 128.061  1.00  0.00     0.345 HD
ENDBRANCH   9  10
BRANCH   9  14
ATOM     14  C   UNL     1     125.063 103.651 129.331  1.00  0.00     0.099 C 
ATOM     15  O   UNL     1     124.194 103.887 130.213  1.00  0.00    -0.544 OA
ATOM     16  O   UNL     1     125.159 104.484 128.224  1.00  0.00    -0.544 OA
ENDBRANCH   9  14
ENDBRANCH   8   9
ENDBRANCH   1   8
TORSDOF 7
ENDMDL
MODEL 7
REMARK VINA RESULT:    -4.351      2.880      4.508
REMARK INTER + INTRA:          -6.309
REMARK INTER:                  -5.750
REMARK INTRA:                  -0.559
REMARK UNBOUND:                -0.432
REMARK SMILES [NH3+]CCCC[C@H]([NH3+])C(=O)[O-]
REMARK SMILES IDX 4 1 3 2 2 3 1 4 5 8 6 9 7 10 8 14 9 15 10 16
REMARK H PARENT 1 5 1 6 1 7 7 11 7 12 7 13
REMARK Flexibility Score: inf
ROOT
ATOM      1  C   UNL     1     125.016 103.386 129.645  1.00  0.00     0.012 C 
ENDROOT
BRANCH   1   2
ATOM      2  C   UNL     1     125.856 102.772 128.511  1.00  0.00     0.061 C 
BRANCH   2   3
ATOM      3  C   UNL     1     127.056 103.623 128.054  1.00  0.00     0.258 C 
BRANCH   3   4
ATOM      4  N   UNL     1     128.339 103.011 128.406  1.00  0.00    -0.358 N 
ATOM      5  H   UNL     1     129.129 103.655 128.169  1.00  0.00     0.344 HD
ATOM      6  H   UNL     1     128.455 102.102 127.905  1.00  0.00     0.344 HD
ATOM      7  H   UNL     1     128.355 102.823 129.434  1.00  0.00     0.344 HD
ENDBRANCH   3   4
ENDBRANCH   2   3
ENDBRANCH   1   2
BRANCH   1   8
ATOM      8  C   UNL     1     125.414 102.864 131.036  1.00  0.00     0.072 C 
BRANCH   8   9
ATOM      9  C   UNL     1     126.104 103.942 131.902  1.00  0.00     0.227 C 
BRANCH   9  10
ATOM     10  N   UNL     1     126.154 105.243 131.219  1.00  0.00    -0.350 N 
ATOM     11  H   UNL     1     125.259 105.434 130.713  1.00  0.00     0.345 HD
ATOM     12  H   UNL     1     126.333 106.007 131.909  1.00  0.00     0.345 HD
ATOM     13  H   UNL     1     126.943 105.254 130.531  1.00  0.00     0.345 HD
ENDBRANCH   9  10
BRANCH   9  14
ATOM     14  C   UNL     1     127.496 103.492 132.258  1.00  0.00     0.099 C 
ATOM     15  O   UNL     1     128.261 103.022 131.373  1.00  0.00    -0.544 OA
ATOM     16  O   UNL     1     127.938 103.572 133.573  1.00  0.00    -0.544 OA
ENDBRANCH   9  14
ENDBRANCH   8   9
ENDBRANCH   1   8
TORSDOF 7
ENDMDL
MODEL 8
REMARK VINA RESULT:    -4.315      2.552      3.037
REMARK INTER + INTRA:          -6.260
REMARK INTER:                  -5.810
REMARK INTRA:                  -0.450
REMARK UNBOUND:                -0.432
REMARK SMILES [NH3+]CCCC[C@H]([NH3+])C(=O)[O-]
REMARK SMILES IDX 4 1 3 2 2 3 1 4 5 8 6 9 7 10 8 14 9 15 10 16
REMARK H PARENT 1 5 1 6 1 7 7 11 7 12 7 13
REMARK Flexibility Score: inf
ROOT
ATOM      1  C   UNL     1     125.785 103.017 131.044  1.00  0.00     0.012 C 
ENDROOT
BRANCH   1   2
ATOM      2  C   UNL     1     125.916 103.922 132.282  1.00  0.00     0.061 C 
BRANCH   2   3
ATOM      3  C   UNL     1     127.323 103.969 132.908  1.00  0.00     0.258 C 
BRANCH   3   4
ATOM      4  N   UNL     1     127.993 105.250 132.677  1.00  0.00    -0.358 N 
ATOM      5  H   UNL     1     127.290 106.010 132.524  1.00  0.00     0.344 HD
ATOM      6  H   UNL     1     128.632 105.180 131.853  1.00  0.00     0.344 HD
ATOM      7  H   UNL     1     128.568 105.489 133.517  1.00  0.00     0.344 HD
ENDBRANCH   3   4
ENDBRANCH   2   3
ENDBRANCH   1   2
BRANCH   1   8
ATOM      8  C   UNL     1     127.125 102.788 130.324  1.00  0.00     0.072 C 
BRANCH   8   9
ATOM      9  C   UNL     1     127.218 103.547 128.982  1.00  0.00     0.227 C 
BRANCH   9  10
ATOM     10  N   UNL     1     127.443 102.635 127.851  1.00  0.00    -0.350 N 
ATOM     11  H   UNL     1     126.585 102.558 127.257  1.00  0.00     0.345 HD
ATOM     12  H   UNL     1     128.240 102.973 127.266  1.00  0.00     0.345 HD
ATOM     13  H   UNL     1     127.698 101.684 128.206  1.00  0.00     0.345 HD
ENDBRANCH   9  10
BRANCH   9  14
ATOM     14  C   UNL     1     128.325 104.566 129.052  1.00  0.00     0.099 C 
ATOM     15  O   UNL     1     129.121 104.578 130.028  1.00  0.00    -0.544 OA
ATOM     16  O   UNL     1     128.461 105.514 128.045  1.00  0.00    -0.544 OA
ENDBRANCH   9  14
ENDBRANCH   8   9
ENDBRANCH   1   8
TORSDOF 7
ENDMDL
MODEL 9
REMARK VINA RESULT:    -4.296      2.303      4.434
REMARK INTER + INTRA:          -6.235
REMARK INTER:                  -6.120
REMARK INTRA:                  -0.115
REMARK UNBOUND:                -0.432
REMARK SMILES [NH3+]CCCC[C@H]([NH3+])C(=O)[O-]
REMARK SMILES IDX 4 1 3 2 2 3 1 4 5 8 6 9 7 10 8 14 9 15 10 16
REMARK H PARENT 1 5 1 6 1 7 7 11 7 12 7 13
REMARK Flexibility Score: inf
ROOT
ATOM      1  C   UNL     1     125.363 104.181 128.676  1.00  0.00     0.012 C 
ENDROOT
BRANCH   1   2
ATOM      2  C   UNL     1     126.189 104.485 127.413  1.00  0.00     0.061 C 
BRANCH   2   3
ATOM      3  C   UNL     1     127.507 105.244 127.663  1.00  0.00     0.258 C 
BRANCH   3   4
ATOM      4  N   UNL     1     127.994 105.925 126.462  1.00  0.00    -0.358 N 
ATOM      5  H   UNL     1     127.674 106.921 126.450  1.00  0.00     0.344 HD
ATOM      6  H   UNL     1     127.660 105.430 125.605  1.00  0.00     0.344 HD
ATOM      7  H   UNL     1     129.040 105.909 126.463  1.00  0.00     0.344 HD
ENDBRANCH   3   4
ENDBRANCH   2   3
ENDBRANCH   1   2
BRANCH   1   8
ATOM      8  C   UNL     1     125.883 102.957 129.451  1.00  0.00     0.072 C 
BRANCH   8   9
ATOM      9  C   UNL     1     126.741 103.348 130.676  1.00  0.00     0.227 C 
BRANCH   9  10
ATOM     10  N   UNL     1     127.529 102.212 131.176  1.00  0.00    -0.350 N 
ATOM     11  H   UNL     1     127.082 101.792 132.023  1.00  0.00     0.345 HD
ATOM     12  H   UNL     1     127.623 101.482 130.434  1.00  0.00     0.345 HD
ATOM     13  H   UNL     1     128.495 102.531 131.423  1.00  0.00     0.345 HD
ENDBRANCH   9  10
BRANCH   9  14
ATOM     14  C   UNL     1     125.852 103.881 131.768  1.00  0.00     0.099 C 
ATOM     15  O   UNL     1     126.243 104.824 132.506  1.00  0.00    -0.544 OA
ATOM     16  O   UNL     1     124.600 103.317 131.982  1.00  0.00    -0.544 OA
ENDBRANCH   9  14
ENDBRANCH   8   9
ENDBRANCH   1   8
TORSDOF 7
ENDMDL
