MODEL 1
REMARK VINA RESULT:    -3.488      0.000      0.000
REMARK INTER + INTRA:          -9.137
REMARK INTER:                  -6.750
REMARK INTRA:                  -2.387
REMARK UNBOUND:                -2.387
REMARK SMILES CCCCCCCCCCCCCCCCCC(=O)[O-]
REMARK SMILES IDX 10 1 11 2 12 3 13 4 14 5 15 6 16 7 17 8 18 9 19 10 20 11
REMARK SMILES IDX 9 12 8 13 7 14 6 15 5 16 4 17 3 18 2 19 1 20
REMARK H PARENT
REMARK Flexibility Score: inf
ROOT
ATOM      1  C   UNL     1      32.198   6.308 -29.760  1.00  0.00     0.000 C 
ENDROOT
BRANCH   1   2
ATOM      2  C   UNL     1      32.094   7.493 -30.733  1.00  0.00     0.000 C 
BRANCH   2   3
ATOM      3  C   UNL     1      33.168   8.565 -30.471  1.00  0.00     0.000 C 
BRANCH   3   4
ATOM      4  C   UNL     1      32.565   9.926 -30.090  1.00  0.00     0.000 C 
BRANCH   4   5
ATOM      5  C   UNL     1      31.891   9.905 -28.707  1.00  0.00     0.000 C 
BRANCH   5   6
ATOM      6  C   UNL     1      32.887   9.639 -27.566  1.00  0.00     0.000 C 
BRANCH   6   7
ATOM      7  C   UNL     1      33.734  10.871 -27.214  1.00  0.00     0.006 C 
BRANCH   7   8
ATOM      8  C   UNL     1      33.072  11.692 -26.103  1.00  0.00     0.053 C 
BRANCH   8   9
ATOM      9  C   UNL     1      32.936  10.872 -24.858  1.00  0.00     0.041 C 
ATOM     10  O   UNL     1      31.797  10.643 -24.372  1.00  0.00    -0.550 OA
ATOM     11  O   UNL     1      34.072  10.405 -24.206  1.00  0.00    -0.550 OA
ENDBRANCH   8   9
ENDBRANCH   7   8
ENDBRANCH   6   7
ENDBRANCH   5   6
ENDBRANCH   4   5
ENDBRANCH   3   4
ENDBRANCH   2   3
ENDBRANCH   1   2
BRANCH   1  12
ATOM     12  C   UNL     1      33.576   6.227 -29.080  1.00  0.00     0.000 C 
BRANCH  12  13
ATOM     13  C   UNL     1      34.152   4.802 -29.084  1.00  0.00    -0.000 C 
BRANCH  13  14
ATOM     14  C   UNL     1      35.382   4.664 -30.001  1.00  0.00    -0.000 C 
BRANCH  14  15
ATOM     15  C   UNL     1      35.697   5.975 -30.755  1.00  0.00    -0.000 C 
BRANCH  15  16
ATOM     16  C   UNL     1      35.682   5.822 -32.286  1.00  0.00    -0.000 C 
BRANCH  16  17
ATOM     17  C   UNL     1      34.307   5.410 -32.832  1.00  0.00    -0.000 C 
BRANCH  17  18
ATOM     18  C   UNL     1      34.293   3.979 -33.398  1.00  0.00    -0.000 C 
BRANCH  18  19
ATOM     19  C   UNL     1      32.906   3.305 -33.344  1.00  0.00    -0.003 C 
ATOM     20  C   UNL     1      32.310   3.321 -31.937  1.00  0.00     0.004 C 
ENDBRANCH  18  19
ENDBRANCH  17  18
ENDBRANCH  16  17
ENDBRANCH  15  16
ENDBRANCH  14  15
ENDBRANCH  13  14
ENDBRANCH  12  13
ENDBRANCH   1  12
TORSDOF 16
ENDMDL
MODEL 2
REMARK VINA RESULT:    -3.396      3.766      6.257
REMARK INTER + INTRA:          -8.960
REMARK INTER:                  -7.415
REMARK INTRA:                  -1.545
REMARK UNBOUND:                -2.387
REMARK SMILES CCCCCCCCCCCCCCCCCC(=O)[O-]
REMARK SMILES IDX 10 1 11 2 12 3 13 4 14 5 15 6 16 7 17 8 18 9 19 10 20 11
REMARK SMILES IDX 9 12 8 13 7 14 6 15 5 16 4 17 3 18 2 19 1 20
REMARK H PARENT
REMARK Flexibility Score: inf
ROOT
ATOM      1  C   UNL     1      32.038   3.237 -33.442  1.00  0.00     0.000 C 
ENDROOT
BRANCH   1   2
ATOM      2  C   UNL     1      32.699   4.539 -32.963  1.00  0.00     0.000 C 
BRANCH   2   3
ATOM      3  C   UNL     1      34.127   4.313 -32.432  1.00  0.00     0.000 C 
BRANCH   3   4
ATOM      4  C   UNL     1      35.180   5.129 -33.199  1.00  0.00     0.000 C 
BRANCH   4   5
ATOM      5  C   UNL     1      35.959   6.090 -32.284  1.00  0.00     0.000 C 
BRANCH   5   6
ATOM      6  C   UNL     1      35.106   6.629 -31.125  1.00  0.00     0.000 C 
BRANCH   6   7
ATOM      7  C   UNL     1      34.399   7.948 -31.468  1.00  0.00     0.006 C 
BRANCH   7   8
ATOM      8  C   UNL     1      33.135   8.129 -30.622  1.00  0.00     0.053 C 
BRANCH   8   9
ATOM      9  C   UNL     1      32.660   9.546 -30.688  1.00  0.00     0.041 C 
ATOM     10  O   UNL     1      33.292  10.395 -31.371  1.00  0.00    -0.550 OA
ATOM     11  O   UNL     1      31.546   9.942 -29.955  1.00  0.00    -0.550 OA
ENDBRANCH   8   9
ENDBRANCH   7   8
ENDBRANCH   6   7
ENDBRANCH   5   6
ENDBRANCH   4   5
ENDBRANCH   3   4
ENDBRANCH   2   3
ENDBRANCH   1   2
BRANCH   1  12
ATOM     12  C   UNL     1      32.896   1.997 -33.136  1.00  0.00     0.000 C 
BRANCH  12  13
ATOM     13  C   UNL     1      33.299   1.230 -34.405  1.00  0.00    -0.000 C 
BRANCH  13  14
ATOM     14  C   UNL     1      33.005  -0.279 -34.302  1.00  0.00    -0.000 C 
BRANCH  14  15
ATOM     15  C   UNL     1      33.271  -1.015 -35.633  1.00  0.00    -0.000 C 
BRANCH  15  16
ATOM     16  C   UNL     1      34.092  -0.189 -36.639  1.00  0.00    -0.000 C 
BRANCH  16  17
ATOM     17  C   UNL     1      33.397  -0.046 -38.002  1.00  0.00    -0.000 C 
BRANCH  17  18
ATOM     18  C   UNL     1      31.872  -0.238 -37.918  1.00  0.00    -0.000 C 
BRANCH  18  19
ATOM     19  C   UNL     1      31.072   1.064 -38.130  1.00  0.00    -0.003 C 
ATOM     20  C   UNL     1      30.277   1.462 -36.886  1.00  0.00     0.004 C 
ENDBRANCH  18  19
ENDBRANCH  17  18
ENDBRANCH  16  17
ENDBRANCH  15  16
ENDBRANCH  14  15
ENDBRANCH  13  14
ENDBRANCH  12  13
ENDBRANCH   1  12
TORSDOF 16
ENDMDL
MODEL 3
REMARK VINA RESULT:    -3.284     12.768     15.510
REMARK INTER + INTRA:          -8.743
REMARK INTER:                  -5.849
REMARK INTRA:                  -2.893
REMARK UNBOUND:                -2.387
REMARK SMILES CCCCCCCCCCCCCCCCCC(=O)[O-]
REMARK SMILES IDX 10 1 11 2 12 3 13 4 14 5 15 6 16 7 17 8 18 9 19 10 20 11
REMARK SMILES IDX 9 12 8 13 7 14 6 15 5 16 4 17 3 18 2 19 1 20
REMARK H PARENT
REMARK Flexibility Score: inf
ROOT
ATOM      1  C   UNL     1      22.945   3.064 -33.452  1.00  0.00     0.000 C 
ENDROOT
BRANCH   1   2
ATOM      2  C   UNL     1      22.708   1.882 -34.405  1.00  0.00     0.000 C 
BRANCH   2   3
ATOM      3  C   UNL     1      21.219   1.697 -34.754  1.00  0.00     0.000 C 
BRANCH   3   4
ATOM      4  C   UNL     1      20.702   0.289 -34.417  1.00  0.00     0.000 C 
BRANCH   4   5
ATOM      5  C   UNL     1      20.204   0.177 -32.965  1.00  0.00     0.000 C 
BRANCH   5   6
ATOM      6  C   UNL     1      20.815  -1.020 -32.220  1.00  0.00     0.000 C 
BRANCH   6   7
ATOM      7  C   UNL     1      22.326  -0.873 -31.989  1.00  0.00     0.006 C 
BRANCH   7   8
ATOM      8  C   UNL     1      23.017  -2.240 -31.995  1.00  0.00     0.053 C 
BRANCH   8   9
ATOM      9  C   UNL     1      23.364  -2.644 -33.393  1.00  0.00     0.041 C 
ATOM     10  O   UNL     1      23.605  -1.767 -34.265  1.00  0.00    -0.550 OA
ATOM     11  O   UNL     1      23.370  -3.989 -33.747  1.00  0.00    -0.550 OA
ENDBRANCH   8   9
ENDBRANCH   7   8
ENDBRANCH   6   7
ENDBRANCH   5   6
ENDBRANCH   4   5
ENDBRANCH   3   4
ENDBRANCH   2   3
ENDBRANCH   1   2
BRANCH   1  12
ATOM     12  C   UNL     1      23.241   2.606 -32.013  1.00  0.00     0.000 C 
BRANCH  12  13
ATOM     13  C   UNL     1      22.379   3.337 -30.972  1.00  0.00    -0.000 C 
BRANCH  13  14
ATOM     14  C   UNL     1      21.499   2.374 -30.152  1.00  0.00    -0.000 C 
BRANCH  14  15
ATOM     15  C   UNL     1      19.996   2.694 -30.295  1.00  0.00    -0.000 C 
BRANCH  15  16
ATOM     16  C   UNL     1      19.707   3.893 -31.215  1.00  0.00    -0.000 C 
BRANCH  16  17
ATOM     17  C   UNL     1      18.970   3.494 -32.503  1.00  0.00    -0.000 C 
BRANCH  17  18
ATOM     18  C   UNL     1      19.217   4.477 -33.660  1.00  0.00    -0.000 C 
BRANCH  18  19
ATOM     19  C   UNL     1      18.153   4.400 -34.776  1.00  0.00    -0.003 C 
ATOM     20  C   UNL     1      18.780   4.241 -36.161  1.00  0.00     0.004 C 
ENDBRANCH  18  19
ENDBRANCH  17  18
ENDBRANCH  16  17
ENDBRANCH  15  16
ENDBRANCH  14  15
ENDBRANCH  13  14
ENDBRANCH  12  13
ENDBRANCH   1  12
TORSDOF 16
ENDMDL
MODEL 4
REMARK VINA RESULT:    -3.240      5.836      9.803
REMARK INTER + INTRA:          -8.659
REMARK INTER:                  -6.062
REMARK INTRA:                  -2.596
REMARK UNBOUND:                -2.387
REMARK SMILES CCCCCCCCCCCCCCCCCC(=O)[O-]
REMARK SMILES IDX 10 1 11 2 12 3 13 4 14 5 15 6 16 7 17 8 18 9 19 10 20 11
REMARK SMILES IDX 9 12 8 13 7 14 6 15 5 16 4 17 3 18 2 19 1 20
REMARK H PARENT
REMARK Flexibility Score: inf
ROOT
ATOM      1  C   UNL     1      33.640  -0.163 -37.433  1.00  0.00     0.000 C 
ENDROOT
BRANCH   1   2
ATOM      2  C   UNL     1      33.499  -1.276 -36.383  1.00  0.00     0.000 C 
BRANCH   2   3
ATOM      3  C   UNL     1      33.358  -0.721 -34.954  1.00  0.00     0.000 C 
BRANCH   3   4
ATOM      4  C   UNL     1      33.651   0.786 -34.873  1.00  0.00     0.000 C 
BRANCH   4   5
ATOM      5  C   UNL     1      32.980   1.451 -33.657  1.00  0.00     0.000 C 
BRANCH   5   6
ATOM      6  C   UNL     1      32.415   2.844 -33.979  1.00  0.00     0.000 C 
BRANCH   6   7
ATOM      7  C   UNL     1      32.944   3.934 -33.036  1.00  0.00     0.006 C 
BRANCH   7   8
ATOM      8  C   UNL     1      34.469   3.856 -32.909  1.00  0.00     0.053 C 
BRANCH   8   9
ATOM      9  C   UNL     1      35.069   5.225 -32.980  1.00  0.00     0.041 C 
ATOM     10  O   UNL     1      35.490   5.676 -34.078  1.00  0.00    -0.550 OA
ATOM     11  O   UNL     1      35.211   5.984 -31.822  1.00  0.00    -0.550 OA
ENDBRANCH   8   9
ENDBRANCH   7   8
ENDBRANCH   6   7
ENDBRANCH   5   6
ENDBRANCH   4   5
ENDBRANCH   3   4
ENDBRANCH   2   3
ENDBRANCH   1   2
BRANCH   1  12
ATOM     12  C   UNL     1      32.619  -0.303 -38.576  1.00  0.00     0.000 C 
BRANCH  12  13
ATOM     13  C   UNL     1      31.672   0.903 -38.672  1.00  0.00    -0.000 C 
BRANCH  13  14
ATOM     14  C   UNL     1      30.327   0.656 -37.963  1.00  0.00    -0.000 C 
BRANCH  14  15
ATOM     15  C   UNL     1      30.313   1.223 -36.527  1.00  0.00    -0.000 C 
BRANCH  15  16
ATOM     16  C   UNL     1      29.838   0.211 -35.470  1.00  0.00    -0.000 C 
BRANCH  16  17
ATOM     17  C   UNL     1      29.154  -1.019 -36.087  1.00  0.00    -0.000 C 
BRANCH  17  18
ATOM     18  C   UNL     1      29.942  -2.320 -35.851  1.00  0.00    -0.000 C 
BRANCH  18  19
ATOM     19  C   UNL     1      30.428  -2.994 -37.151  1.00  0.00    -0.003 C 
ATOM     20  C   UNL     1      30.817  -4.457 -36.934  1.00  0.00     0.004 C 
ENDBRANCH  18  19
ENDBRANCH  17  18
ENDBRANCH  16  17
ENDBRANCH  15  16
ENDBRANCH  14  15
ENDBRANCH  13  14
ENDBRANCH  12  13
ENDBRANCH   1  12
TORSDOF 16
ENDMDL
MODEL 5
REMARK VINA RESULT:    -3.231     14.650     15.922
REMARK INTER + INTRA:          -8.641
REMARK INTER:                  -7.079
REMARK INTRA:                  -1.562
REMARK UNBOUND:                -2.387
REMARK SMILES CCCCCCCCCCCCCCCCCC(=O)[O-]
REMARK SMILES IDX 10 1 11 2 12 3 13 4 14 5 15 6 16 7 17 8 18 9 19 10 20 11
REMARK SMILES IDX 9 12 8 13 7 14 6 15 5 16 4 17 3 18 2 19 1 20
REMARK H PARENT
REMARK Flexibility Score: inf
ROOT
ATOM      1  C   UNL     1      24.168  -3.834 -32.286  1.00  0.00     0.000 C 
ENDROOT
BRANCH   1   2
ATOM      2  C   UNL     1      23.385  -3.716 -33.603  1.00  0.00     0.000 C 
BRANCH   2   3
ATOM      3  C   UNL     1      24.299  -3.414 -34.805  1.00  0.00     0.000 C 
BRANCH   3   4
ATOM      4  C   UNL     1      23.803  -2.224 -35.642  1.00  0.00     0.000 C 
BRANCH   4   5
ATOM      5  C   UNL     1      23.120  -1.145 -34.782  1.00  0.00     0.000 C 
BRANCH   5   6
ATOM      6  C   UNL     1      22.200  -0.227 -35.603  1.00  0.00     0.000 C 
BRANCH   6   7
ATOM      7  C   UNL     1      20.878   0.087 -34.887  1.00  0.00     0.006 C 
BRANCH   7   8
ATOM      8  C   UNL     1      21.135   0.738 -33.524  1.00  0.00     0.053 C 
BRANCH   8   9
ATOM      9  C   UNL     1      20.428  -0.018 -32.443  1.00  0.00     0.041 C 
ATOM     10  O   UNL     1      19.636   0.579 -31.666  1.00  0.00    -0.550 OA
ATOM     11  O   UNL     1      20.682  -1.373 -32.261  1.00  0.00    -0.550 OA
ENDBRANCH   8   9
ENDBRANCH   7   8
ENDBRANCH   6   7
ENDBRANCH   5   6
ENDBRANCH   4   5
ENDBRANCH   3   4
ENDBRANCH   2   3
ENDBRANCH   1   2
BRANCH   1  12
ATOM     12  C   UNL     1      24.526  -5.292 -31.946  1.00  0.00     0.000 C 
BRANCH  12  13
ATOM     13  C   UNL     1      23.770  -5.812 -30.714  1.00  0.00    -0.000 C 
BRANCH  13  14
ATOM     14  C   UNL     1      23.910  -4.880 -29.496  1.00  0.00    -0.000 C 
BRANCH  14  15
ATOM     15  C   UNL     1      24.112  -5.664 -28.182  1.00  0.00    -0.000 C 
BRANCH  15  16
ATOM     16  C   UNL     1      24.287  -7.179 -28.391  1.00  0.00    -0.000 C 
BRANCH  16  17
ATOM     17  C   UNL     1      25.675  -7.684 -27.969  1.00  0.00    -0.000 C 
BRANCH  17  18
ATOM     18  C   UNL     1      26.622  -7.896 -29.163  1.00  0.00    -0.000 C 
BRANCH  18  19
ATOM     19  C   UNL     1      27.871  -6.989 -29.133  1.00  0.00    -0.003 C 
ATOM     20  C   UNL     1      27.554  -5.555 -29.556  1.00  0.00     0.004 C 
ENDBRANCH  18  19
ENDBRANCH  17  18
ENDBRANCH  16  17
ENDBRANCH  15  16
ENDBRANCH  14  15
ENDBRANCH  13  14
ENDBRANCH  12  13
ENDBRANCH   1  12
TORSDOF 16
ENDMDL
MODEL 6
REMARK VINA RESULT:    -3.214     11.763     14.310
REMARK INTER + INTRA:          -8.607
REMARK INTER:                  -5.739
REMARK INTRA:                  -2.868
REMARK UNBOUND:                -2.387
REMARK SMILES CCCCCCCCCCCCCCCCCC(=O)[O-]
REMARK SMILES IDX 10 1 11 2 12 3 13 4 14 5 15 6 16 7 17 8 18 9 19 10 20 11
REMARK SMILES IDX 9 12 8 13 7 14 6 15 5 16 4 17 3 18 2 19 1 20
REMARK H PARENT
REMARK Flexibility Score: inf
ROOT
ATOM      1  C   UNL     1      30.376  -0.346 -37.747  1.00  0.00     0.000 C 
ENDROOT
BRANCH   1   2
ATOM      2  C   UNL     1      29.412  -0.999 -38.750  1.00  0.00     0.000 C 
BRANCH   2   3
ATOM      3  C   UNL     1      30.145  -1.864 -39.792  1.00  0.00     0.000 C 
BRANCH   3   4
ATOM      4  C   UNL     1      30.077  -3.365 -39.468  1.00  0.00     0.000 C 
BRANCH   4   5
ATOM      5  C   UNL     1      28.685  -3.798 -38.975  1.00  0.00     0.000 C 
BRANCH   5   6
ATOM      6  C   UNL     1      28.700  -5.173 -38.287  1.00  0.00     0.000 C 
BRANCH   6   7
ATOM      7  C   UNL     1      27.576  -5.335 -37.253  1.00  0.00     0.006 C 
BRANCH   7   8
ATOM      8  C   UNL     1      27.130  -3.973 -36.711  1.00  0.00     0.053 C 
BRANCH   8   9
ATOM      9  C   UNL     1      26.601  -4.113 -35.318  1.00  0.00     0.041 C 
ATOM     10  O   UNL     1      26.122  -5.212 -34.931  1.00  0.00    -0.550 OA
ATOM     11  O   UNL     1      26.590  -3.016 -34.465  1.00  0.00    -0.550 OA
ENDBRANCH   8   9
ENDBRANCH   7   8
ENDBRANCH   6   7
ENDBRANCH   5   6
ENDBRANCH   4   5
ENDBRANCH   3   4
ENDBRANCH   2   3
ENDBRANCH   1   2
BRANCH   1  12
ATOM     12  C   UNL     1      31.386   0.592 -38.430  1.00  0.00     0.000 C 
BRANCH  12  13
ATOM     13  C   UNL     1      32.839   0.124 -38.253  1.00  0.00    -0.000 C 
BRANCH  13  14
ATOM     14  C   UNL     1      33.155  -0.284 -36.802  1.00  0.00    -0.000 C 
BRANCH  14  15
ATOM     15  C   UNL     1      33.835  -1.668 -36.721  1.00  0.00    -0.000 C 
BRANCH  15  16
ATOM     16  C   UNL     1      33.356  -2.651 -37.804  1.00  0.00    -0.000 C 
BRANCH  16  17
ATOM     17  C   UNL     1      32.804  -3.961 -37.221  1.00  0.00    -0.000 C 
BRANCH  17  18
ATOM     18  C   UNL     1      32.223  -3.787 -35.807  1.00  0.00    -0.000 C 
BRANCH  18  19
ATOM     19  C   UNL     1      30.709  -3.489 -35.791  1.00  0.00    -0.003 C 
ATOM     20  C   UNL     1      30.158  -3.370 -34.370  1.00  0.00     0.004 C 
ENDBRANCH  18  19
ENDBRANCH  17  18
ENDBRANCH  16  17
ENDBRANCH  15  16
ENDBRANCH  14  15
ENDBRANCH  13  14
ENDBRANCH  12  13
ENDBRANCH   1  12
TORSDOF 16
ENDMDL
MODEL 7
REMARK VINA RESULT:    -3.198      6.207     10.128
REMARK INTER + INTRA:          -8.576
REMARK INTER:                  -6.786
REMARK INTRA:                  -1.790
REMARK UNBOUND:                -2.387
REMARK SMILES CCCCCCCCCCCCCCCCCC(=O)[O-]
REMARK SMILES IDX 10 1 11 2 12 3 13 4 14 5 15 6 16 7 17 8 18 9 19 10 20 11
REMARK SMILES IDX 9 12 8 13 7 14 6 15 5 16 4 17 3 18 2 19 1 20
REMARK H PARENT
REMARK Flexibility Score: inf
ROOT
ATOM      1  C   UNL     1      33.518  -0.007 -37.586  1.00  0.00     0.000 C 
ENDROOT
BRANCH   1   2
ATOM      2  C   UNL     1      33.869  -0.657 -36.239  1.00  0.00     0.000 C 
BRANCH   2   3
ATOM      3  C   UNL     1      33.494   0.234 -35.041  1.00  0.00     0.000 C 
BRANCH   3   4
ATOM      4  C   UNL     1      32.222   1.061 -35.293  1.00  0.00     0.000 C 
BRANCH   4   5
ATOM      5  C   UNL     1      32.043   2.193 -34.266  1.00  0.00     0.000 C 
BRANCH   5   6
ATOM      6  C   UNL     1      32.616   1.837 -32.884  1.00  0.00     0.000 C 
BRANCH   6   7
ATOM      7  C   UNL     1      33.454   2.971 -32.276  1.00  0.00     0.006 C 
BRANCH   7   8
ATOM      8  C   UNL     1      34.166   3.773 -33.369  1.00  0.00     0.053 C 
BRANCH   8   9
ATOM      9  C   UNL     1      35.045   4.820 -32.761  1.00  0.00     0.041 C 
ATOM     10  O   UNL     1      35.718   5.589 -33.497  1.00  0.00    -0.550 OA
ATOM     11  O   UNL     1      35.160   4.914 -31.378  1.00  0.00    -0.550 OA
ENDBRANCH   8   9
ENDBRANCH   7   8
ENDBRANCH   6   7
ENDBRANCH   5   6
ENDBRANCH   4   5
ENDBRANCH   3   4
ENDBRANCH   2   3
ENDBRANCH   1   2
BRANCH   1  12
ATOM     12  C   UNL     1      33.030  -1.035 -38.624  1.00  0.00     0.000 C 
BRANCH  12  13
ATOM     13  C   UNL     1      32.018  -2.030 -38.037  1.00  0.00    -0.000 C 
BRANCH  13  14
ATOM     14  C   UNL     1      30.821  -2.278 -38.974  1.00  0.00    -0.000 C 
BRANCH  14  15
ATOM     15  C   UNL     1      30.162  -0.961 -39.438  1.00  0.00    -0.000 C 
BRANCH  15  16
ATOM     16  C   UNL     1      29.644  -0.091 -38.279  1.00  0.00    -0.000 C 
BRANCH  16  17
ATOM     17  C   UNL     1      30.139   1.361 -38.354  1.00  0.00    -0.000 C 
BRANCH  17  18
ATOM     18  C   UNL     1      30.241   1.883 -39.798  1.00  0.00    -0.000 C 
BRANCH  18  19
ATOM     19  C   UNL     1      29.353   3.115 -40.076  1.00  0.00    -0.003 C 
ATOM     20  C   UNL     1      27.867   2.757 -40.125  1.00  0.00     0.004 C 
ENDBRANCH  18  19
ENDBRANCH  17  18
ENDBRANCH  16  17
ENDBRANCH  15  16
ENDBRANCH  14  15
ENDBRANCH  13  14
ENDBRANCH  12  13
ENDBRANCH   1  12
TORSDOF 16
ENDMDL
MODEL 8
REMARK VINA RESULT:    -3.168     10.421     14.252
REMARK INTER + INTRA:          -8.519
REMARK INTER:                  -5.216
REMARK INTRA:                  -3.303
REMARK UNBOUND:                -2.387
REMARK SMILES CCCCCCCCCCCCCCCCCC(=O)[O-]
REMARK SMILES IDX 10 1 11 2 12 3 13 4 14 5 15 6 16 7 17 8 18 9 19 10 20 11
REMARK SMILES IDX 9 12 8 13 7 14 6 15 5 16 4 17 3 18 2 19 1 20
REMARK H PARENT
REMARK Flexibility Score: inf
ROOT
ATOM      1  C   UNL     1      33.621  -2.710 -37.104  1.00  0.00     0.000 C 
ENDROOT
BRANCH   1   2
ATOM      2  C   UNL     1      32.863  -3.356 -35.934  1.00  0.00     0.000 C 
BRANCH   2   3
ATOM      3  C   UNL     1      31.849  -4.415 -36.404  1.00  0.00     0.000 C 
BRANCH   3   4
ATOM      4  C   UNL     1      32.121  -4.900 -37.837  1.00  0.00     0.000 C 
BRANCH   4   5
ATOM      5  C   UNL     1      30.884  -4.778 -38.745  1.00  0.00     0.000 C 
BRANCH   5   6
ATOM      6  C   UNL     1      29.625  -5.396 -38.118  1.00  0.00     0.000 C 
BRANCH   6   7
ATOM      7  C   UNL     1      28.375  -4.522 -38.303  1.00  0.00     0.006 C 
BRANCH   7   8
ATOM      8  C   UNL     1      27.388  -4.727 -37.150  1.00  0.00     0.053 C 
BRANCH   8   9
ATOM      9  C   UNL     1      27.495  -3.605 -36.165  1.00  0.00     0.041 C 
ATOM     10  O   UNL     1      28.298  -3.686 -35.198  1.00  0.00    -0.550 OA
ATOM     11  O   UNL     1      26.670  -2.492 -36.287  1.00  0.00    -0.550 OA
ENDBRANCH   8   9
ENDBRANCH   7   8
ENDBRANCH   6   7
ENDBRANCH   5   6
ENDBRANCH   4   5
ENDBRANCH   3   4
ENDBRANCH   2   3
ENDBRANCH   1   2
BRANCH   1  12
ATOM     12  C   UNL     1      33.767  -1.187 -36.938  1.00  0.00     0.000 C 
BRANCH  12  13
ATOM     13  C   UNL     1      33.117  -0.403 -38.089  1.00  0.00    -0.000 C 
BRANCH  13  14
ATOM     14  C   UNL     1      32.152  -1.268 -38.922  1.00  0.00    -0.000 C 
BRANCH  14  15
ATOM     15  C   UNL     1      30.720  -0.690 -38.939  1.00  0.00    -0.000 C 
BRANCH  15  16
ATOM     16  C   UNL     1      29.805  -1.284 -37.854  1.00  0.00    -0.000 C 
BRANCH  16  17
ATOM     17  C   UNL     1      29.601  -0.337 -36.661  1.00  0.00    -0.000 C 
BRANCH  17  18
ATOM     18  C   UNL     1      30.325  -0.815 -35.390  1.00  0.00    -0.000 C 
BRANCH  18  19
ATOM     19  C   UNL     1      31.254   0.249 -34.769  1.00  0.00    -0.003 C 
ATOM     20  C   UNL     1      31.233   1.562 -35.552  1.00  0.00     0.004 C 
ENDBRANCH  18  19
ENDBRANCH  17  18
ENDBRANCH  16  17
ENDBRANCH  15  16
ENDBRANCH  14  15
ENDBRANCH  13  14
ENDBRANCH  12  13
ENDBRANCH   1  12
TORSDOF 16
ENDMDL
MODEL 9
REMARK VINA RESULT:    -3.144     11.208     13.178
REMARK INTER + INTRA:          -8.471
REMARK INTER:                  -5.685
REMARK INTRA:                  -2.786
REMARK UNBOUND:                -2.387
REMARK SMILES CCCCCCCCCCCCCCCCCC(=O)[O-]
REMARK SMILES IDX 10 1 11 2 12 3 13 4 14 5 15 6 16 7 17 8 18 9 19 10 20 11
REMARK SMILES IDX 9 12 8 13 7 14 6 15 5 16 4 17 3 18 2 19 1 20
REMARK H PARENT
REMARK Flexibility Score: inf
ROOT
ATOM      1  C   UNL     1      32.175  -1.652 -35.307  1.00  0.00     0.000 C 
ENDROOT
BRANCH   1   2
ATOM      2  C   UNL     1      33.504  -1.624 -36.078  1.00  0.00     0.000 C 
BRANCH   2   3
ATOM      3  C   UNL     1      33.549  -0.503 -37.132  1.00  0.00     0.000 C 
BRANCH   3   4
ATOM      4  C   UNL     1      33.170  -0.997 -38.538  1.00  0.00     0.000 C 
BRANCH   4   5
ATOM      5  C   UNL     1      31.757  -0.556 -38.956  1.00  0.00     0.000 C 
BRANCH   5   6
ATOM      6  C   UNL     1      31.259   0.665 -38.166  1.00  0.00     0.000 C 
BRANCH   6   7
ATOM      7  C   UNL     1      29.903   0.423 -37.486  1.00  0.00     0.006 C 
BRANCH   7   8
ATOM      8  C   UNL     1      28.776   1.132 -38.242  1.00  0.00     0.053 C 
BRANCH   8   9
ATOM      9  C   UNL     1      28.943   2.617 -38.157  1.00  0.00     0.041 C 
ATOM     10  O   UNL     1      28.990   3.185 -37.034  1.00  0.00    -0.550 OA
ATOM     11  O   UNL     1      28.995   3.379 -39.320  1.00  0.00    -0.550 OA
ENDBRANCH   8   9
ENDBRANCH   7   8
ENDBRANCH   6   7
ENDBRANCH   5   6
ENDBRANCH   4   5
ENDBRANCH   3   4
ENDBRANCH   2   3
ENDBRANCH   1   2
BRANCH   1  12
ATOM     12  C   UNL     1      31.233  -2.762 -35.804  1.00  0.00     0.000 C 
BRANCH  12  13
ATOM     13  C   UNL     1      31.929  -4.129 -35.897  1.00  0.00    -0.000 C 
BRANCH  13  14
ATOM     14  C   UNL     1      31.430  -4.966 -37.090  1.00  0.00    -0.000 C 
BRANCH  14  15
ATOM     15  C   UNL     1      31.115  -4.093 -38.324  1.00  0.00    -0.000 C 
BRANCH  15  16
ATOM     16  C   UNL     1      29.715  -4.341 -38.912  1.00  0.00    -0.000 C 
BRANCH  16  17
ATOM     17  C   UNL     1      28.809  -3.102 -38.840  1.00  0.00    -0.000 C 
BRANCH  17  18
ATOM     18  C   UNL     1      28.070  -2.979 -37.496  1.00  0.00    -0.000 C 
BRANCH  18  19
ATOM     19  C   UNL     1      27.570  -4.328 -36.938  1.00  0.00    -0.003 C 
ATOM     20  C   UNL     1      26.113  -4.260 -36.482  1.00  0.00     0.004 C 
ENDBRANCH  18  19
ENDBRANCH  17  18
ENDBRANCH  16  17
ENDBRANCH  15  16
ENDBRANCH  14  15
ENDBRANCH  13  14
ENDBRANCH  12  13
ENDBRANCH   1  12
TORSDOF 16
ENDMDL
