MODEL 1
REMARK VINA RESULT:    25.704      0.000      0.000
REMARK INTER + INTRA:          50.160
REMARK INTER:                  48.995
REMARK INTRA:                   1.166
REMARK UNBOUND:                 1.166
REMARK SMILES C[C@@H]1O[C@@H](O[C@H]2[C@@H](O)[C@H](OCCc3ccc(O)c(O)c3)O[C@@H](CO)[C@@H]2OC(=O)C=Cc2ccc(O)c(O)c2)[C@@H](O)[C@H](O)[C@@H]1O
REMARK SMILES IDX 6 1 7 2 9 3 21 4 22 5 25 6 5 7 4 8 1 9 2 10 43 11 3 12 41 13
REMARK SMILES IDX 39 14 44 15 42 17 40 19 8 21 26 23 27 24 28 25 29 26 30 27
REMARK SMILES IDX 31 28 38 29 32 30 36 31 33 32 34 33 37 34 35 36 10 38 11 39
REMARK SMILES IDX 12 40 13 41 20 42 14 43 18 44 15 45 16 46 19 47 17 49 23 51
REMARK SMILES IDX 24 52
REMARK H PARENT 44 16 42 18 40 20 8 22 37 35 35 37 19 48 17 50 24 53
REMARK Flexibility Score: inf
ROOT
ATOM      1  C   UNL     1       8.266 174.025  45.780  1.00  0.00     0.199 C 
ATOM      2  C   UNL     1       8.380 172.692  45.007  1.00  0.00     0.203 C 
ATOM      3  C   UNL     1       9.640 171.902  45.440  1.00  0.00     0.282 C 
ATOM      4  O   UNL     1      10.810 172.702  45.348  1.00  0.00    -0.340 OA
ATOM      5  C   UNL     1      10.740 173.846  46.187  1.00  0.00     0.190 C 
ATOM      6  C   UNL     1       9.603 174.783  45.729  1.00  0.00     0.240 C 
ENDROOT
BRANCH   1   7
ATOM      7  O   UNL     1       7.248 174.841  45.223  1.00  0.00    -0.340 OA
BRANCH   7   8
ATOM      8  C   UNL     1       6.440 175.459  46.222  1.00  0.00     0.282 C 
ATOM      9  C   UNL     1       3.375 173.483  45.680  1.00  0.00     0.041 C 
ATOM     10  C   UNL     1       4.486 174.484  45.352  1.00  0.00     0.150 C 
ATOM     11  C   UNL     1       3.898 175.836  44.883  1.00  0.00     0.174 C 
ATOM     12  O   UNL     1       5.304 174.654  46.499  1.00  0.00    -0.344 OA
ATOM     13  C   UNL     1       5.037 176.838  44.611  1.00  0.00     0.179 C 
ATOM     14  C   UNL     1       6.021 176.885  45.794  1.00  0.00     0.202 C 
BRANCH  11  15
ATOM     15  O   UNL     1       2.968 176.356  45.804  1.00  0.00    -0.388 OA
ATOM     16  H   UNL     1       2.113 176.513  45.328  1.00  0.00     0.211 HD
ENDBRANCH  11  15
BRANCH  13  17
ATOM     17  O   UNL     1       4.516 178.120  44.380  1.00  0.00    -0.387 OA
ATOM     18  H   UNL     1       5.221 178.635  43.909  1.00  0.00     0.211 HD
ENDBRANCH  13  17
BRANCH  14  19
ATOM     19  O   UNL     1       7.161 177.627  45.444  1.00  0.00    -0.385 OA
ATOM     20  H   UNL     1       7.897 177.324  46.037  1.00  0.00     0.211 HD
ENDBRANCH  14  19
ENDBRANCH   7   8
ENDBRANCH   1   7
BRANCH   2  21
ATOM     21  O   UNL     1       8.361 172.905  43.615  1.00  0.00    -0.385 OA
ATOM     22  H   UNL     1       8.244 173.878  43.451  1.00  0.00     0.211 HD
ENDBRANCH   2  21
BRANCH   6  23
ATOM     23  O   UNL     1       9.541 175.922  46.590  1.00  0.00    -0.453 OA
BRANCH  23  24
ATOM     24  C   UNL     1      10.428 177.005  46.508  1.00  0.00     0.331 C 
ATOM     25  O   UNL     1      10.159 177.999  45.781  1.00  0.00    -0.247 OA
BRANCH  24  26
ATOM     26  C   UNL     1      11.694 176.986  47.253  1.00  0.00     0.094 C 
ATOM     27  C   UNL     1      12.228 178.100  47.770  1.00  0.00     0.016 C 
BRANCH  27  28
ATOM     28  C   UNL     1      13.501 178.119  48.531  1.00  0.00    -0.021 A 
ATOM     29  C   UNL     1      14.759 178.125  47.894  1.00  0.00     0.058 A 
ATOM     30  C   UNL     1      13.449 178.082  49.932  1.00  0.00     0.012 A 
ATOM     31  C   UNL     1      15.939 178.118  48.653  1.00  0.00     0.157 A 
ATOM     32  C   UNL     1      14.624 178.078  50.688  1.00  0.00     0.051 A 
ATOM     33  C   UNL     1      15.872 178.096  50.051  1.00  0.00     0.157 A 
BRANCH  31  34
ATOM     34  O   UNL     1      17.182 178.125  48.023  1.00  0.00    -0.504 OA
ATOM     35  H   UNL     1      17.832 177.353  48.123  1.00  0.00     0.293 HD
ENDBRANCH  31  34
BRANCH  33  36
ATOM     36  O   UNL     1      17.047 178.089  50.799  1.00  0.00    -0.504 OA
ATOM     37  H   UNL     1      17.291 178.858  51.413  1.00  0.00     0.293 HD
ENDBRANCH  33  36
ENDBRANCH  27  28
ENDBRANCH  24  26
ENDBRANCH  23  24
ENDBRANCH   6  23
BRANCH   3  38
ATOM     38  O   UNL     1       9.487 171.411  46.766  1.00  0.00    -0.350 OA
BRANCH  38  39
ATOM     39  C   UNL     1       9.772 170.029  46.831  1.00  0.00     0.168 C 
BRANCH  39  40
ATOM     40  C   UNL     1       9.230 169.469  48.143  1.00  0.00     0.064 C 
BRANCH  40  41
ATOM     41  C   UNL     1       9.318 167.967  48.156  1.00  0.00    -0.042 A 
ATOM     42  C   UNL     1       9.487 167.255  46.958  1.00  0.00     0.054 A 
ATOM     43  C   UNL     1       9.293 167.269  49.374  1.00  0.00     0.008 A 
ATOM     44  C   UNL     1       9.609 165.861  46.970  1.00  0.00     0.157 A 
ATOM     45  C   UNL     1       9.414 165.877  49.389  1.00  0.00     0.050 A 
ATOM     46  C   UNL     1       9.570 165.167  48.191  1.00  0.00     0.157 A 
BRANCH  44  47
ATOM     47  O   UNL     1       9.772 165.184  45.761  1.00  0.00    -0.504 OA
ATOM     48  H   UNL     1      10.666 165.141  45.285  1.00  0.00     0.293 HD
ENDBRANCH  44  47
BRANCH  46  49
ATOM     49  O   UNL     1       9.689 163.777  48.210  1.00  0.00    -0.504 OA
ATOM     50  H   UNL     1       9.411 163.233  49.019  1.00  0.00     0.293 HD
ENDBRANCH  46  49
ENDBRANCH  40  41
ENDBRANCH  39  40
ENDBRANCH  38  39
ENDBRANCH   3  38
BRANCH   5  51
ATOM     51  C   UNL     1      12.094 174.569  46.130  1.00  0.00     0.192 C 
BRANCH  51  52
ATOM     52  O   UNL     1      12.073 175.570  45.149  1.00  0.00    -0.394 OA
ATOM     53  H   UNL     1      11.220 176.065  45.264  1.00  0.00     0.210 HD
ENDBRANCH  51  52
ENDBRANCH   5  51
TORSDOF 20
ENDMDL
MODEL 2
REMARK VINA RESULT:    28.568      2.087      8.890
REMARK INTER + INTRA:          55.620
REMARK INTER:                  55.787
REMARK INTRA:                  -0.167
REMARK UNBOUND:                 1.166
REMARK SMILES C[C@@H]1O[C@@H](O[C@H]2[C@@H](O)[C@H](OCCc3ccc(O)c(O)c3)O[C@@H](CO)[C@@H]2OC(=O)C=Cc2ccc(O)c(O)c2)[C@@H](O)[C@H](O)[C@@H]1O
REMARK SMILES IDX 6 1 7 2 9 3 21 4 22 5 25 6 5 7 4 8 1 9 2 10 43 11 3 12 41 13
REMARK SMILES IDX 39 14 44 15 42 17 40 19 8 21 26 23 27 24 28 25 29 26 30 27
REMARK SMILES IDX 31 28 38 29 32 30 36 31 33 32 34 33 37 34 35 36 10 38 11 39
REMARK SMILES IDX 12 40 13 41 20 42 14 43 18 44 15 45 16 46 19 47 17 49 23 51
REMARK SMILES IDX 24 52
REMARK H PARENT 44 16 42 18 40 20 8 22 37 35 35 37 19 48 17 50 24 53
REMARK Flexibility Score: inf
ROOT
ATOM      1  C   UNL     1       8.123 176.297  46.642  1.00  0.00     0.199 C 
ATOM      2  C   UNL     1       7.772 177.677  46.043  1.00  0.00     0.203 C 
ATOM      3  C   UNL     1       6.381 177.651  45.362  1.00  0.00     0.282 C 
ATOM      4  O   UNL     1       6.284 176.594  44.420  1.00  0.00    -0.340 OA
ATOM      5  C   UNL     1       6.461 175.322  45.028  1.00  0.00     0.190 C 
ATOM      6  C   UNL     1       7.889 175.192  45.599  1.00  0.00     0.240 C 
ENDROOT
BRANCH   1   7
ATOM      7  O   UNL     1       9.478 176.263  47.058  1.00  0.00    -0.340 OA
BRANCH   7   8
ATOM      8  C   UNL     1      10.098 177.545  46.998  1.00  0.00     0.282 C 
ATOM      9  C   UNL     1      12.859 176.661  44.721  1.00  0.00     0.041 C 
ATOM     10  C   UNL     1      12.033 176.648  46.010  1.00  0.00     0.150 C 
ATOM     11  C   UNL     1      12.920 176.936  47.245  1.00  0.00     0.174 C 
ATOM     12  O   UNL     1      10.991 177.605  45.896  1.00  0.00    -0.344 OA
ATOM     13  C   UNL     1      12.052 176.968  48.518  1.00  0.00     0.179 C 
ATOM     14  C   UNL     1      10.824 177.876  48.322  1.00  0.00     0.202 C 
BRANCH  11  15
ATOM     15  O   UNL     1      13.659 178.125  47.099  1.00  0.00    -0.388 OA
ATOM     16  H   UNL     1      14.567 177.975  47.469  1.00  0.00     0.211 HD
ENDBRANCH  11  15
BRANCH  13  17
ATOM     17  O   UNL     1      12.806 177.423  49.611  1.00  0.00    -0.387 OA
ATOM     18  H   UNL     1      13.114 176.618  50.101  1.00  0.00     0.211 HD
ENDBRANCH  13  17
BRANCH  14  19
ATOM     19  O   UNL     1       9.935 177.724  49.399  1.00  0.00    -0.385 OA
ATOM     20  H   UNL     1       9.369 176.933  49.198  1.00  0.00     0.211 HD
ENDBRANCH  14  19
ENDBRANCH   7   8
ENDBRANCH   1   7
BRANCH   2  21
ATOM     21  O   UNL     1       8.771 178.117  45.153  1.00  0.00    -0.385 OA
ATOM     22  H   UNL     1       9.651 178.030  45.605  1.00  0.00     0.211 HD
ENDBRANCH   2  21
BRANCH   6  23
ATOM     23  O   UNL     1       8.045 173.911  46.215  1.00  0.00    -0.453 OA
BRANCH  23  24
ATOM     24  C   UNL     1       8.845 172.889  45.685  1.00  0.00     0.331 C 
ATOM     25  O   UNL     1       9.260 172.951  44.497  1.00  0.00    -0.247 OA
BRANCH  24  26
ATOM     26  C   UNL     1       9.195 171.720  46.503  1.00  0.00     0.094 C 
ATOM     27  C   UNL     1       8.754 170.490  46.207  1.00  0.00     0.016 C 
BRANCH  27  28
ATOM     28  C   UNL     1       9.089 169.288  47.007  1.00  0.00    -0.021 A 
ATOM     29  C   UNL     1       9.026 169.278  48.416  1.00  0.00     0.058 A 
ATOM     30  C   UNL     1       9.528 168.135  46.339  1.00  0.00     0.012 A 
ATOM     31  C   UNL     1       9.376 168.125  49.134  1.00  0.00     0.157 A 
ATOM     32  C   UNL     1       9.874 166.986  47.055  1.00  0.00     0.051 A 
ATOM     33  C   UNL     1       9.798 166.977  48.454  1.00  0.00     0.157 A 
BRANCH  31  34
ATOM     34  O   UNL     1       9.313 168.115  50.527  1.00  0.00    -0.504 OA
ATOM     35  H   UNL     1      10.112 168.372  51.096  1.00  0.00     0.293 HD
ENDBRANCH  31  34
BRANCH  33  36
ATOM     36  O   UNL     1      10.145 165.835  49.173  1.00  0.00    -0.504 OA
ATOM     37  H   UNL     1      11.039 165.376  49.042  1.00  0.00     0.293 HD
ENDBRANCH  33  36
ENDBRANCH  27  28
ENDBRANCH  24  26
ENDBRANCH  23  24
ENDBRANCH   6  23
BRANCH   3  38
ATOM     38  O   UNL     1       5.353 177.533  46.338  1.00  0.00    -0.350 OA
BRANCH  38  39
ATOM     39  C   UNL     1       4.134 178.061  45.858  1.00  0.00     0.168 C 
BRANCH  39  40
ATOM     40  C   UNL     1       2.979 177.223  46.399  1.00  0.00     0.064 C 
BRANCH  40  41
ATOM     41  C   UNL     1       2.937 175.878  45.725  1.00  0.00    -0.042 A 
ATOM     42  C   UNL     1       2.911 175.787  44.324  1.00  0.00     0.054 A 
ATOM     43  C   UNL     1       2.985 174.703  46.491  1.00  0.00     0.008 A 
ATOM     44  C   UNL     1       2.912 174.537  43.694  1.00  0.00     0.157 A 
ATOM     45  C   UNL     1       2.985 173.454  45.865  1.00  0.00     0.050 A 
ATOM     46  C   UNL     1       2.947 173.364  44.467  1.00  0.00     0.157 A 
BRANCH  44  47
ATOM     47  O   UNL     1       2.882 174.481  42.301  1.00  0.00    -0.504 OA
ATOM     48  H   UNL     1       2.738 173.611  41.800  1.00  0.00     0.293 HD
ENDBRANCH  44  47
BRANCH  46  49
ATOM     49  O   UNL     1       2.945 172.116  43.844  1.00  0.00    -0.504 OA
ATOM     50  H   UNL     1       3.795 171.712  43.468  1.00  0.00     0.293 HD
ENDBRANCH  46  49
ENDBRANCH  40  41
ENDBRANCH  39  40
ENDBRANCH  38  39
ENDBRANCH   3  38
BRANCH   5  51
ATOM     51  C   UNL     1       6.202 174.241  43.968  1.00  0.00     0.192 C 
BRANCH  51  52
ATOM     52  O   UNL     1       5.869 173.025  44.580  1.00  0.00    -0.394 OA
ATOM     53  H   UNL     1       5.028 173.180  45.085  1.00  0.00     0.210 HD
ENDBRANCH  51  52
ENDBRANCH   5  51
TORSDOF 20
ENDMDL
