MODEL 1
REMARK VINA RESULT:    -3.890      0.000      0.000
REMARK INTER + INTRA:          -9.646
REMARK INTER:                  -7.073
REMARK INTRA:                  -2.573
REMARK UNBOUND:                -2.573
REMARK SMILES CCCCCCCCCCCCCC[C@@H](C)C(=O)[O-]
REMARK SMILES IDX 9 1 10 2 11 3 12 4 13 5 14 6 15 7 16 8 17 9 18 10 19 11 8 12
REMARK SMILES IDX 7 13 6 14 5 15 4 16 3 17 2 18 1 19
REMARK H PARENT
REMARK Flexibility Score: inf
ROOT
ATOM      1  C   UNL     1       3.881  39.161  -8.313  1.00  0.00     0.000 C 
ENDROOT
BRANCH   1   2
ATOM      2  C   UNL     1       4.534  39.748  -7.048  1.00  0.00     0.000 C 
BRANCH   2   3
ATOM      3  C   UNL     1       5.764  38.978  -6.534  1.00  0.00     0.000 C 
BRANCH   3   4
ATOM      4  C   UNL     1       5.511  38.265  -5.198  1.00  0.00     0.000 C 
BRANCH   4   5
ATOM      5  C   UNL     1       4.102  38.572  -4.671  1.00  0.00     0.001 C 
BRANCH   5   6
ATOM      6  C   UNL     1       3.180  37.338  -4.671  1.00  0.00     0.009 C 
BRANCH   6   7
ATOM      7  C   UNL     1       1.671  37.674  -4.632  1.00  0.00     0.032 C 
ATOM      8  C   UNL     1       1.116  37.810  -6.054  1.00  0.00     0.014 C 
BRANCH   7   9
ATOM      9  C   UNL     1       0.890  36.635  -3.874  1.00  0.00     0.044 C 
ATOM     10  O   UNL     1      -0.093  36.055  -4.408  1.00  0.00    -0.550 OA
ATOM     11  O   UNL     1       1.256  36.305  -2.574  1.00  0.00    -0.550 OA
ENDBRANCH   7   9
ENDBRANCH   6   7
ENDBRANCH   5   6
ENDBRANCH   4   5
ENDBRANCH   3   4
ENDBRANCH   2   3
ENDBRANCH   1   2
BRANCH   1  12
ATOM     12  C   UNL     1       4.449  37.786  -8.697  1.00  0.00     0.000 C 
BRANCH  12  13
ATOM     13  C   UNL     1       3.417  36.678  -8.451  1.00  0.00    -0.000 C 
BRANCH  13  14
ATOM     14  C   UNL     1       4.016  35.547  -7.605  1.00  0.00    -0.000 C 
BRANCH  14  15
ATOM     15  C   UNL     1       5.476  35.280  -7.998  1.00  0.00    -0.000 C 
BRANCH  15  16
ATOM     16  C   UNL     1       6.437  35.313  -6.797  1.00  0.00    -0.000 C 
BRANCH  16  17
ATOM     17  C   UNL     1       6.963  33.939  -6.346  1.00  0.00    -0.000 C 
BRANCH  17  18
ATOM     18  C   UNL     1       6.779  33.692  -4.841  1.00  0.00    -0.003 C 
ATOM     19  C   UNL     1       5.743  34.645  -4.251  1.00  0.00     0.004 C 
ENDBRANCH  17  18
ENDBRANCH  16  17
ENDBRANCH  15  16
ENDBRANCH  14  15
ENDBRANCH  13  14
ENDBRANCH  12  13
ENDBRANCH   1  12
TORSDOF 14
ENDMDL
MODEL 2
REMARK VINA RESULT:    -3.885      2.988      5.610
REMARK INTER + INTRA:          -9.638
REMARK INTER:                  -6.846
REMARK INTRA:                  -2.792
REMARK UNBOUND:                -2.573
REMARK SMILES CCCCCCCCCCCCCC[C@@H](C)C(=O)[O-]
REMARK SMILES IDX 9 1 10 2 11 3 12 4 13 5 14 6 15 7 16 8 17 9 18 10 19 11 8 12
REMARK SMILES IDX 7 13 6 14 5 15 4 16 3 17 2 18 1 19
REMARK H PARENT
REMARK Flexibility Score: inf
ROOT
ATOM      1  C   UNL     1       1.898  36.716  -6.759  1.00  0.00     0.000 C 
ENDROOT
BRANCH   1   2
ATOM      2  C   UNL     1       2.340  36.919  -8.220  1.00  0.00     0.000 C 
BRANCH   2   3
ATOM      3  C   UNL     1       3.386  35.912  -8.730  1.00  0.00     0.000 C 
BRANCH   3   4
ATOM      4  C   UNL     1       4.162  35.227  -7.595  1.00  0.00     0.000 C 
BRANCH   4   5
ATOM      5  C   UNL     1       5.573  34.833  -8.055  1.00  0.00     0.001 C 
BRANCH   5   6
ATOM      6  C   UNL     1       6.642  35.056  -6.968  1.00  0.00     0.009 C 
BRANCH   6   7
ATOM      7  C   UNL     1       7.037  33.776  -6.196  1.00  0.00     0.032 C 
ATOM      8  C   UNL     1       6.086  33.547  -5.017  1.00  0.00     0.014 C 
BRANCH   7   9
ATOM      9  C   UNL     1       7.044  32.567  -7.092  1.00  0.00     0.044 C 
ATOM     10  O   UNL     1       6.210  31.638  -6.922  1.00  0.00    -0.550 OA
ATOM     11  O   UNL     1       7.973  32.473  -8.121  1.00  0.00    -0.550 OA
ENDBRANCH   7   9
ENDBRANCH   6   7
ENDBRANCH   5   6
ENDBRANCH   4   5
ENDBRANCH   3   4
ENDBRANCH   2   3
ENDBRANCH   1   2
BRANCH   1  12
ATOM     12  C   UNL     1       1.688  38.039  -6.008  1.00  0.00     0.000 C 
BRANCH  12  13
ATOM     13  C   UNL     1       2.496  38.066  -4.705  1.00  0.00    -0.000 C 
BRANCH  13  14
ATOM     14  C   UNL     1       3.277  36.759  -4.515  1.00  0.00    -0.000 C 
BRANCH  14  15
ATOM     15  C   UNL     1       4.788  37.023  -4.464  1.00  0.00    -0.000 C 
BRANCH  15  16
ATOM     16  C   UNL     1       5.164  38.447  -4.912  1.00  0.00    -0.000 C 
BRANCH  16  17
ATOM     17  C   UNL     1       6.054  38.521  -6.166  1.00  0.00    -0.000 C 
BRANCH  17  18
ATOM     18  C   UNL     1       5.272  38.905  -7.432  1.00  0.00    -0.003 C 
ATOM     19  C   UNL     1       4.472  40.186  -7.215  1.00  0.00     0.004 C 
ENDBRANCH  17  18
ENDBRANCH  16  17
ENDBRANCH  15  16
ENDBRANCH  14  15
ENDBRANCH  13  14
ENDBRANCH  12  13
ENDBRANCH   1  12
TORSDOF 14
ENDMDL
MODEL 3
REMARK VINA RESULT:    -3.702      2.893      5.046
REMARK INTER + INTRA:          -9.306
REMARK INTER:                  -6.842
REMARK INTRA:                  -2.464
REMARK UNBOUND:                -2.573
REMARK SMILES CCCCCCCCCCCCCC[C@@H](C)C(=O)[O-]
REMARK SMILES IDX 9 1 10 2 11 3 12 4 13 5 14 6 15 7 16 8 17 9 18 10 19 11 8 12
REMARK SMILES IDX 7 13 6 14 5 15 4 16 3 17 2 18 1 19
REMARK H PARENT
REMARK Flexibility Score: inf
ROOT
ATOM      1  C   UNL     1       4.383  39.898  -7.068  1.00  0.00     0.000 C 
ENDROOT
BRANCH   1   2
ATOM      2  C   UNL     1       5.848  39.445  -7.212  1.00  0.00     0.000 C 
BRANCH   2   3
ATOM      3  C   UNL     1       6.358  38.524  -6.089  1.00  0.00     0.000 C 
BRANCH   3   4
ATOM      4  C   UNL     1       5.223  37.825  -5.325  1.00  0.00     0.000 C 
BRANCH   4   5
ATOM      5  C   UNL     1       5.287  36.303  -5.519  1.00  0.00     0.001 C 
BRANCH   5   6
ATOM      6  C   UNL     1       6.116  35.890  -6.750  1.00  0.00     0.009 C 
BRANCH   6   7
ATOM      7  C   UNL     1       7.013  34.651  -6.523  1.00  0.00     0.032 C 
ATOM      8  C   UNL     1       6.704  34.007  -5.166  1.00  0.00     0.014 C 
BRANCH   7   9
ATOM      9  C   UNL     1       6.847  33.636  -7.621  1.00  0.00     0.044 C 
ATOM     10  O   UNL     1       6.066  33.856  -8.584  1.00  0.00    -0.550 OA
ATOM     11  O   UNL     1       7.565  32.447  -7.580  1.00  0.00    -0.550 OA
ENDBRANCH   7   9
ENDBRANCH   6   7
ENDBRANCH   5   6
ENDBRANCH   4   5
ENDBRANCH   3   4
ENDBRANCH   2   3
ENDBRANCH   1   2
BRANCH   1  12
ATOM     12  C   UNL     1       3.505  39.469  -8.253  1.00  0.00     0.000 C 
BRANCH  12  13
ATOM     13  C   UNL     1       4.071  38.215  -8.930  1.00  0.00    -0.000 C 
BRANCH  13  14
ATOM     14  C   UNL     1       3.153  37.006  -8.706  1.00  0.00    -0.000 C 
BRANCH  14  15
ATOM     15  C   UNL     1       1.680  37.391  -8.901  1.00  0.00    -0.000 C 
BRANCH  15  16
ATOM     16  C   UNL     1       0.816  37.109  -7.659  1.00  0.00    -0.000 C 
BRANCH  16  17
ATOM     17  C   UNL     1       1.603  36.734  -6.391  1.00  0.00    -0.000 C 
BRANCH  17  18
ATOM     18  C   UNL     1       1.584  37.841  -5.326  1.00  0.00    -0.003 C 
ATOM     19  C   UNL     1       1.763  37.259  -3.926  1.00  0.00     0.004 C 
ENDBRANCH  17  18
ENDBRANCH  16  17
ENDBRANCH  15  16
ENDBRANCH  14  15
ENDBRANCH  13  14
ENDBRANCH  12  13
ENDBRANCH   1  12
TORSDOF 14
ENDMDL
MODEL 4
REMARK VINA RESULT:    -3.641      2.500      5.650
REMARK INTER + INTRA:          -9.195
REMARK INTER:                  -6.686
REMARK INTRA:                  -2.509
REMARK UNBOUND:                -2.573
REMARK SMILES CCCCCCCCCCCCCC[C@@H](C)C(=O)[O-]
REMARK SMILES IDX 9 1 10 2 11 3 12 4 13 5 14 6 15 7 16 8 17 9 18 10 19 11 8 12
REMARK SMILES IDX 7 13 6 14 5 15 4 16 3 17 2 18 1 19
REMARK H PARENT
REMARK Flexibility Score: inf
ROOT
ATOM      1  C   UNL     1       3.690  37.545  -4.656  1.00  0.00     0.000 C 
ENDROOT
BRANCH   1   2
ATOM      2  C   UNL     1       4.538  36.279  -4.881  1.00  0.00     0.000 C 
BRANCH   2   3
ATOM      3  C   UNL     1       3.966  35.288  -5.910  1.00  0.00     0.000 C 
BRANCH   3   4
ATOM      4  C   UNL     1       4.946  34.975  -7.051  1.00  0.00     0.000 C 
BRANCH   4   5
ATOM      5  C   UNL     1       6.394  35.251  -6.621  1.00  0.00     0.001 C 
BRANCH   5   6
ATOM      6  C   UNL     1       7.182  33.965  -6.306  1.00  0.00     0.009 C 
BRANCH   6   7
ATOM      7  C   UNL     1       6.387  32.660  -6.546  1.00  0.00     0.032 C 
ATOM      8  C   UNL     1       7.212  31.678  -7.385  1.00  0.00     0.014 C 
BRANCH   7   9
ATOM      9  C   UNL     1       5.979  32.012  -5.251  1.00  0.00     0.044 C 
ATOM     10  O   UNL     1       5.991  30.758  -5.130  1.00  0.00    -0.550 OA
ATOM     11  O   UNL     1       5.591  32.800  -4.174  1.00  0.00    -0.550 OA
ENDBRANCH   7   9
ENDBRANCH   6   7
ENDBRANCH   5   6
ENDBRANCH   4   5
ENDBRANCH   3   4
ENDBRANCH   2   3
ENDBRANCH   1   2
BRANCH   1  12
ATOM     12  C   UNL     1       4.443  38.839  -5.001  1.00  0.00     0.000 C 
BRANCH  12  13
ATOM     13  C   UNL     1       5.784  38.530  -5.678  1.00  0.00    -0.000 C 
BRANCH  13  14
ATOM     14  C   UNL     1       5.816  39.075  -7.111  1.00  0.00    -0.000 C 
BRANCH  14  15
ATOM     15  C   UNL     1       4.642  40.032  -7.362  1.00  0.00    -0.000 C 
BRANCH  15  16
ATOM     16  C   UNL     1       3.700  39.548  -8.478  1.00  0.00    -0.000 C 
BRANCH  16  17
ATOM     17  C   UNL     1       3.901  38.084  -8.910  1.00  0.00    -0.000 C 
BRANCH  17  18
ATOM     18  C   UNL     1       2.649  37.220  -8.696  1.00  0.00    -0.003 C 
ATOM     19  C   UNL     1       1.687  37.881  -7.713  1.00  0.00     0.004 C 
ENDBRANCH  17  18
ENDBRANCH  16  17
ENDBRANCH  15  16
ENDBRANCH  14  15
ENDBRANCH  13  14
ENDBRANCH  12  13
ENDBRANCH   1  12
TORSDOF 14
ENDMDL
MODEL 5
REMARK VINA RESULT:    -3.586     12.222     14.885
REMARK INTER + INTRA:          -9.093
REMARK INTER:                  -6.548
REMARK INTRA:                  -2.545
REMARK UNBOUND:                -2.573
REMARK SMILES CCCCCCCCCCCCCC[C@@H](C)C(=O)[O-]
REMARK SMILES IDX 9 1 10 2 11 3 12 4 13 5 14 6 15 7 16 8 17 9 18 10 19 11 8 12
REMARK SMILES IDX 7 13 6 14 5 15 4 16 3 17 2 18 1 19
REMARK H PARENT
REMARK Flexibility Score: inf
ROOT
ATOM      1  C   UNL     1       8.568  31.180   9.910  1.00  0.00     0.000 C 
ENDROOT
BRANCH   1   2
ATOM      2  C   UNL     1       7.522  32.069   9.212  1.00  0.00     0.000 C 
BRANCH   2   3
ATOM      3  C   UNL     1       7.746  33.584   9.368  1.00  0.00     0.000 C 
BRANCH   3   4
ATOM      4  C   UNL     1       7.412  34.375   8.095  1.00  0.00     0.000 C 
BRANCH   4   5
ATOM      5  C   UNL     1       5.954  34.857   8.115  1.00  0.00     0.001 C 
BRANCH   5   6
ATOM      6  C   UNL     1       5.109  34.257   6.975  1.00  0.00     0.009 C 
BRANCH   6   7
ATOM      7  C   UNL     1       5.937  33.567   5.867  1.00  0.00     0.032 C 
ATOM      8  C   UNL     1       5.734  32.048   5.914  1.00  0.00     0.014 C 
BRANCH   7   9
ATOM      9  C   UNL     1       5.582  34.089   4.502  1.00  0.00     0.044 C 
ATOM     10  O   UNL     1       5.240  35.291   4.343  1.00  0.00    -0.550 OA
ATOM     11  O   UNL     1       5.637  33.243   3.401  1.00  0.00    -0.550 OA
ENDBRANCH   7   9
ENDBRANCH   6   7
ENDBRANCH   5   6
ENDBRANCH   4   5
ENDBRANCH   3   4
ENDBRANCH   2   3
ENDBRANCH   1   2
BRANCH   1  12
ATOM     12  C   UNL     1       9.056  30.023   9.025  1.00  0.00     0.000 C 
BRANCH  12  13
ATOM     13  C   UNL     1       8.659  30.247   7.561  1.00  0.00    -0.000 C 
BRANCH  13  14
ATOM     14  C   UNL     1       9.892  30.231   6.648  1.00  0.00    -0.000 C 
BRANCH  14  15
ATOM     15  C   UNL     1      10.000  31.537   5.848  1.00  0.00    -0.000 C 
BRANCH  15  16
ATOM     16  C   UNL     1      10.477  32.726   6.702  1.00  0.00    -0.000 C 
BRANCH  16  17
ATOM     17  C   UNL     1      11.521  32.378   7.777  1.00  0.00    -0.000 C 
BRANCH  17  18
ATOM     18  C   UNL     1      11.756  33.521   8.775  1.00  0.00    -0.003 C 
ATOM     19  C   UNL     1      11.112  34.816   8.289  1.00  0.00     0.004 C 
ENDBRANCH  17  18
ENDBRANCH  16  17
ENDBRANCH  15  16
ENDBRANCH  14  15
ENDBRANCH  13  14
ENDBRANCH  12  13
ENDBRANCH   1  12
TORSDOF 14
ENDMDL
MODEL 6
REMARK VINA RESULT:    -3.578     11.486     14.522
REMARK INTER + INTRA:          -9.078
REMARK INTER:                  -7.306
REMARK INTRA:                  -1.773
REMARK UNBOUND:                -2.573
REMARK SMILES CCCCCCCCCCCCCC[C@@H](C)C(=O)[O-]
REMARK SMILES IDX 9 1 10 2 11 3 12 4 13 5 14 6 15 7 16 8 17 9 18 10 19 11 8 12
REMARK SMILES IDX 7 13 6 14 5 15 4 16 3 17 2 18 1 19
REMARK H PARENT
REMARK Flexibility Score: inf
ROOT
ATOM      1  C   UNL     1       9.012  33.083   9.162  1.00  0.00     0.000 C 
ENDROOT
BRANCH   1   2
ATOM      2  C   UNL     1       9.800  34.093   8.306  1.00  0.00     0.000 C 
BRANCH   2   3
ATOM      3  C   UNL     1      10.541  33.486   7.101  1.00  0.00     0.000 C 
BRANCH   3   4
ATOM      4  C   UNL     1      11.238  32.158   7.432  1.00  0.00     0.000 C 
BRANCH   4   5
ATOM      5  C   UNL     1      10.669  31.013   6.581  1.00  0.00     0.001 C 
BRANCH   5   6
ATOM      6  C   UNL     1       9.932  31.510   5.323  1.00  0.00     0.009 C 
BRANCH   6   7
ATOM      7  C   UNL     1       8.521  30.907   5.136  1.00  0.00     0.032 C 
ATOM      8  C   UNL     1       7.454  31.858   5.690  1.00  0.00     0.014 C 
BRANCH   7   9
ATOM      9  C   UNL     1       8.234  30.603   3.690  1.00  0.00     0.044 C 
ATOM     10  O   UNL     1       7.274  31.160   3.096  1.00  0.00    -0.550 OA
ATOM     11  O   UNL     1       9.037  29.703   3.000  1.00  0.00    -0.550 OA
ENDBRANCH   7   9
ENDBRANCH   6   7
ENDBRANCH   5   6
ENDBRANCH   4   5
ENDBRANCH   3   4
ENDBRANCH   2   3
ENDBRANCH   1   2
BRANCH   1  12
ATOM     12  C   UNL     1       7.491  33.249   9.035  1.00  0.00     0.000 C 
BRANCH  12  13
ATOM     13  C   UNL     1       7.122  34.705   8.722  1.00  0.00    -0.000 C 
BRANCH  13  14
ATOM     14  C   UNL     1       5.645  34.978   9.034  1.00  0.00    -0.000 C 
BRANCH  14  15
ATOM     15  C   UNL     1       4.741  34.477   7.899  1.00  0.00    -0.000 C 
BRANCH  15  16
ATOM     16  C   UNL     1       5.340  34.722   6.502  1.00  0.00    -0.000 C 
BRANCH  16  17
ATOM     17  C   UNL     1       4.394  34.416   5.326  1.00  0.00    -0.000 C 
BRANCH  17  18
ATOM     18  C   UNL     1       4.815  35.112   4.023  1.00  0.00    -0.003 C 
ATOM     19  C   UNL     1       5.201  34.093   2.956  1.00  0.00     0.004 C 
ENDBRANCH  17  18
ENDBRANCH  16  17
ENDBRANCH  15  16
ENDBRANCH  14  15
ENDBRANCH  13  14
ENDBRANCH  12  13
ENDBRANCH   1  12
TORSDOF 14
ENDMDL
MODEL 7
REMARK VINA RESULT:    -3.568      2.372      5.170
REMARK INTER + INTRA:          -9.061
REMARK INTER:                  -6.570
REMARK INTRA:                  -2.491
REMARK UNBOUND:                -2.573
REMARK SMILES CCCCCCCCCCCCCC[C@@H](C)C(=O)[O-]
REMARK SMILES IDX 9 1 10 2 11 3 12 4 13 5 14 6 15 7 16 8 17 9 18 10 19 11 8 12
REMARK SMILES IDX 7 13 6 14 5 15 4 16 3 17 2 18 1 19
REMARK H PARENT
REMARK Flexibility Score: inf
ROOT
ATOM      1  C   UNL     1       2.987  37.775  -8.144  1.00  0.00     0.000 C 
ENDROOT
BRANCH   1   2
ATOM      2  C   UNL     1       3.799  36.527  -8.537  1.00  0.00     0.000 C 
BRANCH   2   3
ATOM      3  C   UNL     1       3.403  35.235  -7.800  1.00  0.00     0.000 C 
BRANCH   3   4
ATOM      4  C   UNL     1       3.976  33.970  -8.457  1.00  0.00     0.000 C 
BRANCH   4   5
ATOM      5  C   UNL     1       5.469  34.143  -8.772  1.00  0.00     0.001 C 
BRANCH   5   6
ATOM      6  C   UNL     1       6.342  33.024  -8.172  1.00  0.00     0.009 C 
BRANCH   6   7
ATOM      7  C   UNL     1       6.906  33.344  -6.768  1.00  0.00     0.032 C 
ATOM      8  C   UNL     1       6.912  34.858  -6.526  1.00  0.00     0.014 C 
BRANCH   7   9
ATOM      9  C   UNL     1       6.122  32.655  -5.684  1.00  0.00     0.044 C 
ATOM     10  O   UNL     1       6.302  31.432  -5.441  1.00  0.00    -0.550 OA
ATOM     11  O   UNL     1       5.194  33.372  -4.938  1.00  0.00    -0.550 OA
ENDBRANCH   7   9
ENDBRANCH   6   7
ENDBRANCH   5   6
ENDBRANCH   4   5
ENDBRANCH   3   4
ENDBRANCH   2   3
ENDBRANCH   1   2
BRANCH   1  12
ATOM     12  C   UNL     1       3.714  39.089  -8.467  1.00  0.00     0.000 C 
BRANCH  12  13
ATOM     13  C   UNL     1       4.232  39.758  -7.187  1.00  0.00    -0.000 C 
BRANCH  13  14
ATOM     14  C   UNL     1       5.737  39.522  -7.013  1.00  0.00    -0.000 C 
BRANCH  14  15
ATOM     15  C   UNL     1       6.004  38.375  -6.028  1.00  0.00    -0.000 C 
BRANCH  15  16
ATOM     16  C   UNL     1       4.929  38.261  -4.933  1.00  0.00    -0.000 C 
BRANCH  16  17
ATOM     17  C   UNL     1       4.448  36.829  -4.639  1.00  0.00    -0.000 C 
BRANCH  17  18
ATOM     18  C   UNL     1       2.947  36.755  -4.320  1.00  0.00    -0.003 C 
ATOM     19  C   UNL     1       2.269  38.102  -4.554  1.00  0.00     0.004 C 
ENDBRANCH  17  18
ENDBRANCH  16  17
ENDBRANCH  15  16
ENDBRANCH  14  15
ENDBRANCH  13  14
ENDBRANCH  12  13
ENDBRANCH   1  12
TORSDOF 14
ENDMDL
MODEL 8
REMARK VINA RESULT:    -3.527      3.072      4.589
REMARK INTER + INTRA:          -8.986
REMARK INTER:                  -6.345
REMARK INTRA:                  -2.642
REMARK UNBOUND:                -2.573
REMARK SMILES CCCCCCCCCCCCCC[C@@H](C)C(=O)[O-]
REMARK SMILES IDX 9 1 10 2 11 3 12 4 13 5 14 6 15 7 16 8 17 9 18 10 19 11 8 12
REMARK SMILES IDX 7 13 6 14 5 15 4 16 3 17 2 18 1 19
REMARK H PARENT
REMARK Flexibility Score: inf
ROOT
ATOM      1  C   UNL     1       3.901  39.530  -7.320  1.00  0.00     0.000 C 
ENDROOT
BRANCH   1   2
ATOM      2  C   UNL     1       5.429  39.706  -7.240  1.00  0.00     0.000 C 
BRANCH   2   3
ATOM      3  C   UNL     1       6.169  38.616  -6.444  1.00  0.00     0.000 C 
BRANCH   3   4
ATOM      4  C   UNL     1       5.332  38.043  -5.291  1.00  0.00     0.000 C 
BRANCH   4   5
ATOM      5  C   UNL     1       5.354  36.507  -5.307  1.00  0.00     0.001 C 
BRANCH   5   6
ATOM      6  C   UNL     1       5.789  35.929  -6.667  1.00  0.00     0.009 C 
BRANCH   6   7
ATOM      7  C   UNL     1       6.906  34.863  -6.574  1.00  0.00     0.032 C 
ATOM      8  C   UNL     1       6.839  34.134  -5.227  1.00  0.00     0.014 C 
BRANCH   7   9
ATOM      9  C   UNL     1       6.819  33.869  -7.700  1.00  0.00     0.044 C 
ATOM     10  O   UNL     1       7.688  32.965  -7.825  1.00  0.00    -0.550 OA
ATOM     11  O   UNL     1       5.770  33.941  -8.609  1.00  0.00    -0.550 OA
ENDBRANCH   7   9
ENDBRANCH   6   7
ENDBRANCH   5   6
ENDBRANCH   4   5
ENDBRANCH   3   4
ENDBRANCH   2   3
ENDBRANCH   1   2
BRANCH   1  12
ATOM     12  C   UNL     1       3.450  38.779  -8.581  1.00  0.00     0.000 C 
BRANCH  12  13
ATOM     13  C   UNL     1       2.149  38.008  -8.325  1.00  0.00    -0.000 C 
BRANCH  13  14
ATOM     14  C   UNL     1       2.423  36.695  -7.581  1.00  0.00    -0.000 C 
BRANCH  14  15
ATOM     15  C   UNL     1       1.740  36.689  -6.206  1.00  0.00    -0.000 C 
BRANCH  15  16
ATOM     16  C   UNL     1       1.785  35.312  -5.520  1.00  0.00    -0.000 C 
BRANCH  16  17
ATOM     17  C   UNL     1       2.501  34.209  -6.320  1.00  0.00    -0.000 C 
BRANCH  17  18
ATOM     18  C   UNL     1       3.309  33.253  -5.430  1.00  0.00    -0.003 C 
ATOM     19  C   UNL     1       3.306  33.721  -3.977  1.00  0.00     0.004 C 
ENDBRANCH  17  18
ENDBRANCH  16  17
ENDBRANCH  15  16
ENDBRANCH  14  15
ENDBRANCH  13  14
ENDBRANCH  12  13
ENDBRANCH   1  12
TORSDOF 14
ENDMDL
MODEL 9
REMARK VINA RESULT:    -3.521      2.499      5.310
REMARK INTER + INTRA:          -8.976
REMARK INTER:                  -6.596
REMARK INTRA:                  -2.380
REMARK UNBOUND:                -2.573
REMARK SMILES CCCCCCCCCCCCCC[C@@H](C)C(=O)[O-]
REMARK SMILES IDX 9 1 10 2 11 3 12 4 13 5 14 6 15 7 16 8 17 9 18 10 19 11 8 12
REMARK SMILES IDX 7 13 6 14 5 15 4 16 3 17 2 18 1 19
REMARK H PARENT
REMARK Flexibility Score: inf
ROOT
ATOM      1  C   UNL     1       5.864  38.562  -5.770  1.00  0.00     0.000 C 
ENDROOT
BRANCH   1   2
ATOM      2  C   UNL     1       5.561  37.052  -5.805  1.00  0.00     0.000 C 
BRANCH   2   3
ATOM      3  C   UNL     1       6.280  36.271  -6.919  1.00  0.00     0.000 C 
BRANCH   3   4
ATOM      4  C   UNL     1       5.336  35.363  -7.721  1.00  0.00     0.000 C 
BRANCH   4   5
ATOM      5  C   UNL     1       5.359  33.928  -7.175  1.00  0.00     0.001 C 
BRANCH   5   6
ATOM      6  C   UNL     1       6.696  33.564  -6.501  1.00  0.00     0.009 C 
BRANCH   6   7
ATOM      7  C   UNL     1       6.547  32.917  -5.105  1.00  0.00     0.032 C 
ATOM      8  C   UNL     1       6.119  33.965  -4.072  1.00  0.00     0.014 C 
BRANCH   7   9
ATOM      9  C   UNL     1       5.560  31.781  -5.122  1.00  0.00     0.044 C 
ATOM     10  O   UNL     1       4.466  31.873  -4.504  1.00  0.00    -0.550 OA
ATOM     11  O   UNL     1       5.850  30.621  -5.831  1.00  0.00    -0.550 OA
ENDBRANCH   7   9
ENDBRANCH   6   7
ENDBRANCH   5   6
ENDBRANCH   4   5
ENDBRANCH   3   4
ENDBRANCH   2   3
ENDBRANCH   1   2
BRANCH   1  12
ATOM     12  C   UNL     1       5.820  39.214  -7.160  1.00  0.00     0.000 C 
BRANCH  12  13
ATOM     13  C   UNL     1       4.739  40.300  -7.223  1.00  0.00    -0.000 C 
BRANCH  13  14
ATOM     14  C   UNL     1       3.744  40.020  -8.357  1.00  0.00    -0.000 C 
BRANCH  14  15
ATOM     15  C   UNL     1       3.708  38.525  -8.701  1.00  0.00    -0.000 C 
BRANCH  15  16
ATOM     16  C   UNL     1       2.322  37.892  -8.484  1.00  0.00    -0.000 C 
BRANCH  16  17
ATOM     17  C   UNL     1       2.109  37.252  -7.100  1.00  0.00    -0.000 C 
BRANCH  17  18
ATOM     18  C   UNL     1       1.511  38.227  -6.076  1.00  0.00    -0.003 C 
ATOM     19  C   UNL     1       2.264  38.161  -4.750  1.00  0.00     0.004 C 
ENDBRANCH  17  18
ENDBRANCH  16  17
ENDBRANCH  15  16
ENDBRANCH  14  15
ENDBRANCH  13  14
ENDBRANCH  12  13
ENDBRANCH   1  12
TORSDOF 14
ENDMDL
