MODEL 1
REMARK VINA RESULT:    -3.481      0.000      0.000
REMARK INTER + INTRA:          -4.903
REMARK INTER:                  -4.702
REMARK INTRA:                  -0.202
REMARK UNBOUND:                -0.202
REMARK SMILES CCCCCCCC(=O)[O-]
REMARK SMILES IDX 5 1 6 2 7 3 8 4 9 5 10 6 4 7 3 8 2 9 1 10
REMARK H PARENT
REMARK Flexibility Score: inf
ROOT
ATOM      1  C   UNL     1      -1.882 -50.919   2.271  1.00  0.00     0.000 C 
ENDROOT
BRANCH   1   2
ATOM      2  C   UNL     1      -2.689 -51.644   3.362  1.00  0.00     0.006 C 
BRANCH   2   3
ATOM      3  C   UNL     1      -1.836 -51.964   4.596  1.00  0.00     0.053 C 
BRANCH   3   4
ATOM      4  C   UNL     1      -2.472 -51.458   5.854  1.00  0.00     0.041 C 
ATOM      5  O   UNL     1      -3.721 -51.310   5.919  1.00  0.00    -0.550 OA
ATOM      6  O   UNL     1      -1.688 -51.183   6.968  1.00  0.00    -0.550 OA
ENDBRANCH   3   4
ENDBRANCH   2   3
ENDBRANCH   1   2
BRANCH   1   7
ATOM      7  C   UNL     1      -2.699 -50.667   0.992  1.00  0.00     0.000 C 
BRANCH   7   8
ATOM      8  C   UNL     1      -2.176 -51.385  -0.268  1.00  0.00    -0.000 C 
BRANCH   8   9
ATOM      9  C   UNL     1      -0.690 -51.783  -0.221  1.00  0.00    -0.003 C 
ATOM     10  C   UNL     1      -0.032 -51.797  -1.600  1.00  0.00     0.004 C 
ENDBRANCH   8   9
ENDBRANCH   7   8
ENDBRANCH   1   7
TORSDOF 6
ENDMDL
MODEL 2
REMARK VINA RESULT:    -3.393      1.211      2.228
REMARK INTER + INTRA:          -4.785
REMARK INTER:                  -4.510
REMARK INTRA:                  -0.275
REMARK UNBOUND:                -0.202
REMARK SMILES CCCCCCCC(=O)[O-]
REMARK SMILES IDX 5 1 6 2 7 3 8 4 9 5 10 6 4 7 3 8 2 9 1 10
REMARK H PARENT
REMARK Flexibility Score: inf
ROOT
ATOM      1  C   UNL     1      -0.875 -51.440   4.023  1.00  0.00     0.000 C 
ENDROOT
BRANCH   1   2
ATOM      2  C   UNL     1      -1.315 -52.125   5.327  1.00  0.00     0.006 C 
BRANCH   2   3
ATOM      3  C   UNL     1      -1.572 -51.115   6.453  1.00  0.00     0.053 C 
BRANCH   3   4
ATOM      4  C   UNL     1      -3.035 -50.971   6.743  1.00  0.00     0.041 C 
ATOM      5  O   UNL     1      -3.420 -50.525   7.855  1.00  0.00    -0.550 OA
ATOM      6  O   UNL     1      -3.972 -51.299   5.771  1.00  0.00    -0.550 OA
ENDBRANCH   3   4
ENDBRANCH   2   3
ENDBRANCH   1   2
BRANCH   1   7
ATOM      7  C   UNL     1      -1.642 -51.950   2.791  1.00  0.00     0.000 C 
BRANCH   7   8
ATOM      8  C   UNL     1      -2.652 -50.951   2.191  1.00  0.00    -0.000 C 
BRANCH   8   9
ATOM      9  C   UNL     1      -2.675 -50.895   0.653  1.00  0.00    -0.003 C 
ATOM     10  C   UNL     1      -1.417 -51.484   0.016  1.00  0.00     0.004 C 
ENDBRANCH   8   9
ENDBRANCH   7   8
ENDBRANCH   1   7
TORSDOF 6
ENDMDL
MODEL 3
REMARK VINA RESULT:    -3.371      1.582      2.443
REMARK INTER + INTRA:          -4.755
REMARK INTER:                  -4.558
REMARK INTRA:                  -0.197
REMARK UNBOUND:                -0.202
REMARK SMILES CCCCCCCC(=O)[O-]
REMARK SMILES IDX 5 1 6 2 7 3 8 4 9 5 10 6 4 7 3 8 2 9 1 10
REMARK H PARENT
REMARK Flexibility Score: inf
ROOT
ATOM      1  C   UNL     1      -3.090 -51.501   2.886  1.00  0.00     0.000 C 
ENDROOT
BRANCH   1   2
ATOM      2  C   UNL     1      -2.275 -51.782   4.160  1.00  0.00     0.006 C 
BRANCH   2   3
ATOM      3  C   UNL     1      -3.164 -51.879   5.406  1.00  0.00     0.053 C 
BRANCH   3   4
ATOM      4  C   UNL     1      -2.574 -51.135   6.565  1.00  0.00     0.041 C 
ATOM      5  O   UNL     1      -1.325 -51.052   6.696  1.00  0.00    -0.550 OA
ATOM      6  O   UNL     1      -3.406 -50.504   7.483  1.00  0.00    -0.550 OA
ENDBRANCH   3   4
ENDBRANCH   2   3
ENDBRANCH   1   2
BRANCH   1   7
ATOM      7  C   UNL     1      -2.301 -50.699   1.838  1.00  0.00     0.000 C 
BRANCH   7   8
ATOM      8  C   UNL     1      -2.803 -50.850   0.387  1.00  0.00    -0.000 C 
BRANCH   8   9
ATOM      9  C   UNL     1      -3.985 -51.818   0.206  1.00  0.00    -0.003 C 
ATOM     10  C   UNL     1      -5.302 -51.101  -0.090  1.00  0.00     0.004 C 
ENDBRANCH   8   9
ENDBRANCH   7   8
ENDBRANCH   1   7
TORSDOF 6
ENDMDL
MODEL 4
REMARK VINA RESULT:    -3.318      4.175      5.566
REMARK INTER + INTRA:          -4.683
REMARK INTER:                  -4.519
REMARK INTRA:                  -0.164
REMARK UNBOUND:                -0.202
REMARK SMILES CCCCCCCC(=O)[O-]
REMARK SMILES IDX 5 1 6 2 7 3 8 4 9 5 10 6 4 7 3 8 2 9 1 10
REMARK H PARENT
REMARK Flexibility Score: inf
ROOT
ATOM      1  C   UNL     1      -4.687 -51.948   0.363  1.00  0.00     0.000 C 
ENDROOT
BRANCH   1   2
ATOM      2  C   UNL     1      -3.609 -50.865   0.540  1.00  0.00     0.006 C 
BRANCH   2   3
ATOM      3  C   UNL     1      -2.897 -50.974   1.894  1.00  0.00     0.053 C 
BRANCH   3   4
ATOM      4  C   UNL     1      -1.472 -51.408   1.736  1.00  0.00     0.041 C 
ATOM      5  O   UNL     1      -0.845 -51.896   2.712  1.00  0.00    -0.550 OA
ATOM      6  O   UNL     1      -0.847 -51.305   0.499  1.00  0.00    -0.550 OA
ENDBRANCH   3   4
ENDBRANCH   2   3
ENDBRANCH   1   2
BRANCH   1   7
ATOM      7  C   UNL     1      -6.112 -51.371   0.321  1.00  0.00     0.000 C 
BRANCH   7   8
ATOM      8  C   UNL     1      -7.012 -51.768   1.509  1.00  0.00    -0.000 C 
BRANCH   8   9
ATOM      9  C   UNL     1      -8.521 -51.583   1.271  1.00  0.00    -0.003 C 
ATOM     10  C   UNL     1      -9.070 -50.301   1.896  1.00  0.00     0.004 C 
ENDBRANCH   8   9
ENDBRANCH   7   8
ENDBRANCH   1   7
TORSDOF 6
ENDMDL
MODEL 5
REMARK VINA RESULT:    -3.198      3.256      5.768
REMARK INTER + INTRA:          -4.521
REMARK INTER:                  -4.260
REMARK INTRA:                  -0.261
REMARK UNBOUND:                -0.202
REMARK SMILES CCCCCCCC(=O)[O-]
REMARK SMILES IDX 5 1 6 2 7 3 8 4 9 5 10 6 4 7 3 8 2 9 1 10
REMARK H PARENT
REMARK Flexibility Score: inf
ROOT
ATOM      1  C   UNL     1      -3.439 -51.781   3.275  1.00  0.00     0.000 C 
ENDROOT
BRANCH   1   2
ATOM      2  C   UNL     1      -2.318 -51.033   2.535  1.00  0.00     0.006 C 
BRANCH   2   3
ATOM      3  C   UNL     1      -1.459 -51.975   1.681  1.00  0.00     0.053 C 
BRANCH   3   4
ATOM      4  C   UNL     1      -1.340 -51.487   0.270  1.00  0.00     0.041 C 
ATOM      5  O   UNL     1      -2.326 -50.954  -0.303  1.00  0.00    -0.550 OA
ATOM      6  O   UNL     1      -0.128 -51.589  -0.402  1.00  0.00    -0.550 OA
ENDBRANCH   3   4
ENDBRANCH   2   3
ENDBRANCH   1   2
BRANCH   1   7
ATOM      7  C   UNL     1      -3.301 -51.703   4.805  1.00  0.00     0.000 C 
BRANCH   7   8
ATOM      8  C   UNL     1      -1.859 -51.831   5.337  1.00  0.00    -0.000 C 
BRANCH   8   9
ATOM      9  C   UNL     1      -1.623 -51.216   6.728  1.00  0.00    -0.003 C 
ATOM     10  C   UNL     1      -2.922 -50.894   7.466  1.00  0.00     0.004 C 
ENDBRANCH   8   9
ENDBRANCH   7   8
ENDBRANCH   1   7
TORSDOF 6
ENDMDL
MODEL 6
REMARK VINA RESULT:    -3.075      2.881      3.762
REMARK INTER + INTRA:          -4.355
REMARK INTER:                  -4.166
REMARK INTRA:                  -0.189
REMARK UNBOUND:                -0.202
REMARK SMILES CCCCCCCC(=O)[O-]
REMARK SMILES IDX 5 1 6 2 7 3 8 4 9 5 10 6 4 7 3 8 2 9 1 10
REMARK H PARENT
REMARK Flexibility Score: inf
ROOT
ATOM      1  C   UNL     1      -3.438 -51.592   3.866  1.00  0.00     0.000 C 
ENDROOT
BRANCH   1   2
ATOM      2  C   UNL     1      -4.802 -51.883   3.218  1.00  0.00     0.006 C 
BRANCH   2   3
ATOM      3  C   UNL     1      -5.900 -52.119   4.262  1.00  0.00     0.053 C 
BRANCH   3   4
ATOM      4  C   UNL     1      -7.151 -51.366   3.928  1.00  0.00     0.041 C 
ATOM      5  O   UNL     1      -7.692 -50.621   4.787  1.00  0.00    -0.550 OA
ATOM      6  O   UNL     1      -7.701 -51.460   2.656  1.00  0.00    -0.550 OA
ENDBRANCH   3   4
ENDBRANCH   2   3
ENDBRANCH   1   2
BRANCH   1   7
ATOM      7  C   UNL     1      -2.270 -51.688   2.870  1.00  0.00     0.000 C 
BRANCH   7   8
ATOM      8  C   UNL     1      -2.258 -50.605   1.771  1.00  0.00    -0.000 C 
BRANCH   8   9
ATOM      9  C   UNL     1      -2.555 -51.117   0.351  1.00  0.00    -0.003 C 
ATOM     10  C   UNL     1      -1.311 -51.642  -0.366  1.00  0.00     0.004 C 
ENDBRANCH   8   9
ENDBRANCH   7   8
ENDBRANCH   1   7
TORSDOF 6
ENDMDL
MODEL 7
REMARK VINA RESULT:    -2.946      2.150      3.272
REMARK INTER + INTRA:          -4.181
REMARK INTER:                  -4.012
REMARK INTRA:                  -0.169
REMARK UNBOUND:                -0.202
REMARK SMILES CCCCCCCC(=O)[O-]
REMARK SMILES IDX 5 1 6 2 7 3 8 4 9 5 10 6 4 7 3 8 2 9 1 10
REMARK H PARENT
REMARK Flexibility Score: inf
ROOT
ATOM      1  C   UNL     1      -1.583 -52.060   5.238  1.00  0.00     0.000 C 
ENDROOT
BRANCH   1   2
ATOM      2  C   UNL     1      -1.565 -51.119   6.454  1.00  0.00     0.006 C 
BRANCH   2   3
ATOM      3  C   UNL     1      -2.252 -51.740   7.677  1.00  0.00     0.053 C 
BRANCH   3   4
ATOM      4  C   UNL     1      -3.703 -51.371   7.742  1.00  0.00     0.041 C 
ATOM      5  O   UNL     1      -4.099 -50.498   8.558  1.00  0.00    -0.550 OA
ATOM      6  O   UNL     1      -4.612 -51.967   6.877  1.00  0.00    -0.550 OA
ENDBRANCH   3   4
ENDBRANCH   2   3
ENDBRANCH   1   2
BRANCH   1   7
ATOM      7  C   UNL     1      -0.842 -51.479   4.022  1.00  0.00     0.000 C 
BRANCH   7   8
ATOM      8  C   UNL     1      -1.490 -51.784   2.656  1.00  0.00    -0.000 C 
BRANCH   8   9
ATOM      9  C   UNL     1      -2.955 -51.332   2.516  1.00  0.00    -0.003 C 
ATOM     10  C   UNL     1      -3.365 -51.082   1.066  1.00  0.00     0.004 C 
ENDBRANCH   8   9
ENDBRANCH   7   8
ENDBRANCH   1   7
TORSDOF 6
ENDMDL
MODEL 8
REMARK VINA RESULT:    -2.939      2.984      6.811
REMARK INTER + INTRA:          -4.171
REMARK INTER:                  -3.970
REMARK INTRA:                  -0.201
REMARK UNBOUND:                -0.202
REMARK SMILES CCCCCCCC(=O)[O-]
REMARK SMILES IDX 5 1 6 2 7 3 8 4 9 5 10 6 4 7 3 8 2 9 1 10
REMARK H PARENT
REMARK Flexibility Score: inf
ROOT
ATOM      1  C   UNL     1      -2.998 -51.392   6.358  1.00  0.00     0.000 C 
ENDROOT
BRANCH   1   2
ATOM      2  C   UNL     1      -2.179 -52.105   5.269  1.00  0.00     0.006 C 
BRANCH   2   3
ATOM      3  C   UNL     1      -2.704 -51.806   3.860  1.00  0.00     0.053 C 
BRANCH   3   4
ATOM      4  C   UNL     1      -1.604 -51.374   2.940  1.00  0.00     0.041 C 
ATOM      5  O   UNL     1      -0.458 -51.123   3.395  1.00  0.00    -0.550 OA
ATOM      6  O   UNL     1      -1.836 -51.281   1.573  1.00  0.00    -0.550 OA
ENDBRANCH   3   4
ENDBRANCH   2   3
ENDBRANCH   1   2
BRANCH   1   7
ATOM      7  C   UNL     1      -2.265 -51.321   7.708  1.00  0.00     0.000 C 
BRANCH   7   8
ATOM      8  C   UNL     1      -3.118 -51.701   8.935  1.00  0.00    -0.000 C 
BRANCH   8   9
ATOM      9  C   UNL     1      -4.634 -51.509   8.757  1.00  0.00    -0.003 C 
ATOM     10  C   UNL     1      -5.227 -50.501   9.740  1.00  0.00     0.004 C 
ENDBRANCH   8   9
ENDBRANCH   7   8
ENDBRANCH   1   7
TORSDOF 6
ENDMDL
MODEL 9
REMARK VINA RESULT:    -1.956      2.484      3.713
REMARK INTER + INTRA:          -2.844
REMARK INTER:                  -2.528
REMARK INTRA:                  -0.316
REMARK UNBOUND:                -0.202
REMARK SMILES CCCCCCCC(=O)[O-]
REMARK SMILES IDX 5 1 6 2 7 3 8 4 9 5 10 6 4 7 3 8 2 9 1 10
REMARK H PARENT
REMARK Flexibility Score: inf
ROOT
ATOM      1  C   UNL     1      -3.112 -50.529   0.803  1.00  0.00     0.000 C 
ENDROOT
BRANCH   1   2
ATOM      2  C   UNL     1      -1.901 -51.021   1.613  1.00  0.00     0.006 C 
BRANCH   2   3
ATOM      3  C   UNL     1      -2.320 -51.743   2.900  1.00  0.00     0.053 C 
BRANCH   3   4
ATOM      4  C   UNL     1      -1.285 -51.605   3.974  1.00  0.00     0.041 C 
ATOM      5  O   UNL     1      -0.210 -50.992   3.744  1.00  0.00    -0.550 OA
ATOM      6  O   UNL     1      -1.523 -52.125   5.240  1.00  0.00    -0.550 OA
ENDBRANCH   3   4
ENDBRANCH   2   3
ENDBRANCH   1   2
BRANCH   1   7
ATOM      7  C   UNL     1      -3.963 -51.682   0.241  1.00  0.00     0.000 C 
BRANCH   7   8
ATOM      8  C   UNL     1      -5.398 -51.294  -0.167  1.00  0.00    -0.000 C 
BRANCH   8   9
ATOM      9  C   UNL     1      -6.513 -52.031   0.596  1.00  0.00    -0.003 C 
ATOM     10  C   UNL     1      -6.261 -52.097   2.102  1.00  0.00     0.004 C 
ENDBRANCH   8   9
ENDBRANCH   7   8
ENDBRANCH   1   7
TORSDOF 6
ENDMDL
