MODEL 1
REMARK VINA RESULT:    -4.257      0.000      0.000
REMARK INTER + INTRA:          -6.088
REMARK INTER:                  -5.750
REMARK INTRA:                  -0.339
REMARK UNBOUND:                -0.339
REMARK SMILES CCCCCCCC(=O)[O-]
REMARK SMILES IDX 5 1 6 2 7 3 8 4 9 5 10 6 4 7 3 8 2 9 1 10
REMARK H PARENT
REMARK Flexibility Score: inf
ROOT
ATOM      1  C   UNL     1      45.871  35.829  51.284  1.00  0.00     0.000 C 
ENDROOT
BRANCH   1   2
ATOM      2  C   UNL     1      47.338  36.214  51.514  1.00  0.00     0.006 C 
BRANCH   2   3
ATOM      3  C   UNL     1      48.150  36.080  50.222  1.00  0.00     0.053 C 
BRANCH   3   4
ATOM      4  C   UNL     1      49.227  35.055  50.384  1.00  0.00     0.041 C 
ATOM      5  O   UNL     1      49.332  34.411  51.461  1.00  0.00    -0.550 OA
ATOM      6  O   UNL     1      50.085  34.776  49.328  1.00  0.00    -0.550 OA
ENDBRANCH   3   4
ENDBRANCH   2   3
ENDBRANCH   1   2
BRANCH   1   7
ATOM      7  C   UNL     1      45.013  37.071  51.013  1.00  0.00     0.000 C 
BRANCH   7   8
ATOM      8  C   UNL     1      43.978  36.796  49.916  1.00  0.00    -0.000 C 
BRANCH   8   9
ATOM      9  C   UNL     1      44.360  35.558  49.097  1.00  0.00    -0.003 C 
ATOM     10  C   UNL     1      43.236  35.156  48.147  1.00  0.00     0.004 C 
ENDBRANCH   8   9
ENDBRANCH   7   8
ENDBRANCH   1   7
TORSDOF 6
ENDMDL
MODEL 2
REMARK VINA RESULT:    -4.200     18.296     20.050
REMARK INTER + INTRA:          -6.012
REMARK INTER:                  -5.340
REMARK INTRA:                  -0.672
REMARK UNBOUND:                -0.339
REMARK SMILES CCCCCCCC(=O)[O-]
REMARK SMILES IDX 5 1 6 2 7 3 8 4 9 5 10 6 4 7 3 8 2 9 1 10
REMARK H PARENT
REMARK Flexibility Score: inf
ROOT
ATOM      1  C   UNL     1      61.249  39.932  36.886  1.00  0.00     0.000 C 
ENDROOT
BRANCH   1   2
ATOM      2  C   UNL     1      62.138  39.280  35.820  1.00  0.00     0.006 C 
BRANCH   2   3
ATOM      3  C   UNL     1      61.316  38.873  34.594  1.00  0.00     0.053 C 
BRANCH   3   4
ATOM      4  C   UNL     1      60.909  37.437  34.690  1.00  0.00     0.041 C 
ATOM      5  O   UNL     1      61.589  36.629  35.375  1.00  0.00    -0.550 OA
ATOM      6  O   UNL     1      59.749  37.000  34.061  1.00  0.00    -0.550 OA
ENDBRANCH   3   4
ENDBRANCH   2   3
ENDBRANCH   1   2
BRANCH   1   7
ATOM      7  C   UNL     1      61.285  39.133  38.195  1.00  0.00     0.000 C 
BRANCH   7   8
ATOM      8  C   UNL     1      60.066  38.211  38.310  1.00  0.00    -0.000 C 
BRANCH   8   9
ATOM      9  C   UNL     1      58.841  38.829  37.625  1.00  0.00    -0.003 C 
ATOM     10  C   UNL     1      57.914  37.750  37.075  1.00  0.00     0.004 C 
ENDBRANCH   8   9
ENDBRANCH   7   8
ENDBRANCH   1   7
TORSDOF 6
ENDMDL
MODEL 3
REMARK VINA RESULT:    -4.189      3.178      5.283
REMARK INTER + INTRA:          -5.997
REMARK INTER:                  -5.708
REMARK INTRA:                  -0.288
REMARK UNBOUND:                -0.339
REMARK SMILES CCCCCCCC(=O)[O-]
REMARK SMILES IDX 5 1 6 2 7 3 8 4 9 5 10 6 4 7 3 8 2 9 1 10
REMARK H PARENT
REMARK Flexibility Score: inf
ROOT
ATOM      1  C   UNL     1      48.335  36.149  50.511  1.00  0.00     0.000 C 
ENDROOT
BRANCH   1   2
ATOM      2  C   UNL     1      46.917  36.224  51.090  1.00  0.00     0.006 C 
BRANCH   2   3
ATOM      3  C   UNL     1      45.867  36.194  49.974  1.00  0.00     0.053 C 
BRANCH   3   4
ATOM      4  C   UNL     1      44.646  36.954  50.384  1.00  0.00     0.041 C 
ATOM      5  O   UNL     1      44.677  37.710  51.391  1.00  0.00    -0.550 OA
ATOM      6  O   UNL     1      43.485  36.866  49.626  1.00  0.00    -0.550 OA
ENDBRANCH   3   4
ENDBRANCH   2   3
ENDBRANCH   1   2
BRANCH   1   7
ATOM      7  C   UNL     1      48.947  34.761  50.736  1.00  0.00     0.000 C 
BRANCH   7   8
ATOM      8  C   UNL     1      48.089  33.930  51.696  1.00  0.00    -0.000 C 
BRANCH   8   9
ATOM      9  C   UNL     1      48.850  33.621  52.990  1.00  0.00    -0.003 C 
ATOM     10  C   UNL     1      50.253  34.220  52.961  1.00  0.00     0.004 C 
ENDBRANCH   8   9
ENDBRANCH   7   8
ENDBRANCH   1   7
TORSDOF 6
ENDMDL
MODEL 4
REMARK VINA RESULT:    -4.135     18.344     20.279
REMARK INTER + INTRA:          -5.924
REMARK INTER:                  -5.332
REMARK INTRA:                  -0.592
REMARK UNBOUND:                -0.339
REMARK SMILES CCCCCCCC(=O)[O-]
REMARK SMILES IDX 5 1 6 2 7 3 8 4 9 5 10 6 4 7 3 8 2 9 1 10
REMARK H PARENT
REMARK Flexibility Score: inf
ROOT
ATOM      1  C   UNL     1      58.906  37.117  36.102  1.00  0.00     0.000 C 
ENDROOT
BRANCH   1   2
ATOM      2  C   UNL     1      58.073  38.188  36.816  1.00  0.00     0.006 C 
BRANCH   2   3
ATOM      3  C   UNL     1      58.623  39.590  36.534  1.00  0.00     0.053 C 
BRANCH   3   4
ATOM      4  C   UNL     1      58.264  40.025  35.149  1.00  0.00     0.041 C 
ATOM      5  O   UNL     1      59.049  40.758  34.491  1.00  0.00    -0.550 OA
ATOM      6  O   UNL     1      57.085  39.580  34.564  1.00  0.00    -0.550 OA
ENDBRANCH   3   4
ENDBRANCH   2   3
ENDBRANCH   1   2
BRANCH   1   7
ATOM      7  C   UNL     1      60.390  37.244  36.463  1.00  0.00     0.000 C 
BRANCH   7   8
ATOM      8  C   UNL     1      61.278  36.998  35.238  1.00  0.00    -0.000 C 
BRANCH   8   9
ATOM      9  C   UNL     1      61.693  38.320  34.583  1.00  0.00    -0.003 C 
ATOM     10  C   UNL     1      62.180  39.323  35.625  1.00  0.00     0.004 C 
ENDBRANCH   8   9
ENDBRANCH   7   8
ENDBRANCH   1   7
TORSDOF 6
ENDMDL
MODEL 5
REMARK VINA RESULT:    -4.129     17.503     19.475
REMARK INTER + INTRA:          -5.916
REMARK INTER:                  -5.352
REMARK INTRA:                  -0.564
REMARK UNBOUND:                -0.339
REMARK SMILES CCCCCCCC(=O)[O-]
REMARK SMILES IDX 5 1 6 2 7 3 8 4 9 5 10 6 4 7 3 8 2 9 1 10
REMARK H PARENT
REMARK Flexibility Score: inf
ROOT
ATOM      1  C   UNL     1      61.197  39.084  38.173  1.00  0.00     0.000 C 
ENDROOT
BRANCH   1   2
ATOM      2  C   UNL     1      59.936  38.236  38.382  1.00  0.00     0.006 C 
BRANCH   2   3
ATOM      3  C   UNL     1      58.715  38.900  37.736  1.00  0.00     0.053 C 
BRANCH   3   4
ATOM      4  C   UNL     1      57.800  37.865  37.162  1.00  0.00     0.041 C 
ATOM      5  O   UNL     1      56.798  37.473  37.814  1.00  0.00    -0.550 OA
ATOM      6  O   UNL     1      58.027  37.370  35.884  1.00  0.00    -0.550 OA
ENDBRANCH   3   4
ENDBRANCH   2   3
ENDBRANCH   1   2
BRANCH   1   7
ATOM      7  C   UNL     1      61.131  39.849  36.845  1.00  0.00     0.000 C 
BRANCH   7   8
ATOM      8  C   UNL     1      62.110  39.261  35.822  1.00  0.00    -0.000 C 
BRANCH   8   9
ATOM      9  C   UNL     1      61.373  38.408  34.782  1.00  0.00    -0.003 C 
ATOM     10  C   UNL     1      61.411  36.929  35.154  1.00  0.00     0.004 C 
ENDBRANCH   8   9
ENDBRANCH   7   8
ENDBRANCH   1   7
TORSDOF 6
ENDMDL
MODEL 6
REMARK VINA RESULT:    -4.120     17.090     18.832
REMARK INTER + INTRA:          -5.904
REMARK INTER:                  -5.523
REMARK INTRA:                  -0.381
REMARK UNBOUND:                -0.339
REMARK SMILES CCCCCCCC(=O)[O-]
REMARK SMILES IDX 5 1 6 2 7 3 8 4 9 5 10 6 4 7 3 8 2 9 1 10
REMARK H PARENT
REMARK Flexibility Score: inf
ROOT
ATOM      1  C   UNL     1      59.030  36.976  36.517  1.00  0.00     0.000 C 
ENDROOT
BRANCH   1   2
ATOM      2  C   UNL     1      60.483  37.285  36.898  1.00  0.00     0.006 C 
BRANCH   2   3
ATOM      3  C   UNL     1      61.247  37.881  35.711  1.00  0.00     0.053 C 
BRANCH   3   4
ATOM      4  C   UNL     1      61.852  39.197  36.085  1.00  0.00     0.041 C 
ATOM      5  O   UNL     1      62.944  39.560  35.575  1.00  0.00    -0.550 OA
ATOM      6  O   UNL     1      61.184  40.044  36.960  1.00  0.00    -0.550 OA
ENDBRANCH   3   4
ENDBRANCH   2   3
ENDBRANCH   1   2
BRANCH   1   7
ATOM      7  C   UNL     1      58.083  38.067  37.032  1.00  0.00     0.000 C 
BRANCH   7   8
ATOM      8  C   UNL     1      58.376  38.401  38.500  1.00  0.00    -0.000 C 
BRANCH   8   9
ATOM      9  C   UNL     1      57.116  38.255  39.360  1.00  0.00    -0.003 C 
ATOM     10  C   UNL     1      56.089  37.350  38.686  1.00  0.00     0.004 C 
ENDBRANCH   8   9
ENDBRANCH   7   8
ENDBRANCH   1   7
TORSDOF 6
ENDMDL
MODEL 7
REMARK VINA RESULT:    -4.116     18.377     19.109
REMARK INTER + INTRA:          -5.899
REMARK INTER:                  -5.457
REMARK INTRA:                  -0.442
REMARK UNBOUND:                -0.339
REMARK SMILES CCCCCCCC(=O)[O-]
REMARK SMILES IDX 5 1 6 2 7 3 8 4 9 5 10 6 4 7 3 8 2 9 1 10
REMARK H PARENT
REMARK Flexibility Score: inf
ROOT
ATOM      1  C   UNL     1      59.044  36.963  36.512  1.00  0.00     0.000 C 
ENDROOT
BRANCH   1   2
ATOM      2  C   UNL     1      60.466  37.476  36.770  1.00  0.00     0.006 C 
BRANCH   2   3
ATOM      3  C   UNL     1      60.562  38.164  38.136  1.00  0.00     0.053 C 
BRANCH   3   4
ATOM      4  C   UNL     1      61.349  39.432  38.029  1.00  0.00     0.041 C 
ATOM      5  O   UNL     1      61.024  40.311  37.189  1.00  0.00    -0.550 OA
ATOM      6  O   UNL     1      62.413  39.664  38.892  1.00  0.00    -0.550 OA
ENDBRANCH   3   4
ENDBRANCH   2   3
ENDBRANCH   1   2
BRANCH   1   7
ATOM      7  C   UNL     1      58.023  38.104  36.605  1.00  0.00     0.000 C 
BRANCH   7   8
ATOM      8  C   UNL     1      57.089  38.107  35.389  1.00  0.00    -0.000 C 
BRANCH   8   9
ATOM      9  C   UNL     1      57.463  39.226  34.411  1.00  0.00    -0.003 C 
ATOM     10  C   UNL     1      58.203  40.356  35.121  1.00  0.00     0.004 C 
ENDBRANCH   8   9
ENDBRANCH   7   8
ENDBRANCH   1   7
TORSDOF 6
ENDMDL
MODEL 8
REMARK VINA RESULT:    -4.107     18.130     19.408
REMARK INTER + INTRA:          -5.886
REMARK INTER:                  -5.304
REMARK INTRA:                  -0.581
REMARK UNBOUND:                -0.339
REMARK SMILES CCCCCCCC(=O)[O-]
REMARK SMILES IDX 5 1 6 2 7 3 8 4 9 5 10 6 4 7 3 8 2 9 1 10
REMARK H PARENT
REMARK Flexibility Score: inf
ROOT
ATOM      1  C   UNL     1      59.944  38.172  38.542  1.00  0.00     0.000 C 
ENDROOT
BRANCH   1   2
ATOM      2  C   UNL     1      61.212  38.995  38.284  1.00  0.00     0.006 C 
BRANCH   2   3
ATOM      3  C   UNL     1      61.094  39.792  36.981  1.00  0.00     0.053 C 
BRANCH   3   4
ATOM      4  C   UNL     1      61.905  39.152  35.900  1.00  0.00     0.041 C 
ATOM      5  O   UNL     1      62.980  39.683  35.514  1.00  0.00    -0.550 OA
ATOM      6  O   UNL     1      61.500  37.942  35.351  1.00  0.00    -0.550 OA
ENDBRANCH   3   4
ENDBRANCH   2   3
ENDBRANCH   1   2
BRANCH   1   7
ATOM      7  C   UNL     1      58.718  38.837  37.904  1.00  0.00     0.000 C 
BRANCH   7   8
ATOM      8  C   UNL     1      57.777  37.790  37.299  1.00  0.00    -0.000 C 
BRANCH   8   9
ATOM      9  C   UNL     1      57.925  37.731  35.774  1.00  0.00    -0.003 C 
ATOM     10  C   UNL     1      57.851  39.125  35.159  1.00  0.00     0.004 C 
ENDBRANCH   8   9
ENDBRANCH   7   8
ENDBRANCH   1   7
TORSDOF 6
ENDMDL
MODEL 9
REMARK VINA RESULT:    -4.106     18.597     19.800
REMARK INTER + INTRA:          -5.884
REMARK INTER:                  -5.287
REMARK INTRA:                  -0.598
REMARK UNBOUND:                -0.339
REMARK SMILES CCCCCCCC(=O)[O-]
REMARK SMILES IDX 5 1 6 2 7 3 8 4 9 5 10 6 4 7 3 8 2 9 1 10
REMARK H PARENT
REMARK Flexibility Score: inf
ROOT
ATOM      1  C   UNL     1      57.816  37.756  36.601  1.00  0.00     0.000 C 
ENDROOT
BRANCH   1   2
ATOM      2  C   UNL     1      59.077  36.907  36.398  1.00  0.00     0.006 C 
BRANCH   2   3
ATOM      3  C   UNL     1      60.335  37.688  36.793  1.00  0.00     0.053 C 
BRANCH   3   4
ATOM      4  C   UNL     1      61.256  37.823  35.622  1.00  0.00     0.041 C 
ATOM      5  O   UNL     1      61.203  36.996  34.675  1.00  0.00    -0.550 OA
ATOM      6  O   UNL     1      62.140  38.893  35.554  1.00  0.00    -0.550 OA
ENDBRANCH   3   4
ENDBRANCH   2   3
ENDBRANCH   1   2
BRANCH   1   7
ATOM      7  C   UNL     1      56.985  37.824  35.314  1.00  0.00     0.000 C 
BRANCH   7   8
ATOM      8  C   UNL     1      57.677  38.693  34.258  1.00  0.00    -0.000 C 
BRANCH   8   9
ATOM      9  C   UNL     1      57.814  40.141  34.740  1.00  0.00    -0.003 C 
ATOM     10  C   UNL     1      59.198  40.699  34.424  1.00  0.00     0.004 C 
ENDBRANCH   8   9
ENDBRANCH   7   8
ENDBRANCH   1   7
TORSDOF 6
ENDMDL
