MODEL 1
REMARK VINA RESULT:    -4.072      0.000      0.000
REMARK INTER + INTRA:          -5.307
REMARK INTER:                  -5.024
REMARK INTRA:                  -0.282
REMARK UNBOUND:                -0.282
REMARK SMILES C=CCc1ccc(OC)c(OC)c1
REMARK SMILES IDX 7 1 10 2 13 3 4 4 5 5 6 6 8 7 9 8 11 9 12 10 3 11 2 12 1 13
REMARK H PARENT
REMARK Flexibility Score: inf
ROOT
ATOM      1  C   UNL     1     117.629 117.472 111.946  1.00  0.00     0.160 A 
ATOM      2  C   UNL     1     117.473 116.079 112.030  1.00  0.00     0.160 A 
ATOM      3  C   UNL     1     116.179 115.522 112.057  1.00  0.00     0.054 A 
ATOM      4  C   UNL     1     115.046 116.348 112.006  1.00  0.00    -0.040 A 
ATOM      5  C   UNL     1     115.210 117.736 111.911  1.00  0.00     0.008 A 
ATOM      6  C   UNL     1     116.488 118.296 111.886  1.00  0.00     0.051 A 
ENDROOT
BRANCH   1   7
ATOM      7  O   UNL     1     118.930 117.998 111.923  1.00  0.00    -0.493 OA
ATOM      8  C   UNL     1     119.594 118.557 113.051  1.00  0.00     0.278 C 
ENDBRANCH   1   7
BRANCH   2   9
ATOM      9  O   UNL     1     118.628 115.282 112.082  1.00  0.00    -0.493 OA
ATOM     10  C   UNL     1     118.654 113.927 112.520  1.00  0.00     0.278 C 
ENDBRANCH   2   9
BRANCH   4  11
ATOM     11  C   UNL     1     113.664 115.748 112.003  1.00  0.00     0.062 C 
BRANCH  11  12
ATOM     12  C   UNL     1     113.581 114.600 112.969  1.00  0.00    -0.030 C 
ATOM     13  C   UNL     1     113.253 114.784 114.252  1.00  0.00     0.004 C 
ENDBRANCH  11  12
ENDBRANCH   4  11
TORSDOF 4
ENDMDL
MODEL 2
REMARK VINA RESULT:    -4.033      1.618      3.684
REMARK INTER + INTRA:          -5.258
REMARK INTER:                  -4.997
REMARK INTRA:                  -0.261
REMARK UNBOUND:                -0.282
REMARK SMILES C=CCc1ccc(OC)c(OC)c1
REMARK SMILES IDX 7 1 10 2 13 3 4 4 5 5 6 6 8 7 9 8 11 9 12 10 3 11 2 12 1 13
REMARK H PARENT
REMARK Flexibility Score: inf
ROOT
ATOM      1  C   UNL     1     115.529 117.248 112.184  1.00  0.00     0.160 A 
ATOM      2  C   UNL     1     116.919 117.171 111.999  1.00  0.00     0.160 A 
ATOM      3  C   UNL     1     117.546 115.911 111.941  1.00  0.00     0.054 A 
ATOM      4  C   UNL     1     116.795 114.733 112.072  1.00  0.00    -0.040 A 
ATOM      5  C   UNL     1     115.407 114.818 112.245  1.00  0.00     0.008 A 
ATOM      6  C   UNL     1     114.778 116.063 112.305  1.00  0.00     0.051 A 
ENDROOT
BRANCH   1   7
ATOM      7  O   UNL     1     114.932 118.517 112.239  1.00  0.00    -0.493 OA
ATOM      8  C   UNL     1     114.725 119.260 113.436  1.00  0.00     0.278 C 
ENDBRANCH   1   7
BRANCH   2   9
ATOM      9  O   UNL     1     117.640 118.369 111.875  1.00  0.00    -0.493 OA
ATOM     10  C   UNL     1     119.001 118.535 112.262  1.00  0.00     0.278 C 
ENDBRANCH   2   9
BRANCH   4  11
ATOM     11  C   UNL     1     117.463 113.387 111.978  1.00  0.00     0.062 C 
BRANCH  11  12
ATOM     12  C   UNL     1     118.525 113.246 113.032  1.00  0.00    -0.030 C 
ATOM     13  C   UNL     1     118.235 113.307 114.335  1.00  0.00     0.004 C 
ENDBRANCH  11  12
ENDBRANCH   4  11
TORSDOF 4
ENDMDL
MODEL 3
REMARK VINA RESULT:    -3.992      1.173      2.749
REMARK INTER + INTRA:          -5.208
REMARK INTER:                  -4.892
REMARK INTRA:                  -0.316
REMARK UNBOUND:                -0.282
REMARK SMILES C=CCc1ccc(OC)c(OC)c1
REMARK SMILES IDX 7 1 10 2 13 3 4 4 5 5 6 6 8 7 9 8 11 9 12 10 3 11 2 12 1 13
REMARK H PARENT
REMARK Flexibility Score: inf
ROOT
ATOM      1  C   UNL     1     117.790 117.380 112.042  1.00  0.00     0.160 A 
ATOM      2  C   UNL     1     116.502 117.933 111.951  1.00  0.00     0.160 A 
ATOM      3  C   UNL     1     115.379 117.084 111.919  1.00  0.00     0.054 A 
ATOM      4  C   UNL     1     115.536 115.691 111.971  1.00  0.00    -0.040 A 
ATOM      5  C   UNL     1     116.824 115.147 112.074  1.00  0.00     0.008 A 
ATOM      6  C   UNL     1     117.942 115.981 112.104  1.00  0.00     0.051 A 
ENDROOT
BRANCH   1   7
ATOM      7  O   UNL     1     118.891 118.251 112.071  1.00  0.00    -0.493 OA
ATOM      8  C   UNL     1     119.693 118.499 113.220  1.00  0.00     0.278 C 
ENDBRANCH   1   7
BRANCH   2   9
ATOM      9  O   UNL     1     116.382 119.331 111.897  1.00  0.00    -0.493 OA
ATOM     10  C   UNL     1     115.189 120.050 112.197  1.00  0.00     0.278 C 
ENDBRANCH   2   9
BRANCH   4  11
ATOM     11  C   UNL     1     114.332 114.787 111.969  1.00  0.00     0.062 C 
BRANCH  11  12
ATOM     12  C   UNL     1     113.446 115.077 113.148  1.00  0.00    -0.030 C 
ATOM     13  C   UNL     1     113.831 114.809 114.399  1.00  0.00     0.004 C 
ENDBRANCH  11  12
ENDBRANCH   4  11
TORSDOF 4
ENDMDL
MODEL 4
REMARK VINA RESULT:    -3.961      1.685      4.443
REMARK INTER + INTRA:          -5.170
REMARK INTER:                  -4.841
REMARK INTRA:                  -0.329
REMARK UNBOUND:                -0.282
REMARK SMILES C=CCc1ccc(OC)c(OC)c1
REMARK SMILES IDX 7 1 10 2 13 3 4 4 5 5 6 6 8 7 9 8 11 9 12 10 3 11 2 12 1 13
REMARK H PARENT
REMARK Flexibility Score: inf
ROOT
ATOM      1  C   UNL     1     115.791 115.681 111.977  1.00  0.00     0.160 A 
ATOM      2  C   UNL     1     117.027 115.014 111.982  1.00  0.00     0.160 A 
ATOM      3  C   UNL     1     118.222 115.759 111.940  1.00  0.00     0.054 A 
ATOM      4  C   UNL     1     118.186 117.161 111.887  1.00  0.00    -0.040 A 
ATOM      5  C   UNL     1     116.949 117.819 111.894  1.00  0.00     0.008 A 
ATOM      6  C   UNL     1     115.761 117.088 111.934  1.00  0.00     0.051 A 
ENDROOT
BRANCH   1   7
ATOM      7  O   UNL     1     114.617 114.911 112.017  1.00  0.00    -0.493 OA
ATOM      8  C   UNL     1     113.702 114.893 113.108  1.00  0.00     0.278 C 
ENDBRANCH   1   7
BRANCH   2   9
ATOM      9  O   UNL     1     117.025 113.611 112.032  1.00  0.00    -0.493 OA
ATOM     10  C   UNL     1     118.059 112.823 112.615  1.00  0.00     0.278 C 
ENDBRANCH   2   9
BRANCH   4  11
ATOM     11  C   UNL     1     119.465 117.957 111.875  1.00  0.00     0.062 C 
BRANCH  11  12
ATOM     12  C   UNL     1     119.615 118.742 113.148  1.00  0.00    -0.030 C 
ATOM     13  C   UNL     1     119.756 118.140 114.333  1.00  0.00     0.004 C 
ENDBRANCH  11  12
ENDBRANCH   4  11
TORSDOF 4
ENDMDL
MODEL 5
REMARK VINA RESULT:    -3.961      2.033      3.909
REMARK INTER + INTRA:          -5.169
REMARK INTER:                  -4.923
REMARK INTRA:                  -0.247
REMARK UNBOUND:                -0.282
REMARK SMILES C=CCc1ccc(OC)c(OC)c1
REMARK SMILES IDX 7 1 10 2 13 3 4 4 5 5 6 6 8 7 9 8 11 9 12 10 3 11 2 12 1 13
REMARK H PARENT
REMARK Flexibility Score: inf
ROOT
ATOM      1  C   UNL     1     115.977 118.175 111.928  1.00  0.00     0.160 A 
ATOM      2  C   UNL     1     115.440 116.877 111.942  1.00  0.00     0.160 A 
ATOM      3  C   UNL     1     116.304 115.764 111.920  1.00  0.00     0.054 A 
ATOM      4  C   UNL     1     117.695 115.942 111.878  1.00  0.00    -0.040 A 
ATOM      5  C   UNL     1     118.223 117.240 111.876  1.00  0.00     0.008 A 
ATOM      6  C   UNL     1     117.374 118.348 111.896  1.00  0.00     0.051 A 
ENDROOT
BRANCH   1   7
ATOM      7  O   UNL     1     115.092 119.264 111.949  1.00  0.00    -0.493 OA
ATOM      8  C   UNL     1     114.694 119.957 113.127  1.00  0.00     0.278 C 
ENDBRANCH   1   7
BRANCH   2   9
ATOM      9  O   UNL     1     114.044 116.736 111.980  1.00  0.00    -0.493 OA
ATOM     10  C   UNL     1     113.363 115.500 112.176  1.00  0.00     0.278 C 
ENDBRANCH   2   9
BRANCH   4  11
ATOM     11  C   UNL     1     118.617 114.751 111.887  1.00  0.00     0.062 C 
BRANCH  11  12
ATOM     12  C   UNL     1     117.945 113.564 112.517  1.00  0.00    -0.030 C 
ATOM     13  C   UNL     1     118.487 112.919 113.554  1.00  0.00     0.004 C 
ENDBRANCH  11  12
ENDBRANCH   4  11
TORSDOF 4
ENDMDL
MODEL 6
REMARK VINA RESULT:    -3.930      1.598      3.540
REMARK INTER + INTRA:          -5.132
REMARK INTER:                  -4.812
REMARK INTRA:                  -0.320
REMARK UNBOUND:                -0.282
REMARK SMILES C=CCc1ccc(OC)c(OC)c1
REMARK SMILES IDX 7 1 10 2 13 3 4 4 5 5 6 6 8 7 9 8 11 9 12 10 3 11 2 12 1 13
REMARK H PARENT
REMARK Flexibility Score: inf
ROOT
ATOM      1  C   UNL     1     117.453 115.499 113.339  1.00  0.00     0.160 A 
ATOM      2  C   UNL     1     117.913 116.637 112.657  1.00  0.00     0.160 A 
ATOM      3  C   UNL     1     117.001 117.640 112.277  1.00  0.00     0.054 A 
ATOM      4  C   UNL     1     115.634 117.508 112.569  1.00  0.00    -0.040 A 
ATOM      5  C   UNL     1     115.184 116.375 113.260  1.00  0.00     0.008 A 
ATOM      6  C   UNL     1     116.082 115.376 113.638  1.00  0.00     0.051 A 
ENDROOT
BRANCH   1   7
ATOM      7  O   UNL     1     118.386 114.515 113.704  1.00  0.00    -0.493 OA
ATOM      8  C   UNL     1     118.524 113.255 113.057  1.00  0.00     0.278 C 
ENDBRANCH   1   7
BRANCH   2   9
ATOM      9  O   UNL     1     119.287 116.734 112.379  1.00  0.00    -0.493 OA
ATOM     10  C   UNL     1     119.949 117.936 111.999  1.00  0.00     0.278 C 
ENDBRANCH   2   9
BRANCH   4  11
ATOM     11  C   UNL     1     114.665 118.597 112.189  1.00  0.00     0.062 C 
BRANCH  11  12
ATOM     12  C   UNL     1     114.971 119.865 112.936  1.00  0.00    -0.030 C 
ATOM     13  C   UNL     1     114.822 119.954 114.261  1.00  0.00     0.004 C 
ENDBRANCH  11  12
ENDBRANCH   4  11
TORSDOF 4
ENDMDL
MODEL 7
REMARK VINA RESULT:    -3.854      3.809      5.457
REMARK INTER + INTRA:          -5.037
REMARK INTER:                  -4.788
REMARK INTRA:                  -0.250
REMARK UNBOUND:                -0.282
REMARK SMILES C=CCc1ccc(OC)c(OC)c1
REMARK SMILES IDX 7 1 10 2 13 3 4 4 5 5 6 6 8 7 9 8 11 9 12 10 3 11 2 12 1 13
REMARK H PARENT
REMARK Flexibility Score: inf
ROOT
ATOM      1  C   UNL     1     115.220 119.781 115.104  1.00  0.00     0.160 A 
ATOM      2  C   UNL     1     116.454 119.174 115.386  1.00  0.00     0.160 A 
ATOM      3  C   UNL     1     117.243 118.674 114.332  1.00  0.00     0.054 A 
ATOM      4  C   UNL     1     116.803 118.772 113.003  1.00  0.00    -0.040 A 
ATOM      5  C   UNL     1     115.575 119.390 112.729  1.00  0.00     0.008 A 
ATOM      6  C   UNL     1     114.787 119.886 113.768  1.00  0.00     0.051 A 
ENDROOT
BRANCH   1   7
ATOM      7  O   UNL     1     114.455 120.268 116.176  1.00  0.00    -0.493 OA
ATOM      8  C   UNL     1     114.394 121.636 116.567  1.00  0.00     0.278 C 
ENDBRANCH   1   7
BRANCH   2   9
ATOM      9  O   UNL     1     116.863 119.089 116.727  1.00  0.00    -0.493 OA
ATOM     10  C   UNL     1     118.149 118.649 117.153  1.00  0.00     0.278 C 
ENDBRANCH   2   9
BRANCH   4  11
ATOM     11  C   UNL     1     117.662 118.266 111.875  1.00  0.00     0.062 C 
BRANCH  11  12
ATOM     12  C   UNL     1     119.110 118.583 112.126  1.00  0.00    -0.030 C 
ATOM     13  C   UNL     1     120.077 117.693 111.883  1.00  0.00     0.004 C 
ENDBRANCH  11  12
ENDBRANCH   4  11
TORSDOF 4
ENDMDL
MODEL 8
REMARK VINA RESULT:    -3.236      1.689      3.596
REMARK INTER + INTRA:          -4.275
REMARK INTER:                  -3.981
REMARK INTRA:                  -0.294
REMARK UNBOUND:                -0.282
REMARK SMILES C=CCc1ccc(OC)c(OC)c1
REMARK SMILES IDX 7 1 10 2 13 3 4 4 5 5 6 6 8 7 9 8 11 9 12 10 3 11 2 12 1 13
REMARK H PARENT
REMARK Flexibility Score: inf
ROOT
ATOM      1  C   UNL     1     117.249 115.844 111.890  1.00  0.00     0.160 A 
ATOM      2  C   UNL     1     115.847 115.921 111.893  1.00  0.00     0.160 A 
ATOM      3  C   UNL     1     115.217 117.181 111.910  1.00  0.00     0.054 A 
ATOM      4  C   UNL     1     115.980 118.359 111.930  1.00  0.00    -0.040 A 
ATOM      5  C   UNL     1     117.378 118.273 111.916  1.00  0.00     0.008 A 
ATOM      6  C   UNL     1     118.009 117.029 111.901  1.00  0.00     0.051 A 
ENDROOT
BRANCH   1   7
ATOM      7  O   UNL     1     117.848 114.574 111.875  1.00  0.00    -0.493 OA
ATOM      8  C   UNL     1     118.617 114.032 112.943  1.00  0.00     0.278 C 
ENDBRANCH   1   7
BRANCH   2   9
ATOM      9  O   UNL     1     115.115 114.722 111.876  1.00  0.00    -0.493 OA
ATOM     10  C   UNL     1     114.030 114.427 112.751  1.00  0.00     0.278 C 
ENDBRANCH   2   9
BRANCH   4  11
ATOM     11  C   UNL     1     115.304 119.705 111.916  1.00  0.00     0.062 C 
BRANCH  11  12
ATOM     12  C   UNL     1     114.528 119.924 113.184  1.00  0.00    -0.030 C 
ATOM     13  C   UNL     1     115.100 119.811 114.387  1.00  0.00     0.004 C 
ENDBRANCH  11  12
ENDBRANCH   4  11
TORSDOF 4
ENDMDL
