MODEL 1
REMARK VINA RESULT:    -4.700      0.000      0.000
REMARK INTER + INTRA:          -6.854
REMARK INTER:                  -6.348
REMARK INTRA:                  -0.506
REMARK UNBOUND:                -0.506
REMARK SMILES CC(=O)CCC=C(C)CCC=C(C)C
REMARK SMILES IDX 7 1 6 2 8 3 9 4 10 5 11 6 13 7 12 8 14 9 5 10 4 11 2 12 3 13
REMARK SMILES IDX 1 14
REMARK H PARENT
REMARK Flexibility Score: inf
ROOT
ATOM      1  C   UNL     1      12.696  31.400  29.448  1.00  0.00    -0.077 C 
ATOM      2  C   UNL     1      14.047  31.370  29.384  1.00  0.00    -0.028 C 
ATOM      3  C   UNL     1      11.928  30.583  30.462  1.00  0.00     0.039 C 
ENDROOT
BRANCH   1   4
ATOM      4  C   UNL     1      11.930  32.261  28.465  1.00  0.00     0.034 C 
BRANCH   4   5
ATOM      5  C   UNL     1      12.866  33.118  27.602  1.00  0.00     0.032 C 
BRANCH   5   6
ATOM      6  C   UNL     1      12.096  34.074  26.721  1.00  0.00    -0.028 C 
ATOM      7  C   UNL     1      11.735  35.692  24.908  1.00  0.00     0.039 C 
ATOM      8  C   UNL     1      12.618  34.729  25.660  1.00  0.00    -0.080 C 
ATOM      9  C   UNL     1      14.041  34.511  25.203  1.00  0.00     0.039 C 
ENDBRANCH   5   6
ENDBRANCH   4   5
ENDBRANCH   1   4
BRANCH   2  10
ATOM     10  C   UNL     1      14.932  30.583  30.319  1.00  0.00     0.035 C 
BRANCH  10  11
ATOM     11  C   UNL     1      16.410  30.772  29.951  1.00  0.00     0.079 C 
BRANCH  11  12
ATOM     12  C   UNL     1      16.840  32.215  29.811  1.00  0.00     0.130 C 
ATOM     13  O   UNL     1      17.256  32.593  28.725  1.00  0.00    -0.300 OA
ATOM     14  C   UNL     1      16.776  33.203  30.942  1.00  0.00     0.087 C 
ENDBRANCH  11  12
ENDBRANCH  10  11
ENDBRANCH   2  10
TORSDOF 6
ENDMDL
MODEL 2
REMARK VINA RESULT:    -4.539      1.632      5.195
REMARK INTER + INTRA:          -6.637
REMARK INTER:                  -5.926
REMARK INTRA:                  -0.711
REMARK UNBOUND:                -0.506
REMARK SMILES CC(=O)CCC=C(C)CCC=C(C)C
REMARK SMILES IDX 7 1 6 2 8 3 9 4 10 5 11 6 13 7 12 8 14 9 5 10 4 11 2 12 3 13
REMARK SMILES IDX 1 14
REMARK H PARENT
REMARK Flexibility Score: inf
ROOT
ATOM      1  C   UNL     1      12.913  31.388  29.485  1.00  0.00    -0.077 C 
ATOM      2  C   UNL     1      13.386  32.073  28.419  1.00  0.00    -0.028 C 
ATOM      3  C   UNL     1      11.454  31.430  29.877  1.00  0.00     0.039 C 
ENDROOT
BRANCH   1   4
ATOM      4  C   UNL     1      13.875  30.571  30.323  1.00  0.00     0.034 C 
BRANCH   4   5
ATOM      5  C   UNL     1      15.334  30.786  29.895  1.00  0.00     0.032 C 
BRANCH   5   6
ATOM      6  C   UNL     1      16.005  31.862  30.716  1.00  0.00    -0.028 C 
ATOM      7  C   UNL     1      17.469  33.782  31.171  1.00  0.00     0.039 C 
ATOM      8  C   UNL     1      16.833  32.805  30.215  1.00  0.00    -0.080 C 
ATOM      9  C   UNL     1      17.122  32.916  28.736  1.00  0.00     0.039 C 
ENDBRANCH   5   6
ENDBRANCH   4   5
ENDBRANCH   1   4
BRANCH   2  10
ATOM     10  C   UNL     1      12.535  32.897  27.485  1.00  0.00     0.035 C 
BRANCH  10  11
ATOM     11  C   UNL     1      13.221  34.234  27.166  1.00  0.00     0.079 C 
BRANCH  11  12
ATOM     12  C   UNL     1      13.305  34.556  25.691  1.00  0.00     0.130 C 
ATOM     13  O   UNL     1      14.169  34.005  25.025  1.00  0.00    -0.300 OA
ATOM     14  C   UNL     1      12.373  35.519  25.008  1.00  0.00     0.087 C 
ENDBRANCH  11  12
ENDBRANCH  10  11
ENDBRANCH   2  10
TORSDOF 6
ENDMDL
MODEL 3
REMARK VINA RESULT:    -4.370     13.329     16.016
REMARK INTER + INTRA:          -6.408
REMARK INTER:                  -5.576
REMARK INTRA:                  -0.832
REMARK UNBOUND:                -0.506
REMARK SMILES CC(=O)CCC=C(C)CCC=C(C)C
REMARK SMILES IDX 7 1 6 2 8 3 9 4 10 5 11 6 13 7 12 8 14 9 5 10 4 11 2 12 3 13
REMARK SMILES IDX 1 14
REMARK H PARENT
REMARK Flexibility Score: inf
ROOT
ATOM      1  C   UNL     1      27.299  35.233  19.597  1.00  0.00    -0.077 C 
ATOM      2  C   UNL     1      27.436  36.447  20.177  1.00  0.00    -0.028 C 
ATOM      3  C   UNL     1      26.134  34.910  18.688  1.00  0.00     0.039 C 
ENDROOT
BRANCH   1   4
ATOM      4  C   UNL     1      28.330  34.159  19.879  1.00  0.00     0.034 C 
BRANCH   4   5
ATOM      5  C   UNL     1      29.061  34.402  21.207  1.00  0.00     0.032 C 
BRANCH   5   6
ATOM      6  C   UNL     1      28.848  33.265  22.179  1.00  0.00    -0.028 C 
ATOM      7  C   UNL     1      28.129  32.165  24.255  1.00  0.00     0.039 C 
ATOM      8  C   UNL     1      28.219  33.382  23.370  1.00  0.00    -0.080 C 
ATOM      9  C   UNL     1      27.595  34.680  23.824  1.00  0.00     0.039 C 
ENDBRANCH   5   6
ENDBRANCH   4   5
ENDBRANCH   1   4
BRANCH   2  10
ATOM     10  C   UNL     1      26.503  37.612  19.957  1.00  0.00     0.035 C 
BRANCH  10  11
ATOM     11  C   UNL     1      25.775  37.975  21.259  1.00  0.00     0.079 C 
BRANCH  11  12
ATOM     12  C   UNL     1      24.279  37.751  21.222  1.00  0.00     0.130 C 
ATOM     13  O   UNL     1      23.853  36.788  20.602  1.00  0.00    -0.300 OA
ATOM     14  C   UNL     1      23.298  38.655  21.915  1.00  0.00     0.087 C 
ENDBRANCH  11  12
ENDBRANCH  10  11
ENDBRANCH   2  10
TORSDOF 6
ENDMDL
MODEL 4
REMARK VINA RESULT:    -4.229     14.380     16.767
REMARK INTER + INTRA:          -6.218
REMARK INTER:                  -5.298
REMARK INTRA:                  -0.920
REMARK UNBOUND:                -0.506
REMARK SMILES CC(=O)CCC=C(C)CCC=C(C)C
REMARK SMILES IDX 7 1 6 2 8 3 9 4 10 5 11 6 13 7 12 8 14 9 5 10 4 11 2 12 3 13
REMARK SMILES IDX 1 14
REMARK H PARENT
REMARK Flexibility Score: inf
ROOT
ATOM      1  C   UNL     1      27.052  38.517  19.324  1.00  0.00    -0.077 C 
ATOM      2  C   UNL     1      26.201  37.572  18.864  1.00  0.00    -0.028 C 
ATOM      3  C   UNL     1      27.504  38.550  20.766  1.00  0.00     0.039 C 
ENDROOT
BRANCH   1   4
ATOM      4  C   UNL     1      27.552  39.585  18.373  1.00  0.00     0.034 C 
BRANCH   4   5
ATOM      5  C   UNL     1      28.361  40.669  19.101  1.00  0.00     0.032 C 
BRANCH   5   6
ATOM      6  C   UNL     1      27.875  42.057  18.754  1.00  0.00    -0.028 C 
ATOM      7  C   UNL     1      26.568  44.123  18.992  1.00  0.00     0.039 C 
ATOM      8  C   UNL     1      26.997  42.769  19.496  1.00  0.00    -0.080 C 
ATOM      9  C   UNL     1      26.455  42.257  20.809  1.00  0.00     0.039 C 
ENDBRANCH   5   6
ENDBRANCH   4   5
ENDBRANCH   1   4
BRANCH   2  10
ATOM     10  C   UNL     1      25.654  36.436  19.693  1.00  0.00     0.035 C 
BRANCH  10  11
ATOM     11  C   UNL     1      24.184  36.691  20.055  1.00  0.00     0.079 C 
BRANCH  11  12
ATOM     12  C   UNL     1      23.971  37.252  21.444  1.00  0.00     0.130 C 
ATOM     13  O   UNL     1      24.267  36.554  22.403  1.00  0.00    -0.300 OA
ATOM     14  C   UNL     1      23.417  38.627  21.696  1.00  0.00     0.087 C 
ENDBRANCH  11  12
ENDBRANCH  10  11
ENDBRANCH   2  10
TORSDOF 6
ENDMDL
MODEL 5
REMARK VINA RESULT:    -4.218     11.648     14.477
REMARK INTER + INTRA:          -6.204
REMARK INTER:                  -5.816
REMARK INTRA:                  -0.388
REMARK UNBOUND:                -0.506
REMARK SMILES CC(=O)CCC=C(C)CCC=C(C)C
REMARK SMILES IDX 7 1 6 2 8 3 9 4 10 5 11 6 13 7 12 8 14 9 5 10 4 11 2 12 3 13
REMARK SMILES IDX 1 14
REMARK H PARENT
REMARK Flexibility Score: inf
ROOT
ATOM      1  C   UNL     1      27.175  29.661  25.001  1.00  0.00    -0.077 C 
ATOM      2  C   UNL     1      27.564  30.927  24.725  1.00  0.00    -0.028 C 
ATOM      3  C   UNL     1      28.072  28.474  24.733  1.00  0.00     0.039 C 
ENDROOT
BRANCH   1   4
ATOM      4  C   UNL     1      25.794  29.424  25.578  1.00  0.00     0.034 C 
BRANCH   4   5
ATOM      5  C   UNL     1      25.838  28.522  26.819  1.00  0.00     0.032 C 
BRANCH   5   6
ATOM      6  C   UNL     1      24.509  28.492  27.537  1.00  0.00    -0.028 C 
ATOM      7  C   UNL     1      22.584  27.502  28.699  1.00  0.00     0.039 C 
ATOM      8  C   UNL     1      23.942  27.380  28.056  1.00  0.00    -0.080 C 
ATOM      9  C   UNL     1      24.632  26.037  28.023  1.00  0.00     0.039 C 
ENDBRANCH   5   6
ENDBRANCH   4   5
ENDBRANCH   1   4
BRANCH   2  10
ATOM     10  C   UNL     1      28.919  31.306  24.180  1.00  0.00     0.035 C 
BRANCH  10  11
ATOM     11  C   UNL     1      28.862  31.470  22.655  1.00  0.00     0.079 C 
BRANCH  11  12
ATOM     12  C   UNL     1      28.735  32.903  22.185  1.00  0.00     0.130 C 
ATOM     13  O   UNL     1      28.913  33.142  21.000  1.00  0.00    -0.300 OA
ATOM     14  C   UNL     1      28.399  34.041  23.108  1.00  0.00     0.087 C 
ENDBRANCH  11  12
ENDBRANCH  10  11
ENDBRANCH   2  10
TORSDOF 6
ENDMDL
MODEL 6
REMARK VINA RESULT:    -4.208     13.594     15.515
REMARK INTER + INTRA:          -6.190
REMARK INTER:                  -5.618
REMARK INTRA:                  -0.572
REMARK UNBOUND:                -0.506
REMARK SMILES CC(=O)CCC=C(C)CCC=C(C)C
REMARK SMILES IDX 7 1 6 2 8 3 9 4 10 5 11 6 13 7 12 8 14 9 5 10 4 11 2 12 3 13
REMARK SMILES IDX 1 14
REMARK H PARENT
REMARK Flexibility Score: inf
ROOT
ATOM      1  C   UNL     1      28.799  33.349  21.667  1.00  0.00    -0.077 C 
ATOM      2  C   UNL     1      29.069  32.086  22.068  1.00  0.00    -0.028 C 
ATOM      3  C   UNL     1      28.376  34.423  22.643  1.00  0.00     0.039 C 
ENDROOT
BRANCH   1   4
ATOM      4  C   UNL     1      28.906  33.693  20.195  1.00  0.00     0.034 C 
BRANCH   4   5
ATOM      5  C   UNL     1      28.601  35.175  19.930  1.00  0.00     0.032 C 
BRANCH   5   6
ATOM      6  C   UNL     1      27.279  35.356  19.222  1.00  0.00    -0.028 C 
ATOM      7  C   UNL     1      25.042  36.282  18.804  1.00  0.00     0.039 C 
ATOM      8  C   UNL     1      26.336  36.256  19.578  1.00  0.00    -0.080 C 
ATOM      9  C   UNL     1      26.548  37.238  20.706  1.00  0.00     0.039 C 
ENDBRANCH   5   6
ENDBRANCH   4   5
ENDBRANCH   1   4
BRANCH   2  10
ATOM     10  C   UNL     1      29.033  31.617  23.502  1.00  0.00     0.035 C 
BRANCH  10  11
ATOM     11  C   UNL     1      28.326  30.258  23.609  1.00  0.00     0.079 C 
BRANCH  11  12
ATOM     12  C   UNL     1      27.490  30.086  24.858  1.00  0.00     0.130 C 
ATOM     13  O   UNL     1      27.987  30.384  25.934  1.00  0.00    -0.300 OA
ATOM     14  C   UNL     1      26.078  29.569  24.834  1.00  0.00     0.087 C 
ENDBRANCH  11  12
ENDBRANCH  10  11
ENDBRANCH   2  10
TORSDOF 6
ENDMDL
MODEL 7
REMARK VINA RESULT:    -4.150     15.036     16.490
REMARK INTER + INTRA:          -6.111
REMARK INTER:                  -5.364
REMARK INTRA:                  -0.748
REMARK UNBOUND:                -0.506
REMARK SMILES CC(=O)CCC=C(C)CCC=C(C)C
REMARK SMILES IDX 7 1 6 2 8 3 9 4 10 5 11 6 13 7 12 8 14 9 5 10 4 11 2 12 3 13
REMARK SMILES IDX 1 14
REMARK H PARENT
REMARK Flexibility Score: inf
ROOT
ATOM      1  C   UNL     1      27.528  36.609  19.262  1.00  0.00    -0.077 C 
ATOM      2  C   UNL     1      28.443  35.619  19.367  1.00  0.00    -0.028 C 
ATOM      3  C   UNL     1      26.043  36.334  19.329  1.00  0.00     0.039 C 
ENDROOT
BRANCH   1   4
ATOM      4  C   UNL     1      28.002  38.033  19.053  1.00  0.00     0.034 C 
BRANCH   4   5
ATOM      5  C   UNL     1      26.834  38.993  18.785  1.00  0.00     0.032 C 
BRANCH   5   6
ATOM      6  C   UNL     1      26.883  40.200  19.693  1.00  0.00    -0.028 C 
ATOM      7  C   UNL     1      26.262  41.635  21.588  1.00  0.00     0.039 C 
ATOM      8  C   UNL     1      26.140  40.348  20.812  1.00  0.00    -0.080 C 
ATOM      9  C   UNL     1      25.216  39.262  21.312  1.00  0.00     0.039 C 
ENDBRANCH   5   6
ENDBRANCH   4   5
ENDBRANCH   1   4
BRANCH   2  10
ATOM     10  C   UNL     1      28.110  34.168  19.608  1.00  0.00     0.035 C 
BRANCH  10  11
ATOM     11  C   UNL     1      29.116  33.536  20.580  1.00  0.00     0.079 C 
BRANCH  11  12
ATOM     12  C   UNL     1      28.611  33.397  21.999  1.00  0.00     0.130 C 
ATOM     13  O   UNL     1      28.645  32.293  22.521  1.00  0.00    -0.300 OA
ATOM     14  C   UNL     1      28.074  34.555  22.795  1.00  0.00     0.087 C 
ENDBRANCH  11  12
ENDBRANCH  10  11
ENDBRANCH   2  10
TORSDOF 6
ENDMDL
MODEL 8
REMARK VINA RESULT:    -4.119     13.352     15.279
REMARK INTER + INTRA:          -6.069
REMARK INTER:                  -5.408
REMARK INTRA:                  -0.661
REMARK UNBOUND:                -0.506
REMARK SMILES CC(=O)CCC=C(C)CCC=C(C)C
REMARK SMILES IDX 7 1 6 2 8 3 9 4 10 5 11 6 13 7 12 8 14 9 5 10 4 11 2 12 3 13
REMARK SMILES IDX 1 14
REMARK H PARENT
REMARK Flexibility Score: inf
ROOT
ATOM      1  C   UNL     1      28.588  32.791  23.412  1.00  0.00    -0.077 C 
ATOM      2  C   UNL     1      28.572  32.214  24.635  1.00  0.00    -0.028 C 
ATOM      3  C   UNL     1      29.080  32.054  22.187  1.00  0.00     0.039 C 
ENDROOT
BRANCH   1   4
ATOM      4  C   UNL     1      28.118  34.224  23.267  1.00  0.00     0.034 C 
BRANCH   4   5
ATOM      5  C   UNL     1      28.895  34.975  22.176  1.00  0.00     0.032 C 
BRANCH   5   6
ATOM      6  C   UNL     1      27.983  35.834  21.330  1.00  0.00    -0.028 C 
ATOM      7  C   UNL     1      26.732  36.522  19.331  1.00  0.00     0.039 C 
ATOM      8  C   UNL     1      27.607  35.539  20.066  1.00  0.00    -0.080 C 
ATOM      9  C   UNL     1      28.020  34.256  19.385  1.00  0.00     0.039 C 
ENDBRANCH   5   6
ENDBRANCH   4   5
ENDBRANCH   1   4
BRANCH   2  10
ATOM     10  C   UNL     1      28.981  30.789  24.914  1.00  0.00     0.035 C 
BRANCH  10  11
ATOM     11  C   UNL     1      28.259  30.252  26.158  1.00  0.00     0.079 C 
BRANCH  11  12
ATOM     12  C   UNL     1      27.124  29.298  25.858  1.00  0.00     0.130 C 
ATOM     13  O   UNL     1      27.088  28.234  26.459  1.00  0.00    -0.300 OA
ATOM     14  C   UNL     1      26.041  29.600  24.860  1.00  0.00     0.087 C 
ENDBRANCH  11  12
ENDBRANCH  10  11
ENDBRANCH   2  10
TORSDOF 6
ENDMDL
MODEL 9
REMARK VINA RESULT:    -4.088     11.467     13.912
REMARK INTER + INTRA:          -6.028
REMARK INTER:                  -5.692
REMARK INTRA:                  -0.336
REMARK UNBOUND:                -0.506
REMARK SMILES CC(=O)CCC=C(C)CCC=C(C)C
REMARK SMILES IDX 7 1 6 2 8 3 9 4 10 5 11 6 13 7 12 8 14 9 5 10 4 11 2 12 3 13
REMARK SMILES IDX 1 14
REMARK H PARENT
REMARK Flexibility Score: inf
ROOT
ATOM      1  C   UNL     1      27.459  29.381  25.328  1.00  0.00    -0.077 C 
ATOM      2  C   UNL     1      27.238  28.759  26.508  1.00  0.00    -0.028 C 
ATOM      3  C   UNL     1      26.481  29.286  24.179  1.00  0.00     0.039 C 
ENDROOT
BRANCH   1   4
ATOM      4  C   UNL     1      28.732  30.182  25.144  1.00  0.00     0.034 C 
BRANCH   4   5
ATOM      5  C   UNL     1      28.445  31.675  24.930  1.00  0.00     0.032 C 
BRANCH   5   6
ATOM      6  C   UNL     1      28.750  32.107  23.515  1.00  0.00    -0.028 C 
ATOM      7  C   UNL     1      28.752  33.576  21.546  1.00  0.00     0.039 C 
ATOM      8  C   UNL     1      28.426  33.311  22.994  1.00  0.00    -0.080 C 
ATOM      9  C   UNL     1      27.768  34.392  23.819  1.00  0.00     0.039 C 
ENDBRANCH   5   6
ENDBRANCH   4   5
ENDBRANCH   1   4
BRANCH   2  10
ATOM     10  C   UNL     1      26.002  27.958  26.835  1.00  0.00     0.035 C 
BRANCH  10  11
ATOM     11  C   UNL     1      24.831  28.889  27.182  1.00  0.00     0.079 C 
BRANCH  11  12
ATOM     12  C   UNL     1      23.886  28.340  28.229  1.00  0.00     0.130 C 
ATOM     13  O   UNL     1      23.530  29.081  29.133  1.00  0.00    -0.300 OA
ATOM     14  C   UNL     1      23.365  26.931  28.204  1.00  0.00     0.087 C 
ENDBRANCH  11  12
ENDBRANCH  10  11
ENDBRANCH   2  10
TORSDOF 6
ENDMDL
