MODEL 1
REMARK VINA RESULT:    -3.880      0.000      0.000
REMARK INTER + INTRA:          -8.739
REMARK INTER:                  -7.055
REMARK INTRA:                  -1.684
REMARK UNBOUND:                -1.684
REMARK SMILES CCCCCCCCCCCCCCCC(=O)[O-]
REMARK SMILES IDX 9 1 10 2 11 3 12 4 13 5 14 6 15 7 16 8 17 9 18 10 8 11 7 12
REMARK SMILES IDX 6 13 5 14 4 15 3 16 2 17 1 18
REMARK H PARENT
REMARK Flexibility Score: inf
ROOT
ATOM      1  C   UNL     1      10.329 -15.718  -3.015  1.00  0.00     0.000 C 
ENDROOT
BRANCH   1   2
ATOM      2  C   UNL     1       9.783 -15.542  -4.443  1.00  0.00     0.000 C 
BRANCH   2   3
ATOM      3  C   UNL     1      10.754 -14.786  -5.369  1.00  0.00     0.000 C 
BRANCH   3   4
ATOM      4  C   UNL     1      11.495 -13.602  -4.718  1.00  0.00     0.000 C 
BRANCH   4   5
ATOM      5  C   UNL     1      11.277 -12.276  -5.465  1.00  0.00     0.000 C 
BRANCH   5   6
ATOM      6  C   UNL     1      12.543 -11.399  -5.503  1.00  0.00     0.006 C 
BRANCH   6   7
ATOM      7  C   UNL     1      12.512 -10.284  -6.560  1.00  0.00     0.053 C 
BRANCH   7   8
ATOM      8  C   UNL     1      11.585  -9.170  -6.177  1.00  0.00     0.041 C 
ATOM      9  O   UNL     1      11.912  -8.355  -5.276  1.00  0.00    -0.550 OA
ATOM     10  O   UNL     1      10.373  -9.015  -6.839  1.00  0.00    -0.550 OA
ENDBRANCH   7   8
ENDBRANCH   6   7
ENDBRANCH   5   6
ENDBRANCH   4   5
ENDBRANCH   3   4
ENDBRANCH   2   3
ENDBRANCH   1   2
BRANCH   1  11
ATOM     11  C   UNL     1      10.193 -17.162  -2.507  1.00  0.00     0.000 C 
BRANCH  11  12
ATOM     12  C   UNL     1      10.037 -18.177  -3.654  1.00  0.00    -0.000 C 
BRANCH  12  13
ATOM     13  C   UNL     1      11.313 -19.002  -3.889  1.00  0.00    -0.000 C 
BRANCH  13  14
ATOM     14  C   UNL     1      12.188 -18.437  -5.019  1.00  0.00    -0.000 C 
BRANCH  14  15
ATOM     15  C   UNL     1      13.665 -18.801  -4.803  1.00  0.00    -0.000 C 
BRANCH  15  16
ATOM     16  C   UNL     1      14.456 -17.693  -4.083  1.00  0.00    -0.000 C 
BRANCH  16  17
ATOM     17  C   UNL     1      13.736 -16.335  -4.000  1.00  0.00    -0.003 C 
ATOM     18  C   UNL     1      14.055 -15.567  -2.719  1.00  0.00     0.004 C 
ENDBRANCH  16  17
ENDBRANCH  15  16
ENDBRANCH  14  15
ENDBRANCH  13  14
ENDBRANCH  12  13
ENDBRANCH  11  12
ENDBRANCH   1  11
TORSDOF 14
ENDMDL
MODEL 2
REMARK VINA RESULT:    -3.802      3.572      7.137
REMARK INTER + INTRA:          -8.598
REMARK INTER:                  -7.532
REMARK INTRA:                  -1.066
REMARK UNBOUND:                -1.684
REMARK SMILES CCCCCCCCCCCCCCCC(=O)[O-]
REMARK SMILES IDX 9 1 10 2 11 3 12 4 13 5 14 6 15 7 16 8 17 9 18 10 8 11 7 12
REMARK SMILES IDX 6 13 5 14 4 15 3 16 2 17 1 18
REMARK H PARENT
REMARK Flexibility Score: inf
ROOT
ATOM      1  C   UNL     1       9.037 -15.745  -4.178  1.00  0.00     0.000 C 
ENDROOT
BRANCH   1   2
ATOM      2  C   UNL     1       9.004 -17.258  -3.900  1.00  0.00     0.000 C 
BRANCH   2   3
ATOM      3  C   UNL     1       9.935 -17.678  -2.748  1.00  0.00     0.000 C 
BRANCH   3   4
ATOM      4  C   UNL     1      10.816 -18.910  -3.030  1.00  0.00     0.000 C 
BRANCH   4   5
ATOM      5  C   UNL     1      11.545 -18.830  -4.382  1.00  0.00     0.000 C 
BRANCH   5   6
ATOM      6  C   UNL     1      12.778 -17.907  -4.340  1.00  0.00     0.006 C 
BRANCH   6   7
ATOM      7  C   UNL     1      14.102 -18.601  -4.697  1.00  0.00     0.053 C 
BRANCH   7   8
ATOM      8  C   UNL     1      15.264 -18.010  -3.959  1.00  0.00     0.041 C 
ATOM      9  O   UNL     1      15.165 -16.874  -3.427  1.00  0.00    -0.550 OA
ATOM     10  O   UNL     1      16.446 -18.730  -3.831  1.00  0.00    -0.550 OA
ENDBRANCH   7   8
ENDBRANCH   6   7
ENDBRANCH   5   6
ENDBRANCH   4   5
ENDBRANCH   3   4
ENDBRANCH   2   3
ENDBRANCH   1   2
BRANCH   1  11
ATOM     11  C   UNL     1      10.389 -15.109  -3.815  1.00  0.00     0.000 C 
BRANCH  11  12
ATOM     12  C   UNL     1      11.151 -14.602  -5.052  1.00  0.00    -0.000 C 
BRANCH  12  13
ATOM     13  C   UNL     1      12.003 -13.357  -4.753  1.00  0.00    -0.000 C 
BRANCH  13  14
ATOM     14  C   UNL     1      11.466 -12.090  -5.437  1.00  0.00    -0.000 C 
BRANCH  14  15
ATOM     15  C   UNL     1      12.594 -11.073  -5.668  1.00  0.00    -0.000 C 
BRANCH  15  16
ATOM     16  C   UNL     1      12.165  -9.894  -6.560  1.00  0.00    -0.000 C 
BRANCH  16  17
ATOM     17  C   UNL     1      10.920  -9.133  -6.070  1.00  0.00    -0.003 C 
ATOM     18  C   UNL     1       9.916  -8.847  -7.187  1.00  0.00     0.004 C 
ENDBRANCH  16  17
ENDBRANCH  15  16
ENDBRANCH  14  15
ENDBRANCH  13  14
ENDBRANCH  12  13
ENDBRANCH  11  12
ENDBRANCH   1  11
TORSDOF 14
ENDMDL
MODEL 3
REMARK VINA RESULT:    -3.655      1.157      3.402
REMARK INTER + INTRA:          -8.331
REMARK INTER:                  -6.853
REMARK INTRA:                  -1.478
REMARK UNBOUND:                -1.684
REMARK SMILES CCCCCCCCCCCCCCCC(=O)[O-]
REMARK SMILES IDX 9 1 10 2 11 3 12 4 13 5 14 6 15 7 16 8 17 9 18 10 8 11 7 12
REMARK SMILES IDX 6 13 5 14 4 15 3 16 2 17 1 18
REMARK H PARENT
REMARK Flexibility Score: inf
ROOT
ATOM      1  C   UNL     1      14.002 -16.664  -3.477  1.00  0.00     0.000 C 
ENDROOT
BRANCH   1   2
ATOM      2  C   UNL     1      13.020 -15.480  -3.434  1.00  0.00     0.000 C 
BRANCH   2   3
ATOM      3  C   UNL     1      12.284 -15.261  -4.768  1.00  0.00     0.000 C 
BRANCH   3   4
ATOM      4  C   UNL     1      11.333 -14.050  -4.803  1.00  0.00     0.000 C 
BRANCH   4   5
ATOM      5  C   UNL     1      12.077 -12.704  -4.819  1.00  0.00     0.000 C 
BRANCH   5   6
ATOM      6  C   UNL     1      11.430 -11.678  -5.769  1.00  0.00     0.006 C 
BRANCH   6   7
ATOM      7  C   UNL     1      12.369 -10.543  -6.211  1.00  0.00     0.053 C 
BRANCH   7   8
ATOM      8  C   UNL     1      11.683  -9.211  -6.207  1.00  0.00     0.041 C 
ATOM      9  O   UNL     1      10.621  -9.043  -6.861  1.00  0.00    -0.550 OA
ATOM     10  O   UNL     1      12.199  -8.165  -5.453  1.00  0.00    -0.550 OA
ENDBRANCH   7   8
ENDBRANCH   6   7
ENDBRANCH   5   6
ENDBRANCH   4   5
ENDBRANCH   3   4
ENDBRANCH   2   3
ENDBRANCH   1   2
BRANCH   1  11
ATOM     11  C   UNL     1      13.812 -17.541  -4.725  1.00  0.00     0.000 C 
BRANCH  11  12
ATOM     12  C   UNL     1      13.118 -18.877  -4.404  1.00  0.00    -0.000 C 
BRANCH  12  13
ATOM     13  C   UNL     1      11.592 -18.807  -4.576  1.00  0.00    -0.000 C 
BRANCH  13  14
ATOM     14  C   UNL     1      10.840 -18.855  -3.236  1.00  0.00    -0.000 C 
BRANCH  14  15
ATOM     15  C   UNL     1      10.031 -17.567  -3.016  1.00  0.00    -0.000 C 
BRANCH  15  16
ATOM     16  C   UNL     1       9.208 -17.159  -4.251  1.00  0.00    -0.000 C 
BRANCH  16  17
ATOM     17  C   UNL     1       8.284 -15.946  -4.039  1.00  0.00    -0.003 C 
ATOM     18  C   UNL     1       6.830 -16.228  -4.417  1.00  0.00     0.004 C 
ENDBRANCH  16  17
ENDBRANCH  15  16
ENDBRANCH  14  15
ENDBRANCH  13  14
ENDBRANCH  12  13
ENDBRANCH  11  12
ENDBRANCH   1  11
TORSDOF 14
ENDMDL
MODEL 4
REMARK VINA RESULT:    -3.586      2.755      6.548
REMARK INTER + INTRA:          -8.206
REMARK INTER:                  -6.620
REMARK INTRA:                  -1.586
REMARK UNBOUND:                -1.684
REMARK SMILES CCCCCCCCCCCCCCCC(=O)[O-]
REMARK SMILES IDX 9 1 10 2 11 3 12 4 13 5 14 6 15 7 16 8 17 9 18 10 8 11 7 12
REMARK SMILES IDX 6 13 5 14 4 15 3 16 2 17 1 18
REMARK H PARENT
REMARK Flexibility Score: inf
ROOT
ATOM      1  C   UNL     1      13.579 -16.310  -4.463  1.00  0.00     0.000 C 
ENDROOT
BRANCH   1   2
ATOM      2  C   UNL     1      14.087 -17.697  -4.035  1.00  0.00     0.000 C 
BRANCH   2   3
ATOM      3  C   UNL     1      13.416 -18.847  -4.808  1.00  0.00     0.000 C 
BRANCH   3   4
ATOM      4  C   UNL     1      11.881 -18.763  -4.911  1.00  0.00     0.000 C 
BRANCH   4   5
ATOM      5  C   UNL     1      11.181 -18.907  -3.549  1.00  0.00     0.000 C 
BRANCH   5   6
ATOM      6  C   UNL     1      10.158 -17.785  -3.286  1.00  0.00     0.006 C 
BRANCH   6   7
ATOM      7  C   UNL     1       9.516 -17.200  -4.555  1.00  0.00     0.053 C 
BRANCH   7   8
ATOM      8  C   UNL     1       8.391 -16.264  -4.236  1.00  0.00     0.041 C 
ATOM      9  O   UNL     1       8.632 -15.076  -3.896  1.00  0.00    -0.550 OA
ATOM     10  O   UNL     1       7.075 -16.694  -4.348  1.00  0.00    -0.550 OA
ENDBRANCH   7   8
ENDBRANCH   6   7
ENDBRANCH   5   6
ENDBRANCH   4   5
ENDBRANCH   3   4
ENDBRANCH   2   3
ENDBRANCH   1   2
BRANCH   1  11
ATOM     11  C   UNL     1      13.202 -15.425  -3.264  1.00  0.00     0.000 C 
BRANCH  11  12
ATOM     12  C   UNL     1      11.955 -14.566  -3.536  1.00  0.00    -0.000 C 
BRANCH  12  13
ATOM     13  C   UNL     1      11.832 -14.154  -5.013  1.00  0.00    -0.000 C 
BRANCH  13  14
ATOM     14  C   UNL     1      11.307 -12.721  -5.189  1.00  0.00    -0.000 C 
BRANCH  14  15
ATOM     15  C   UNL     1      12.466 -11.713  -5.222  1.00  0.00    -0.000 C 
BRANCH  15  16
ATOM     16  C   UNL     1      12.368 -10.724  -6.397  1.00  0.00    -0.000 C 
BRANCH  16  17
ATOM     17  C   UNL     1      11.766  -9.353  -6.040  1.00  0.00    -0.003 C 
ATOM     18  C   UNL     1      10.472  -9.054  -6.795  1.00  0.00     0.004 C 
ENDBRANCH  16  17
ENDBRANCH  15  16
ENDBRANCH  14  15
ENDBRANCH  13  14
ENDBRANCH  12  13
ENDBRANCH  11  12
ENDBRANCH   1  11
TORSDOF 14
ENDMDL
MODEL 5
REMARK VINA RESULT:    -3.542      1.071      1.812
REMARK INTER + INTRA:          -8.126
REMARK INTER:                  -6.875
REMARK INTRA:                  -1.251
REMARK UNBOUND:                -1.684
REMARK SMILES CCCCCCCCCCCCCCCC(=O)[O-]
REMARK SMILES IDX 9 1 10 2 11 3 12 4 13 5 14 6 15 7 16 8 17 9 18 10 8 11 7 12
REMARK SMILES IDX 6 13 5 14 4 15 3 16 2 17 1 18
REMARK H PARENT
REMARK Flexibility Score: inf
ROOT
ATOM      1  C   UNL     1      10.383 -15.230  -3.952  1.00  0.00     0.000 C 
ENDROOT
BRANCH   1   2
ATOM      2  C   UNL     1      10.742 -14.363  -5.171  1.00  0.00     0.000 C 
BRANCH   2   3
ATOM      3  C   UNL     1      11.631 -13.159  -4.810  1.00  0.00     0.000 C 
BRANCH   3   4
ATOM      4  C   UNL     1      11.291 -11.847  -5.542  1.00  0.00     0.000 C 
BRANCH   4   5
ATOM      5  C   UNL     1      12.536 -11.018  -5.897  1.00  0.00     0.000 C 
BRANCH   5   6
ATOM      6  C   UNL     1      12.191  -9.580  -6.329  1.00  0.00     0.006 C 
BRANCH   6   7
ATOM      7  C   UNL     1      10.802  -9.099  -5.878  1.00  0.00     0.053 C 
BRANCH   7   8
ATOM      8  C   UNL     1       9.907  -8.795  -7.041  1.00  0.00     0.041 C 
ATOM      9  O   UNL     1      10.390  -8.345  -8.112  1.00  0.00    -0.550 OA
ATOM     10  O   UNL     1       8.542  -9.042  -6.951  1.00  0.00    -0.550 OA
ENDBRANCH   7   8
ENDBRANCH   6   7
ENDBRANCH   5   6
ENDBRANCH   4   5
ENDBRANCH   3   4
ENDBRANCH   2   3
ENDBRANCH   1   2
BRANCH   1  11
ATOM     11  C   UNL     1       9.042 -15.961  -4.125  1.00  0.00     0.000 C 
BRANCH  11  12
ATOM     12  C   UNL     1       9.090 -17.410  -3.608  1.00  0.00    -0.000 C 
BRANCH  12  13
ATOM     13  C   UNL     1      10.399 -17.729  -2.867  1.00  0.00    -0.000 C 
BRANCH  13  14
ATOM     14  C   UNL     1      11.201 -18.858  -3.535  1.00  0.00    -0.000 C 
BRANCH  14  15
ATOM     15  C   UNL     1      12.029 -18.319  -4.712  1.00  0.00    -0.000 C 
BRANCH  15  16
ATOM     16  C   UNL     1      13.426 -17.832  -4.287  1.00  0.00    -0.000 C 
BRANCH  16  17
ATOM     17  C   UNL     1      13.594 -16.302  -4.248  1.00  0.00    -0.003 C 
ATOM     18  C   UNL     1      13.936 -15.774  -2.856  1.00  0.00     0.004 C 
ENDBRANCH  16  17
ENDBRANCH  15  16
ENDBRANCH  14  15
ENDBRANCH  13  14
ENDBRANCH  12  13
ENDBRANCH  11  12
ENDBRANCH   1  11
TORSDOF 14
ENDMDL
MODEL 6
REMARK VINA RESULT:    -3.507      3.579      7.635
REMARK INTER + INTRA:          -8.062
REMARK INTER:                  -7.099
REMARK INTRA:                  -0.963
REMARK UNBOUND:                -1.684
REMARK SMILES CCCCCCCCCCCCCCCC(=O)[O-]
REMARK SMILES IDX 9 1 10 2 11 3 12 4 13 5 14 6 15 7 16 8 17 9 18 10 8 11 7 12
REMARK SMILES IDX 6 13 5 14 4 15 3 16 2 17 1 18
REMARK H PARENT
REMARK Flexibility Score: inf
ROOT
ATOM      1  C   UNL     1      10.994 -14.551  -5.113  1.00  0.00     0.000 C 
ENDROOT
BRANCH   1   2
ATOM      2  C   UNL     1      10.445 -15.050  -3.766  1.00  0.00     0.000 C 
BRANCH   2   3
ATOM      3  C   UNL     1       9.094 -15.775  -3.899  1.00  0.00     0.000 C 
BRANCH   3   4
ATOM      4  C   UNL     1       9.176 -17.312  -3.971  1.00  0.00     0.000 C 
BRANCH   4   5
ATOM      5  C   UNL     1      10.046 -17.918  -2.857  1.00  0.00     0.000 C 
BRANCH   5   6
ATOM      6  C   UNL     1      11.106 -18.898  -3.396  1.00  0.00     0.006 C 
BRANCH   6   7
ATOM      7  C   UNL     1      11.793 -18.438  -4.692  1.00  0.00     0.053 C 
BRANCH   7   8
ATOM      8  C   UNL     1      13.219 -18.039  -4.462  1.00  0.00     0.041 C 
ATOM      9  O   UNL     1      14.151 -18.846  -4.713  1.00  0.00    -0.550 OA
ATOM     10  O   UNL     1      13.519 -16.763  -4.000  1.00  0.00    -0.550 OA
ENDBRANCH   7   8
ENDBRANCH   6   7
ENDBRANCH   5   6
ENDBRANCH   4   5
ENDBRANCH   3   4
ENDBRANCH   2   3
ENDBRANCH   1   2
BRANCH   1  11
ATOM     11  C   UNL     1      12.043 -13.439  -4.946  1.00  0.00     0.000 C 
BRANCH  11  12
ATOM     12  C   UNL     1      11.455 -12.036  -5.181  1.00  0.00    -0.000 C 
BRANCH  12  13
ATOM     13  C   UNL     1      12.453 -11.084  -5.860  1.00  0.00    -0.000 C 
BRANCH  13  14
ATOM     14  C   UNL     1      11.763  -9.911  -6.576  1.00  0.00    -0.000 C 
BRANCH  14  15
ATOM     15  C   UNL     1      11.436  -8.782  -5.587  1.00  0.00    -0.000 C 
BRANCH  15  16
ATOM     16  C   UNL     1      12.675  -7.963  -5.183  1.00  0.00    -0.000 C 
BRANCH  16  17
ATOM     17  C   UNL     1      12.575  -7.272  -3.811  1.00  0.00    -0.003 C 
ATOM     18  C   UNL     1      13.884  -7.309  -3.025  1.00  0.00     0.004 C 
ENDBRANCH  16  17
ENDBRANCH  15  16
ENDBRANCH  14  15
ENDBRANCH  13  14
ENDBRANCH  12  13
ENDBRANCH  11  12
ENDBRANCH   1  11
TORSDOF 14
ENDMDL
MODEL 7
REMARK VINA RESULT:    -3.443      2.908      6.532
REMARK INTER + INTRA:          -7.945
REMARK INTER:                  -6.565
REMARK INTRA:                  -1.380
REMARK UNBOUND:                -1.684
REMARK SMILES CCCCCCCCCCCCCCCC(=O)[O-]
REMARK SMILES IDX 9 1 10 2 11 3 12 4 13 5 14 6 15 7 16 8 17 9 18 10 8 11 7 12
REMARK SMILES IDX 6 13 5 14 4 15 3 16 2 17 1 18
REMARK H PARENT
REMARK Flexibility Score: inf
ROOT
ATOM      1  C   UNL     1      13.962 -16.159  -3.313  1.00  0.00     0.000 C 
ENDROOT
BRANCH   1   2
ATOM      2  C   UNL     1      13.860 -16.960  -4.623  1.00  0.00     0.000 C 
BRANCH   2   3
ATOM      3  C   UNL     1      13.542 -18.448  -4.394  1.00  0.00     0.000 C 
BRANCH   3   4
ATOM      4  C   UNL     1      12.066 -18.843  -4.590  1.00  0.00     0.000 C 
BRANCH   4   5
ATOM      5  C   UNL     1      11.522 -18.462  -5.976  1.00  0.00     0.000 C 
BRANCH   5   6
ATOM      6  C   UNL     1      10.522 -17.291  -5.922  1.00  0.00     0.006 C 
BRANCH   6   7
ATOM      7  C   UNL     1       9.266 -17.569  -5.080  1.00  0.00     0.053 C 
BRANCH   7   8
ATOM      8  C   UNL     1       9.126 -16.604  -3.943  1.00  0.00     0.041 C 
ATOM      9  O   UNL     1       8.304 -15.654  -4.016  1.00  0.00    -0.550 OA
ATOM     10  O   UNL     1       9.881 -16.774  -2.789  1.00  0.00    -0.550 OA
ENDBRANCH   7   8
ENDBRANCH   6   7
ENDBRANCH   5   6
ENDBRANCH   4   5
ENDBRANCH   3   4
ENDBRANCH   2   3
ENDBRANCH   1   2
BRANCH   1  11
ATOM     11  C   UNL     1      12.919 -15.033  -3.229  1.00  0.00     0.000 C 
BRANCH  11  12
ATOM     12  C   UNL     1      12.279 -14.721  -4.593  1.00  0.00    -0.000 C 
BRANCH  12  13
ATOM     13  C   UNL     1      11.115 -13.722  -4.485  1.00  0.00    -0.000 C 
BRANCH  13  14
ATOM     14  C   UNL     1      11.212 -12.583  -5.512  1.00  0.00    -0.000 C 
BRANCH  14  15
ATOM     15  C   UNL     1      12.479 -11.745  -5.282  1.00  0.00    -0.000 C 
BRANCH  15  16
ATOM     16  C   UNL     1      12.608 -10.570  -6.268  1.00  0.00    -0.000 C 
BRANCH  16  17
ATOM     17  C   UNL     1      11.787  -9.321  -5.897  1.00  0.00    -0.003 C 
ATOM     18  C   UNL     1      10.580  -9.107  -6.809  1.00  0.00     0.004 C 
ENDBRANCH  16  17
ENDBRANCH  15  16
ENDBRANCH  14  15
ENDBRANCH  13  14
ENDBRANCH  12  13
ENDBRANCH  11  12
ENDBRANCH   1  11
TORSDOF 14
ENDMDL
MODEL 8
REMARK VINA RESULT:    -3.033      3.325      5.651
REMARK INTER + INTRA:          -7.200
REMARK INTER:                  -5.305
REMARK INTRA:                  -1.895
REMARK UNBOUND:                -1.684
REMARK SMILES CCCCCCCCCCCCCCCC(=O)[O-]
REMARK SMILES IDX 9 1 10 2 11 3 12 4 13 5 14 6 15 7 16 8 17 9 18 10 8 11 7 12
REMARK SMILES IDX 6 13 5 14 4 15 3 16 2 17 1 18
REMARK H PARENT
REMARK Flexibility Score: inf
ROOT
ATOM      1  C   UNL     1       9.805 -15.059  -3.631  1.00  0.00     0.000 C 
ENDROOT
BRANCH   1   2
ATOM      2  C   UNL     1       8.601 -15.951  -3.982  1.00  0.00     0.000 C 
BRANCH   2   3
ATOM      3  C   UNL     1       8.861 -17.444  -3.712  1.00  0.00     0.000 C 
BRANCH   3   4
ATOM      4  C   UNL     1       9.898 -17.743  -2.613  1.00  0.00     0.000 C 
BRANCH   4   5
ATOM      5  C   UNL     1      11.273 -18.138  -3.176  1.00  0.00     0.000 C 
BRANCH   5   6
ATOM      6  C   UNL     1      11.174 -19.155  -4.329  1.00  0.00     0.006 C 
BRANCH   6   7
ATOM      7  C   UNL     1      11.845 -18.700  -5.635  1.00  0.00     0.053 C 
BRANCH   7   8
ATOM      8  C   UNL     1      10.863 -18.092  -6.590  1.00  0.00     0.041 C 
ATOM      9  O   UNL     1      10.742 -16.842  -6.664  1.00  0.00    -0.550 OA
ATOM     10  O   UNL     1      10.106 -18.908  -7.422  1.00  0.00    -0.550 OA
ENDBRANCH   7   8
ENDBRANCH   6   7
ENDBRANCH   5   6
ENDBRANCH   4   5
ENDBRANCH   3   4
ENDBRANCH   2   3
ENDBRANCH   1   2
BRANCH   1  11
ATOM     11  C   UNL     1      10.319 -14.262  -4.842  1.00  0.00     0.000 C 
BRANCH  11  12
ATOM     12  C   UNL     1      11.799 -13.865  -4.698  1.00  0.00    -0.000 C 
BRANCH  12  13
ATOM     13  C   UNL     1      12.713 -15.074  -4.441  1.00  0.00    -0.000 C 
BRANCH  13  14
ATOM     14  C   UNL     1      13.314 -15.075  -3.027  1.00  0.00    -0.000 C 
BRANCH  14  15
ATOM     15  C   UNL     1      14.353 -16.197  -2.874  1.00  0.00    -0.000 C 
BRANCH  15  16
ATOM     16  C   UNL     1      14.675 -16.900  -4.206  1.00  0.00    -0.000 C 
BRANCH  16  17
ATOM     17  C   UNL     1      15.062 -18.384  -4.076  1.00  0.00    -0.003 C 
ATOM     18  C   UNL     1      16.565 -18.597  -3.901  1.00  0.00     0.004 C 
ENDBRANCH  16  17
ENDBRANCH  15  16
ENDBRANCH  14  15
ENDBRANCH  13  14
ENDBRANCH  12  13
ENDBRANCH  11  12
ENDBRANCH   1  11
TORSDOF 14
ENDMDL
MODEL 9
REMARK VINA RESULT:    -3.022      4.257      5.960
REMARK INTER + INTRA:          -7.179
REMARK INTER:                  -5.148
REMARK INTRA:                  -2.031
REMARK UNBOUND:                -1.684
REMARK SMILES CCCCCCCCCCCCCCCC(=O)[O-]
REMARK SMILES IDX 9 1 10 2 11 3 12 4 13 5 14 6 15 7 16 8 17 9 18 10 8 11 7 12
REMARK SMILES IDX 6 13 5 14 4 15 3 16 2 17 1 18
REMARK H PARENT
REMARK Flexibility Score: inf
ROOT
ATOM      1  C   UNL     1      11.231 -16.059  -6.266  1.00  0.00     0.000 C 
ENDROOT
BRANCH   1   2
ATOM      2  C   UNL     1      10.479 -14.934  -5.535  1.00  0.00     0.000 C 
BRANCH   2   3
ATOM      3  C   UNL     1      11.359 -14.186  -4.517  1.00  0.00     0.000 C 
BRANCH   3   4
ATOM      4  C   UNL     1      12.798 -14.716  -4.376  1.00  0.00     0.000 C 
BRANCH   4   5
ATOM      5  C   UNL     1      13.112 -15.230  -2.962  1.00  0.00     0.000 C 
BRANCH   5   6
ATOM      6  C   UNL     1      14.281 -16.234  -2.939  1.00  0.00     0.006 C 
BRANCH   6   7
ATOM      7  C   UNL     1      14.624 -16.839  -4.310  1.00  0.00     0.053 C 
BRANCH   7   8
ATOM      8  C   UNL     1      15.220 -18.208  -4.187  1.00  0.00     0.041 C 
ATOM      9  O   UNL     1      14.603 -19.210  -4.633  1.00  0.00    -0.550 OA
ATOM     10  O   UNL     1      16.473 -18.373  -3.609  1.00  0.00    -0.550 OA
ENDBRANCH   7   8
ENDBRANCH   6   7
ENDBRANCH   5   6
ENDBRANCH   4   5
ENDBRANCH   3   4
ENDBRANCH   2   3
ENDBRANCH   1   2
BRANCH   1  11
ATOM     11  C   UNL     1      10.448 -17.382  -6.273  1.00  0.00     0.000 C 
BRANCH  11  12
ATOM     12  C   UNL     1      11.297 -18.571  -5.786  1.00  0.00    -0.000 C 
BRANCH  12  13
ATOM     13  C   UNL     1      11.625 -18.488  -4.287  1.00  0.00    -0.000 C 
BRANCH  13  14
ATOM     14  C   UNL     1      10.408 -18.778  -3.394  1.00  0.00    -0.000 C 
BRANCH  14  15
ATOM     15  C   UNL     1      10.176 -17.633  -2.396  1.00  0.00    -0.000 C 
BRANCH  15  16
ATOM     16  C   UNL     1       9.249 -16.535  -2.949  1.00  0.00    -0.000 C 
BRANCH  16  17
ATOM     17  C   UNL     1       8.086 -17.047  -3.817  1.00  0.00    -0.003 C 
ATOM     18  C   UNL     1       7.238 -15.921  -4.406  1.00  0.00     0.004 C 
ENDBRANCH  16  17
ENDBRANCH  15  16
ENDBRANCH  14  15
ENDBRANCH  13  14
ENDBRANCH  12  13
ENDBRANCH  11  12
ENDBRANCH   1  11
TORSDOF 14
ENDMDL
