MODEL 1
REMARK VINA RESULT:    -7.138      0.000      0.000
REMARK INTER + INTRA:         -11.577
REMARK INTER:                  -9.851
REMARK INTRA:                  -1.726
REMARK UNBOUND:                -1.726
REMARK SMILES CC[C@@H](CC[C@@H](C)[C@@H]1CC[C@@H]2[C@@H]3CC=C4C[C@H](O)CC[C@@]4(C)[C@@H]3CC[C@]21C)C(C)C
REMARK SMILES IDX 5 1 4 2 3 3 2 4 1 5 28 6 29 7 30 8 6 9 7 10 8 11 9 12 26 13
REMARK SMILES IDX 10 14 11 15 25 16 27 17 12 18 24 19 23 20 13 21 21 22 14 23
REMARK SMILES IDX 15 24 20 25 22 26 16 27 19 28 17 29 18 30
REMARK H PARENT 18 31
REMARK Flexibility Score: inf
ROOT
ATOM      1  C   UNL     1       4.108  49.070   7.316  1.00  0.00     0.004 C 
ENDROOT
BRANCH   1   2
ATOM      2  C   UNL     1       4.968  50.154   8.006  1.00  0.00     0.004 C 
BRANCH   2   3
ATOM      3  C   UNL     1       6.090  49.594   8.932  1.00  0.00    -0.009 C 
BRANCH   3   4
ATOM      4  C   UNL     1       6.298  48.081   8.626  1.00  0.00     0.000 C 
ATOM      5  C   UNL     1       7.454  47.464   9.424  1.00  0.00     0.004 C 
ENDBRANCH   3   4
BRANCH   3   6
ATOM      6  C   UNL     1       5.867  49.832  10.471  1.00  0.00    -0.014 C 
ATOM      7  C   UNL     1       4.407  50.153  10.854  1.00  0.00     0.007 C 
ATOM      8  C   UNL     1       6.823  50.884  11.065  1.00  0.00     0.007 C 
ENDBRANCH   3   6
ENDBRANCH   2   3
ENDBRANCH   1   2
BRANCH   1   9
ATOM      9  C   UNL     1       2.724  48.864   8.016  1.00  0.00    -0.011 C 
ATOM     10  C   UNL     1       1.696  49.877   7.494  1.00  0.00     0.008 C 
BRANCH   9  11
ATOM     11  C   UNL     1       2.145  47.404   8.053  1.00  0.00    -0.002 C 
ATOM     12  C   UNL     1       0.600  47.324   7.863  1.00  0.00     0.005 C 
ATOM     13  C   UNL     1       2.480  46.404   9.213  1.00  0.00    -0.026 C 
ATOM     14  C   UNL     1       0.118  46.099   8.650  1.00  0.00     0.005 C 
ATOM     15  C   UNL     1       1.400  45.338   8.930  1.00  0.00    -0.001 C 
ATOM     16  C   UNL     1       3.898  45.739   9.149  1.00  0.00     0.007 C 
ATOM     17  C   UNL     1       2.318  47.101  10.584  1.00  0.00     0.012 C 
ATOM     18  C   UNL     1       1.369  44.093   9.844  1.00  0.00     0.000 C 
ATOM     19  C   UNL     1       3.919  44.184   9.143  1.00  0.00     0.005 C 
ATOM     20  C   UNL     1       2.798  43.440   9.953  1.00  0.00     0.003 C 
ATOM     21  C   UNL     1       0.625  44.237  11.184  1.00  0.00     0.031 C 
ATOM     22  C   UNL     1       3.211  42.893  11.386  1.00  0.00    -0.008 C 
ATOM     23  C   UNL     1       0.775  42.983  11.995  1.00  0.00    -0.027 C 
ATOM     24  C   UNL     1       1.961  42.336  12.090  1.00  0.00    -0.065 C 
ATOM     25  C   UNL     1       4.302  41.776  11.198  1.00  0.00     0.014 C 
ATOM     26  C   UNL     1       3.823  43.986  12.293  1.00  0.00     0.016 C 
ATOM     27  C   UNL     1       2.054  41.189  13.076  1.00  0.00     0.063 C 
ATOM     28  C   UNL     1       4.424  40.799  12.371  1.00  0.00     0.033 C 
ATOM     29  C   UNL     1       3.074  40.137  12.646  1.00  0.00     0.118 C 
BRANCH  29  30
ATOM     30  O   UNL     1       3.215  39.192  13.677  1.00  0.00    -0.393 OA
ATOM     31  H   UNL     1       4.053  38.687  13.471  1.00  0.00     0.210 HD
ENDBRANCH  29  30
ENDBRANCH   9  11
ENDBRANCH   1   9
TORSDOF 7
ENDMDL
MODEL 2
REMARK VINA RESULT:    -5.587      1.127      2.019
REMARK INTER + INTRA:          -9.436
REMARK INTER:                 -10.139
REMARK INTRA:                   0.703
REMARK UNBOUND:                -1.726
REMARK SMILES CC[C@@H](CC[C@@H](C)[C@@H]1CC[C@@H]2[C@@H]3CC=C4C[C@H](O)CC[C@@]4(C)[C@@H]3CC[C@]21C)C(C)C
REMARK SMILES IDX 5 1 4 2 3 3 2 4 1 5 28 6 29 7 30 8 6 9 7 10 8 11 9 12 26 13
REMARK SMILES IDX 10 14 11 15 25 16 27 17 12 18 24 19 23 20 13 21 21 22 14 23
REMARK SMILES IDX 15 24 20 25 22 26 16 27 19 28 17 29 18 30
REMARK H PARENT 18 31
REMARK Flexibility Score: inf
ROOT
ATOM      1  C   UNL     1       3.884  49.543   7.700  1.00  0.00     0.004 C 
ENDROOT
BRANCH   1   2
ATOM      2  C   UNL     1       4.947  50.498   8.293  1.00  0.00     0.004 C 
BRANCH   2   3
ATOM      3  C   UNL     1       4.556  51.125   9.665  1.00  0.00    -0.009 C 
BRANCH   3   4
ATOM      4  C   UNL     1       5.450  50.510  10.782  1.00  0.00     0.000 C 
ATOM      5  C   UNL     1       6.945  50.556  10.442  1.00  0.00     0.004 C 
ENDBRANCH   3   4
BRANCH   3   6
ATOM      6  C   UNL     1       3.031  51.016  10.038  1.00  0.00    -0.014 C 
ATOM      7  C   UNL     1       2.675  49.772  10.878  1.00  0.00     0.007 C 
ATOM      8  C   UNL     1       2.100  51.125   8.816  1.00  0.00     0.007 C 
ENDBRANCH   3   6
ENDBRANCH   2   3
ENDBRANCH   1   2
BRANCH   1   9
ATOM      9  C   UNL     1       4.321  48.042   7.765  1.00  0.00    -0.011 C 
ATOM     10  C   UNL     1       5.435  47.846   8.803  1.00  0.00     0.008 C 
BRANCH   9  11
ATOM     11  C   UNL     1       3.185  46.965   7.911  1.00  0.00    -0.002 C 
ATOM     12  C   UNL     1       1.745  47.523   7.702  1.00  0.00     0.005 C 
ATOM     13  C   UNL     1       3.094  46.016   9.154  1.00  0.00    -0.026 C 
ATOM     14  C   UNL     1       0.811  46.681   8.578  1.00  0.00     0.005 C 
ATOM     15  C   UNL     1       1.662  45.480   8.941  1.00  0.00    -0.001 C 
ATOM     16  C   UNL     1       4.103  44.816   9.170  1.00  0.00     0.007 C 
ATOM     17  C   UNL     1       3.264  46.826  10.461  1.00  0.00     0.012 C 
ATOM     18  C   UNL     1       1.131  44.441   9.955  1.00  0.00     0.000 C 
ATOM     19  C   UNL     1       3.472  43.400   9.292  1.00  0.00     0.005 C 
ATOM     20  C   UNL     1       2.158  43.262  10.141  1.00  0.00     0.003 C 
ATOM     21  C   UNL     1       0.541  44.992  11.265  1.00  0.00     0.031 C 
ATOM     22  C   UNL     1       2.331  42.711  11.621  1.00  0.00    -0.008 C 
ATOM     23  C   UNL     1       0.168  43.860  12.179  1.00  0.00    -0.027 C 
ATOM     24  C   UNL     1       0.977  42.788  12.347  1.00  0.00    -0.065 C 
ATOM     25  C   UNL     1       2.853  41.229  11.544  1.00  0.00     0.014 C 
ATOM     26  C   UNL     1       3.361  43.518  12.445  1.00  0.00     0.016 C 
ATOM     27  C   UNL     1       0.601  41.791  13.425  1.00  0.00     0.063 C 
ATOM     28  C   UNL     1       2.577  40.391  12.796  1.00  0.00     0.033 C 
ATOM     29  C   UNL     1       1.079  40.378  13.100  1.00  0.00     0.118 C 
BRANCH  29  30
ATOM     30  O   UNL     1       0.831  39.549  14.209  1.00  0.00    -0.393 OA
ATOM     31  H   UNL     1       1.673  39.558  14.748  1.00  0.00     0.210 HD
ENDBRANCH  29  30
ENDBRANCH   9  11
ENDBRANCH   1   9
TORSDOF 7
ENDMDL
MODEL 3
REMARK VINA RESULT:    -4.995      1.025      1.687
REMARK INTER + INTRA:          -8.619
REMARK INTER:                  -8.161
REMARK INTRA:                  -0.458
REMARK UNBOUND:                -1.726
REMARK SMILES CC[C@@H](CC[C@@H](C)[C@@H]1CC[C@@H]2[C@@H]3CC=C4C[C@H](O)CC[C@@]4(C)[C@@H]3CC[C@]21C)C(C)C
REMARK SMILES IDX 5 1 4 2 3 3 2 4 1 5 28 6 29 7 30 8 6 9 7 10 8 11 9 12 26 13
REMARK SMILES IDX 10 14 11 15 25 16 27 17 12 18 24 19 23 20 13 21 21 22 14 23
REMARK SMILES IDX 15 24 20 25 22 26 16 27 19 28 17 29 18 30
REMARK H PARENT 18 31
REMARK Flexibility Score: inf
ROOT
ATOM      1  C   UNL     1       2.758  49.807   8.848  1.00  0.00     0.004 C 
ENDROOT
BRANCH   1   2
ATOM      2  C   UNL     1       4.160  50.461   8.806  1.00  0.00     0.004 C 
BRANCH   2   3
ATOM      3  C   UNL     1       5.207  49.803   9.755  1.00  0.00    -0.009 C 
BRANCH   3   4
ATOM      4  C   UNL     1       6.492  50.683   9.788  1.00  0.00     0.000 C 
ATOM      5  C   UNL     1       7.013  50.923  11.211  1.00  0.00     0.004 C 
ENDBRANCH   3   4
BRANCH   3   6
ATOM      6  C   UNL     1       5.557  48.305   9.425  1.00  0.00    -0.014 C 
ATOM      7  C   UNL     1       5.202  47.312  10.551  1.00  0.00     0.007 C 
ATOM      8  C   UNL     1       7.018  48.111   8.977  1.00  0.00     0.007 C 
ENDBRANCH   3   6
ENDBRANCH   2   3
ENDBRANCH   1   2
BRANCH   1   9
ATOM      9  C   UNL     1       2.446  48.973   7.562  1.00  0.00    -0.011 C 
ATOM     10  C   UNL     1       3.723  48.742   6.742  1.00  0.00     0.008 C 
BRANCH   9  11
ATOM     11  C   UNL     1       1.617  47.649   7.745  1.00  0.00    -0.002 C 
ATOM     12  C   UNL     1       0.073  47.850   7.698  1.00  0.00     0.005 C 
ATOM     13  C   UNL     1       1.878  46.661   8.934  1.00  0.00    -0.026 C 
ATOM     14  C   UNL     1      -0.543  46.777   8.602  1.00  0.00     0.005 C 
ATOM     15  C   UNL     1       0.600  45.804   8.817  1.00  0.00    -0.001 C 
ATOM     16  C   UNL     1       3.139  45.741   8.789  1.00  0.00     0.007 C 
ATOM     17  C   UNL     1       1.982  47.442  10.265  1.00  0.00     0.012 C 
ATOM     18  C   UNL     1       0.434  44.632   9.810  1.00  0.00     0.000 C 
ATOM     19  C   UNL     1       2.876  44.211   8.883  1.00  0.00     0.005 C 
ATOM     20  C   UNL     1       1.724  43.730   9.835  1.00  0.00     0.003 C 
ATOM     21  C   UNL     1      -0.135  44.977  11.198  1.00  0.00     0.031 C 
ATOM     22  C   UNL     1       2.170  43.184  11.259  1.00  0.00    -0.008 C 
ATOM     23  C   UNL     1      -0.136  43.757  12.073  1.00  0.00    -0.027 C 
ATOM     24  C   UNL     1       0.916  42.906  12.106  1.00  0.00    -0.065 C 
ATOM     25  C   UNL     1       3.017  41.876  11.049  1.00  0.00     0.014 C 
ATOM     26  C   UNL     1       3.057  44.186  12.035  1.00  0.00     0.016 C 
ATOM     27  C   UNL     1       0.896  41.810  13.152  1.00  0.00     0.063 C 
ATOM     28  C   UNL     1       3.075  40.951  12.269  1.00  0.00     0.033 C 
ATOM     29  C   UNL     1       1.661  40.566  12.703  1.00  0.00     0.118 C 
BRANCH  29  30
ATOM     30  O   UNL     1       1.728  39.662  13.778  1.00  0.00    -0.393 OA
ATOM     31  H   UNL     1       0.780  39.458  14.022  1.00  0.00     0.210 HD
ENDBRANCH  29  30
ENDBRANCH   9  11
ENDBRANCH   1   9
TORSDOF 7
ENDMDL
