MODEL 1
REMARK VINA RESULT:    -4.784      0.000      0.000
REMARK INTER + INTRA:          -7.430
REMARK INTER:                  -7.022
REMARK INTRA:                  -0.408
REMARK UNBOUND:                -0.408
REMARK SMILES O=C([O-])CCCCCCCC(=O)[O-]
REMARK SMILES IDX 7 1 6 2 5 3 4 4 2 5 1 6 3 7 8 8 9 9 10 10 11 11 12 12 13 13
REMARK H PARENT
REMARK Flexibility Score: inf
ROOT
ATOM      1  C   UNL     1      -8.483  36.582   5.557  1.00  0.00     0.000 C 
ENDROOT
BRANCH   1   2
ATOM      2  C   UNL     1      -8.028  37.971   6.039  1.00  0.00     0.000 C 
BRANCH   2   3
ATOM      3  C   UNL     1      -9.159  38.774   6.703  1.00  0.00     0.006 C 
BRANCH   3   4
ATOM      4  C   UNL     1     -10.304  39.076   5.728  1.00  0.00     0.053 C 
BRANCH   4   5
ATOM      5  C   UNL     1     -11.610  39.254   6.440  1.00  0.00     0.041 C 
ATOM      6  O   UNL     1     -11.887  38.543   7.441  1.00  0.00    -0.550 OA
ATOM      7  O   UNL     1     -12.534  40.183   5.980  1.00  0.00    -0.550 OA
ENDBRANCH   4   5
ENDBRANCH   3   4
ENDBRANCH   2   3
ENDBRANCH   1   2
BRANCH   1   8
ATOM      8  C   UNL     1      -9.173  35.710   6.627  1.00  0.00     0.000 C 
BRANCH   8   9
ATOM      9  C   UNL     1      -9.334  34.225   6.256  1.00  0.00     0.006 C 
BRANCH   9  10
ATOM     10  C   UNL     1      -8.277  33.745   5.254  1.00  0.00     0.053 C 
BRANCH  10  11
ATOM     11  C   UNL     1      -7.095  33.177   5.975  1.00  0.00     0.041 C 
ATOM     12  O   UNL     1      -5.952  33.682   5.813  1.00  0.00    -0.550 OA
ATOM     13  O   UNL     1      -7.247  32.061   6.786  1.00  0.00    -0.550 OA
ENDBRANCH  10  11
ENDBRANCH   9  10
ENDBRANCH   8   9
ENDBRANCH   1   8
TORSDOF 8
ENDMDL
MODEL 2
REMARK VINA RESULT:    -4.749      0.200      6.498
REMARK INTER + INTRA:          -7.379
REMARK INTER:                  -7.020
REMARK INTRA:                  -0.358
REMARK UNBOUND:                -0.408
REMARK SMILES O=C([O-])CCCCCCCC(=O)[O-]
REMARK SMILES IDX 7 1 6 2 5 3 4 4 2 5 1 6 3 7 8 8 9 9 10 10 11 11 12 12 13 13
REMARK H PARENT
REMARK Flexibility Score: inf
ROOT
ATOM      1  C   UNL     1      -8.471  36.547   5.683  1.00  0.00     0.000 C 
ENDROOT
BRANCH   1   2
ATOM      2  C   UNL     1      -9.258  35.799   6.775  1.00  0.00     0.000 C 
BRANCH   2   3
ATOM      3  C   UNL     1      -9.364  34.289   6.506  1.00  0.00     0.006 C 
BRANCH   3   4
ATOM      4  C   UNL     1      -8.349  33.814   5.459  1.00  0.00     0.053 C 
BRANCH   4   5
ATOM      5  C   UNL     1      -7.149  33.180   6.093  1.00  0.00     0.041 C 
ATOM      6  O   UNL     1      -5.996  33.617   5.842  1.00  0.00    -0.550 OA
ATOM      7  O   UNL     1      -7.302  32.087   6.937  1.00  0.00    -0.550 OA
ENDBRANCH   4   5
ENDBRANCH   3   4
ENDBRANCH   2   3
ENDBRANCH   1   2
BRANCH   1   8
ATOM      8  C   UNL     1      -8.185  38.033   5.982  1.00  0.00     0.000 C 
BRANCH   8   9
ATOM      9  C   UNL     1      -9.353  38.807   6.620  1.00  0.00     0.006 C 
BRANCH   9  10
ATOM     10  C   UNL     1     -10.499  39.071   5.636  1.00  0.00     0.053 C 
BRANCH  10  11
ATOM     11  C   UNL     1     -11.753  39.419   6.377  1.00  0.00     0.041 C 
ATOM     12  O   UNL     1     -12.490  40.355   5.970  1.00  0.00    -0.550 OA
ATOM     13  O   UNL     1     -12.080  38.741   7.543  1.00  0.00    -0.550 OA
ENDBRANCH  10  11
ENDBRANCH   9  10
ENDBRANCH   8   9
ENDBRANCH   1   8
TORSDOF 8
ENDMDL
MODEL 3
REMARK VINA RESULT:    -4.657      2.426      2.934
REMARK INTER + INTRA:          -7.243
REMARK INTER:                  -6.484
REMARK INTRA:                  -0.759
REMARK UNBOUND:                -0.408
REMARK SMILES O=C([O-])CCCCCCCC(=O)[O-]
REMARK SMILES IDX 7 1 6 2 5 3 4 4 2 5 1 6 3 7 8 8 9 9 10 10 11 11 12 12 13 13
REMARK H PARENT
REMARK Flexibility Score: inf
ROOT
ATOM      1  C   UNL     1      -8.817  36.668   5.338  1.00  0.00     0.000 C 
ENDROOT
BRANCH   1   2
ATOM      2  C   UNL     1      -8.089  37.842   6.018  1.00  0.00     0.000 C 
BRANCH   2   3
ATOM      3  C   UNL     1      -9.048  38.949   6.485  1.00  0.00     0.006 C 
BRANCH   3   4
ATOM      4  C   UNL     1     -10.381  38.920   5.727  1.00  0.00     0.053 C 
BRANCH   4   5
ATOM      5  C   UNL     1     -11.501  39.482   6.546  1.00  0.00     0.041 C 
ATOM      6  O   UNL     1     -12.485  40.030   5.983  1.00  0.00    -0.550 OA
ATOM      7  O   UNL     1     -11.447  39.429   7.933  1.00  0.00    -0.550 OA
ENDBRANCH   4   5
ENDBRANCH   3   4
ENDBRANCH   2   3
ENDBRANCH   1   2
BRANCH   1   8
ATOM      8  C   UNL     1      -8.340  35.264   5.766  1.00  0.00     0.000 C 
BRANCH   8   9
ATOM      9  C   UNL     1      -9.354  34.454   6.593  1.00  0.00     0.006 C 
BRANCH   9  10
ATOM     10  C   UNL     1     -10.626  35.247   6.917  1.00  0.00     0.053 C 
BRANCH  10  11
ATOM     11  C   UNL     1     -10.696  35.543   8.383  1.00  0.00     0.041 C 
ATOM     12  O   UNL     1     -10.118  36.559   8.852  1.00  0.00    -0.550 OA
ATOM     13  O   UNL     1     -11.359  34.671   9.236  1.00  0.00    -0.550 OA
ENDBRANCH  10  11
ENDBRANCH   9  10
ENDBRANCH   8   9
ENDBRANCH   1   8
TORSDOF 8
ENDMDL
MODEL 4
REMARK VINA RESULT:    -4.553      1.452      6.948
REMARK INTER + INTRA:          -7.090
REMARK INTER:                  -6.743
REMARK INTRA:                  -0.347
REMARK UNBOUND:                -0.408
REMARK SMILES O=C([O-])CCCCCCCC(=O)[O-]
REMARK SMILES IDX 7 1 6 2 5 3 4 4 2 5 1 6 3 7 8 8 9 9 10 10 11 11 12 12 13 13
REMARK H PARENT
REMARK Flexibility Score: inf
ROOT
ATOM      1  C   UNL     1      -9.093  34.613   5.905  1.00  0.00     0.000 C 
ENDROOT
BRANCH   1   2
ATOM      2  C   UNL     1      -7.888  34.236   5.023  1.00  0.00     0.000 C 
BRANCH   2   3
ATOM      3  C   UNL     1      -6.718  33.649   5.831  1.00  0.00     0.006 C 
BRANCH   3   4
ATOM      4  C   UNL     1      -7.091  32.329   6.516  1.00  0.00     0.053 C 
BRANCH   4   5
ATOM      5  C   UNL     1      -6.081  31.256   6.248  1.00  0.00     0.041 C 
ATOM      6  O   UNL     1      -4.878  31.421   6.581  1.00  0.00    -0.550 OA
ATOM      7  O   UNL     1      -6.461  30.086   5.603  1.00  0.00    -0.550 OA
ENDBRANCH   4   5
ENDBRANCH   3   4
ENDBRANCH   2   3
ENDBRANCH   1   2
BRANCH   1   8
ATOM      8  C   UNL     1      -9.023  36.015   6.545  1.00  0.00     0.000 C 
BRANCH   8   9
ATOM      9  C   UNL     1      -8.367  37.100   5.672  1.00  0.00     0.006 C 
BRANCH   9  10
ATOM     10  C   UNL     1      -8.540  38.510   6.247  1.00  0.00     0.053 C 
BRANCH  10  11
ATOM     11  C   UNL     1      -9.993  38.837   6.398  1.00  0.00     0.041 C 
ATOM     12  O   UNL     1     -10.690  39.109   5.384  1.00  0.00    -0.550 OA
ATOM     13  O   UNL     1     -10.565  38.891   7.662  1.00  0.00    -0.550 OA
ENDBRANCH  10  11
ENDBRANCH   9  10
ENDBRANCH   8   9
ENDBRANCH   1   8
TORSDOF 8
ENDMDL
MODEL 5
REMARK VINA RESULT:    -4.524      1.566      2.324
REMARK INTER + INTRA:          -7.048
REMARK INTER:                  -6.731
REMARK INTRA:                  -0.316
REMARK UNBOUND:                -0.408
REMARK SMILES O=C([O-])CCCCCCCC(=O)[O-]
REMARK SMILES IDX 7 1 6 2 5 3 4 4 2 5 1 6 3 7 8 8 9 9 10 10 11 11 12 12 13 13
REMARK H PARENT
REMARK Flexibility Score: inf
ROOT
ATOM      1  C   UNL     1      -8.866  34.532   6.240  1.00  0.00     0.000 C 
ENDROOT
BRANCH   1   2
ATOM      2  C   UNL     1      -9.291  35.991   6.489  1.00  0.00     0.000 C 
BRANCH   2   3
ATOM      3  C   UNL     1      -8.460  37.002   5.681  1.00  0.00     0.006 C 
BRANCH   3   4
ATOM      4  C   UNL     1      -8.511  38.410   6.287  1.00  0.00     0.053 C 
BRANCH   4   5
ATOM      5  C   UNL     1      -9.919  38.891   6.461  1.00  0.00     0.041 C 
ATOM      6  O   UNL     1     -10.389  39.070   7.615  1.00  0.00    -0.550 OA
ATOM      7  O   UNL     1     -10.722  39.114   5.350  1.00  0.00    -0.550 OA
ENDBRANCH   4   5
ENDBRANCH   3   4
ENDBRANCH   2   3
ENDBRANCH   1   2
BRANCH   1   8
ATOM      8  C   UNL     1      -7.655  34.353   5.302  1.00  0.00     0.000 C 
BRANCH   8   9
ATOM      9  C   UNL     1      -6.523  33.470   5.858  1.00  0.00     0.006 C 
BRANCH   9  10
ATOM     10  C   UNL     1      -6.999  32.063   6.237  1.00  0.00     0.053 C 
BRANCH  10  11
ATOM     11  C   UNL     1      -5.845  31.110   6.257  1.00  0.00     0.041 C 
ATOM     12  O   UNL     1      -4.726  31.480   6.700  1.00  0.00    -0.550 OA
ATOM     13  O   UNL     1      -5.993  29.829   5.742  1.00  0.00    -0.550 OA
ENDBRANCH  10  11
ENDBRANCH   9  10
ENDBRANCH   8   9
ENDBRANCH   1   8
TORSDOF 8
ENDMDL
MODEL 6
REMARK VINA RESULT:    -4.494      1.794      6.023
REMARK INTER + INTRA:          -7.003
REMARK INTER:                  -6.581
REMARK INTRA:                  -0.422
REMARK UNBOUND:                -0.408
REMARK SMILES O=C([O-])CCCCCCCC(=O)[O-]
REMARK SMILES IDX 7 1 6 2 5 3 4 4 2 5 1 6 3 7 8 8 9 9 10 10 11 11 12 12 13 13
REMARK H PARENT
REMARK Flexibility Score: inf
ROOT
ATOM      1  C   UNL     1     -10.020  37.373   5.414  1.00  0.00     0.000 C 
ENDROOT
BRANCH   1   2
ATOM      2  C   UNL     1      -8.620  36.749   5.558  1.00  0.00     0.000 C 
BRANCH   2   3
ATOM      3  C   UNL     1      -8.663  35.294   6.056  1.00  0.00     0.006 C 
BRANCH   3   4
ATOM      4  C   UNL     1      -7.818  34.358   5.183  1.00  0.00     0.053 C 
BRANCH   4   5
ATOM      5  C   UNL     1      -7.126  33.309   5.999  1.00  0.00     0.041 C 
ATOM      6  O   UNL     1      -5.876  33.175   5.929  1.00  0.00    -0.550 OA
ATOM      7  O   UNL     1      -7.863  32.460   6.813  1.00  0.00    -0.550 OA
ENDBRANCH   4   5
ENDBRANCH   3   4
ENDBRANCH   2   3
ENDBRANCH   1   2
BRANCH   1   8
ATOM      8  C   UNL     1     -10.147  38.824   5.926  1.00  0.00     0.000 C 
BRANCH   8   9
ATOM      9  C   UNL     1     -10.717  38.967   7.349  1.00  0.00     0.006 C 
BRANCH   9  10
ATOM     10  C   UNL     1     -11.531  37.744   7.788  1.00  0.00     0.053 C 
BRANCH  10  11
ATOM     11  C   UNL     1     -11.154  37.339   9.179  1.00  0.00     0.041 C 
ATOM     12  O   UNL     1     -10.279  36.454   9.366  1.00  0.00    -0.550 OA
ATOM     13  O   UNL     1     -11.806  37.905  10.267  1.00  0.00    -0.550 OA
ENDBRANCH  10  11
ENDBRANCH   9  10
ENDBRANCH   8   9
ENDBRANCH   1   8
TORSDOF 8
ENDMDL
MODEL 7
REMARK VINA RESULT:    -4.483      1.658      2.345
REMARK INTER + INTRA:          -6.987
REMARK INTER:                  -6.543
REMARK INTRA:                  -0.444
REMARK UNBOUND:                -0.408
REMARK SMILES O=C([O-])CCCCCCCC(=O)[O-]
REMARK SMILES IDX 7 1 6 2 5 3 4 4 2 5 1 6 3 7 8 8 9 9 10 10 11 11 12 12 13 13
REMARK H PARENT
REMARK Flexibility Score: inf
ROOT
ATOM      1  C   UNL     1      -9.164  38.481   6.399  1.00  0.00     0.000 C 
ENDROOT
BRANCH   1   2
ATOM      2  C   UNL     1     -10.378  39.042   5.637  1.00  0.00     0.000 C 
BRANCH   2   3
ATOM      3  C   UNL     1     -11.599  39.270   6.544  1.00  0.00     0.006 C 
BRANCH   3   4
ATOM      4  C   UNL     1     -11.345  38.809   7.985  1.00  0.00     0.053 C 
BRANCH   4   5
ATOM      5  C   UNL     1     -11.950  39.746   8.985  1.00  0.00     0.041 C 
ATOM      6  O   UNL     1     -12.134  39.371  10.173  1.00  0.00    -0.550 OA
ATOM      7  O   UNL     1     -12.338  41.023   8.599  1.00  0.00    -0.550 OA
ENDBRANCH   4   5
ENDBRANCH   3   4
ENDBRANCH   2   3
ENDBRANCH   1   2
BRANCH   1   8
ATOM      8  C   UNL     1      -8.533  37.214   5.786  1.00  0.00     0.000 C 
BRANCH   8   9
ATOM      9  C   UNL     1      -9.464  35.991   5.713  1.00  0.00     0.006 C 
BRANCH   9  10
ATOM     10  C   UNL     1      -8.910  34.776   6.465  1.00  0.00     0.053 C 
BRANCH  10  11
ATOM     11  C   UNL     1      -8.035  33.960   5.565  1.00  0.00     0.041 C 
ATOM     12  O   UNL     1      -8.547  33.221   4.683  1.00  0.00    -0.550 OA
ATOM     13  O   UNL     1      -6.657  33.979   5.734  1.00  0.00    -0.550 OA
ENDBRANCH  10  11
ENDBRANCH   9  10
ENDBRANCH   8   9
ENDBRANCH   1   8
TORSDOF 8
ENDMDL
MODEL 8
REMARK VINA RESULT:    -4.355      1.721      2.294
REMARK INTER + INTRA:          -6.800
REMARK INTER:                  -6.100
REMARK INTRA:                  -0.700
REMARK UNBOUND:                -0.408
REMARK SMILES O=C([O-])CCCCCCCC(=O)[O-]
REMARK SMILES IDX 7 1 6 2 5 3 4 4 2 5 1 6 3 7 8 8 9 9 10 10 11 11 12 12 13 13
REMARK H PARENT
REMARK Flexibility Score: inf
ROOT
ATOM      1  C   UNL     1      -8.787  37.435   5.834  1.00  0.00     0.000 C 
ENDROOT
BRANCH   1   2
ATOM      2  C   UNL     1      -9.113  38.808   6.450  1.00  0.00     0.000 C 
BRANCH   2   3
ATOM      3  C   UNL     1     -10.620  39.020   6.673  1.00  0.00     0.006 C 
BRANCH   3   4
ATOM      4  C   UNL     1     -11.016  38.854   8.146  1.00  0.00     0.053 C 
BRANCH   4   5
ATOM      5  C   UNL     1     -11.260  37.420   8.500  1.00  0.00     0.041 C 
ATOM      6  O   UNL     1     -12.233  36.799   7.997  1.00  0.00    -0.550 OA
ATOM      7  O   UNL     1     -10.430  36.775   9.409  1.00  0.00    -0.550 OA
ENDBRANCH   4   5
ENDBRANCH   3   4
ENDBRANCH   2   3
ENDBRANCH   1   2
BRANCH   1   8
ATOM      8  C   UNL     1      -9.976  36.719   5.162  1.00  0.00     0.000 C 
BRANCH   8   9
ATOM      9  C   UNL     1     -10.123  35.227   5.513  1.00  0.00     0.006 C 
BRANCH   9  10
ATOM     10  C   UNL     1      -8.958  34.698   6.359  1.00  0.00     0.053 C 
BRANCH  10  11
ATOM     11  C   UNL     1      -8.025  33.888   5.513  1.00  0.00     0.041 C 
ATOM     12  O   UNL     1      -6.793  34.145   5.505  1.00  0.00    -0.550 OA
ATOM     13  O   UNL     1      -8.525  32.883   4.697  1.00  0.00    -0.550 OA
ENDBRANCH  10  11
ENDBRANCH   9  10
ENDBRANCH   8   9
ENDBRANCH   1   8
TORSDOF 8
ENDMDL
MODEL 9
REMARK VINA RESULT:    -4.284      2.011      2.618
REMARK INTER + INTRA:          -6.696
REMARK INTER:                  -6.099
REMARK INTRA:                  -0.597
REMARK UNBOUND:                -0.408
REMARK SMILES O=C([O-])CCCCCCCC(=O)[O-]
REMARK SMILES IDX 7 1 6 2 5 3 4 4 2 5 1 6 3 7 8 8 9 9 10 10 11 11 12 12 13 13
REMARK H PARENT
REMARK Flexibility Score: inf
ROOT
ATOM      1  C   UNL     1     -11.051  35.103   8.207  1.00  0.00     0.000 C 
ENDROOT
BRANCH   1   2
ATOM      2  C   UNL     1     -11.522  36.482   7.710  1.00  0.00     0.000 C 
BRANCH   2   3
ATOM      3  C   UNL     1     -10.703  37.642   8.302  1.00  0.00     0.006 C 
BRANCH   3   4
ATOM      4  C   UNL     1     -10.827  38.924   7.469  1.00  0.00     0.053 C 
BRANCH   4   5
ATOM      5  C   UNL     1     -10.040  38.841   6.197  1.00  0.00     0.041 C 
ATOM      6  O   UNL     1     -10.623  38.617   5.104  1.00  0.00    -0.550 OA
ATOM      7  O   UNL     1      -8.658  38.982   6.222  1.00  0.00    -0.550 OA
ENDBRANCH   4   5
ENDBRANCH   3   4
ENDBRANCH   2   3
ENDBRANCH   1   2
BRANCH   1   8
ATOM      8  C   UNL     1     -10.142  34.329   7.229  1.00  0.00     0.000 C 
BRANCH   8   9
ATOM      9  C   UNL     1      -9.848  35.051   5.901  1.00  0.00     0.006 C 
BRANCH   9  10
ATOM     10  C   UNL     1      -8.354  35.323   5.692  1.00  0.00     0.053 C 
BRANCH  10  11
ATOM     11  C   UNL     1      -7.638  34.057   5.336  1.00  0.00     0.041 C 
ATOM     12  O   UNL     1      -8.230  33.156   4.685  1.00  0.00    -0.550 OA
ATOM     13  O   UNL     1      -6.334  33.853   5.767  1.00  0.00    -0.550 OA
ENDBRANCH  10  11
ENDBRANCH   9  10
ENDBRANCH   8   9
ENDBRANCH   1   8
TORSDOF 8
ENDMDL
