MODEL 1
REMARK VINA RESULT:    -4.695      0.000      0.000
REMARK INTER + INTRA:          -6.007
REMARK INTER:                  -5.793
REMARK INTRA:                  -0.214
REMARK UNBOUND:                -0.214
REMARK SMILES [NH3+][C@H](Cc1ccc(O)cc1)C(=O)[O-]
REMARK SMILES IDX 3 1 2 2 1 3 11 7 12 8 13 9 4 10 5 11 10 12 6 13 9 14 7 15
REMARK SMILES IDX 8 16
REMARK H PARENT 1 4 1 5 1 6 8 17
REMARK Flexibility Score: inf
ROOT
ATOM      1  C   UNL     1      13.521 -17.903  33.080  1.00  0.00     0.107 C 
ENDROOT
BRANCH   1   2
ATOM      2  C   UNL     1      13.949 -17.433  31.675  1.00  0.00     0.232 C 
BRANCH   2   3
ATOM      3  N   UNL     1      15.341 -17.811  31.409  1.00  0.00    -0.350 N 
ATOM      4  H   UNL     1      15.400 -18.458  30.589  1.00  0.00     0.345 HD
ATOM      5  H   UNL     1      15.746 -18.286  32.249  1.00  0.00     0.345 HD
ATOM      6  H   UNL     1      15.910 -16.955  31.213  1.00  0.00     0.345 HD
ENDBRANCH   2   3
BRANCH   2   7
ATOM      7  C   UNL     1      13.045 -18.012  30.616  1.00  0.00     0.099 C 
ATOM      8  O   UNL     1      13.520 -18.749  29.712  1.00  0.00    -0.544 OA
ATOM      9  O   UNL     1      11.685 -17.722  30.622  1.00  0.00    -0.544 OA
ENDBRANCH   2   7
ENDBRANCH   1   2
BRANCH   1  10
ATOM     10  C   UNL     1      13.337 -16.742  34.026  1.00  0.00    -0.041 A 
ATOM     11  C   UNL     1      14.293 -16.477  35.021  1.00  0.00     0.008 A 
ATOM     12  C   UNL     1      12.185 -15.943  33.949  1.00  0.00     0.008 A 
ATOM     13  C   UNL     1      14.105 -15.418  35.915  1.00  0.00     0.046 A 
ATOM     14  C   UNL     1      11.999 -14.885  34.843  1.00  0.00     0.046 A 
ATOM     15  C   UNL     1      12.957 -14.619  35.827  1.00  0.00     0.115 A 
BRANCH  15  16
ATOM     16  O   UNL     1      12.759 -13.561  36.712  1.00  0.00    -0.508 OA
ATOM     17  H   UNL     1      13.146 -13.574  37.648  1.00  0.00     0.293 HD
ENDBRANCH  15  16
ENDBRANCH   1  10
TORSDOF 5
ENDMDL
MODEL 2
REMARK VINA RESULT:    -4.650      4.077      7.824
REMARK INTER + INTRA:          -5.950
REMARK INTER:                  -5.706
REMARK INTRA:                  -0.244
REMARK UNBOUND:                -0.214
REMARK SMILES [NH3+][C@H](Cc1ccc(O)cc1)C(=O)[O-]
REMARK SMILES IDX 3 1 2 2 1 3 11 7 12 8 13 9 4 10 5 11 10 12 6 13 9 14 7 15
REMARK SMILES IDX 8 16
REMARK H PARENT 1 4 1 5 1 6 8 17
REMARK Flexibility Score: inf
ROOT
ATOM      1  C   UNL     1      11.625 -19.382  29.322  1.00  0.00     0.107 C 
ENDROOT
BRANCH   1   2
ATOM      2  C   UNL     1      11.883 -18.047  30.050  1.00  0.00     0.232 C 
BRANCH   2   3
ATOM      3  N   UNL     1      10.707 -17.656  30.836  1.00  0.00    -0.350 N 
ATOM      4  H   UNL     1      10.185 -16.883  30.362  1.00  0.00     0.345 HD
ATOM      5  H   UNL     1      11.006 -17.335  31.786  1.00  0.00     0.345 HD
ATOM      6  H   UNL     1      10.071 -18.479  30.955  1.00  0.00     0.345 HD
ENDBRANCH   2   3
BRANCH   2   7
ATOM      7  C   UNL     1      13.092 -18.147  30.944  1.00  0.00     0.099 C 
ATOM      8  O   UNL     1      14.210 -18.468  30.462  1.00  0.00    -0.544 OA
ATOM      9  O   UNL     1      12.978 -17.903  32.308  1.00  0.00    -0.544 OA
ENDBRANCH   2   7
ENDBRANCH   1   2
BRANCH   1  10
ATOM     10  C   UNL     1      11.812 -19.251  27.831  1.00  0.00    -0.041 A 
ATOM     11  C   UNL     1      11.582 -20.350  26.986  1.00  0.00     0.008 A 
ATOM     12  C   UNL     1      12.262 -18.041  27.278  1.00  0.00     0.008 A 
ATOM     13  C   UNL     1      11.784 -20.234  25.607  1.00  0.00     0.046 A 
ATOM     14  C   UNL     1      12.463 -17.927  25.899  1.00  0.00     0.046 A 
ATOM     15  C   UNL     1      12.225 -19.020  25.061  1.00  0.00     0.115 A 
BRANCH  15  16
ATOM     16  O   UNL     1      12.430 -18.893  23.689  1.00  0.00    -0.508 OA
ATOM     17  H   UNL     1      12.176 -18.048  23.191  1.00  0.00     0.293 HD
ENDBRANCH  15  16
ENDBRANCH   1  10
TORSDOF 5
ENDMDL
MODEL 3
REMARK VINA RESULT:    -4.649      3.627      4.817
REMARK INTER + INTRA:          -5.949
REMARK INTER:                  -5.721
REMARK INTRA:                  -0.228
REMARK UNBOUND:                -0.214
REMARK SMILES [NH3+][C@H](Cc1ccc(O)cc1)C(=O)[O-]
REMARK SMILES IDX 3 1 2 2 1 3 11 7 12 8 13 9 4 10 5 11 10 12 6 13 9 14 7 15
REMARK SMILES IDX 8 16
REMARK H PARENT 1 4 1 5 1 6 8 17
REMARK Flexibility Score: inf
ROOT
ATOM      1  C   UNL     1      11.483 -18.903  28.823  1.00  0.00     0.107 C 
ENDROOT
BRANCH   1   2
ATOM      2  C   UNL     1      12.418 -19.506  27.754  1.00  0.00     0.232 C 
BRANCH   2   3
ATOM      3  N   UNL     1      12.174 -20.946  27.612  1.00  0.00    -0.350 N 
ATOM      4  H   UNL     1      12.488 -21.461  28.467  1.00  0.00     0.345 HD
ATOM      5  H   UNL     1      12.693 -21.313  26.781  1.00  0.00     0.345 HD
ATOM      6  H   UNL     1      11.153 -21.120  27.462  1.00  0.00     0.345 HD
ENDBRANCH   2   3
BRANCH   2   7
ATOM      7  C   UNL     1      12.233 -18.817  26.427  1.00  0.00     0.099 C 
ATOM      8  O   UNL     1      12.451 -17.581  26.320  1.00  0.00    -0.544 OA
ATOM      9  O   UNL     1      11.804 -19.536  25.317  1.00  0.00    -0.544 OA
ENDBRANCH   2   7
ENDBRANCH   1   2
BRANCH   1  10
ATOM     10  C   UNL     1      12.236 -18.517  30.072  1.00  0.00    -0.041 A 
ATOM     11  C   UNL     1      13.622 -18.289  30.025  1.00  0.00     0.008 A 
ATOM     12  C   UNL     1      11.564 -18.426  31.302  1.00  0.00     0.008 A 
ATOM     13  C   UNL     1      14.321 -17.960  31.191  1.00  0.00     0.046 A 
ATOM     14  C   UNL     1      12.266 -18.097  32.465  1.00  0.00     0.046 A 
ATOM     15  C   UNL     1      13.643 -17.862  32.414  1.00  0.00     0.115 A 
BRANCH  15  16
ATOM     16  O   UNL     1      14.330 -17.536  33.581  1.00  0.00    -0.508 OA
ATOM     17  H   UNL     1      15.307 -17.267  33.564  1.00  0.00     0.293 HD
ENDBRANCH  15  16
ENDBRANCH   1  10
TORSDOF 5
ENDMDL
MODEL 4
REMARK VINA RESULT:    -4.636      3.253      7.129
REMARK INTER + INTRA:          -5.934
REMARK INTER:                  -5.692
REMARK INTRA:                  -0.242
REMARK UNBOUND:                -0.214
REMARK SMILES [NH3+][C@H](Cc1ccc(O)cc1)C(=O)[O-]
REMARK SMILES IDX 3 1 2 2 1 3 11 7 12 8 13 9 4 10 5 11 10 12 6 13 9 14 7 15
REMARK SMILES IDX 8 16
REMARK H PARENT 1 4 1 5 1 6 8 17
REMARK Flexibility Score: inf
ROOT
ATOM      1  C   UNL     1      13.100 -17.560  29.641  1.00  0.00     0.107 C 
ENDROOT
BRANCH   1   2
ATOM      2  C   UNL     1      13.565 -18.368  30.871  1.00  0.00     0.232 C 
BRANCH   2   3
ATOM      3  N   UNL     1      14.998 -18.165  31.106  1.00  0.00    -0.350 N 
ATOM      4  H   UNL     1      15.503 -18.003  30.204  1.00  0.00     0.345 HD
ATOM      5  H   UNL     1      15.403 -19.006  31.578  1.00  0.00     0.345 HD
ATOM      6  H   UNL     1      15.142 -17.339  31.733  1.00  0.00     0.345 HD
ENDBRANCH   2   3
BRANCH   2   7
ATOM      7  C   UNL     1      12.779 -17.980  32.097  1.00  0.00     0.099 C 
ATOM      8  O   UNL     1      11.520 -17.963  32.063  1.00  0.00    -0.544 OA
ATOM      9  O   UNL     1      13.439 -17.620  33.267  1.00  0.00    -0.544 OA
ENDBRANCH   2   7
ENDBRANCH   1   2
BRANCH   1  10
ATOM     10  C   UNL     1      12.539 -18.455  28.564  1.00  0.00    -0.041 A 
ATOM     11  C   UNL     1      12.269 -19.807  28.831  1.00  0.00     0.008 A 
ATOM     12  C   UNL     1      12.323 -17.953  27.270  1.00  0.00     0.008 A 
ATOM     13  C   UNL     1      11.777 -20.641  27.822  1.00  0.00     0.046 A 
ATOM     14  C   UNL     1      11.830 -18.788  26.263  1.00  0.00     0.046 A 
ATOM     15  C   UNL     1      11.555 -20.131  26.535  1.00  0.00     0.115 A 
BRANCH  15  16
ATOM     16  O   UNL     1      11.065 -20.952  25.521  1.00  0.00    -0.508 OA
ATOM     17  H   UNL     1      11.615 -21.715  25.145  1.00  0.00     0.293 HD
ENDBRANCH  15  16
ENDBRANCH   1  10
TORSDOF 5
ENDMDL
MODEL 5
REMARK VINA RESULT:    -4.584      3.483      7.502
REMARK INTER + INTRA:          -5.869
REMARK INTER:                  -5.646
REMARK INTRA:                  -0.224
REMARK UNBOUND:                -0.214
REMARK SMILES [NH3+][C@H](Cc1ccc(O)cc1)C(=O)[O-]
REMARK SMILES IDX 3 1 2 2 1 3 11 7 12 8 13 9 4 10 5 11 10 12 6 13 9 14 7 15
REMARK SMILES IDX 8 16
REMARK H PARENT 1 4 1 5 1 6 8 17
REMARK Flexibility Score: inf
ROOT
ATOM      1  C   UNL     1      12.751 -17.627  29.309  1.00  0.00     0.107 C 
ENDROOT
BRANCH   1   2
ATOM      2  C   UNL     1      13.176 -18.452  30.542  1.00  0.00     0.232 C 
BRANCH   2   3
ATOM      3  N   UNL     1      14.625 -18.358  30.747  1.00  0.00    -0.350 N 
ATOM      4  H   UNL     1      14.969 -19.154  31.333  1.00  0.00     0.345 HD
ATOM      5  H   UNL     1      14.858 -17.456  31.225  1.00  0.00     0.345 HD
ATOM      6  H   UNL     1      15.117 -18.373  29.823  1.00  0.00     0.345 HD
ENDBRANCH   2   3
BRANCH   2   7
ATOM      7  C   UNL     1      12.447 -17.987  31.777  1.00  0.00     0.099 C 
ATOM      8  O   UNL     1      11.232 -17.665  31.710  1.00  0.00    -0.544 OA
ATOM      9  O   UNL     1      13.115 -17.895  32.992  1.00  0.00    -0.544 OA
ENDBRANCH   2   7
ENDBRANCH   1   2
BRANCH   1  10
ATOM     10  C   UNL     1      12.378 -18.511  28.146  1.00  0.00    -0.041 A 
ATOM     11  C   UNL     1      12.365 -17.998  26.838  1.00  0.00     0.008 A 
ATOM     12  C   UNL     1      11.997 -19.845  28.365  1.00  0.00     0.008 A 
ATOM     13  C   UNL     1      11.991 -18.813  25.765  1.00  0.00     0.046 A 
ATOM     14  C   UNL     1      11.623 -20.658  27.290  1.00  0.00     0.046 A 
ATOM     15  C   UNL     1      11.619 -20.146  25.989  1.00  0.00     0.115 A 
BRANCH  15  16
ATOM     16  O   UNL     1      11.244 -20.966  24.928  1.00  0.00    -0.508 OA
ATOM     17  H   UNL     1      11.090 -20.593  23.998  1.00  0.00     0.293 HD
ENDBRANCH  15  16
ENDBRANCH   1  10
TORSDOF 5
ENDMDL
MODEL 6
REMARK VINA RESULT:    -4.479      3.526      4.664
REMARK INTER + INTRA:          -5.740
REMARK INTER:                  -5.593
REMARK INTRA:                  -0.147
REMARK UNBOUND:                -0.214
REMARK SMILES [NH3+][C@H](Cc1ccc(O)cc1)C(=O)[O-]
REMARK SMILES IDX 3 1 2 2 1 3 11 7 12 8 13 9 4 10 5 11 10 12 6 13 9 14 7 15
REMARK SMILES IDX 8 16
REMARK H PARENT 1 4 1 5 1 6 8 17
REMARK Flexibility Score: inf
ROOT
ATOM      1  C   UNL     1      12.377 -18.294  28.509  1.00  0.00     0.107 C 
ENDROOT
BRANCH   1   2
ATOM      2  C   UNL     1      11.360 -19.450  28.409  1.00  0.00     0.232 C 
BRANCH   2   3
ATOM      3  N   UNL     1      10.015 -18.929  28.146  1.00  0.00    -0.350 N 
ATOM      4  H   UNL     1       9.290 -19.523  28.610  1.00  0.00     0.345 HD
ATOM      5  H   UNL     1       9.837 -18.912  27.115  1.00  0.00     0.345 HD
ATOM      6  H   UNL     1       9.938 -17.949  28.506  1.00  0.00     0.345 HD
ENDBRANCH   2   3
BRANCH   2   7
ATOM      7  C   UNL     1      11.758 -20.424  27.330  1.00  0.00     0.099 C 
ATOM      8  O   UNL     1      12.280 -21.529  27.636  1.00  0.00    -0.544 OA
ATOM      9  O   UNL     1      11.568 -20.103  25.991  1.00  0.00    -0.544 OA
ENDBRANCH   2   7
ENDBRANCH   1   2
BRANCH   1  10
ATOM     10  C   UNL     1      12.811 -18.051  29.933  1.00  0.00    -0.041 A 
ATOM     11  C   UNL     1      14.138 -18.295  30.324  1.00  0.00     0.008 A 
ATOM     12  C   UNL     1      11.879 -17.621  30.892  1.00  0.00     0.008 A 
ATOM     13  C   UNL     1      14.530 -18.096  31.652  1.00  0.00     0.046 A 
ATOM     14  C   UNL     1      12.273 -17.422  32.219  1.00  0.00     0.046 A 
ATOM     15  C   UNL     1      13.597 -17.658  32.603  1.00  0.00     0.115 A 
BRANCH  15  16
ATOM     16  O   UNL     1      13.975 -17.457  33.928  1.00  0.00    -0.508 OA
ATOM     17  H   UNL     1      13.888 -18.191  34.621  1.00  0.00     0.293 HD
ENDBRANCH  15  16
ENDBRANCH   1  10
TORSDOF 5
ENDMDL
MODEL 7
REMARK VINA RESULT:    -4.356      3.288      4.416
REMARK INTER + INTRA:          -5.588
REMARK INTER:                  -5.398
REMARK INTRA:                  -0.190
REMARK UNBOUND:                -0.214
REMARK SMILES [NH3+][C@H](Cc1ccc(O)cc1)C(=O)[O-]
REMARK SMILES IDX 3 1 2 2 1 3 11 7 12 8 13 9 4 10 5 11 10 12 6 13 9 14 7 15
REMARK SMILES IDX 8 16
REMARK H PARENT 1 4 1 5 1 6 8 17
REMARK Flexibility Score: inf
ROOT
ATOM      1  C   UNL     1      14.207 -16.017  36.886  1.00  0.00     0.107 C 
ENDROOT
BRANCH   1   2
ATOM      2  C   UNL     1      14.476 -15.892  35.372  1.00  0.00     0.232 C 
BRANCH   2   3
ATOM      3  N   UNL     1      15.904 -16.070  35.088  1.00  0.00    -0.350 N 
ATOM      4  H   UNL     1      16.144 -17.085  35.018  1.00  0.00     0.345 HD
ATOM      5  H   UNL     1      16.474 -15.635  35.850  1.00  0.00     0.345 HD
ATOM      6  H   UNL     1      16.148 -15.595  34.187  1.00  0.00     0.345 HD
ENDBRANCH   2   3
BRANCH   2   7
ATOM      7  C   UNL     1      13.664 -16.899  34.598  1.00  0.00     0.099 C 
ATOM      8  O   UNL     1      12.688 -17.478  35.142  1.00  0.00    -0.544 OA
ATOM      9  O   UNL     1      13.999 -17.208  33.284  1.00  0.00    -0.544 OA
ENDBRANCH   2   7
ENDBRANCH   1   2
BRANCH   1  10
ATOM     10  C   UNL     1      14.602 -14.766  37.630  1.00  0.00    -0.041 A 
ATOM     11  C   UNL     1      15.531 -14.827  38.682  1.00  0.00     0.008 A 
ATOM     12  C   UNL     1      14.009 -13.534  37.306  1.00  0.00     0.008 A 
ATOM     13  C   UNL     1      15.873 -13.669  39.389  1.00  0.00     0.046 A 
ATOM     14  C   UNL     1      14.352 -12.379  38.014  1.00  0.00     0.046 A 
ATOM     15  C   UNL     1      15.284 -12.441  39.055  1.00  0.00     0.115 A 
BRANCH  15  16
ATOM     16  O   UNL     1      15.616 -11.282  39.752  1.00  0.00    -0.508 OA
ATOM     17  H   UNL     1      15.216 -10.384  39.508  1.00  0.00     0.293 HD
ENDBRANCH  15  16
ENDBRANCH   1  10
TORSDOF 5
ENDMDL
MODEL 8
REMARK VINA RESULT:    -4.327      3.524      5.055
REMARK INTER + INTRA:          -5.553
REMARK INTER:                  -5.358
REMARK INTRA:                  -0.195
REMARK UNBOUND:                -0.214
REMARK SMILES [NH3+][C@H](Cc1ccc(O)cc1)C(=O)[O-]
REMARK SMILES IDX 3 1 2 2 1 3 11 7 12 8 13 9 4 10 5 11 10 12 6 13 9 14 7 15
REMARK SMILES IDX 8 16
REMARK H PARENT 1 4 1 5 1 6 8 17
REMARK Flexibility Score: inf
ROOT
ATOM      1  C   UNL     1      12.743 -19.264  28.341  1.00  0.00     0.107 C 
ENDROOT
BRANCH   1   2
ATOM      2  C   UNL     1      11.711 -18.689  27.350  1.00  0.00     0.232 C 
BRANCH   2   3
ATOM      3  N   UNL     1      12.388 -18.053  26.215  1.00  0.00    -0.350 N 
ATOM      4  H   UNL     1      13.253 -17.557  26.530  1.00  0.00     0.345 HD
ATOM      5  H   UNL     1      11.745 -17.364  25.759  1.00  0.00     0.345 HD
ATOM      6  H   UNL     1      12.646 -18.777  25.504  1.00  0.00     0.345 HD
ENDBRANCH   2   3
BRANCH   2   7
ATOM      7  C   UNL     1      10.779 -19.767  26.858  1.00  0.00     0.099 C 
ATOM      8  O   UNL     1       9.533 -19.635  26.989  1.00  0.00    -0.544 OA
ATOM      9  O   UNL     1      11.288 -20.921  26.274  1.00  0.00    -0.544 OA
ENDBRANCH   2   7
ENDBRANCH   1   2
BRANCH   1  10
ATOM     10  C   UNL     1      12.736 -18.519  29.652  1.00  0.00    -0.041 A 
ATOM     11  C   UNL     1      11.551 -17.936  30.133  1.00  0.00     0.008 A 
ATOM     12  C   UNL     1      13.925 -18.363  30.383  1.00  0.00     0.008 A 
ATOM     13  C   UNL     1      11.555 -17.221  31.334  1.00  0.00     0.046 A 
ATOM     14  C   UNL     1      13.926 -17.648  31.584  1.00  0.00     0.046 A 
ATOM     15  C   UNL     1      12.743 -17.076  32.064  1.00  0.00     0.115 A 
BRANCH  15  16
ATOM     16  O   UNL     1      12.759 -16.365  33.262  1.00  0.00    -0.508 OA
ATOM     17  H   UNL     1      12.250 -15.495  33.369  1.00  0.00     0.293 HD
ENDBRANCH  15  16
ENDBRANCH   1  10
TORSDOF 5
ENDMDL
MODEL 9
REMARK VINA RESULT:    -4.281     11.894     13.371
REMARK INTER + INTRA:          -5.495
REMARK INTER:                  -5.311
REMARK INTRA:                  -0.184
REMARK UNBOUND:                -0.214
REMARK SMILES [NH3+][C@H](Cc1ccc(O)cc1)C(=O)[O-]
REMARK SMILES IDX 3 1 2 2 1 3 11 7 12 8 13 9 4 10 5 11 10 12 6 13 9 14 7 15
REMARK SMILES IDX 8 16
REMARK H PARENT 1 4 1 5 1 6 8 17
REMARK Flexibility Score: inf
ROOT
ATOM      1  C   UNL     1       0.350 -12.655  36.982  1.00  0.00     0.107 C 
ENDROOT
BRANCH   1   2
ATOM      2  C   UNL     1      -0.048 -13.872  37.841  1.00  0.00     0.232 C 
BRANCH   2   3
ATOM      3  N   UNL     1      -1.123 -13.513  38.773  1.00  0.00    -0.350 N 
ATOM      4  H   UNL     1      -2.058 -13.762  38.375  1.00  0.00     0.345 HD
ATOM      5  H   UNL     1      -1.096 -12.485  38.966  1.00  0.00     0.345 HD
ATOM      6  H   UNL     1      -0.990 -14.019  39.680  1.00  0.00     0.345 HD
ENDBRANCH   2   3
BRANCH   2   7
ATOM      7  C   UNL     1      -0.481 -15.025  36.972  1.00  0.00     0.099 C 
ATOM      8  O   UNL     1       0.381 -15.773  36.438  1.00  0.00    -0.544 OA
ATOM      9  O   UNL     1      -1.831 -15.260  36.740  1.00  0.00    -0.544 OA
ENDBRANCH   2   7
ENDBRANCH   1   2
BRANCH   1  10
ATOM     10  C   UNL     1       1.736 -12.163  37.314  1.00  0.00    -0.041 A 
ATOM     11  C   UNL     1       2.776 -12.280  36.376  1.00  0.00     0.008 A 
ATOM     12  C   UNL     1       2.011 -11.626  38.583  1.00  0.00     0.008 A 
ATOM     13  C   UNL     1       4.067 -11.850  36.699  1.00  0.00     0.046 A 
ATOM     14  C   UNL     1       3.302 -11.197  38.902  1.00  0.00     0.046 A 
ATOM     15  C   UNL     1       4.333 -11.306  37.964  1.00  0.00     0.115 A 
BRANCH  15  16
ATOM     16  O   UNL     1       5.615 -10.875  38.296  1.00  0.00    -0.508 OA
ATOM     17  H   UNL     1       5.825  -9.893  38.434  1.00  0.00     0.293 HD
ENDBRANCH  15  16
ENDBRANCH   1  10
TORSDOF 5
ENDMDL
