MODEL 1
REMARK VINA RESULT:    -3.662      0.000      0.000
REMARK INTER + INTRA:          -4.337
REMARK INTER:                  -4.304
REMARK INTRA:                  -0.033
REMARK UNBOUND:                -0.033
REMARK SMILES O=C([O-])CCC(=O)[O-]
REMARK SMILES IDX 4 1 2 2 1 3 3 4 5 5 6 6 7 7 8 8
REMARK H PARENT
REMARK Flexibility Score: inf
ROOT
ATOM      1  C   UNL     1      13.996  -1.599  39.872  1.00  0.00     0.059 C 
ENDROOT
BRANCH   1   2
ATOM      2  C   UNL     1      14.139  -0.561  40.940  1.00  0.00     0.042 C 
ATOM      3  O   UNL     1      13.256  -0.440  41.829  1.00  0.00    -0.550 OA
ATOM      4  O   UNL     1      15.272   0.241  40.982  1.00  0.00    -0.550 OA
ENDBRANCH   1   2
BRANCH   1   5
ATOM      5  C   UNL     1      14.092  -3.003  40.475  1.00  0.00     0.059 C 
BRANCH   5   6
ATOM      6  C   UNL     1      13.535  -4.018  39.527  1.00  0.00     0.042 C 
ATOM      7  O   UNL     1      12.289  -4.149  39.399  1.00  0.00    -0.550 OA
ATOM      8  O   UNL     1      14.391  -4.854  38.821  1.00  0.00    -0.550 OA
ENDBRANCH   5   6
ENDBRANCH   1   5
TORSDOF 3
ENDMDL
MODEL 2
REMARK VINA RESULT:    -3.657      5.668      8.176
REMARK INTER + INTRA:          -4.332
REMARK INTER:                  -4.305
REMARK INTRA:                  -0.027
REMARK UNBOUND:                -0.033
REMARK SMILES O=C([O-])CCC(=O)[O-]
REMARK SMILES IDX 4 1 2 2 1 3 3 4 5 5 6 6 7 7 8 8
REMARK H PARENT
REMARK Flexibility Score: inf
ROOT
ATOM      1  C   UNL     1      18.316   2.760  41.681  1.00  0.00     0.059 C 
ENDROOT
BRANCH   1   2
ATOM      2  C   UNL     1      17.049   2.533  40.920  1.00  0.00     0.042 C 
ATOM      3  O   UNL     1      16.371   3.512  40.511  1.00  0.00    -0.550 OA
ATOM      4  O   UNL     1      16.639   1.240  40.621  1.00  0.00    -0.550 OA
ENDBRANCH   1   2
BRANCH   1   5
ATOM      5  C   UNL     1      19.510   2.826  40.724  1.00  0.00     0.059 C 
BRANCH   5   6
ATOM      6  C   UNL     1      20.754   3.199  41.466  1.00  0.00     0.042 C 
ATOM      7  O   UNL     1      21.629   2.329  41.714  1.00  0.00    -0.550 OA
ATOM      8  O   UNL     1      20.926   4.498  41.926  1.00  0.00    -0.550 OA
ENDBRANCH   5   6
ENDBRANCH   1   5
TORSDOF 3
ENDMDL
MODEL 3
REMARK VINA RESULT:    -3.605      1.082      4.108
REMARK INTER + INTRA:          -4.271
REMARK INTER:                  -4.161
REMARK INTRA:                  -0.110
REMARK UNBOUND:                -0.033
REMARK SMILES O=C([O-])CCC(=O)[O-]
REMARK SMILES IDX 4 1 2 2 1 3 3 4 5 5 6 6 7 7 8 8
REMARK H PARENT
REMARK Flexibility Score: inf
ROOT
ATOM      1  C   UNL     1      14.150  -2.864  40.469  1.00  0.00     0.059 C 
ENDROOT
BRANCH   1   2
ATOM      2  C   UNL     1      13.639  -3.951  39.579  1.00  0.00     0.042 C 
ATOM      3  O   UNL     1      14.442  -4.741  39.017  1.00  0.00    -0.550 OA
ATOM      4  O   UNL     1      12.271  -4.124  39.407  1.00  0.00    -0.550 OA
ENDBRANCH   1   2
BRANCH   1   5
ATOM      5  C   UNL     1      13.860  -1.491  39.857  1.00  0.00     0.059 C 
BRANCH   5   6
ATOM      6  C   UNL     1      12.716  -0.835  40.562  1.00  0.00     0.042 C 
ATOM      7  O   UNL     1      12.847  -0.434  41.748  1.00  0.00    -0.550 OA
ATOM      8  O   UNL     1      11.487  -0.709  39.926  1.00  0.00    -0.550 OA
ENDBRANCH   5   6
ENDBRANCH   1   5
TORSDOF 3
ENDMDL
MODEL 4
REMARK VINA RESULT:    -3.601      0.373      4.266
REMARK INTER + INTRA:          -4.265
REMARK INTER:                  -4.239
REMARK INTRA:                  -0.027
REMARK UNBOUND:                -0.033
REMARK SMILES O=C([O-])CCC(=O)[O-]
REMARK SMILES IDX 4 1 2 2 1 3 3 4 5 5 6 6 7 7 8 8
REMARK H PARENT
REMARK Flexibility Score: inf
ROOT
ATOM      1  C   UNL     1      14.021  -2.781  40.510  1.00  0.00     0.059 C 
ENDROOT
BRANCH   1   2
ATOM      2  C   UNL     1      13.570  -3.897  39.623  1.00  0.00     0.042 C 
ATOM      3  O   UNL     1      14.414  -4.665  39.090  1.00  0.00    -0.550 OA
ATOM      4  O   UNL     1      12.214  -4.121  39.422  1.00  0.00    -0.550 OA
ENDBRANCH   1   2
BRANCH   1   5
ATOM      5  C   UNL     1      13.921  -1.441  39.778  1.00  0.00     0.059 C 
BRANCH   5   6
ATOM      6  C   UNL     1      14.172  -0.309  40.722  1.00  0.00     0.042 C 
ATOM      7  O   UNL     1      13.212   0.239  41.325  1.00  0.00    -0.550 OA
ATOM      8  O   UNL     1      15.462   0.175  40.900  1.00  0.00    -0.550 OA
ENDBRANCH   5   6
ENDBRANCH   1   5
TORSDOF 3
ENDMDL
MODEL 5
REMARK VINA RESULT:    -3.564      1.124      1.972
REMARK INTER + INTRA:          -4.222
REMARK INTER:                  -4.122
REMARK INTRA:                  -0.100
REMARK UNBOUND:                -0.033
REMARK SMILES O=C([O-])CCC(=O)[O-]
REMARK SMILES IDX 4 1 2 2 1 3 3 4 5 5 6 6 7 7 8 8
REMARK H PARENT
REMARK Flexibility Score: inf
ROOT
ATOM      1  C   UNL     1      13.718  -1.436  39.867  1.00  0.00     0.059 C 
ENDROOT
BRANCH   1   2
ATOM      2  C   UNL     1      12.581  -0.836  40.631  1.00  0.00     0.042 C 
ATOM      3  O   UNL     1      12.777  -0.332  41.768  1.00  0.00    -0.550 OA
ATOM      4  O   UNL     1      11.312  -0.789  40.067  1.00  0.00    -0.550 OA
ENDBRANCH   1   2
BRANCH   1   5
ATOM      5  C   UNL     1      14.110  -2.789  40.465  1.00  0.00     0.059 C 
BRANCH   5   6
ATOM      6  C   UNL     1      13.603  -3.906  39.610  1.00  0.00     0.042 C 
ATOM      7  O   UNL     1      14.411  -4.682  39.035  1.00  0.00    -0.550 OA
ATOM      8  O   UNL     1      12.238  -4.062  39.407  1.00  0.00    -0.550 OA
ENDBRANCH   5   6
ENDBRANCH   1   5
TORSDOF 3
ENDMDL
MODEL 6
REMARK VINA RESULT:    -3.472      6.929      8.012
REMARK INTER + INTRA:          -4.114
REMARK INTER:                  -4.068
REMARK INTRA:                  -0.047
REMARK UNBOUND:                -0.033
REMARK SMILES O=C([O-])CCC(=O)[O-]
REMARK SMILES IDX 4 1 2 2 1 3 3 4 5 5 6 6 7 7 8 8
REMARK H PARENT
REMARK Flexibility Score: inf
ROOT
ATOM      1  C   UNL     1      18.042   3.261  41.472  1.00  0.00     0.059 C 
ENDROOT
BRANCH   1   2
ATOM      2  C   UNL     1      19.333   2.809  40.867  1.00  0.00     0.042 C 
ATOM      3  O   UNL     1      19.331   2.076  39.843  1.00  0.00    -0.550 OA
ATOM      4  O   UNL     1      20.540   3.235  41.406  1.00  0.00    -0.550 OA
ENDBRANCH   1   2
BRANCH   1   5
ATOM      5  C   UNL     1      16.988   3.480  40.383  1.00  0.00     0.059 C 
BRANCH   5   6
ATOM      6  C   UNL     1      16.163   4.689  40.689  1.00  0.00     0.042 C 
ATOM      7  O   UNL     1      16.687   5.834  40.677  1.00  0.00    -0.550 OA
ATOM      8  O   UNL     1      14.825   4.549  41.036  1.00  0.00    -0.550 OA
ENDBRANCH   5   6
ENDBRANCH   1   5
TORSDOF 3
ENDMDL
MODEL 7
REMARK VINA RESULT:    -3.456      6.514      7.456
REMARK INTER + INTRA:          -4.095
REMARK INTER:                  -4.000
REMARK INTRA:                  -0.095
REMARK UNBOUND:                -0.033
REMARK SMILES O=C([O-])CCC(=O)[O-]
REMARK SMILES IDX 4 1 2 2 1 3 3 4 5 5 6 6 7 7 8 8
REMARK H PARENT
REMARK Flexibility Score: inf
ROOT
ATOM      1  C   UNL     1      16.816   2.778  40.808  1.00  0.00     0.059 C 
ENDROOT
BRANCH   1   2
ATOM      2  C   UNL     1      16.096   4.087  40.881  1.00  0.00     0.042 C 
ATOM      3  O   UNL     1      16.682   5.152  40.553  1.00  0.00    -0.550 OA
ATOM      4  O   UNL     1      14.762   4.126  41.266  1.00  0.00    -0.550 OA
ENDBRANCH   1   2
BRANCH   1   5
ATOM      5  C   UNL     1      18.033   2.783  41.736  1.00  0.00     0.059 C 
BRANCH   5   6
ATOM      6  C   UNL     1      19.298   2.752  40.940  1.00  0.00     0.042 C 
ATOM      7  O   UNL     1      19.288   2.346  39.748  1.00  0.00    -0.550 OA
ATOM      8  O   UNL     1      20.500   3.127  41.528  1.00  0.00    -0.550 OA
ENDBRANCH   5   6
ENDBRANCH   1   5
TORSDOF 3
ENDMDL
MODEL 8
REMARK VINA RESULT:    -3.407      1.645      4.138
REMARK INTER + INTRA:          -4.038
REMARK INTER:                  -3.935
REMARK INTRA:                  -0.103
REMARK UNBOUND:                -0.033
REMARK SMILES O=C([O-])CCC(=O)[O-]
REMARK SMILES IDX 4 1 2 2 1 3 3 4 5 5 6 6 7 7 8 8
REMARK H PARENT
REMARK Flexibility Score: inf
ROOT
ATOM      1  C   UNL     1      13.694  -1.235  39.763  1.00  0.00     0.059 C 
ENDROOT
BRANCH   1   2
ATOM      2  C   UNL     1      14.038  -2.599  40.271  1.00  0.00     0.042 C 
ATOM      3  O   UNL     1      14.647  -2.733  41.365  1.00  0.00    -0.550 OA
ATOM      4  O   UNL     1      13.643  -3.725  39.560  1.00  0.00    -0.550 OA
ENDBRANCH   1   2
BRANCH   1   5
ATOM      5  C   UNL     1      13.911  -0.186  40.857  1.00  0.00     0.059 C 
BRANCH   5   6
ATOM      6  C   UNL     1      12.599   0.351  41.335  1.00  0.00     0.042 C 
ATOM      7  O   UNL     1      11.725  -0.429  41.797  1.00  0.00    -0.550 OA
ATOM      8  O   UNL     1      12.321   1.708  41.225  1.00  0.00    -0.550 OA
ENDBRANCH   5   6
ENDBRANCH   1   5
TORSDOF 3
ENDMDL
MODEL 9
REMARK VINA RESULT:    -3.336      1.882      2.461
REMARK INTER + INTRA:          -3.954
REMARK INTER:                  -3.901
REMARK INTRA:                  -0.053
REMARK UNBOUND:                -0.033
REMARK SMILES O=C([O-])CCC(=O)[O-]
REMARK SMILES IDX 4 1 2 2 1 3 3 4 5 5 6 6 7 7 8 8
REMARK H PARENT
REMARK Flexibility Score: inf
ROOT
ATOM      1  C   UNL     1      13.326  -0.490  41.367  1.00  0.00     0.059 C 
ENDROOT
BRANCH   1   2
ATOM      2  C   UNL     1      12.020   0.186  41.641  1.00  0.00     0.042 C 
ATOM      3  O   UNL     1      10.991  -0.497  41.885  1.00  0.00    -0.550 OA
ATOM      4  O   UNL     1      11.949   1.573  41.674  1.00  0.00    -0.550 OA
ENDBRANCH   1   2
BRANCH   1   5
ATOM      5  C   UNL     1      13.204  -1.420  40.158  1.00  0.00     0.059 C 
BRANCH   5   6
ATOM      6  C   UNL     1      14.006  -2.664  40.372  1.00  0.00     0.042 C 
ATOM      7  O   UNL     1      14.892  -2.702  41.266  1.00  0.00    -0.550 OA
ATOM      8  O   UNL     1      13.809  -3.768  39.552  1.00  0.00    -0.550 OA
ENDBRANCH   5   6
ENDBRANCH   1   5
TORSDOF 3
ENDMDL
