MODEL 1
REMARK VINA RESULT:    -5.341      0.000      0.000
REMARK INTER + INTRA:          -5.750
REMARK INTER:                  -5.653
REMARK INTRA:                  -0.097
REMARK UNBOUND:                -0.097
REMARK SMILES C=C(C)[C@@H]1CC=C(C)C(=O)C1
REMARK SMILES IDX 8 1 7 2 6 3 5 4 4 5 11 6 9 7 10 8 2 9 1 10 3 11
REMARK H PARENT
REMARK Flexibility Score: inf
ROOT
ATOM      1  C   UNL     1      12.769  15.884  12.781  1.00  0.00     0.048 C 
ATOM      2  C   UNL     1      14.147  16.027  13.366  1.00  0.00    -0.012 C 
ATOM      3  C   UNL     1      14.476  15.346  14.478  1.00  0.00    -0.019 C 
ATOM      4  C   UNL     1      15.847  15.438  15.093  1.00  0.00     0.036 C 
ATOM      5  C   UNL     1      16.458  16.836  14.881  1.00  0.00     0.025 C 
ATOM      6  C   UNL     1      16.466  17.193  13.383  1.00  0.00     0.089 C 
ATOM      7  C   UNL     1      15.098  17.009  12.787  1.00  0.00     0.158 C 
ATOM      8  O   UNL     1      14.778  17.674  11.765  1.00  0.00    -0.295 OA
ENDROOT
BRANCH   5   9
ATOM      9  C   UNL     1      17.852  16.932  15.483  1.00  0.00    -0.077 C 
ATOM     10  C   UNL     1      18.871  16.249  14.935  1.00  0.00     0.008 C 
ATOM     11  C   UNL     1      18.127  17.782  16.698  1.00  0.00     0.039 C 
ENDBRANCH   5   9
TORSDOF 1
ENDMDL
MODEL 2
REMARK VINA RESULT:    -5.264      2.420      5.088
REMARK INTER + INTRA:          -5.669
REMARK INTER:                  -5.572
REMARK INTRA:                  -0.097
REMARK UNBOUND:                -0.097
REMARK SMILES C=C(C)[C@@H]1CC=C(C)C(=O)C1
REMARK SMILES IDX 8 1 7 2 6 3 5 4 4 5 11 6 9 7 10 8 2 9 1 10 3 11
REMARK H PARENT
REMARK Flexibility Score: inf
ROOT
ATOM      1  C   UNL     1      20.524  17.268  17.658  1.00  0.00     0.048 C 
ATOM      2  C   UNL     1      19.406  17.160  16.659  1.00  0.00    -0.012 C 
ATOM      3  C   UNL     1      18.231  17.768  16.900  1.00  0.00    -0.019 C 
ATOM      4  C   UNL     1      17.086  17.707  15.925  1.00  0.00     0.036 C 
ATOM      5  C   UNL     1      17.076  16.367  15.166  1.00  0.00     0.025 C 
ATOM      6  C   UNL     1      18.435  16.130  14.483  1.00  0.00     0.089 C 
ATOM      7  C   UNL     1      19.558  16.281  15.472  1.00  0.00     0.158 C 
ATOM      8  O   UNL     1      20.646  15.681  15.263  1.00  0.00    -0.295 OA
ENDROOT
BRANCH   5   9
ATOM      9  C   UNL     1      15.931  16.304  14.164  1.00  0.00    -0.077 C 
ATOM     10  C   UNL     1      15.987  17.025  13.032  1.00  0.00     0.008 C 
ATOM     11  C   UNL     1      14.717  15.443  14.410  1.00  0.00     0.039 C 
ENDBRANCH   5   9
TORSDOF 1
ENDMDL
MODEL 3
REMARK VINA RESULT:    -4.927      1.356      2.076
REMARK INTER + INTRA:          -5.312
REMARK INTER:                  -5.225
REMARK INTRA:                  -0.087
REMARK UNBOUND:                -0.097
REMARK SMILES C=C(C)[C@@H]1CC=C(C)C(=O)C1
REMARK SMILES IDX 8 1 7 2 6 3 5 4 4 5 11 6 9 7 10 8 2 9 1 10 3 11
REMARK H PARENT
REMARK Flexibility Score: inf
ROOT
ATOM      1  C   UNL     1      13.719  16.995  11.494  1.00  0.00     0.048 C 
ATOM      2  C   UNL     1      14.818  17.056  12.518  1.00  0.00    -0.012 C 
ATOM      3  C   UNL     1      15.908  17.808  12.287  1.00  0.00    -0.019 C 
ATOM      4  C   UNL     1      17.028  17.919  13.286  1.00  0.00     0.036 C 
ATOM      5  C   UNL     1      17.195  16.609  14.079  1.00  0.00     0.025 C 
ATOM      6  C   UNL     1      15.863  16.210  14.739  1.00  0.00     0.089 C 
ATOM      7  C   UNL     1      14.754  16.192  13.724  1.00  0.00     0.158 C 
ATOM      8  O   UNL     1      13.749  15.459  13.925  1.00  0.00    -0.295 OA
ENDROOT
BRANCH   5   9
ATOM      9  C   UNL     1      18.314  16.718  15.106  1.00  0.00    -0.077 C 
ATOM     10  C   UNL     1      19.482  16.089  14.899  1.00  0.00     0.008 C 
ATOM     11  C   UNL     1      18.145  17.524  16.370  1.00  0.00     0.039 C 
ENDBRANCH   5   9
TORSDOF 1
ENDMDL
MODEL 4
REMARK VINA RESULT:    -4.904      2.532      4.055
REMARK INTER + INTRA:          -5.287
REMARK INTER:                  -5.200
REMARK INTRA:                  -0.087
REMARK UNBOUND:                -0.097
REMARK SMILES C=C(C)[C@@H]1CC=C(C)C(=O)C1
REMARK SMILES IDX 8 1 7 2 6 3 5 4 4 5 11 6 9 7 10 8 2 9 1 10 3 11
REMARK H PARENT
REMARK Flexibility Score: inf
ROOT
ATOM      1  C   UNL     1      19.362  17.175  10.612  1.00  0.00     0.048 C 
ATOM      2  C   UNL     1      18.455  16.930  11.786  1.00  0.00    -0.012 C 
ATOM      3  C   UNL     1      17.494  17.821  12.086  1.00  0.00    -0.019 C 
ATOM      4  C   UNL     1      16.547  17.616  13.239  1.00  0.00     0.036 C 
ATOM      5  C   UNL     1      17.234  16.860  14.392  1.00  0.00     0.025 C 
ATOM      6  C   UNL     1      17.829  15.534  13.883  1.00  0.00     0.089 C 
ATOM      7  C   UNL     1      18.701  15.773  12.682  1.00  0.00     0.158 C 
ATOM      8  O   UNL     1      19.625  14.956  12.421  1.00  0.00    -0.295 OA
ENDROOT
BRANCH   5   9
ATOM      9  C   UNL     1      16.279  16.631  15.555  1.00  0.00    -0.077 C 
ATOM     10  C   UNL     1      16.362  17.396  16.656  1.00  0.00     0.008 C 
ATOM     11  C   UNL     1      15.226  15.552  15.507  1.00  0.00     0.039 C 
ENDBRANCH   5   9
TORSDOF 1
ENDMDL
MODEL 5
REMARK VINA RESULT:    -4.894     10.439     11.904
REMARK INTER + INTRA:          -5.276
REMARK INTER:                  -5.188
REMARK INTRA:                  -0.089
REMARK UNBOUND:                -0.097
REMARK SMILES C=C(C)[C@@H]1CC=C(C)C(=O)C1
REMARK SMILES IDX 8 1 7 2 6 3 5 4 4 5 11 6 9 7 10 8 2 9 1 10 3 11
REMARK H PARENT
REMARK Flexibility Score: inf
ROOT
ATOM      1  C   UNL     1      14.914  16.738  24.400  1.00  0.00     0.048 C 
ATOM      2  C   UNL     1      16.068  15.844  24.757  1.00  0.00    -0.012 C 
ATOM      3  C   UNL     1      16.704  15.155  23.793  1.00  0.00    -0.019 C 
ATOM      4  C   UNL     1      17.877  14.260  24.093  1.00  0.00     0.036 C 
ATOM      5  C   UNL     1      17.742  13.618  25.487  1.00  0.00     0.025 C 
ATOM      6  C   UNL     1      17.549  14.705  26.560  1.00  0.00     0.089 C 
ATOM      7  C   UNL     1      16.423  15.627  26.182  1.00  0.00     0.158 C 
ATOM      8  O   UNL     1      15.804  16.245  27.090  1.00  0.00    -0.295 OA
ENDROOT
BRANCH   5   9
ATOM      9  C   UNL     1      18.933  12.726  25.807  1.00  0.00    -0.077 C 
ATOM     10  C   UNL     1      18.944  11.446  25.400  1.00  0.00     0.008 C 
ATOM     11  C   UNL     1      20.119  13.244  26.581  1.00  0.00     0.039 C 
ENDBRANCH   5   9
TORSDOF 1
ENDMDL
MODEL 6
REMARK VINA RESULT:    -4.847      2.197      4.818
REMARK INTER + INTRA:          -5.227
REMARK INTER:                  -5.140
REMARK INTRA:                  -0.087
REMARK UNBOUND:                -0.097
REMARK SMILES C=C(C)[C@@H]1CC=C(C)C(=O)C1
REMARK SMILES IDX 8 1 7 2 6 3 5 4 4 5 11 6 9 7 10 8 2 9 1 10 3 11
REMARK H PARENT
REMARK Flexibility Score: inf
ROOT
ATOM      1  C   UNL     1      20.638  16.794  15.934  1.00  0.00     0.048 C 
ATOM      2  C   UNL     1      19.244  16.566  15.421  1.00  0.00    -0.012 C 
ATOM      3  C   UNL     1      19.053  15.863  14.290  1.00  0.00    -0.019 C 
ATOM      4  C   UNL     1      17.677  15.590  13.743  1.00  0.00     0.036 C 
ATOM      5  C   UNL     1      16.715  16.751  14.056  1.00  0.00     0.025 C 
ATOM      6  C   UNL     1      16.694  17.034  15.570  1.00  0.00     0.089 C 
ATOM      7  C   UNL     1      18.092  17.219  16.093  1.00  0.00     0.158 C 
ATOM      8  O   UNL     1      18.273  17.908  17.132  1.00  0.00    -0.295 OA
ENDROOT
BRANCH   5   9
ATOM      9  C   UNL     1      15.316  16.475  13.523  1.00  0.00    -0.077 C 
ATOM     10  C   UNL     1      14.859  17.145  12.453  1.00  0.00     0.008 C 
ATOM     11  C   UNL     1      14.413  15.456  14.173  1.00  0.00     0.039 C 
ENDBRANCH   5   9
TORSDOF 1
ENDMDL
MODEL 7
REMARK VINA RESULT:    -4.818      9.104     10.715
REMARK INTER + INTRA:          -5.196
REMARK INTER:                  -5.108
REMARK INTRA:                  -0.088
REMARK UNBOUND:                -0.097
REMARK SMILES C=C(C)[C@@H]1CC=C(C)C(=O)C1
REMARK SMILES IDX 8 1 7 2 6 3 5 4 4 5 11 6 9 7 10 8 2 9 1 10 3 11
REMARK H PARENT
REMARK Flexibility Score: inf
ROOT
ATOM      1  C   UNL     1      16.018  14.721  25.315  1.00  0.00     0.048 C 
ATOM      2  C   UNL     1      15.370  15.856  24.572  1.00  0.00    -0.012 C 
ATOM      3  C   UNL     1      16.127  16.707  23.856  1.00  0.00    -0.019 C 
ATOM      4  C   UNL     1      15.527  17.848  23.080  1.00  0.00     0.036 C 
ATOM      5  C   UNL     1      14.270  18.397  23.781  1.00  0.00     0.025 C 
ATOM      6  C   UNL     1      13.258  17.263  24.026  1.00  0.00     0.089 C 
ATOM      7  C   UNL     1      13.915  16.108  24.730  1.00  0.00     0.158 C 
ATOM      8  O   UNL     1      13.211  15.333  25.429  1.00  0.00    -0.295 OA
ENDROOT
BRANCH   5   9
ATOM      9  C   UNL     1      13.646  19.539  22.992  1.00  0.00    -0.077 C 
ATOM     10  C   UNL     1      13.385  20.710  23.596  1.00  0.00     0.008 C 
ATOM     11  C   UNL     1      13.304  19.392  21.531  1.00  0.00     0.039 C 
ENDBRANCH   5   9
TORSDOF 1
ENDMDL
MODEL 8
REMARK VINA RESULT:    -4.791      8.540     10.345
REMARK INTER + INTRA:          -5.168
REMARK INTER:                  -5.076
REMARK INTRA:                  -0.092
REMARK UNBOUND:                -0.097
REMARK SMILES C=C(C)[C@@H]1CC=C(C)C(=O)C1
REMARK SMILES IDX 8 1 7 2 6 3 5 4 4 5 11 6 9 7 10 8 2 9 1 10 3 11
REMARK H PARENT
REMARK Flexibility Score: inf
ROOT
ATOM      1  C   UNL     1      16.301  14.409  25.411  1.00  0.00     0.048 C 
ATOM      2  C   UNL     1      15.800  15.697  24.819  1.00  0.00    -0.012 C 
ATOM      3  C   UNL     1      14.554  16.121  25.095  1.00  0.00    -0.019 C 
ATOM      4  C   UNL     1      14.010  17.412  24.544  1.00  0.00     0.036 C 
ATOM      5  C   UNL     1      14.595  17.710  23.151  1.00  0.00     0.025 C 
ATOM      6  C   UNL     1      16.133  17.702  23.204  1.00  0.00     0.089 C 
ATOM      7  C   UNL     1      16.635  16.433  23.836  1.00  0.00     0.158 C 
ATOM      8  O   UNL     1      17.789  16.018  23.549  1.00  0.00    -0.295 OA
ENDROOT
BRANCH   5   9
ATOM      9  C   UNL     1      14.064  19.023  22.594  1.00  0.00    -0.077 C 
ATOM     10  C   UNL     1      14.095  19.255  21.271  1.00  0.00     0.008 C 
ATOM     11  C   UNL     1      13.498  20.090  23.497  1.00  0.00     0.039 C 
ENDBRANCH   5   9
TORSDOF 1
ENDMDL
MODEL 9
REMARK VINA RESULT:    -4.783     10.584     12.122
REMARK INTER + INTRA:          -5.159
REMARK INTER:                  -5.067
REMARK INTRA:                  -0.092
REMARK UNBOUND:                -0.097
REMARK SMILES C=C(C)[C@@H]1CC=C(C)C(=O)C1
REMARK SMILES IDX 8 1 7 2 6 3 5 4 4 5 11 6 9 7 10 8 2 9 1 10 3 11
REMARK H PARENT
REMARK Flexibility Score: inf
ROOT
ATOM      1  C   UNL     1      19.372  12.877  25.584  1.00  0.00     0.048 C 
ATOM      2  C   UNL     1      18.241  13.866  25.615  1.00  0.00    -0.012 C 
ATOM      3  C   UNL     1      17.865  14.418  26.783  1.00  0.00    -0.019 C 
ATOM      4  C   UNL     1      16.751  15.427  26.867  1.00  0.00     0.036 C 
ATOM      5  C   UNL     1      15.670  15.150  25.805  1.00  0.00     0.025 C 
ATOM      6  C   UNL     1      16.302  15.095  24.402  1.00  0.00     0.089 C 
ATOM      7  C   UNL     1      17.462  14.138  24.380  1.00  0.00     0.158 C 
ATOM      8  O   UNL     1      17.790  13.594  23.292  1.00  0.00    -0.295 OA
ENDROOT
BRANCH   5   9
ATOM      9  C   UNL     1      14.549  16.177  25.871  1.00  0.00    -0.077 C 
ATOM     10  C   UNL     1      13.745  16.229  26.945  1.00  0.00     0.008 C 
ATOM     11  C   UNL     1      14.309  17.153  24.745  1.00  0.00     0.039 C 
ENDBRANCH   5   9
TORSDOF 1
ENDMDL
