MODEL 1
REMARK VINA RESULT:    -2.535      0.000      0.000
REMARK INTER + INTRA:          -7.514
REMARK INTER:                  -4.905
REMARK INTRA:                  -2.609
REMARK UNBOUND:                -2.609
REMARK SMILES CCCCCCCCCCCCCCCCCC(=O)[O-]
REMARK SMILES IDX 10 1 11 2 12 3 13 4 14 5 15 6 16 7 17 8 18 9 19 10 20 11
REMARK SMILES IDX 9 12 8 13 7 14 6 15 5 16 4 17 3 18 2 19 1 20
REMARK H PARENT
REMARK Flexibility Score: inf
ROOT
ATOM      1  C   UNL     1      54.356 -34.902  23.107  1.00  0.00     0.000 C 
ENDROOT
BRANCH   1   2
ATOM      2  C   UNL     1      55.043 -35.953  22.216  1.00  0.00     0.000 C 
BRANCH   2   3
ATOM      3  C   UNL     1      56.577 -36.008  22.338  1.00  0.00     0.000 C 
BRANCH   3   4
ATOM      4  C   UNL     1      57.052 -36.697  23.626  1.00  0.00     0.000 C 
BRANCH   4   5
ATOM      5  C   UNL     1      58.119 -35.851  24.337  1.00  0.00     0.000 C 
BRANCH   5   6
ATOM      6  C   UNL     1      57.526 -34.629  25.056  1.00  0.00     0.000 C 
BRANCH   6   7
ATOM      7  C   UNL     1      57.765 -33.318  24.293  1.00  0.00     0.006 C 
BRANCH   7   8
ATOM      8  C   UNL     1      56.603 -32.342  24.504  1.00  0.00     0.053 C 
BRANCH   8   9
ATOM      9  C   UNL     1      56.965 -30.978  24.008  1.00  0.00     0.041 C 
ATOM     10  O   UNL     1      57.988 -30.817  23.290  1.00  0.00    -0.550 OA
ATOM     11  O   UNL     1      56.145 -29.895  24.292  1.00  0.00    -0.550 OA
ENDBRANCH   8   9
ENDBRANCH   7   8
ENDBRANCH   6   7
ENDBRANCH   5   6
ENDBRANCH   4   5
ENDBRANCH   3   4
ENDBRANCH   2   3
ENDBRANCH   1   2
BRANCH   1  12
ATOM     12  C   UNL     1      53.749 -35.505  24.382  1.00  0.00     0.000 C 
BRANCH  12  13
ATOM     13  C   UNL     1      52.234 -35.252  24.441  1.00  0.00    -0.000 C 
BRANCH  13  14
ATOM     14  C   UNL     1      51.610 -35.065  23.049  1.00  0.00    -0.000 C 
BRANCH  14  15
ATOM     15  C   UNL     1      50.467 -34.039  23.045  1.00  0.00    -0.000 C 
BRANCH  15  16
ATOM     16  C   UNL     1      50.774 -32.871  23.990  1.00  0.00    -0.000 C 
BRANCH  16  17
ATOM     17  C   UNL     1      51.685 -31.838  23.311  1.00  0.00    -0.000 C 
BRANCH  17  18
ATOM     18  C   UNL     1      52.977 -31.565  24.102  1.00  0.00    -0.000 C 
BRANCH  18  19
ATOM     19  C   UNL     1      52.781 -31.382  25.617  1.00  0.00    -0.003 C 
ATOM     20  C   UNL     1      53.594 -32.374  26.449  1.00  0.00     0.004 C 
ENDBRANCH  18  19
ENDBRANCH  17  18
ENDBRANCH  16  17
ENDBRANCH  15  16
ENDBRANCH  14  15
ENDBRANCH  13  14
ENDBRANCH  12  13
ENDBRANCH   1  12
TORSDOF 16
ENDMDL
MODEL 2
REMARK VINA RESULT:    -2.532      1.446      4.720
REMARK INTER + INTRA:          -7.509
REMARK INTER:                  -4.639
REMARK INTRA:                  -2.870
REMARK UNBOUND:                -2.609
REMARK SMILES CCCCCCCCCCCCCCCCCC(=O)[O-]
REMARK SMILES IDX 10 1 11 2 12 3 13 4 14 5 15 6 16 7 17 8 18 9 19 10 20 11
REMARK SMILES IDX 9 12 8 13 7 14 6 15 5 16 4 17 3 18 2 19 1 20
REMARK H PARENT
REMARK Flexibility Score: inf
ROOT
ATOM      1  C   UNL     1      50.641 -34.228  23.057  1.00  0.00     0.000 C 
ENDROOT
BRANCH   1   2
ATOM      2  C   UNL     1      50.678 -32.827  23.696  1.00  0.00     0.000 C 
BRANCH   2   3
ATOM      3  C   UNL     1      51.761 -31.886  23.138  1.00  0.00     0.000 C 
BRANCH   3   4
ATOM      4  C   UNL     1      52.495 -31.100  24.235  1.00  0.00     0.000 C 
BRANCH   4   5
ATOM      5  C   UNL     1      53.659 -31.919  24.810  1.00  0.00     0.000 C 
BRANCH   5   6
ATOM      6  C   UNL     1      54.530 -32.561  23.717  1.00  0.00     0.000 C 
BRANCH   6   7
ATOM      7  C   UNL     1      56.004 -32.137  23.809  1.00  0.00     0.006 C 
BRANCH   7   8
ATOM      8  C   UNL     1      56.151 -30.839  24.608  1.00  0.00     0.053 C 
BRANCH   8   9
ATOM      9  C   UNL     1      57.199 -30.989  25.665  1.00  0.00     0.041 C 
ATOM     10  O   UNL     1      57.400 -32.109  26.203  1.00  0.00    -0.550 OA
ATOM     11  O   UNL     1      57.993 -29.904  26.015  1.00  0.00    -0.550 OA
ENDBRANCH   8   9
ENDBRANCH   7   8
ENDBRANCH   6   7
ENDBRANCH   5   6
ENDBRANCH   4   5
ENDBRANCH   3   4
ENDBRANCH   2   3
ENDBRANCH   1   2
BRANCH   1  12
ATOM     12  C   UNL     1      51.906 -35.050  23.346  1.00  0.00     0.000 C 
BRANCH  12  13
ATOM     13  C   UNL     1      52.054 -35.316  24.852  1.00  0.00    -0.000 C 
BRANCH  13  14
ATOM     14  C   UNL     1      53.397 -35.974  25.208  1.00  0.00    -0.000 C 
BRANCH  14  15
ATOM     15  C   UNL     1      54.130 -35.247  26.345  1.00  0.00    -0.000 C 
BRANCH  15  16
ATOM     16  C   UNL     1      55.637 -35.178  26.071  1.00  0.00    -0.000 C 
BRANCH  16  17
ATOM     17  C   UNL     1      56.068 -36.272  25.083  1.00  0.00    -0.000 C 
BRANCH  17  18
ATOM     18  C   UNL     1      56.728 -35.707  23.813  1.00  0.00    -0.000 C 
BRANCH  18  19
ATOM     19  C   UNL     1      56.346 -36.430  22.510  1.00  0.00    -0.003 C 
ATOM     20  C   UNL     1      55.154 -35.791  21.798  1.00  0.00     0.004 C 
ENDBRANCH  18  19
ENDBRANCH  17  18
ENDBRANCH  16  17
ENDBRANCH  15  16
ENDBRANCH  14  15
ENDBRANCH  13  14
ENDBRANCH  12  13
ENDBRANCH   1  12
TORSDOF 16
ENDMDL
MODEL 3
REMARK VINA RESULT:    -2.523      2.327      5.826
REMARK INTER + INTRA:          -7.491
REMARK INTER:                  -4.687
REMARK INTRA:                  -2.804
REMARK UNBOUND:                -2.609
REMARK SMILES CCCCCCCCCCCCCCCCCC(=O)[O-]
REMARK SMILES IDX 10 1 11 2 12 3 13 4 14 5 15 6 16 7 17 8 18 9 19 10 20 11
REMARK SMILES IDX 9 12 8 13 7 14 6 15 5 16 4 17 3 18 2 19 1 20
REMARK H PARENT
REMARK Flexibility Score: inf
ROOT
ATOM      1  C   UNL     1      54.380 -35.417  25.467  1.00  0.00     0.000 C 
ENDROOT
BRANCH   1   2
ATOM      2  C   UNL     1      52.967 -35.907  25.835  1.00  0.00     0.000 C 
BRANCH   2   3
ATOM      3  C   UNL     1      52.017 -34.816  26.362  1.00  0.00     0.000 C 
BRANCH   3   4
ATOM      4  C   UNL     1      50.725 -34.696  25.539  1.00  0.00     0.000 C 
BRANCH   4   5
ATOM      5  C   UNL     1      50.860 -35.432  24.198  1.00  0.00     0.000 C 
BRANCH   5   6
ATOM      6  C   UNL     1      50.907 -34.473  22.996  1.00  0.00     0.000 C 
BRANCH   6   7
ATOM      7  C   UNL     1      50.467 -33.047  23.359  1.00  0.00     0.006 C 
BRANCH   7   8
ATOM      8  C   UNL     1      51.609 -32.050  23.141  1.00  0.00     0.053 C 
BRANCH   8   9
ATOM      9  C   UNL     1      51.197 -30.677  23.570  1.00  0.00     0.041 C 
ATOM     10  O   UNL     1      51.501 -30.254  24.716  1.00  0.00    -0.550 OA
ATOM     11  O   UNL     1      50.524 -29.845  22.684  1.00  0.00    -0.550 OA
ENDBRANCH   8   9
ENDBRANCH   7   8
ENDBRANCH   6   7
ENDBRANCH   5   6
ENDBRANCH   4   5
ENDBRANCH   3   4
ENDBRANCH   2   3
ENDBRANCH   1   2
BRANCH   1  12
ATOM     12  C   UNL     1      54.393 -33.977  24.933  1.00  0.00     0.000 C 
BRANCH  12  13
ATOM     13  C   UNL     1      54.718 -33.952  23.431  1.00  0.00    -0.000 C 
BRANCH  13  14
ATOM     14  C   UNL     1      54.420 -35.291  22.738  1.00  0.00    -0.000 C 
BRANCH  14  15
ATOM     15  C   UNL     1      55.548 -35.733  21.794  1.00  0.00    -0.000 C 
BRANCH  15  16
ATOM     16  C   UNL     1      56.424 -36.808  22.449  1.00  0.00    -0.000 C 
BRANCH  16  17
ATOM     17  C   UNL     1      57.774 -36.225  22.889  1.00  0.00    -0.000 C 
BRANCH  17  18
ATOM     18  C   UNL     1      57.949 -36.204  24.419  1.00  0.00    -0.000 C 
BRANCH  18  19
ATOM     19  C   UNL     1      58.030 -34.799  25.040  1.00  0.00    -0.003 C 
ATOM     20  C   UNL     1      58.624 -33.758  24.091  1.00  0.00     0.004 C 
ENDBRANCH  18  19
ENDBRANCH  17  18
ENDBRANCH  16  17
ENDBRANCH  15  16
ENDBRANCH  14  15
ENDBRANCH  13  14
ENDBRANCH  12  13
ENDBRANCH   1  12
TORSDOF 16
ENDMDL
MODEL 4
REMARK VINA RESULT:    -2.496      1.462      2.455
REMARK INTER + INTRA:          -7.439
REMARK INTER:                  -4.651
REMARK INTRA:                  -2.788
REMARK UNBOUND:                -2.609
REMARK SMILES CCCCCCCCCCCCCCCCCC(=O)[O-]
REMARK SMILES IDX 10 1 11 2 12 3 13 4 14 5 15 6 16 7 17 8 18 9 19 10 20 11
REMARK SMILES IDX 9 12 8 13 7 14 6 15 5 16 4 17 3 18 2 19 1 20
REMARK H PARENT
REMARK Flexibility Score: inf
ROOT
ATOM      1  C   UNL     1      54.249 -35.247  22.723  1.00  0.00     0.000 C 
ENDROOT
BRANCH   1   2
ATOM      2  C   UNL     1      55.483 -35.752  21.952  1.00  0.00     0.000 C 
BRANCH   2   3
ATOM      3  C   UNL     1      56.499 -36.542  22.796  1.00  0.00     0.000 C 
BRANCH   3   4
ATOM      4  C   UNL     1      57.953 -36.315  22.354  1.00  0.00     0.000 C 
BRANCH   4   5
ATOM      5  C   UNL     1      58.757 -35.610  23.456  1.00  0.00     0.000 C 
BRANCH   5   6
ATOM      6  C   UNL     1      57.981 -35.499  24.778  1.00  0.00     0.000 C 
BRANCH   6   7
ATOM      7  C   UNL     1      58.008 -34.079  25.364  1.00  0.00     0.006 C 
BRANCH   7   8
ATOM      8  C   UNL     1      57.830 -33.029  24.263  1.00  0.00     0.053 C 
BRANCH   8   9
ATOM      9  C   UNL     1      58.992 -32.087  24.243  1.00  0.00     0.041 C 
ATOM     10  O   UNL     1      59.599 -31.853  23.165  1.00  0.00    -0.550 OA
ATOM     11  O   UNL     1      59.369 -31.425  25.404  1.00  0.00    -0.550 OA
ENDBRANCH   8   9
ENDBRANCH   7   8
ENDBRANCH   6   7
ENDBRANCH   5   6
ENDBRANCH   4   5
ENDBRANCH   3   4
ENDBRANCH   2   3
ENDBRANCH   1   2
BRANCH   1  12
ATOM     12  C   UNL     1      54.364 -35.459  24.240  1.00  0.00     0.000 C 
BRANCH  12  13
ATOM     13  C   UNL     1      54.239 -34.124  24.991  1.00  0.00    -0.000 C 
BRANCH  13  14
ATOM     14  C   UNL     1      54.157 -32.917  24.044  1.00  0.00    -0.000 C 
BRANCH  14  15
ATOM     15  C   UNL     1      52.971 -31.995  24.363  1.00  0.00    -0.000 C 
BRANCH  15  16
ATOM     16  C   UNL     1      52.061 -31.826  23.140  1.00  0.00    -0.000 C 
BRANCH  16  17
ATOM     17  C   UNL     1      50.781 -32.661  23.286  1.00  0.00    -0.000 C 
BRANCH  17  18
ATOM     18  C   UNL     1      50.573 -33.197  24.714  1.00  0.00    -0.000 C 
BRANCH  18  19
ATOM     19  C   UNL     1      50.510 -34.730  24.827  1.00  0.00    -0.003 C 
ATOM     20  C   UNL     1      50.677 -35.436  23.481  1.00  0.00     0.004 C 
ENDBRANCH  18  19
ENDBRANCH  17  18
ENDBRANCH  16  17
ENDBRANCH  15  16
ENDBRANCH  14  15
ENDBRANCH  13  14
ENDBRANCH  12  13
ENDBRANCH   1  12
TORSDOF 16
ENDMDL
MODEL 5
REMARK VINA RESULT:    -2.482      2.705      5.491
REMARK INTER + INTRA:          -7.413
REMARK INTER:                  -4.929
REMARK INTRA:                  -2.484
REMARK UNBOUND:                -2.609
REMARK SMILES CCCCCCCCCCCCCCCCCC(=O)[O-]
REMARK SMILES IDX 10 1 11 2 12 3 13 4 14 5 15 6 16 7 17 8 18 9 19 10 20 11
REMARK SMILES IDX 9 12 8 13 7 14 6 15 5 16 4 17 3 18 2 19 1 20
REMARK H PARENT
REMARK Flexibility Score: inf
ROOT
ATOM      1  C   UNL     1      50.224 -31.033  23.579  1.00  0.00     0.000 C 
ENDROOT
BRANCH   1   2
ATOM      2  C   UNL     1      50.790 -32.391  23.122  1.00  0.00     0.000 C 
BRANCH   2   3
ATOM      3  C   UNL     1      49.934 -33.613  23.501  1.00  0.00     0.000 C 
BRANCH   3   4
ATOM      4  C   UNL     1      50.580 -34.947  23.098  1.00  0.00     0.000 C 
BRANCH   4   5
ATOM      5  C   UNL     1      52.111 -34.855  23.163  1.00  0.00     0.000 C 
BRANCH   5   6
ATOM      6  C   UNL     1      52.699 -35.581  24.385  1.00  0.00     0.000 C 
BRANCH   6   7
ATOM      7  C   UNL     1      54.235 -35.606  24.377  1.00  0.00     0.006 C 
BRANCH   7   8
ATOM      8  C   UNL     1      54.789 -34.798  23.200  1.00  0.00     0.053 C 
BRANCH   8   9
ATOM      9  C   UNL     1      55.444 -35.702  22.205  1.00  0.00     0.041 C 
ATOM     10  O   UNL     1      54.819 -36.069  21.175  1.00  0.00    -0.550 OA
ATOM     11  O   UNL     1      56.764 -36.096  22.386  1.00  0.00    -0.550 OA
ENDBRANCH   8   9
ENDBRANCH   7   8
ENDBRANCH   6   7
ENDBRANCH   5   6
ENDBRANCH   4   5
ENDBRANCH   3   4
ENDBRANCH   2   3
ENDBRANCH   1   2
BRANCH   1  12
ATOM     12  C   UNL     1      50.892 -29.841  22.880  1.00  0.00     0.000 C 
BRANCH  12  13
ATOM     13  C   UNL     1      50.770 -28.567  23.730  1.00  0.00    -0.000 C 
BRANCH  13  14
ATOM     14  C   UNL     1      52.000 -27.654  23.611  1.00  0.00    -0.000 C 
BRANCH  14  15
ATOM     15  C   UNL     1      53.160 -28.102  24.512  1.00  0.00    -0.000 C 
BRANCH  15  16
ATOM     16  C   UNL     1      52.651 -28.509  25.900  1.00  0.00    -0.000 C 
BRANCH  16  17
ATOM     17  C   UNL     1      53.382 -29.761  26.409  1.00  0.00    -0.000 C 
BRANCH  17  18
ATOM     18  C   UNL     1      53.740 -30.747  25.282  1.00  0.00    -0.000 C 
BRANCH  18  19
ATOM     19  C   UNL     1      53.447 -32.224  25.598  1.00  0.00    -0.003 C 
ATOM     20  C   UNL     1      52.238 -32.411  26.515  1.00  0.00     0.004 C 
ENDBRANCH  18  19
ENDBRANCH  17  18
ENDBRANCH  16  17
ENDBRANCH  15  16
ENDBRANCH  14  15
ENDBRANCH  13  14
ENDBRANCH  12  13
ENDBRANCH   1  12
TORSDOF 16
ENDMDL
MODEL 6
REMARK VINA RESULT:    -2.471      1.079      5.042
REMARK INTER + INTRA:          -7.392
REMARK INTER:                  -4.714
REMARK INTRA:                  -2.678
REMARK UNBOUND:                -2.609
REMARK SMILES CCCCCCCCCCCCCCCCCC(=O)[O-]
REMARK SMILES IDX 10 1 11 2 12 3 13 4 14 5 15 6 16 7 17 8 18 9 19 10 20 11
REMARK SMILES IDX 9 12 8 13 7 14 6 15 5 16 4 17 3 18 2 19 1 20
REMARK H PARENT
REMARK Flexibility Score: inf
ROOT
ATOM      1  C   UNL     1      52.020 -34.816  23.250  1.00  0.00     0.000 C 
ENDROOT
BRANCH   1   2
ATOM      2  C   UNL     1      50.639 -34.315  23.712  1.00  0.00     0.000 C 
BRANCH   2   3
ATOM      3  C   UNL     1      50.469 -32.785  23.712  1.00  0.00     0.000 C 
BRANCH   3   4
ATOM      4  C   UNL     1      51.665 -32.048  23.090  1.00  0.00     0.000 C 
BRANCH   4   5
ATOM      5  C   UNL     1      52.283 -31.064  24.094  1.00  0.00     0.000 C 
BRANCH   5   6
ATOM      6  C   UNL     1      52.578 -31.711  25.456  1.00  0.00     0.000 C 
BRANCH   6   7
ATOM      7  C   UNL     1      54.054 -32.104  25.619  1.00  0.00     0.006 C 
BRANCH   7   8
ATOM      8  C   UNL     1      54.910 -31.486  24.510  1.00  0.00     0.053 C 
BRANCH   8   9
ATOM      9  C   UNL     1      55.753 -30.376  25.053  1.00  0.00     0.041 C 
ATOM     10  O   UNL     1      56.574 -30.601  25.982  1.00  0.00    -0.550 OA
ATOM     11  O   UNL     1      55.672 -29.106  24.498  1.00  0.00    -0.550 OA
ENDBRANCH   8   9
ENDBRANCH   7   8
ENDBRANCH   6   7
ENDBRANCH   5   6
ENDBRANCH   4   5
ENDBRANCH   3   4
ENDBRANCH   2   3
ENDBRANCH   1   2
BRANCH   1  12
ATOM     12  C   UNL     1      52.746 -35.640  24.323  1.00  0.00     0.000 C 
BRANCH  12  13
ATOM     13  C   UNL     1      54.268 -35.457  24.219  1.00  0.00    -0.000 C 
BRANCH  13  14
ATOM     14  C   UNL     1      54.700 -34.833  22.882  1.00  0.00    -0.000 C 
BRANCH  14  15
ATOM     15  C   UNL     1      55.222 -35.876  21.883  1.00  0.00    -0.000 C 
BRANCH  15  16
ATOM     16  C   UNL     1      56.308 -36.751  22.521  1.00  0.00    -0.000 C 
BRANCH  16  17
ATOM     17  C   UNL     1      57.625 -35.974  22.670  1.00  0.00    -0.000 C 
BRANCH  17  18
ATOM     18  C   UNL     1      58.212 -36.057  24.091  1.00  0.00    -0.000 C 
BRANCH  18  19
ATOM     19  C   UNL     1      57.862 -34.871  25.006  1.00  0.00    -0.003 C 
ATOM     20  C   UNL     1      58.000 -33.517  24.309  1.00  0.00     0.004 C 
ENDBRANCH  18  19
ENDBRANCH  17  18
ENDBRANCH  16  17
ENDBRANCH  15  16
ENDBRANCH  14  15
ENDBRANCH  13  14
ENDBRANCH  12  13
ENDBRANCH   1  12
TORSDOF 16
ENDMDL
MODEL 7
REMARK VINA RESULT:    -2.432      2.533      4.722
REMARK INTER + INTRA:          -7.316
REMARK INTER:                  -5.206
REMARK INTRA:                  -2.110
REMARK UNBOUND:                -2.609
REMARK SMILES CCCCCCCCCCCCCCCCCC(=O)[O-]
REMARK SMILES IDX 10 1 11 2 12 3 13 4 14 5 15 6 16 7 17 8 18 9 19 10 20 11
REMARK SMILES IDX 9 12 8 13 7 14 6 15 5 16 4 17 3 18 2 19 1 20
REMARK H PARENT
REMARK Flexibility Score: inf
ROOT
ATOM      1  C   UNL     1      52.171 -32.181  23.428  1.00  0.00     0.000 C 
ENDROOT
BRANCH   1   2
ATOM      2  C   UNL     1      51.292 -33.445  23.386  1.00  0.00     0.000 C 
BRANCH   2   3
ATOM      3  C   UNL     1      52.056 -34.773  23.532  1.00  0.00     0.000 C 
BRANCH   3   4
ATOM      4  C   UNL     1      53.159 -34.717  24.600  1.00  0.00     0.000 C 
BRANCH   4   5
ATOM      5  C   UNL     1      54.431 -35.424  24.110  1.00  0.00     0.000 C 
BRANCH   5   6
ATOM      6  C   UNL     1      54.875 -34.948  22.717  1.00  0.00     0.000 C 
BRANCH   6   7
ATOM      7  C   UNL     1      55.682 -36.012  21.957  1.00  0.00     0.006 C 
BRANCH   7   8
ATOM      8  C   UNL     1      56.675 -36.714  22.888  1.00  0.00     0.053 C 
BRANCH   8   9
ATOM      9  C   UNL     1      58.048 -36.147  22.714  1.00  0.00     0.041 C 
ATOM     10  O   UNL     1      58.861 -36.689  21.919  1.00  0.00    -0.550 OA
ATOM     11  O   UNL     1      58.413 -34.989  23.389  1.00  0.00    -0.550 OA
ENDBRANCH   8   9
ENDBRANCH   7   8
ENDBRANCH   6   7
ENDBRANCH   5   6
ENDBRANCH   4   5
ENDBRANCH   3   4
ENDBRANCH   2   3
ENDBRANCH   1   2
BRANCH   1  12
ATOM     12  C   UNL     1      51.390 -30.899  23.105  1.00  0.00     0.000 C 
BRANCH  12  13
ATOM     13  C   UNL     1      50.750 -30.312  24.373  1.00  0.00    -0.000 C 
BRANCH  13  14
ATOM     14  C   UNL     1      51.251 -28.894  24.689  1.00  0.00    -0.000 C 
BRANCH  14  15
ATOM     15  C   UNL     1      52.207 -28.352  23.617  1.00  0.00    -0.000 C 
BRANCH  15  16
ATOM     16  C   UNL     1      53.353 -27.556  24.254  1.00  0.00    -0.000 C 
BRANCH  16  17
ATOM     17  C   UNL     1      54.056 -28.379  25.343  1.00  0.00    -0.000 C 
BRANCH  17  18
ATOM     18  C   UNL     1      55.052 -29.404  24.772  1.00  0.00    -0.000 C 
BRANCH  18  19
ATOM     19  C   UNL     1      54.877 -30.839  25.300  1.00  0.00    -0.003 C 
ATOM     20  C   UNL     1      53.876 -30.934  26.452  1.00  0.00     0.004 C 
ENDBRANCH  18  19
ENDBRANCH  17  18
ENDBRANCH  16  17
ENDBRANCH  15  16
ENDBRANCH  14  15
ENDBRANCH  13  14
ENDBRANCH  12  13
ENDBRANCH   1  12
TORSDOF 16
ENDMDL
MODEL 8
REMARK VINA RESULT:    -2.403      2.203      6.106
REMARK INTER + INTRA:          -7.259
REMARK INTER:                  -4.790
REMARK INTRA:                  -2.469
REMARK UNBOUND:                -2.609
REMARK SMILES CCCCCCCCCCCCCCCCCC(=O)[O-]
REMARK SMILES IDX 10 1 11 2 12 3 13 4 14 5 15 6 16 7 17 8 18 9 19 10 20 11
REMARK SMILES IDX 9 12 8 13 7 14 6 15 5 16 4 17 3 18 2 19 1 20
REMARK H PARENT
REMARK Flexibility Score: inf
ROOT
ATOM      1  C   UNL     1      53.542 -34.326  24.188  1.00  0.00     0.000 C 
ENDROOT
BRANCH   1   2
ATOM      2  C   UNL     1      52.716 -35.069  23.123  1.00  0.00     0.000 C 
BRANCH   2   3
ATOM      3  C   UNL     1      51.194 -34.851  23.212  1.00  0.00     0.000 C 
BRANCH   3   4
ATOM      4  C   UNL     1      50.752 -34.237  24.548  1.00  0.00     0.000 C 
BRANCH   4   5
ATOM      5  C   UNL     1      50.113 -32.858  24.332  1.00  0.00     0.000 C 
BRANCH   5   6
ATOM      6  C   UNL     1      50.097 -32.436  22.853  1.00  0.00     0.000 C 
BRANCH   6   7
ATOM      7  C   UNL     1      50.278 -30.921  22.667  1.00  0.00     0.006 C 
BRANCH   7   8
ATOM      8  C   UNL     1      51.639 -30.463  23.202  1.00  0.00     0.053 C 
BRANCH   8   9
ATOM      9  C   UNL     1      51.549 -29.071  23.742  1.00  0.00     0.041 C 
ATOM     10  O   UNL     1      50.568 -28.731  24.455  1.00  0.00    -0.550 OA
ATOM     11  O   UNL     1      52.574 -28.166  23.503  1.00  0.00    -0.550 OA
ENDBRANCH   8   9
ENDBRANCH   7   8
ENDBRANCH   6   7
ENDBRANCH   5   6
ENDBRANCH   4   5
ENDBRANCH   3   4
ENDBRANCH   2   3
ENDBRANCH   1   2
BRANCH   1  12
ATOM     12  C   UNL     1      54.441 -33.232  23.592  1.00  0.00     0.000 C 
BRANCH  12  13
ATOM     13  C   UNL     1      55.561 -32.849  24.572  1.00  0.00    -0.000 C 
BRANCH  13  14
ATOM     14  C   UNL     1      55.354 -33.444  25.973  1.00  0.00    -0.000 C 
BRANCH  14  15
ATOM     15  C   UNL     1      56.512 -34.354  26.407  1.00  0.00    -0.000 C 
BRANCH  15  16
ATOM     16  C   UNL     1      56.043 -35.807  26.558  1.00  0.00    -0.000 C 
BRANCH  16  17
ATOM     17  C   UNL     1      56.264 -36.594  25.258  1.00  0.00    -0.000 C 
BRANCH  17  18
ATOM     18  C   UNL     1      57.581 -36.227  24.550  1.00  0.00    -0.000 C 
BRANCH  18  19
ATOM     19  C   UNL     1      57.436 -35.874  23.059  1.00  0.00    -0.003 C 
ATOM     20  C   UNL     1      56.127 -36.374  22.450  1.00  0.00     0.004 C 
ENDBRANCH  18  19
ENDBRANCH  17  18
ENDBRANCH  16  17
ENDBRANCH  15  16
ENDBRANCH  14  15
ENDBRANCH  13  14
ENDBRANCH  12  13
ENDBRANCH   1  12
TORSDOF 16
ENDMDL
MODEL 9
REMARK VINA RESULT:    -2.375      1.254      3.143
REMARK INTER + INTRA:          -7.204
REMARK INTER:                  -4.460
REMARK INTRA:                  -2.744
REMARK UNBOUND:                -2.609
REMARK SMILES CCCCCCCCCCCCCCCCCC(=O)[O-]
REMARK SMILES IDX 10 1 11 2 12 3 13 4 14 5 15 6 16 7 17 8 18 9 19 10 20 11
REMARK SMILES IDX 9 12 8 13 7 14 6 15 5 16 4 17 3 18 2 19 1 20
REMARK H PARENT
REMARK Flexibility Score: inf
ROOT
ATOM      1  C   UNL     1      57.916 -35.914  22.804  1.00  0.00     0.000 C 
ENDROOT
BRANCH   1   2
ATOM      2  C   UNL     1      58.678 -36.119  24.126  1.00  0.00     0.000 C 
BRANCH   2   3
ATOM      3  C   UNL     1      57.828 -36.663  25.289  1.00  0.00     0.000 C 
BRANCH   3   4
ATOM      4  C   UNL     1      57.120 -35.555  26.084  1.00  0.00     0.000 C 
BRANCH   4   5
ATOM      5  C   UNL     1      57.977 -34.282  26.131  1.00  0.00     0.000 C 
BRANCH   5   6
ATOM      6  C   UNL     1      57.190 -33.022  25.736  1.00  0.00     0.000 C 
BRANCH   6   7
ATOM      7  C   UNL     1      57.348 -32.665  24.250  1.00  0.00     0.006 C 
BRANCH   7   8
ATOM      8  C   UNL     1      56.312 -31.620  23.825  1.00  0.00     0.053 C 
BRANCH   8   9
ATOM      9  C   UNL     1      56.769 -30.246  24.198  1.00  0.00     0.041 C 
ATOM     10  O   UNL     1      55.992 -29.463  24.806  1.00  0.00    -0.550 OA
ATOM     11  O   UNL     1      58.071 -29.848  23.923  1.00  0.00    -0.550 OA
ENDBRANCH   8   9
ENDBRANCH   7   8
ENDBRANCH   6   7
ENDBRANCH   5   6
ENDBRANCH   4   5
ENDBRANCH   3   4
ENDBRANCH   2   3
ENDBRANCH   1   2
BRANCH   1  12
ATOM     12  C   UNL     1      56.642 -36.767  22.709  1.00  0.00     0.000 C 
BRANCH  12  13
ATOM     13  C   UNL     1      55.533 -36.015  21.957  1.00  0.00    -0.000 C 
BRANCH  13  14
ATOM     14  C   UNL     1      54.859 -34.935  22.820  1.00  0.00    -0.000 C 
BRANCH  14  15
ATOM     15  C   UNL     1      54.031 -35.527  23.969  1.00  0.00    -0.000 C 
BRANCH  15  16
ATOM     16  C   UNL     1      53.829 -34.498  25.088  1.00  0.00    -0.000 C 
BRANCH  16  17
ATOM     17  C   UNL     1      53.074 -33.265  24.572  1.00  0.00    -0.000 C 
BRANCH  17  18
ATOM     18  C   UNL     1      51.546 -33.454  24.569  1.00  0.00    -0.000 C 
BRANCH  18  19
ATOM     19  C   UNL     1      50.916 -33.600  23.173  1.00  0.00    -0.003 C 
ATOM     20  C   UNL     1      50.260 -34.963  22.952  1.00  0.00     0.004 C 
ENDBRANCH  18  19
ENDBRANCH  17  18
ENDBRANCH  16  17
ENDBRANCH  15  16
ENDBRANCH  14  15
ENDBRANCH  13  14
ENDBRANCH  12  13
ENDBRANCH   1  12
TORSDOF 16
ENDMDL
