MODEL 1
REMARK VINA RESULT:    -4.271      0.000      0.000
REMARK INTER + INTRA:          -4.940
REMARK INTER:                  -4.895
REMARK INTRA:                  -0.045
REMARK UNBOUND:                -0.045
REMARK SMILES O=C([O-])c1cc(O)c(O)c(O)c1
REMARK SMILES IDX 4 1 5 2 12 3 6 4 10 5 8 6 2 7 1 8 3 9 7 10 11 12 9 14
REMARK H PARENT 7 11 11 13 9 15
REMARK Flexibility Score: inf
ROOT
ATOM      1  C   UNL     1      11.232 -17.579   8.077  1.00  0.00     0.005 A 
ATOM      2  C   UNL     1      10.043 -17.086   8.631  1.00  0.00     0.060 A 
ATOM      3  C   UNL     1      11.164 -18.596   7.110  1.00  0.00     0.060 A 
ATOM      4  C   UNL     1       8.802 -17.598   8.227  1.00  0.00     0.162 A 
ATOM      5  C   UNL     1       9.931 -19.117   6.698  1.00  0.00     0.162 A 
ATOM      6  C   UNL     1       8.736 -18.612   7.262  1.00  0.00     0.200 A 
ENDROOT
BRANCH   1   7
ATOM      7  C   UNL     1      12.540 -17.034   8.508  1.00  0.00     0.072 C 
ATOM      8  O   UNL     1      13.134 -17.512   9.511  1.00  0.00    -0.545 OA
ATOM      9  O   UNL     1      13.130 -15.986   7.812  1.00  0.00    -0.545 OA
ENDBRANCH   1   7
BRANCH   4  10
ATOM     10  O   UNL     1       7.625 -17.100   8.784  1.00  0.00    -0.504 OA
ATOM     11  H   UNL     1       7.054 -16.417   8.299  1.00  0.00     0.293 HD
ENDBRANCH   4  10
BRANCH   5  12
ATOM     12  O   UNL     1       9.943 -20.125   5.732  1.00  0.00    -0.504 OA
ATOM     13  H   UNL     1      10.617 -20.875   5.704  1.00  0.00     0.293 HD
ENDBRANCH   5  12
BRANCH   6  14
ATOM     14  O   UNL     1       7.473 -19.087   6.895  1.00  0.00    -0.502 OA
ATOM     15  H   UNL     1       6.707 -19.213   7.541  1.00  0.00     0.293 HD
ENDBRANCH   6  14
TORSDOF 4
ENDMDL
MODEL 2
REMARK VINA RESULT:    -4.210      1.365      4.360
REMARK INTER + INTRA:          -4.870
REMARK INTER:                  -4.825
REMARK INTRA:                  -0.045
REMARK UNBOUND:                -0.045
REMARK SMILES O=C([O-])c1cc(O)c(O)c(O)c1
REMARK SMILES IDX 4 1 5 2 12 3 6 4 10 5 8 6 2 7 1 8 3 9 7 10 11 12 9 14
REMARK H PARENT 7 11 11 13 9 15
REMARK Flexibility Score: inf
ROOT
ATOM      1  C   UNL     1       9.602 -18.443   7.314  1.00  0.00     0.005 A 
ATOM      2  C   UNL     1      10.146 -17.159   7.165  1.00  0.00     0.060 A 
ATOM      3  C   UNL     1      10.326 -19.412   8.029  1.00  0.00     0.060 A 
ATOM      4  C   UNL     1      11.393 -16.845   7.722  1.00  0.00     0.162 A 
ATOM      5  C   UNL     1      11.573 -19.111   8.590  1.00  0.00     0.162 A 
ATOM      6  C   UNL     1      12.114 -17.813   8.435  1.00  0.00     0.200 A 
ENDROOT
BRANCH   1   7
ATOM      7  C   UNL     1       8.284 -18.769   6.724  1.00  0.00     0.072 C 
ATOM      8  O   UNL     1       8.189 -19.106   5.514  1.00  0.00    -0.545 OA
ATOM      9  O   UNL     1       7.131 -18.706   7.499  1.00  0.00    -0.545 OA
ENDBRANCH   1   7
BRANCH   4  10
ATOM     10  O   UNL     1      11.926 -15.565   7.569  1.00  0.00    -0.504 OA
ATOM     11  H   UNL     1      11.447 -14.851   7.032  1.00  0.00     0.293 HD
ENDBRANCH   4  10
BRANCH   5  12
ATOM     12  O   UNL     1      12.233 -20.125   9.287  1.00  0.00    -0.504 OA
ATOM     13  H   UNL     1      11.784 -20.744   9.946  1.00  0.00     0.293 HD
ENDBRANCH   5  12
BRANCH   6  14
ATOM     14  O   UNL     1      13.353 -17.447   8.968  1.00  0.00    -0.502 OA
ATOM     15  H   UNL     1      13.508 -16.614   9.519  1.00  0.00     0.293 HD
ENDBRANCH   6  14
TORSDOF 4
ENDMDL
MODEL 3
REMARK VINA RESULT:    -4.141      1.375      4.597
REMARK INTER + INTRA:          -4.791
REMARK INTER:                  -4.746
REMARK INTRA:                  -0.045
REMARK UNBOUND:                -0.045
REMARK SMILES O=C([O-])c1cc(O)c(O)c(O)c1
REMARK SMILES IDX 4 1 5 2 12 3 6 4 10 5 8 6 2 7 1 8 3 9 7 10 11 12 9 14
REMARK H PARENT 7 11 11 13 9 15
REMARK Flexibility Score: inf
ROOT
ATOM      1  C   UNL     1       9.546 -18.382   7.312  1.00  0.00     0.005 A 
ATOM      2  C   UNL     1      10.195 -19.375   8.061  1.00  0.00     0.060 A 
ATOM      3  C   UNL     1      10.173 -17.136   7.145  1.00  0.00     0.060 A 
ATOM      4  C   UNL     1      11.450 -19.131   8.632  1.00  0.00     0.162 A 
ATOM      5  C   UNL     1      11.427 -16.878   7.712  1.00  0.00     0.162 A 
ATOM      6  C   UNL     1      12.074 -17.887   8.464  1.00  0.00     0.200 A 
ENDROOT
BRANCH   1   7
ATOM      7  C   UNL     1       8.220 -18.647   6.710  1.00  0.00     0.072 C 
ATOM      8  O   UNL     1       8.102 -18.814   5.467  1.00  0.00    -0.545 OA
ATOM      9  O   UNL     1       7.084 -18.715   7.510  1.00  0.00    -0.545 OA
ENDBRANCH   1   7
BRANCH   4  10
ATOM     10  O   UNL     1      12.087 -20.125   9.374  1.00  0.00    -0.504 OA
ATOM     11  H   UNL     1      12.919 -20.593   9.032  1.00  0.00     0.293 HD
ENDBRANCH   4  10
BRANCH   5  12
ATOM     12  O   UNL     1      11.988 -15.617   7.502  1.00  0.00    -0.504 OA
ATOM     13  H   UNL     1      12.274 -15.267   6.599  1.00  0.00     0.293 HD
ENDBRANCH   5  12
BRANCH   6  14
ATOM     14  O   UNL     1      13.326 -17.696   9.057  1.00  0.00    -0.502 OA
ATOM     15  H   UNL     1      14.181 -18.117   8.721  1.00  0.00     0.293 HD
ENDBRANCH   6  14
TORSDOF 4
ENDMDL
MODEL 4
REMARK VINA RESULT:    -4.127      1.705      1.888
REMARK INTER + INTRA:          -4.774
REMARK INTER:                  -4.722
REMARK INTRA:                  -0.052
REMARK UNBOUND:                -0.045
REMARK SMILES O=C([O-])c1cc(O)c(O)c(O)c1
REMARK SMILES IDX 4 1 5 2 12 3 6 4 10 5 8 6 2 7 1 8 3 9 7 10 11 12 9 14
REMARK H PARENT 7 11 11 13 9 15
REMARK Flexibility Score: inf
ROOT
ATOM      1  C   UNL     1      11.844 -17.159   8.032  1.00  0.00     0.005 A 
ATOM      2  C   UNL     1      10.840 -16.788   7.126  1.00  0.00     0.060 A 
ATOM      3  C   UNL     1      11.641 -18.279   8.855  1.00  0.00     0.060 A 
ATOM      4  C   UNL     1       9.652 -17.525   7.040  1.00  0.00     0.162 A 
ATOM      5  C   UNL     1      10.457 -19.023   8.779  1.00  0.00     0.162 A 
ATOM      6  C   UNL     1       9.450 -18.643   7.861  1.00  0.00     0.200 A 
ENDROOT
BRANCH   1   7
ATOM      7  C   UNL     1      13.098 -16.376   8.119  1.00  0.00     0.072 C 
ATOM      8  O   UNL     1      13.887 -16.535   9.088  1.00  0.00    -0.545 OA
ATOM      9  O   UNL     1      13.423 -15.455   7.130  1.00  0.00    -0.545 OA
ENDBRANCH   1   7
BRANCH   4  10
ATOM     10  O   UNL     1       8.659 -17.150   6.134  1.00  0.00    -0.504 OA
ATOM     11  H   UNL     1       8.475 -17.686   5.294  1.00  0.00     0.293 HD
ENDBRANCH   4  10
BRANCH   5  12
ATOM     12  O   UNL     1      10.327 -20.125   9.628  1.00  0.00    -0.504 OA
ATOM     13  H   UNL     1      11.106 -20.627  10.028  1.00  0.00     0.293 HD
ENDBRANCH   5  12
BRANCH   6  14
ATOM     14  O   UNL     1       8.246 -19.342   7.734  1.00  0.00    -0.502 OA
ATOM     15  H   UNL     1       7.354 -18.903   7.554  1.00  0.00     0.293 HD
ENDBRANCH   6  14
TORSDOF 4
ENDMDL
MODEL 5
REMARK VINA RESULT:    -4.118      1.714      2.085
REMARK INTER + INTRA:          -4.764
REMARK INTER:                  -4.712
REMARK INTRA:                  -0.053
REMARK UNBOUND:                -0.045
REMARK SMILES O=C([O-])c1cc(O)c(O)c(O)c1
REMARK SMILES IDX 4 1 5 2 12 3 6 4 10 5 8 6 2 7 1 8 3 9 7 10 11 12 9 14
REMARK H PARENT 7 11 11 13 9 15
REMARK Flexibility Score: inf
ROOT
ATOM      1  C   UNL     1      11.844 -17.092   8.007  1.00  0.00     0.005 A 
ATOM      2  C   UNL     1      11.730 -18.210   8.845  1.00  0.00     0.060 A 
ATOM      3  C   UNL     1      10.794 -16.791   7.124  1.00  0.00     0.060 A 
ATOM      4  C   UNL     1      10.584 -19.015   8.806  1.00  0.00     0.162 A 
ATOM      5  C   UNL     1       9.644 -17.588   7.074  1.00  0.00     0.162 A 
ATOM      6  C   UNL     1       9.537 -18.714   7.925  1.00  0.00     0.200 A 
ENDROOT
BRANCH   1   7
ATOM      7  C   UNL     1      13.058 -16.244   8.053  1.00  0.00     0.072 C 
ATOM      8  O   UNL     1      13.904 -16.386   8.976  1.00  0.00    -0.545 OA
ATOM      9  O   UNL     1      13.280 -15.279   7.078  1.00  0.00    -0.545 OA
ENDBRANCH   1   7
BRANCH   4  10
ATOM     10  O   UNL     1      10.479 -20.125   9.645  1.00  0.00    -0.504 OA
ATOM     11  H   UNL     1       9.734 -20.803   9.538  1.00  0.00     0.293 HD
ENDBRANCH   4  10
BRANCH   5  12
ATOM     12  O   UNL     1       8.641 -17.226   6.173  1.00  0.00    -0.504 OA
ATOM     13  H   UNL     1       8.188 -17.870   5.541  1.00  0.00     0.293 HD
ENDBRANCH   5  12
BRANCH   6  14
ATOM     14  O   UNL     1       8.417 -19.551   7.926  1.00  0.00    -0.502 OA
ATOM     15  H   UNL     1       7.511 -19.284   7.568  1.00  0.00     0.293 HD
ENDBRANCH   6  14
TORSDOF 4
ENDMDL
MODEL 6
REMARK VINA RESULT:    -4.112      2.406      4.851
REMARK INTER + INTRA:          -4.758
REMARK INTER:                  -4.708
REMARK INTRA:                  -0.050
REMARK UNBOUND:                -0.045
REMARK SMILES O=C([O-])c1cc(O)c(O)c(O)c1
REMARK SMILES IDX 4 1 5 2 12 3 6 4 10 5 8 6 2 7 1 8 3 9 7 10 11 12 9 14
REMARK H PARENT 7 11 11 13 9 15
REMARK Flexibility Score: inf
ROOT
ATOM      1  C   UNL     1       7.463 -19.366   8.321  1.00  0.00     0.005 A 
ATOM      2  C   UNL     1       8.666 -19.842   8.862  1.00  0.00     0.060 A 
ATOM      3  C   UNL     1       7.508 -18.422   7.282  1.00  0.00     0.060 A 
ATOM      4  C   UNL     1       9.897 -19.384   8.373  1.00  0.00     0.162 A 
ATOM      5  C   UNL     1       8.731 -17.956   6.784  1.00  0.00     0.162 A 
ATOM      6  C   UNL     1       9.940 -18.442   7.336  1.00  0.00     0.200 A 
ENDROOT
BRANCH   1   7
ATOM      7  C   UNL     1       6.165 -19.854   8.842  1.00  0.00     0.072 C 
ATOM      8  O   UNL     1       6.026 -20.125  10.064  1.00  0.00    -0.545 OA
ATOM      9  O   UNL     1       5.081 -20.019   7.988  1.00  0.00    -0.545 OA
ENDBRANCH   1   7
BRANCH   4  10
ATOM     10  O   UNL     1      11.088 -19.864   8.916  1.00  0.00    -0.504 OA
ATOM     11  H   UNL     1      11.636 -20.577   8.450  1.00  0.00     0.293 HD
ENDBRANCH   4  10
BRANCH   5  12
ATOM     12  O   UNL     1       8.697 -17.019   5.750  1.00  0.00    -0.504 OA
ATOM     13  H   UNL     1       7.867 -16.783   5.226  1.00  0.00     0.293 HD
ENDBRANCH   5  12
BRANCH   6  14
ATOM     14  O   UNL     1      11.195 -18.020   6.886  1.00  0.00    -0.502 OA
ATOM     15  H   UNL     1      12.058 -18.508   7.076  1.00  0.00     0.293 HD
ENDBRANCH   6  14
TORSDOF 4
ENDMDL
MODEL 7
REMARK VINA RESULT:    -4.061      2.431      4.710
REMARK INTER + INTRA:          -4.699
REMARK INTER:                  -4.650
REMARK INTRA:                  -0.049
REMARK UNBOUND:                -0.045
REMARK SMILES O=C([O-])c1cc(O)c(O)c(O)c1
REMARK SMILES IDX 4 1 5 2 12 3 6 4 10 5 8 6 2 7 1 8 3 9 7 10 11 12 9 14
REMARK H PARENT 7 11 11 13 9 15
REMARK Flexibility Score: inf
ROOT
ATOM      1  C   UNL     1       7.540 -19.387   8.354  1.00  0.00     0.005 A 
ATOM      2  C   UNL     1       7.632 -18.379   7.384  1.00  0.00     0.060 A 
ATOM      3  C   UNL     1       8.720 -19.951   8.867  1.00  0.00     0.060 A 
ATOM      4  C   UNL     1       8.883 -17.938   6.933  1.00  0.00     0.162 A 
ATOM      5  C   UNL     1       9.976 -19.519   8.424  1.00  0.00     0.162 A 
ATOM      6  C   UNL     1      10.060 -18.501   7.445  1.00  0.00     0.200 A 
ENDROOT
BRANCH   1   7
ATOM      7  C   UNL     1       6.215 -19.849   8.828  1.00  0.00     0.072 C 
ATOM      8  O   UNL     1       6.026 -20.115  10.045  1.00  0.00    -0.545 OA
ATOM      9  O   UNL     1       5.160 -19.997   7.935  1.00  0.00    -0.545 OA
ENDBRANCH   1   7
BRANCH   4  10
ATOM     10  O   UNL     1       8.964 -16.934   5.968  1.00  0.00    -0.504 OA
ATOM     11  H   UNL     1       9.285 -17.126   5.026  1.00  0.00     0.293 HD
ENDBRANCH   4  10
BRANCH   5  12
ATOM     12  O   UNL     1      11.105 -20.125   8.980  1.00  0.00    -0.504 OA
ATOM     13  H   UNL     1      11.991 -19.659   9.112  1.00  0.00     0.293 HD
ENDBRANCH   5  12
BRANCH   6  14
ATOM     14  O   UNL     1      11.281 -18.024   6.960  1.00  0.00    -0.502 OA
ATOM     15  H   UNL     1      11.367 -17.333   6.228  1.00  0.00     0.293 HD
ENDBRANCH   6  14
TORSDOF 4
ENDMDL
MODEL 8
REMARK VINA RESULT:    -3.773      2.718      4.882
REMARK INTER + INTRA:          -4.369
REMARK INTER:                  -4.316
REMARK INTRA:                  -0.053
REMARK UNBOUND:                -0.045
REMARK SMILES O=C([O-])c1cc(O)c(O)c(O)c1
REMARK SMILES IDX 4 1 5 2 12 3 6 4 10 5 8 6 2 7 1 8 3 9 7 10 11 12 9 14
REMARK H PARENT 7 11 11 13 9 15
REMARK Flexibility Score: inf
ROOT
ATOM      1  C   UNL     1       7.458 -19.919   7.943  1.00  0.00     0.005 A 
ATOM      2  C   UNL     1       8.605 -19.748   8.730  1.00  0.00     0.060 A 
ATOM      3  C   UNL     1       7.598 -20.037   6.550  1.00  0.00     0.060 A 
ATOM      4  C   UNL     1       9.874 -19.697   8.138  1.00  0.00     0.162 A 
ATOM      5  C   UNL     1       8.860 -19.987   5.946  1.00  0.00     0.162 A 
ATOM      6  C   UNL     1      10.012 -19.815   6.748  1.00  0.00     0.200 A 
ENDROOT
BRANCH   1   7
ATOM      7  C   UNL     1       6.120 -19.973   8.574  1.00  0.00     0.072 C 
ATOM      8  O   UNL     1       5.078 -20.009   7.866  1.00  0.00    -0.545 OA
ATOM      9  O   UNL     1       5.994 -19.985   9.958  1.00  0.00    -0.545 OA
ENDBRANCH   1   7
BRANCH   4  10
ATOM     10  O   UNL     1      11.010 -19.527   8.930  1.00  0.00    -0.504 OA
ATOM     11  H   UNL     1      11.130 -20.029   9.803  1.00  0.00     0.293 HD
ENDBRANCH   4  10
BRANCH   5  12
ATOM     12  O   UNL     1       8.921 -20.113   4.556  1.00  0.00    -0.504 OA
ATOM     13  H   UNL     1       8.820 -20.987   4.061  1.00  0.00     0.293 HD
ENDBRANCH   5  12
BRANCH   6  14
ATOM     14  O   UNL     1      11.301 -19.756   6.210  1.00  0.00    -0.502 OA
ATOM     15  H   UNL     1      11.864 -20.568   6.001  1.00  0.00     0.293 HD
ENDBRANCH   6  14
TORSDOF 4
ENDMDL
