MODEL 1
REMARK VINA RESULT:    -5.389      0.000      0.000
REMARK INTER + INTRA:          -9.389
REMARK INTER:                  -8.224
REMARK INTRA:                  -1.165
REMARK UNBOUND:                -1.165
REMARK SMILES CC(=O)CCC=C(C)CCC=C(C)CCC=C(C)C
REMARK SMILES IDX 10 1 11 2 12 3 13 4 14 5 15 6 16 7 18 8 17 9 19 10 9 11 7 12
REMARK SMILES IDX 6 13 8 14 5 15 4 16 2 17 3 18 1 19
REMARK H PARENT
REMARK Flexibility Score: inf
ROOT
ATOM      1  C   UNL     1      82.789   2.885  29.251  1.00  0.00     0.032 C 
ENDROOT
BRANCH   1   2
ATOM      2  C   UNL     1      84.296   2.826  29.325  1.00  0.00    -0.028 C 
ATOM      3  C   UNL     1      85.150   3.139  28.322  1.00  0.00    -0.077 C 
ATOM      4  C   UNL     1      86.629   2.999  28.584  1.00  0.00     0.039 C 
BRANCH   3   5
ATOM      5  C   UNL     1      84.695   3.632  26.959  1.00  0.00     0.034 C 
BRANCH   5   6
ATOM      6  C   UNL     1      84.453   5.150  26.933  1.00  0.00     0.032 C 
BRANCH   6   7
ATOM      7  C   UNL     1      83.044   5.489  26.505  1.00  0.00    -0.028 C 
ATOM      8  C   UNL     1      80.756   6.395  26.750  1.00  0.00     0.039 C 
ATOM      9  C   UNL     1      82.121   6.074  27.301  1.00  0.00    -0.080 C 
ATOM     10  C   UNL     1      82.388   6.372  28.755  1.00  0.00     0.039 C 
ENDBRANCH   6   7
ENDBRANCH   5   6
ENDBRANCH   3   5
ENDBRANCH   1   2
BRANCH   1  11
ATOM     11  C   UNL     1      82.175   2.194  30.473  1.00  0.00     0.034 C 
BRANCH  11  12
ATOM     12  C   UNL     1      81.731   3.218  31.500  1.00  0.00    -0.077 C 
ATOM     13  C   UNL     1      80.734   2.990  32.384  1.00  0.00    -0.028 C 
ATOM     14  C   UNL     1      82.477   4.523  31.587  1.00  0.00     0.039 C 
BRANCH  13  15
ATOM     15  C   UNL     1      79.870   1.751  32.414  1.00  0.00     0.035 C 
BRANCH  15  16
ATOM     16  C   UNL     1      80.576   0.586  33.121  1.00  0.00     0.079 C 
BRANCH  16  17
ATOM     17  C   UNL     1      80.579  -0.660  32.271  1.00  0.00     0.130 C 
ATOM     18  O   UNL     1      79.521  -1.205  31.998  1.00  0.00    -0.300 OA
ATOM     19  C   UNL     1      81.859  -1.247  31.754  1.00  0.00     0.087 C 
ENDBRANCH  16  17
ENDBRANCH  15  16
ENDBRANCH  13  15
ENDBRANCH  11  12
ENDBRANCH   1  11
TORSDOF 9
ENDMDL
MODEL 2
REMARK VINA RESULT:    -5.365      1.361      1.882
REMARK INTER + INTRA:          -9.354
REMARK INTER:                  -7.970
REMARK INTRA:                  -1.383
REMARK UNBOUND:                -1.165
REMARK SMILES CC(=O)CCC=C(C)CCC=C(C)CCC=C(C)C
REMARK SMILES IDX 10 1 11 2 12 3 13 4 14 5 15 6 16 7 18 8 17 9 19 10 9 11 7 12
REMARK SMILES IDX 6 13 8 14 5 15 4 16 2 17 3 18 1 19
REMARK H PARENT
REMARK Flexibility Score: inf
ROOT
ATOM      1  C   UNL     1      82.529   2.602  29.759  1.00  0.00     0.032 C 
ENDROOT
BRANCH   1   2
ATOM      2  C   UNL     1      84.025   2.722  29.597  1.00  0.00    -0.028 C 
ATOM      3  C   UNL     1      84.677   2.991  28.441  1.00  0.00    -0.077 C 
ATOM      4  C   UNL     1      86.184   3.052  28.478  1.00  0.00     0.039 C 
BRANCH   3   5
ATOM      5  C   UNL     1      83.969   3.243  27.120  1.00  0.00     0.034 C 
BRANCH   5   6
ATOM      6  C   UNL     1      84.129   4.692  26.635  1.00  0.00     0.032 C 
BRANCH   6   7
ATOM      7  C   UNL     1      82.794   5.362  26.412  1.00  0.00    -0.028 C 
ATOM      8  C   UNL     1      80.794   6.688  27.012  1.00  0.00     0.039 C 
ATOM      9  C   UNL     1      82.103   6.029  27.363  1.00  0.00    -0.080 C 
ATOM     10  C   UNL     1      82.568   6.094  28.797  1.00  0.00     0.039 C 
ENDBRANCH   6   7
ENDBRANCH   5   6
ENDBRANCH   3   5
ENDBRANCH   1   2
BRANCH   1  11
ATOM     11  C   UNL     1      82.166   1.211  30.287  1.00  0.00     0.034 C 
BRANCH  11  12
ATOM     12  C   UNL     1      81.339   1.319  31.553  1.00  0.00    -0.077 C 
ATOM     13  C   UNL     1      80.980   0.245  32.293  1.00  0.00    -0.028 C 
ATOM     14  C   UNL     1      80.955   2.688  32.050  1.00  0.00     0.039 C 
BRANCH  13  15
ATOM     15  C   UNL     1      81.260  -1.193  31.923  1.00  0.00     0.035 C 
BRANCH  15  16
ATOM     16  C   UNL     1      80.001  -1.897  31.399  1.00  0.00     0.079 C 
BRANCH  16  17
ATOM     17  C   UNL     1      80.246  -2.548  30.061  1.00  0.00     0.130 C 
ATOM     18  O   UNL     1      79.448  -3.368  29.635  1.00  0.00    -0.300 OA
ATOM     19  C   UNL     1      81.457  -2.213  29.241  1.00  0.00     0.087 C 
ENDBRANCH  16  17
ENDBRANCH  15  16
ENDBRANCH  13  15
ENDBRANCH  11  12
ENDBRANCH   1  11
TORSDOF 9
ENDMDL
MODEL 3
REMARK VINA RESULT:    -5.091      3.255      7.765
REMARK INTER + INTRA:          -8.935
REMARK INTER:                  -8.161
REMARK INTRA:                  -0.774
REMARK UNBOUND:                -1.165
REMARK SMILES CC(=O)CCC=C(C)CCC=C(C)CCC=C(C)C
REMARK SMILES IDX 10 1 11 2 12 3 13 4 14 5 15 6 16 7 18 8 17 9 19 10 9 11 7 12
REMARK SMILES IDX 6 13 8 14 5 15 4 16 2 17 3 18 1 19
REMARK H PARENT
REMARK Flexibility Score: inf
ROOT
ATOM      1  C   UNL     1      82.524   1.674  29.251  1.00  0.00     0.032 C 
ENDROOT
BRANCH   1   2
ATOM      2  C   UNL     1      82.256   0.880  30.506  1.00  0.00    -0.028 C 
ATOM      3  C   UNL     1      81.765  -0.381  30.555  1.00  0.00    -0.077 C 
ATOM      4  C   UNL     1      81.548  -1.003  31.911  1.00  0.00     0.039 C 
BRANCH   3   5
ATOM      5  C   UNL     1      81.434  -1.198  29.317  1.00  0.00     0.034 C 
BRANCH   5   6
ATOM      6  C   UNL     1      80.962  -2.620  29.660  1.00  0.00     0.032 C 
BRANCH   6   7
ATOM      7  C   UNL     1      81.432  -3.632  28.642  1.00  0.00    -0.028 C 
ATOM      8  C   UNL     1      81.359  -5.723  27.322  1.00  0.00     0.039 C 
ATOM      9  C   UNL     1      80.814  -4.807  28.388  1.00  0.00    -0.080 C 
ATOM     10  C   UNL     1      79.617  -5.272  29.179  1.00  0.00     0.039 C 
ENDBRANCH   6   7
ENDBRANCH   5   6
ENDBRANCH   3   5
ENDBRANCH   1   2
BRANCH   1  11
ATOM     11  C   UNL     1      83.275   2.965  29.594  1.00  0.00     0.034 C 
BRANCH  11  12
ATOM     12  C   UNL     1      84.446   3.170  28.653  1.00  0.00    -0.077 C 
ATOM     13  C   UNL     1      84.322   3.747  27.437  1.00  0.00    -0.028 C 
ATOM     14  C   UNL     1      85.824   2.777  29.119  1.00  0.00     0.039 C 
BRANCH  13  15
ATOM     15  C   UNL     1      83.014   4.171  26.810  1.00  0.00     0.035 C 
BRANCH  15  16
ATOM     16  C   UNL     1      82.926   5.696  26.662  1.00  0.00     0.079 C 
BRANCH  16  17
ATOM     17  C   UNL     1      81.913   6.288  27.610  1.00  0.00     0.130 C 
ATOM     18  O   UNL     1      81.993   6.046  28.805  1.00  0.00    -0.300 OA
ATOM     19  C   UNL     1      80.804   7.168  27.115  1.00  0.00     0.087 C 
ENDBRANCH  16  17
ENDBRANCH  15  16
ENDBRANCH  13  15
ENDBRANCH  11  12
ENDBRANCH   1  11
TORSDOF 9
ENDMDL
MODEL 4
REMARK VINA RESULT:    -5.057      9.195     12.259
REMARK INTER + INTRA:          -8.883
REMARK INTER:                  -5.802
REMARK INTRA:                  -3.081
REMARK UNBOUND:                -1.165
REMARK SMILES CC(=O)CCC=C(C)CCC=C(C)CCC=C(C)C
REMARK SMILES IDX 10 1 11 2 12 3 13 4 14 5 15 6 16 7 18 8 17 9 19 10 9 11 7 12
REMARK SMILES IDX 6 13 8 14 5 15 4 16 2 17 3 18 1 19
REMARK H PARENT
REMARK Flexibility Score: inf
ROOT
ATOM      1  C   UNL     1      82.041  -6.250  27.059  1.00  0.00     0.032 C 
ENDROOT
BRANCH   1   2
ATOM      2  C   UNL     1      81.481  -7.582  26.620  1.00  0.00    -0.028 C 
ATOM      3  C   UNL     1      81.197  -8.627  27.433  1.00  0.00    -0.077 C 
ATOM      4  C   UNL     1      80.659  -9.886  26.801  1.00  0.00     0.039 C 
BRANCH   3   5
ATOM      5  C   UNL     1      81.384  -8.590  28.940  1.00  0.00     0.034 C 
BRANCH   5   6
ATOM      6  C   UNL     1      80.211  -9.237  29.694  1.00  0.00     0.032 C 
BRANCH   6   7
ATOM      7  C   UNL     1      79.092  -8.254  29.945  1.00  0.00    -0.028 C 
ATOM      8  C   UNL     1      76.758  -7.436  29.980  1.00  0.00     0.039 C 
ATOM      9  C   UNL     1      77.792  -8.482  29.652  1.00  0.00    -0.080 C 
ATOM     10  C   UNL     1      77.336  -9.734  28.946  1.00  0.00     0.039 C 
ENDBRANCH   6   7
ENDBRANCH   5   6
ENDBRANCH   3   5
ENDBRANCH   1   2
BRANCH   1  11
ATOM     11  C   UNL     1      81.020  -5.138  26.798  1.00  0.00     0.034 C 
BRANCH  11  12
ATOM     12  C   UNL     1      79.907  -5.182  27.826  1.00  0.00    -0.077 C 
ATOM     13  C   UNL     1      78.649  -5.585  27.534  1.00  0.00    -0.028 C 
ATOM     14  C   UNL     1      80.229  -4.827  29.254  1.00  0.00     0.039 C 
BRANCH  13  15
ATOM     15  C   UNL     1      78.156  -5.946  26.153  1.00  0.00     0.035 C 
BRANCH  15  16
ATOM     16  C   UNL     1      77.323  -7.235  26.169  1.00  0.00     0.079 C 
BRANCH  16  17
ATOM     17  C   UNL     1      77.378  -7.948  24.841  1.00  0.00     0.130 C 
ATOM     18  O   UNL     1      76.368  -8.470  24.395  1.00  0.00    -0.300 OA
ATOM     19  C   UNL     1      78.653  -8.032  24.054  1.00  0.00     0.087 C 
ENDBRANCH  16  17
ENDBRANCH  15  16
ENDBRANCH  13  15
ENDBRANCH  11  12
ENDBRANCH   1  11
TORSDOF 9
ENDMDL
MODEL 5
REMARK VINA RESULT:    -5.007      8.689     12.462
REMARK INTER + INTRA:          -8.807
REMARK INTER:                  -5.928
REMARK INTRA:                  -2.878
REMARK UNBOUND:                -1.165
REMARK SMILES CC(=O)CCC=C(C)CCC=C(C)CCC=C(C)C
REMARK SMILES IDX 10 1 11 2 12 3 13 4 14 5 15 6 16 7 18 8 17 9 19 10 9 11 7 12
REMARK SMILES IDX 6 13 8 14 5 15 4 16 2 17 3 18 1 19
REMARK H PARENT
REMARK Flexibility Score: inf
ROOT
ATOM      1  C   UNL     1      80.102  -9.557  29.345  1.00  0.00     0.032 C 
ENDROOT
BRANCH   1   2
ATOM      2  C   UNL     1      79.027  -8.643  29.882  1.00  0.00    -0.028 C 
ATOM      3  C   UNL     1      77.754  -8.564  29.427  1.00  0.00    -0.077 C 
ATOM      4  C   UNL     1      76.829  -7.571  30.084  1.00  0.00     0.039 C 
BRANCH   3   5
ATOM      5  C   UNL     1      77.214  -9.430  28.301  1.00  0.00     0.034 C 
BRANCH   5   6
ATOM      6  C   UNL     1      76.396  -8.623  27.280  1.00  0.00     0.032 C 
BRANCH   6   7
ATOM      7  C   UNL     1      77.057  -8.599  25.922  1.00  0.00    -0.028 C 
ATOM      8  C   UNL     1      78.388  -7.653  24.063  1.00  0.00     0.039 C 
ATOM      9  C   UNL     1      77.743  -7.547  25.421  1.00  0.00    -0.080 C 
ATOM     10  C   UNL     1      77.840  -6.231  26.153  1.00  0.00     0.039 C 
ENDBRANCH   6   7
ENDBRANCH   5   6
ENDBRANCH   3   5
ENDBRANCH   1   2
BRANCH   1  11
ATOM     11  C   UNL     1      81.238  -8.731  28.732  1.00  0.00     0.034 C 
BRANCH  11  12
ATOM     12  C   UNL     1      81.063  -8.611  27.231  1.00  0.00    -0.077 C 
ATOM     13  C   UNL     1      81.468  -7.531  26.525  1.00  0.00    -0.028 C 
ATOM     14  C   UNL     1      80.473  -9.775  26.478  1.00  0.00     0.039 C 
BRANCH  13  15
ATOM     15  C   UNL     1      82.050  -6.274  27.128  1.00  0.00     0.035 C 
BRANCH  15  16
ATOM     16  C   UNL     1      81.059  -5.105  27.063  1.00  0.00     0.079 C 
BRANCH  16  17
ATOM     17  C   UNL     1      80.748  -4.566  28.437  1.00  0.00     0.130 C 
ATOM     18  O   UNL     1      81.347  -3.585  28.850  1.00  0.00    -0.300 OA
ATOM     19  C   UNL     1      79.716  -5.214  29.312  1.00  0.00     0.087 C 
ENDBRANCH  16  17
ENDBRANCH  15  16
ENDBRANCH  13  15
ENDBRANCH  11  12
ENDBRANCH   1  11
TORSDOF 9
ENDMDL
MODEL 6
REMARK VINA RESULT:    -4.992      9.235     12.221
REMARK INTER + INTRA:          -8.784
REMARK INTER:                  -6.075
REMARK INTRA:                  -2.709
REMARK UNBOUND:                -1.165
REMARK SMILES CC(=O)CCC=C(C)CCC=C(C)CCC=C(C)C
REMARK SMILES IDX 10 1 11 2 12 3 13 4 14 5 15 6 16 7 18 8 17 9 19 10 9 11 7 12
REMARK SMILES IDX 6 13 8 14 5 15 4 16 2 17 3 18 1 19
REMARK H PARENT
REMARK Flexibility Score: inf
ROOT
ATOM      1  C   UNL     1      79.659  -5.932  29.714  1.00  0.00     0.032 C 
ENDROOT
BRANCH   1   2
ATOM      2  C   UNL     1      79.009  -7.291  29.624  1.00  0.00    -0.028 C 
ATOM      3  C   UNL     1      79.630  -8.445  29.284  1.00  0.00    -0.077 C 
ATOM      4  C   UNL     1      78.802  -9.705  29.232  1.00  0.00     0.039 C 
BRANCH   3   5
ATOM      5  C   UNL     1      81.113  -8.534  28.964  1.00  0.00     0.034 C 
BRANCH   5   6
ATOM      6  C   UNL     1      81.379  -9.119  27.568  1.00  0.00     0.032 C 
BRANCH   6   7
ATOM      7  C   UNL     1      82.274  -8.224  26.744  1.00  0.00    -0.028 C 
ATOM      8  C   UNL     1      84.392  -7.459  25.719  1.00  0.00     0.039 C 
ATOM      9  C   UNL     1      83.607  -8.400  26.596  1.00  0.00    -0.080 C 
ATOM     10  C   UNL     1      84.360  -9.481  27.330  1.00  0.00     0.039 C 
ENDBRANCH   6   7
ENDBRANCH   5   6
ENDBRANCH   3   5
ENDBRANCH   1   2
BRANCH   1  11
ATOM     11  C   UNL     1      79.175  -5.040  28.567  1.00  0.00     0.034 C 
BRANCH  11  12
ATOM     12  C   UNL     1      79.983  -5.299  27.310  1.00  0.00    -0.077 C 
ATOM     13  C   UNL     1      79.451  -5.839  26.190  1.00  0.00    -0.028 C 
ATOM     14  C   UNL     1      81.428  -4.872  27.280  1.00  0.00     0.039 C 
BRANCH  13  15
ATOM     15  C   UNL     1      78.033  -6.344  26.063  1.00  0.00     0.035 C 
BRANCH  15  16
ATOM     16  C   UNL     1      77.985  -7.873  25.952  1.00  0.00     0.079 C 
BRANCH  16  17
ATOM     17  C   UNL     1      78.459  -8.347  24.601  1.00  0.00     0.130 C 
ATOM     18  O   UNL     1      78.002  -7.838  23.590  1.00  0.00    -0.300 OA
ATOM     19  C   UNL     1      79.482  -9.438  24.473  1.00  0.00     0.087 C 
ENDBRANCH  16  17
ENDBRANCH  15  16
ENDBRANCH  13  15
ENDBRANCH  11  12
ENDBRANCH   1  11
TORSDOF 9
ENDMDL
MODEL 7
REMARK VINA RESULT:    -4.900      8.475     12.377
REMARK INTER + INTRA:          -8.644
REMARK INTER:                  -6.018
REMARK INTRA:                  -2.626
REMARK UNBOUND:                -1.165
REMARK SMILES CC(=O)CCC=C(C)CCC=C(C)CCC=C(C)C
REMARK SMILES IDX 10 1 11 2 12 3 13 4 14 5 15 6 16 7 18 8 17 9 19 10 9 11 7 12
REMARK SMILES IDX 6 13 8 14 5 15 4 16 2 17 3 18 1 19
REMARK H PARENT
REMARK Flexibility Score: inf
ROOT
ATOM      1  C   UNL     1      78.660  -5.885  29.324  1.00  0.00     0.032 C 
ENDROOT
BRANCH   1   2
ATOM      2  C   UNL     1      79.036  -7.303  29.684  1.00  0.00    -0.028 C 
ATOM      3  C   UNL     1      78.194  -8.364  29.703  1.00  0.00    -0.077 C 
ATOM      4  C   UNL     1      78.756  -9.703  30.109  1.00  0.00     0.039 C 
BRANCH   3   5
ATOM      5  C   UNL     1      76.724  -8.273  29.327  1.00  0.00     0.034 C 
BRANCH   5   6
ATOM      6  C   UNL     1      76.415  -8.969  27.992  1.00  0.00     0.032 C 
BRANCH   6   7
ATOM      7  C   UNL     1      76.876  -8.151  26.810  1.00  0.00    -0.028 C 
ATOM      8  C   UNL     1      78.266  -7.594  24.840  1.00  0.00     0.039 C 
ATOM      9  C   UNL     1      77.920  -8.474  26.014  1.00  0.00    -0.080 C 
ATOM     10  C   UNL     1      78.802  -9.666  26.291  1.00  0.00     0.039 C 
ENDBRANCH   6   7
ENDBRANCH   5   6
ENDBRANCH   3   5
ENDBRANCH   1   2
BRANCH   1  11
ATOM     11  C   UNL     1      79.222  -5.526  27.944  1.00  0.00     0.034 C 
BRANCH  11  12
ATOM     12  C   UNL     1      80.679  -5.121  28.048  1.00  0.00    -0.077 C 
ATOM     13  C   UNL     1      81.680  -5.810  27.455  1.00  0.00    -0.028 C 
ATOM     14  C   UNL     1      81.025  -3.856  28.788  1.00  0.00     0.039 C 
BRANCH  13  15
ATOM     15  C   UNL     1      81.508  -7.109  26.702  1.00  0.00     0.035 C 
BRANCH  15  16
ATOM     16  C   UNL     1      82.044  -8.302  27.504  1.00  0.00     0.079 C 
BRANCH  16  17
ATOM     17  C   UNL     1      83.393  -8.748  26.999  1.00  0.00     0.130 C 
ATOM     18  O   UNL     1      83.963  -9.680  27.546  1.00  0.00    -0.300 OA
ATOM     19  C   UNL     1      84.055  -8.067  25.838  1.00  0.00     0.087 C 
ENDBRANCH  16  17
ENDBRANCH  15  16
ENDBRANCH  13  15
ENDBRANCH  11  12
ENDBRANCH   1  11
TORSDOF 9
ENDMDL
MODEL 8
REMARK VINA RESULT:    -4.863      8.326     11.850
REMARK INTER + INTRA:          -8.587
REMARK INTER:                  -6.159
REMARK INTRA:                  -2.428
REMARK UNBOUND:                -1.165
REMARK SMILES CC(=O)CCC=C(C)CCC=C(C)CCC=C(C)C
REMARK SMILES IDX 10 1 11 2 12 3 13 4 14 5 15 6 16 7 18 8 17 9 19 10 9 11 7 12
REMARK SMILES IDX 6 13 8 14 5 15 4 16 2 17 3 18 1 19
REMARK H PARENT
REMARK Flexibility Score: inf
ROOT
ATOM      1  C   UNL     1      78.418  -6.558  28.709  1.00  0.00     0.032 C 
ENDROOT
BRANCH   1   2
ATOM      2  C   UNL     1      79.277  -5.392  29.137  1.00  0.00    -0.028 C 
ATOM      3  C   UNL     1      80.279  -4.839  28.413  1.00  0.00    -0.077 C 
ATOM      4  C   UNL     1      81.038  -3.688  29.022  1.00  0.00     0.039 C 
BRANCH   3   5
ATOM      5  C   UNL     1      80.665  -5.313  27.022  1.00  0.00     0.034 C 
BRANCH   5   6
ATOM      6  C   UNL     1      82.061  -5.956  26.987  1.00  0.00     0.032 C 
BRANCH   6   7
ATOM      7  C   UNL     1      81.993  -7.436  26.696  1.00  0.00    -0.028 C 
ATOM      8  C   UNL     1      82.849  -9.657  26.021  1.00  0.00     0.039 C 
ATOM      9  C   UNL     1      83.029  -8.177  26.243  1.00  0.00    -0.080 C 
ATOM     10  C   UNL     1      84.361  -7.564  25.891  1.00  0.00     0.039 C 
ENDBRANCH   6   7
ENDBRANCH   5   6
ENDBRANCH   3   5
ENDBRANCH   1   2
BRANCH   1  11
ATOM     11  C   UNL     1      78.528  -7.696  29.729  1.00  0.00     0.034 C 
BRANCH  11  12
ATOM     12  C   UNL     1      79.690  -8.608  29.389  1.00  0.00    -0.077 C 
ATOM     13  C   UNL     1      79.634  -9.542  28.413  1.00  0.00    -0.028 C 
ATOM     14  C   UNL     1      80.991  -8.423  30.125  1.00  0.00     0.039 C 
BRANCH  13  15
ATOM     15  C   UNL     1      78.402  -9.873  27.603  1.00  0.00     0.035 C 
BRANCH  15  16
ATOM     16  C   UNL     1      78.632  -9.645  26.104  1.00  0.00     0.079 C 
BRANCH  16  17
ATOM     17  C   UNL     1      77.800  -8.500  25.582  1.00  0.00     0.130 C 
ATOM     18  O   UNL     1      76.586  -8.529  25.714  1.00  0.00    -0.300 OA
ATOM     19  C   UNL     1      78.433  -7.325  24.898  1.00  0.00     0.087 C 
ENDBRANCH  16  17
ENDBRANCH  15  16
ENDBRANCH  13  15
ENDBRANCH  11  12
ENDBRANCH   1  11
TORSDOF 9
ENDMDL
MODEL 9
REMARK VINA RESULT:    -4.848      8.857     12.258
REMARK INTER + INTRA:          -8.564
REMARK INTER:                  -6.093
REMARK INTRA:                  -2.472
REMARK UNBOUND:                -1.165
REMARK SMILES CC(=O)CCC=C(C)CCC=C(C)CCC=C(C)C
REMARK SMILES IDX 10 1 11 2 12 3 13 4 14 5 15 6 16 7 18 8 17 9 19 10 9 11 7 12
REMARK SMILES IDX 6 13 8 14 5 15 4 16 2 17 3 18 1 19
REMARK H PARENT
REMARK Flexibility Score: inf
ROOT
ATOM      1  C   UNL     1      77.774  -9.497  26.989  1.00  0.00     0.032 C 
ENDROOT
BRANCH   1   2
ATOM      2  C   UNL     1      78.072  -9.219  25.535  1.00  0.00    -0.028 C 
ATOM      3  C   UNL     1      78.035  -8.005  24.937  1.00  0.00    -0.077 C 
ATOM      4  C   UNL     1      78.347  -7.933  23.464  1.00  0.00     0.039 C 
BRANCH   3   5
ATOM      5  C   UNL     1      77.705  -6.718  25.677  1.00  0.00     0.034 C 
BRANCH   5   6
ATOM      6  C   UNL     1      78.964  -5.949  26.106  1.00  0.00     0.032 C 
BRANCH   6   7
ATOM      7  C   UNL     1      78.955  -5.634  27.583  1.00  0.00    -0.028 C 
ATOM      8  C   UNL     1      79.839  -4.756  29.721  1.00  0.00     0.039 C 
ATOM      9  C   UNL     1      79.978  -5.052  28.250  1.00  0.00    -0.080 C 
ATOM     10  C   UNL     1      81.293  -4.736  27.583  1.00  0.00     0.039 C 
ENDBRANCH   6   7
ENDBRANCH   5   6
ENDBRANCH   3   5
ENDBRANCH   1   2
BRANCH   1  11
ATOM     11  C   UNL     1      79.008 -10.092  27.675  1.00  0.00     0.034 C 
BRANCH  11  12
ATOM     12  C   UNL     1      79.617  -9.094  28.640  1.00  0.00    -0.077 C 
ATOM     13  C   UNL     1      80.877  -8.620  28.513  1.00  0.00    -0.028 C 
ATOM     14  C   UNL     1      78.760  -8.551  29.753  1.00  0.00     0.039 C 
BRANCH  13  15
ATOM     15  C   UNL     1      81.873  -9.079  27.474  1.00  0.00     0.035 C 
BRANCH  15  16
ATOM     16  C   UNL     1      82.347  -7.916  26.592  1.00  0.00     0.079 C 
BRANCH  16  17
ATOM     17  C   UNL     1      83.818  -8.022  26.278  1.00  0.00     0.130 C 
ATOM     18  O   UNL     1      84.342  -7.185  25.559  1.00  0.00    -0.300 OA
ATOM     19  C   UNL     1      84.654  -9.139  26.830  1.00  0.00     0.087 C 
ENDBRANCH  16  17
ENDBRANCH  15  16
ENDBRANCH  13  15
ENDBRANCH  11  12
ENDBRANCH   1  11
TORSDOF 9
ENDMDL
