MODEL 1
REMARK VINA RESULT:    -4.245      0.000      0.000
REMARK INTER + INTRA:          -9.250
REMARK INTER:                  -7.719
REMARK INTRA:                  -1.531
REMARK UNBOUND:                -1.531
REMARK SMILES CCCCCCCCCCCCCC[C@H](C)C(=O)[O-]
REMARK SMILES IDX 9 1 10 2 11 3 12 4 13 5 14 6 15 7 16 8 17 9 18 10 19 11 8 12
REMARK SMILES IDX 7 13 6 14 5 15 4 16 3 17 2 18 1 19
REMARK H PARENT
REMARK Flexibility Score: inf
ROOT
ATOM      1  C   UNL     1      33.217  47.459  24.837  1.00  0.00     0.000 C 
ENDROOT
BRANCH   1   2
ATOM      2  C   UNL     1      34.492  48.305  24.931  1.00  0.00     0.000 C 
BRANCH   2   3
ATOM      3  C   UNL     1      34.799  48.682  26.387  1.00  0.00     0.000 C 
BRANCH   3   4
ATOM      4  C   UNL     1      34.454  50.153  26.659  1.00  0.00     0.000 C 
BRANCH   4   5
ATOM      5  C   UNL     1      32.968  50.369  26.996  1.00  0.00     0.001 C 
BRANCH   5   6
ATOM      6  C   UNL     1      32.183  51.232  25.986  1.00  0.00     0.009 C 
BRANCH   6   7
ATOM      7  C   UNL     1      30.993  50.521  25.300  1.00  0.00     0.032 C 
ATOM      8  C   UNL     1      31.187  50.384  23.784  1.00  0.00     0.014 C 
BRANCH   7   9
ATOM      9  C   UNL     1      29.722  51.271  25.589  1.00  0.00     0.044 C 
ATOM     10  O   UNL     1      28.693  51.085  24.884  1.00  0.00    -0.550 OA
ATOM     11  O   UNL     1      29.678  52.187  26.632  1.00  0.00    -0.550 OA
ENDBRANCH   7   9
ENDBRANCH   6   7
ENDBRANCH   5   6
ENDBRANCH   4   5
ENDBRANCH   3   4
ENDBRANCH   2   3
ENDBRANCH   1   2
BRANCH   1  12
ATOM     12  C   UNL     1      33.002  46.644  26.121  1.00  0.00     0.000 C 
BRANCH  12  13
ATOM     13  C   UNL     1      33.094  45.124  25.890  1.00  0.00    -0.000 C 
BRANCH  13  14
ATOM     14  C   UNL     1      34.192  44.410  26.700  1.00  0.00    -0.000 C 
BRANCH  14  15
ATOM     15  C   UNL     1      35.625  44.908  26.435  1.00  0.00    -0.000 C 
BRANCH  15  16
ATOM     16  C   UNL     1      36.680  43.780  26.410  1.00  0.00    -0.000 C 
BRANCH  16  17
ATOM     17  C   UNL     1      36.446  42.786  25.260  1.00  0.00    -0.000 C 
BRANCH  17  18
ATOM     18  C   UNL     1      37.682  41.921  24.966  1.00  0.00    -0.003 C 
ATOM     19  C   UNL     1      37.501  41.025  23.742  1.00  0.00     0.004 C 
ENDBRANCH  17  18
ENDBRANCH  16  17
ENDBRANCH  15  16
ENDBRANCH  14  15
ENDBRANCH  13  14
ENDBRANCH  12  13
ENDBRANCH   1  12
TORSDOF 14
ENDMDL
MODEL 2
REMARK VINA RESULT:    -4.184      4.046      8.382
REMARK INTER + INTRA:          -9.139
REMARK INTER:                  -7.623
REMARK INTRA:                  -1.516
REMARK UNBOUND:                -1.531
REMARK SMILES CCCCCCCCCCCCCC[C@H](C)C(=O)[O-]
REMARK SMILES IDX 9 1 10 2 11 3 12 4 13 5 14 6 15 7 16 8 17 9 18 10 19 11 8 12
REMARK SMILES IDX 7 13 6 14 5 15 4 16 3 17 2 18 1 19
REMARK H PARENT
REMARK Flexibility Score: inf
ROOT
ATOM      1  C   UNL     1      34.536  48.104  25.176  1.00  0.00     0.000 C 
ENDROOT
BRANCH   1   2
ATOM      2  C   UNL     1      33.081  47.684  24.933  1.00  0.00     0.000 C 
BRANCH   2   3
ATOM      3  C   UNL     1      32.936  46.157  24.959  1.00  0.00     0.000 C 
BRANCH   3   4
ATOM      4  C   UNL     1      32.534  45.666  26.357  1.00  0.00     0.000 C 
BRANCH   4   5
ATOM      5  C   UNL     1      33.605  44.773  27.009  1.00  0.00     0.001 C 
BRANCH   5   6
ATOM      6  C   UNL     1      34.667  44.207  26.043  1.00  0.00     0.009 C 
BRANCH   6   7
ATOM      7  C   UNL     1      36.103  44.140  26.612  1.00  0.00     0.032 C 
ATOM      8  C   UNL     1      36.785  45.514  26.644  1.00  0.00     0.014 C 
BRANCH   7   9
ATOM      9  C   UNL     1      36.925  43.178  25.799  1.00  0.00     0.044 C 
ATOM     10  O   UNL     1      36.398  42.514  24.866  1.00  0.00    -0.550 OA
ATOM     11  O   UNL     1      38.274  43.006  26.082  1.00  0.00    -0.550 OA
ENDBRANCH   7   9
ENDBRANCH   6   7
ENDBRANCH   5   6
ENDBRANCH   4   5
ENDBRANCH   3   4
ENDBRANCH   2   3
ENDBRANCH   1   2
BRANCH   1  12
ATOM     12  C   UNL     1      34.710  48.694  26.583  1.00  0.00     0.000 C 
BRANCH  12  13
ATOM     13  C   UNL     1      34.697  50.234  26.594  1.00  0.00    -0.000 C 
BRANCH  13  14
ATOM     14  C   UNL     1      33.297  50.872  26.668  1.00  0.00    -0.000 C 
BRANCH  14  15
ATOM     15  C   UNL     1      33.241  52.365  26.298  1.00  0.00    -0.000 C 
BRANCH  15  16
ATOM     16  C   UNL     1      31.810  52.948  26.281  1.00  0.00    -0.000 C 
BRANCH  16  17
ATOM     17  C   UNL     1      31.193  52.943  24.873  1.00  0.00    -0.000 C 
BRANCH  17  18
ATOM     18  C   UNL     1      30.260  51.745  24.641  1.00  0.00    -0.003 C 
ATOM     19  C   UNL     1      30.907  50.641  23.806  1.00  0.00     0.004 C 
ENDBRANCH  17  18
ENDBRANCH  16  17
ENDBRANCH  15  16
ENDBRANCH  14  15
ENDBRANCH  13  14
ENDBRANCH  12  13
ENDBRANCH   1  12
TORSDOF 14
ENDMDL
MODEL 3
REMARK VINA RESULT:    -4.132      2.837      8.108
REMARK INTER + INTRA:          -9.045
REMARK INTER:                  -7.235
REMARK INTRA:                  -1.809
REMARK UNBOUND:                -1.531
REMARK SMILES CCCCCCCCCCCCCC[C@H](C)C(=O)[O-]
REMARK SMILES IDX 9 1 10 2 11 3 12 4 13 5 14 6 15 7 16 8 17 9 18 10 19 11 8 12
REMARK SMILES IDX 7 13 6 14 5 15 4 16 3 17 2 18 1 19
REMARK H PARENT
REMARK Flexibility Score: inf
ROOT
ATOM      1  C   UNL     1      31.293  49.353  25.729  1.00  0.00     0.000 C 
ENDROOT
BRANCH   1   2
ATOM      2  C   UNL     1      32.169  49.777  26.913  1.00  0.00     0.000 C 
BRANCH   2   3
ATOM      3  C   UNL     1      33.274  50.742  26.464  1.00  0.00     0.000 C 
BRANCH   3   4
ATOM      4  C   UNL     1      34.634  50.031  26.401  1.00  0.00     0.000 C 
BRANCH   4   5
ATOM      5  C   UNL     1      34.629  48.665  27.109  1.00  0.00     0.001 C 
BRANCH   5   6
ATOM      6  C   UNL     1      34.931  47.453  26.203  1.00  0.00     0.009 C 
BRANCH   6   7
ATOM      7  C   UNL     1      34.568  46.076  26.807  1.00  0.00     0.032 C 
ATOM      8  C   UNL     1      35.619  45.003  26.491  1.00  0.00     0.014 C 
BRANCH   7   9
ATOM      9  C   UNL     1      33.222  45.640  26.299  1.00  0.00     0.044 C 
ATOM     10  O   UNL     1      32.164  46.110  26.799  1.00  0.00    -0.550 OA
ATOM     11  O   UNL     1      33.136  44.702  25.277  1.00  0.00    -0.550 OA
ENDBRANCH   7   9
ENDBRANCH   6   7
ENDBRANCH   5   6
ENDBRANCH   4   5
ENDBRANCH   3   4
ENDBRANCH   2   3
ENDBRANCH   1   2
BRANCH   1  12
ATOM     12  C   UNL     1      31.486  50.300  24.535  1.00  0.00     0.000 C 
BRANCH  12  13
ATOM     13  C   UNL     1      30.161  50.886  24.012  1.00  0.00    -0.000 C 
BRANCH  13  14
ATOM     14  C   UNL     1      29.027  50.954  25.052  1.00  0.00    -0.000 C 
BRANCH  14  15
ATOM     15  C   UNL     1      28.855  52.320  25.740  1.00  0.00    -0.000 C 
BRANCH  15  16
ATOM     16  C   UNL     1      29.939  52.624  26.798  1.00  0.00    -0.000 C 
BRANCH  16  17
ATOM     17  C   UNL     1      30.412  54.086  26.749  1.00  0.00    -0.000 C 
BRANCH  17  18
ATOM     18  C   UNL     1      30.420  54.657  25.322  1.00  0.00    -0.003 C 
ATOM     19  C   UNL     1      31.588  54.141  24.484  1.00  0.00     0.004 C 
ENDBRANCH  17  18
ENDBRANCH  16  17
ENDBRANCH  15  16
ENDBRANCH  14  15
ENDBRANCH  13  14
ENDBRANCH  12  13
ENDBRANCH   1  12
TORSDOF 14
ENDMDL
MODEL 4
REMARK VINA RESULT:    -4.056      1.410      1.725
REMARK INTER + INTRA:          -8.905
REMARK INTER:                  -7.844
REMARK INTRA:                  -1.061
REMARK UNBOUND:                -1.531
REMARK SMILES CCCCCCCCCCCCCC[C@H](C)C(=O)[O-]
REMARK SMILES IDX 9 1 10 2 11 3 12 4 13 5 14 6 15 7 16 8 17 9 18 10 19 11 8 12
REMARK SMILES IDX 7 13 6 14 5 15 4 16 3 17 2 18 1 19
REMARK H PARENT
REMARK Flexibility Score: inf
ROOT
ATOM      1  C   UNL     1      34.468  48.356  25.274  1.00  0.00     0.000 C 
ENDROOT
BRANCH   1   2
ATOM      2  C   UNL     1      33.051  48.941  25.302  1.00  0.00     0.000 C 
BRANCH   2   3
ATOM      3  C   UNL     1      32.782  49.672  26.624  1.00  0.00     0.000 C 
BRANCH   3   4
ATOM      4  C   UNL     1      33.866  50.725  26.900  1.00  0.00     0.000 C 
BRANCH   4   5
ATOM      5  C   UNL     1      33.509  52.113  26.340  1.00  0.00     0.001 C 
BRANCH   5   6
ATOM      6  C   UNL     1      32.006  52.461  26.351  1.00  0.00     0.009 C 
BRANCH   6   7
ATOM      7  C   UNL     1      31.405  52.819  24.972  1.00  0.00     0.032 C 
ATOM      8  C   UNL     1      30.585  54.116  25.009  1.00  0.00     0.014 C 
BRANCH   7   9
ATOM      9  C   UNL     1      30.547  51.685  24.484  1.00  0.00     0.044 C 
ATOM     10  O   UNL     1      30.859  51.047  23.442  1.00  0.00    -0.550 OA
ATOM     11  O   UNL     1      29.393  51.339  25.177  1.00  0.00    -0.550 OA
ENDBRANCH   7   9
ENDBRANCH   6   7
ENDBRANCH   5   6
ENDBRANCH   4   5
ENDBRANCH   3   4
ENDBRANCH   2   3
ENDBRANCH   1   2
BRANCH   1  12
ATOM     12  C   UNL     1      34.560  47.095  26.146  1.00  0.00     0.000 C 
BRANCH  12  13
ATOM     13  C   UNL     1      33.500  46.037  25.787  1.00  0.00    -0.000 C 
BRANCH  13  14
ATOM     14  C   UNL     1      33.961  44.576  25.944  1.00  0.00    -0.000 C 
BRANCH  14  15
ATOM     15  C   UNL     1      35.218  44.380  26.813  1.00  0.00    -0.000 C 
BRANCH  15  16
ATOM     16  C   UNL     1      36.472  43.974  26.008  1.00  0.00    -0.000 C 
BRANCH  16  17
ATOM     17  C   UNL     1      36.583  42.451  25.826  1.00  0.00    -0.000 C 
BRANCH  17  18
ATOM     18  C   UNL     1      36.873  42.049  24.371  1.00  0.00    -0.003 C 
ATOM     19  C   UNL     1      37.654  40.741  24.262  1.00  0.00     0.004 C 
ENDBRANCH  17  18
ENDBRANCH  16  17
ENDBRANCH  15  16
ENDBRANCH  14  15
ENDBRANCH  13  14
ENDBRANCH  12  13
ENDBRANCH   1  12
TORSDOF 14
ENDMDL
MODEL 5
REMARK VINA RESULT:    -3.989      4.416      9.008
REMARK INTER + INTRA:          -8.785
REMARK INTER:                  -7.677
REMARK INTRA:                  -1.107
REMARK UNBOUND:                -1.531
REMARK SMILES CCCCCCCCCCCCCC[C@H](C)C(=O)[O-]
REMARK SMILES IDX 9 1 10 2 11 3 12 4 13 5 14 6 15 7 16 8 17 9 18 10 19 11 8 12
REMARK SMILES IDX 7 13 6 14 5 15 4 16 3 17 2 18 1 19
REMARK H PARENT
REMARK Flexibility Score: inf
ROOT
ATOM      1  C   UNL     1      33.668  48.044  24.881  1.00  0.00     0.000 C 
ENDROOT
BRANCH   1   2
ATOM      2  C   UNL     1      34.005  47.001  25.952  1.00  0.00     0.000 C 
BRANCH   2   3
ATOM      3  C   UNL     1      33.374  45.643  25.618  1.00  0.00     0.000 C 
BRANCH   3   4
ATOM      4  C   UNL     1      33.578  44.644  26.766  1.00  0.00     0.000 C 
BRANCH   4   5
ATOM      5  C   UNL     1      35.049  44.226  26.943  1.00  0.00     0.001 C 
BRANCH   5   6
ATOM      6  C   UNL     1      35.664  43.465  25.750  1.00  0.00     0.009 C 
BRANCH   6   7
ATOM      7  C   UNL     1      36.754  42.432  26.123  1.00  0.00     0.032 C 
ATOM      8  C   UNL     1      38.125  43.083  26.347  1.00  0.00     0.014 C 
BRANCH   7   9
ATOM      9  C   UNL     1      36.851  41.389  25.043  1.00  0.00     0.044 C 
ATOM     10  O   UNL     1      36.930  41.726  23.831  1.00  0.00    -0.550 OA
ATOM     11  O   UNL     1      36.842  40.041  25.379  1.00  0.00    -0.550 OA
ENDBRANCH   7   9
ENDBRANCH   6   7
ENDBRANCH   5   6
ENDBRANCH   4   5
ENDBRANCH   3   4
ENDBRANCH   2   3
ENDBRANCH   1   2
BRANCH   1  12
ATOM     12  C   UNL     1      32.471  48.906  25.309  1.00  0.00     0.000 C 
BRANCH  12  13
ATOM     13  C   UNL     1      32.757  49.747  26.567  1.00  0.00    -0.000 C 
BRANCH  13  14
ATOM     14  C   UNL     1      33.832  50.835  26.391  1.00  0.00    -0.000 C 
BRANCH  14  15
ATOM     15  C   UNL     1      33.299  52.279  26.364  1.00  0.00    -0.000 C 
BRANCH  15  16
ATOM     16  C   UNL     1      31.757  52.372  26.333  1.00  0.00    -0.000 C 
BRANCH  16  17
ATOM     17  C   UNL     1      31.228  52.869  24.978  1.00  0.00    -0.000 C 
BRANCH  17  18
ATOM     18  C   UNL     1      30.652  51.734  24.117  1.00  0.00    -0.003 C 
ATOM     19  C   UNL     1      29.488  51.009  24.791  1.00  0.00     0.004 C 
ENDBRANCH  17  18
ENDBRANCH  16  17
ENDBRANCH  15  16
ENDBRANCH  14  15
ENDBRANCH  13  14
ENDBRANCH  12  13
ENDBRANCH   1  12
TORSDOF 14
ENDMDL
MODEL 6
REMARK VINA RESULT:    -3.973      4.612      9.321
REMARK INTER + INTRA:          -8.755
REMARK INTER:                  -7.837
REMARK INTRA:                  -0.918
REMARK UNBOUND:                -1.531
REMARK SMILES CCCCCCCCCCCCCC[C@H](C)C(=O)[O-]
REMARK SMILES IDX 9 1 10 2 11 3 12 4 13 5 14 6 15 7 16 8 17 9 18 10 19 11 8 12
REMARK SMILES IDX 7 13 6 14 5 15 4 16 3 17 2 18 1 19
REMARK H PARENT
REMARK Flexibility Score: inf
ROOT
ATOM      1  C   UNL     1      34.730  48.225  25.379  1.00  0.00     0.000 C 
ENDROOT
BRANCH   1   2
ATOM      2  C   UNL     1      34.880  46.832  26.001  1.00  0.00     0.000 C 
BRANCH   2   3
ATOM      3  C   UNL     1      33.529  46.107  26.062  1.00  0.00     0.000 C 
BRANCH   3   4
ATOM      4  C   UNL     1      33.723  44.583  26.072  1.00  0.00     0.000 C 
BRANCH   4   5
ATOM      5  C   UNL     1      35.157  44.164  26.443  1.00  0.00     0.001 C 
BRANCH   5   6
ATOM      6  C   UNL     1      35.836  43.195  25.452  1.00  0.00     0.009 C 
BRANCH   6   7
ATOM      7  C   UNL     1      36.911  42.270  26.071  1.00  0.00     0.032 C 
ATOM      8  C   UNL     1      38.231  43.005  26.338  1.00  0.00     0.014 C 
BRANCH   7   9
ATOM      9  C   UNL     1      37.152  41.097  25.162  1.00  0.00     0.044 C 
ATOM     10  O   UNL     1      36.967  39.919  25.572  1.00  0.00    -0.550 OA
ATOM     11  O   UNL     1      37.593  41.306  23.861  1.00  0.00    -0.550 OA
ENDBRANCH   7   9
ENDBRANCH   6   7
ENDBRANCH   5   6
ENDBRANCH   4   5
ENDBRANCH   3   4
ENDBRANCH   2   3
ENDBRANCH   1   2
BRANCH   1  12
ATOM     12  C   UNL     1      34.645  49.307  26.467  1.00  0.00     0.000 C 
BRANCH  12  13
ATOM     13  C   UNL     1      33.396  50.197  26.332  1.00  0.00    -0.000 C 
BRANCH  13  14
ATOM     14  C   UNL     1      32.196  49.531  25.633  1.00  0.00    -0.000 C 
BRANCH  14  15
ATOM     15  C   UNL     1      30.872  50.311  25.728  1.00  0.00    -0.000 C 
BRANCH  15  16
ATOM     16  C   UNL     1      30.323  50.772  24.359  1.00  0.00    -0.000 C 
BRANCH  16  17
ATOM     17  C   UNL     1      30.857  52.155  23.951  1.00  0.00    -0.000 C 
BRANCH  17  18
ATOM     18  C   UNL     1      31.261  53.013  25.159  1.00  0.00    -0.003 C 
ATOM     19  C   UNL     1      30.490  54.330  25.236  1.00  0.00     0.004 C 
ENDBRANCH  17  18
ENDBRANCH  16  17
ENDBRANCH  15  16
ENDBRANCH  14  15
ENDBRANCH  13  14
ENDBRANCH  12  13
ENDBRANCH   1  12
TORSDOF 14
ENDMDL
MODEL 7
REMARK VINA RESULT:    -3.913      1.174      1.528
REMARK INTER + INTRA:          -8.646
REMARK INTER:                  -7.481
REMARK INTRA:                  -1.164
REMARK UNBOUND:                -1.531
REMARK SMILES CCCCCCCCCCCCCC[C@H](C)C(=O)[O-]
REMARK SMILES IDX 9 1 10 2 11 3 12 4 13 5 14 6 15 7 16 8 17 9 18 10 19 11 8 12
REMARK SMILES IDX 7 13 6 14 5 15 4 16 3 17 2 18 1 19
REMARK H PARENT
REMARK Flexibility Score: inf
ROOT
ATOM      1  C   UNL     1      33.117  46.046  25.247  1.00  0.00     0.000 C 
ENDROOT
BRANCH   1   2
ATOM      2  C   UNL     1      33.143  47.483  25.781  1.00  0.00     0.000 C 
BRANCH   2   3
ATOM      3  C   UNL     1      34.425  48.208  25.353  1.00  0.00     0.000 C 
BRANCH   3   4
ATOM      4  C   UNL     1      34.652  49.470  26.199  1.00  0.00     0.000 C 
BRANCH   4   5
ATOM      5  C   UNL     1      33.349  50.042  26.785  1.00  0.00     0.001 C 
BRANCH   5   6
ATOM      6  C   UNL     1      32.838  51.334  26.114  1.00  0.00     0.009 C 
BRANCH   6   7
ATOM      7  C   UNL     1      31.403  51.254  25.542  1.00  0.00     0.032 C 
ATOM      8  C   UNL     1      31.332  50.425  24.252  1.00  0.00     0.014 C 
BRANCH   7   9
ATOM      9  C   UNL     1      30.881  52.641  25.289  1.00  0.00     0.044 C 
ATOM     10  O   UNL     1      31.660  53.563  24.925  1.00  0.00    -0.550 OA
ATOM     11  O   UNL     1      29.532  52.918  25.469  1.00  0.00    -0.550 OA
ENDBRANCH   7   9
ENDBRANCH   6   7
ENDBRANCH   5   6
ENDBRANCH   4   5
ENDBRANCH   3   4
ENDBRANCH   2   3
ENDBRANCH   1   2
BRANCH   1  12
ATOM     12  C   UNL     1      32.699  45.058  26.345  1.00  0.00     0.000 C 
BRANCH  12  13
ATOM     13  C   UNL     1      33.897  44.340  26.995  1.00  0.00    -0.000 C 
BRANCH  13  14
ATOM     14  C   UNL     1      35.178  44.310  26.140  1.00  0.00    -0.000 C 
BRANCH  14  15
ATOM     15  C   UNL     1      36.469  43.989  26.914  1.00  0.00    -0.000 C 
BRANCH  15  16
ATOM     16  C   UNL     1      37.323  42.878  26.264  1.00  0.00    -0.000 C 
BRANCH  16  17
ATOM     17  C   UNL     1      36.752  42.416  24.913  1.00  0.00    -0.000 C 
BRANCH  17  18
ATOM     18  C   UNL     1      37.386  41.107  24.419  1.00  0.00    -0.003 C 
ATOM     19  C   UNL     1      37.285  39.976  25.442  1.00  0.00     0.004 C 
ENDBRANCH  17  18
ENDBRANCH  16  17
ENDBRANCH  15  16
ENDBRANCH  14  15
ENDBRANCH  13  14
ENDBRANCH  12  13
ENDBRANCH   1  12
TORSDOF 14
ENDMDL
MODEL 8
REMARK VINA RESULT:    -3.870      4.146      9.003
REMARK INTER + INTRA:          -8.569
REMARK INTER:                  -7.380
REMARK INTRA:                  -1.189
REMARK UNBOUND:                -1.531
REMARK SMILES CCCCCCCCCCCCCC[C@H](C)C(=O)[O-]
REMARK SMILES IDX 9 1 10 2 11 3 12 4 13 5 14 6 15 7 16 8 17 9 18 10 19 11 8 12
REMARK SMILES IDX 7 13 6 14 5 15 4 16 3 17 2 18 1 19
REMARK H PARENT
REMARK Flexibility Score: inf
ROOT
ATOM      1  C   UNL     1      32.619  48.819  24.742  1.00  0.00     0.000 C 
ENDROOT
BRANCH   1   2
ATOM      2  C   UNL     1      33.337  48.161  25.925  1.00  0.00     0.000 C 
BRANCH   2   3
ATOM      3  C   UNL     1      32.347  47.412  26.825  1.00  0.00     0.000 C 
BRANCH   3   4
ATOM      4  C   UNL     1      32.683  45.914  26.888  1.00  0.00     0.000 C 
BRANCH   4   5
ATOM      5  C   UNL     1      33.678  45.478  25.797  1.00  0.00     0.001 C 
BRANCH   5   6
ATOM      6  C   UNL     1      34.339  44.102  26.023  1.00  0.00     0.009 C 
BRANCH   6   7
ATOM      7  C   UNL     1      35.806  44.150  26.510  1.00  0.00     0.032 C 
ATOM      8  C   UNL     1      36.409  45.558  26.411  1.00  0.00     0.014 C 
BRANCH   7   9
ATOM      9  C   UNL     1      36.635  43.180  25.715  1.00  0.00     0.044 C 
ATOM     10  O   UNL     1      36.094  42.420  24.866  1.00  0.00    -0.550 OA
ATOM     11  O   UNL     1      38.007  43.107  25.921  1.00  0.00    -0.550 OA
ENDBRANCH   7   9
ENDBRANCH   6   7
ENDBRANCH   5   6
ENDBRANCH   4   5
ENDBRANCH   3   4
ENDBRANCH   2   3
ENDBRANCH   1   2
BRANCH   1  12
ATOM     12  C   UNL     1      32.018  50.173  25.149  1.00  0.00     0.000 C 
BRANCH  12  13
ATOM     13  C   UNL     1      30.876  50.627  24.220  1.00  0.00    -0.000 C 
BRANCH  13  14
ATOM     14  C   UNL     1      29.477  50.632  24.864  1.00  0.00    -0.000 C 
BRANCH  14  15
ATOM     15  C   UNL     1      28.998  52.005  25.370  1.00  0.00    -0.000 C 
BRANCH  15  16
ATOM     16  C   UNL     1      29.592  52.405  26.739  1.00  0.00    -0.000 C 
BRANCH  16  17
ATOM     17  C   UNL     1      30.599  53.561  26.626  1.00  0.00    -0.000 C 
BRANCH  17  18
ATOM     18  C   UNL     1      30.406  54.389  25.345  1.00  0.00    -0.003 C 
ATOM     19  C   UNL     1      31.540  54.198  24.339  1.00  0.00     0.004 C 
ENDBRANCH  17  18
ENDBRANCH  16  17
ENDBRANCH  15  16
ENDBRANCH  14  15
ENDBRANCH  13  14
ENDBRANCH  12  13
ENDBRANCH   1  12
TORSDOF 14
ENDMDL
MODEL 9
REMARK VINA RESULT:    -3.745      1.615      2.291
REMARK INTER + INTRA:          -8.340
REMARK INTER:                  -7.563
REMARK INTRA:                  -0.777
REMARK UNBOUND:                -1.531
REMARK SMILES CCCCCCCCCCCCCC[C@H](C)C(=O)[O-]
REMARK SMILES IDX 9 1 10 2 11 3 12 4 13 5 14 6 15 7 16 8 17 9 18 10 19 11 8 12
REMARK SMILES IDX 7 13 6 14 5 15 4 16 3 17 2 18 1 19
REMARK H PARENT
REMARK Flexibility Score: inf
ROOT
ATOM      1  C   UNL     1      34.304  46.958  25.663  1.00  0.00     0.000 C 
ENDROOT
BRANCH   1   2
ATOM      2  C   UNL     1      33.831  48.407  25.825  1.00  0.00     0.000 C 
BRANCH   2   3
ATOM      3  C   UNL     1      32.755  48.755  24.789  1.00  0.00     0.000 C 
BRANCH   3   4
ATOM      4  C   UNL     1      31.923  49.964  25.244  1.00  0.00     0.000 C 
BRANCH   4   5
ATOM      5  C   UNL     1      31.017  50.521  24.131  1.00  0.00     0.001 C 
BRANCH   5   6
ATOM      6  C   UNL     1      30.018  51.609  24.579  1.00  0.00     0.009 C 
BRANCH   6   7
ATOM      7  C   UNL     1      30.515  52.525  25.722  1.00  0.00     0.032 C 
ATOM      8  C   UNL     1      29.497  52.640  26.864  1.00  0.00     0.014 C 
BRANCH   7   9
ATOM      9  C   UNL     1      30.828  53.891  25.174  1.00  0.00     0.044 C 
ATOM     10  O   UNL     1      31.485  54.018  24.106  1.00  0.00    -0.550 OA
ATOM     11  O   UNL     1      30.403  55.025  25.855  1.00  0.00    -0.550 OA
ENDBRANCH   7   9
ENDBRANCH   6   7
ENDBRANCH   5   6
ENDBRANCH   4   5
ENDBRANCH   3   4
ENDBRANCH   2   3
ENDBRANCH   1   2
BRANCH   1  12
ATOM     12  C   UNL     1      33.116  46.015  25.425  1.00  0.00     0.000 C 
BRANCH  12  13
ATOM     13  C   UNL     1      33.149  44.767  26.327  1.00  0.00    -0.000 C 
BRANCH  13  14
ATOM     14  C   UNL     1      34.530  44.432  26.921  1.00  0.00    -0.000 C 
BRANCH  14  15
ATOM     15  C   UNL     1      35.462  43.632  25.991  1.00  0.00    -0.000 C 
BRANCH  15  16
ATOM     16  C   UNL     1      36.963  43.832  26.295  1.00  0.00    -0.000 C 
BRANCH  16  17
ATOM     17  C   UNL     1      37.841  42.751  25.643  1.00  0.00    -0.000 C 
BRANCH  17  18
ATOM     18  C   UNL     1      37.026  41.545  25.152  1.00  0.00    -0.003 C 
ATOM     19  C   UNL     1      37.619  40.897  23.902  1.00  0.00     0.004 C 
ENDBRANCH  17  18
ENDBRANCH  16  17
ENDBRANCH  15  16
ENDBRANCH  14  15
ENDBRANCH  13  14
ENDBRANCH  12  13
ENDBRANCH   1  12
TORSDOF 14
ENDMDL
