MODEL 1
REMARK VINA RESULT:    -4.160      0.000      0.000
REMARK INTER + INTRA:          -5.046
REMARK INTER:                  -5.011
REMARK INTRA:                  -0.035
REMARK UNBOUND:                -0.035
REMARK SMILES CC[C@@H](C)[C@H]([NH3+])C(=O)[O-]
REMARK SMILES IDX 3 1 4 2 5 3 6 4 7 8 8 9 9 10 2 11 1 12
REMARK H PARENT 6 5 6 6 6 7
REMARK Flexibility Score: inf
ROOT
ATOM      1  C   UNL     1     157.066 165.004 229.385  1.00  0.00     0.050 C 
ATOM      2  C   UNL     1     156.669 163.729 230.156  1.00  0.00     0.014 C 
ENDROOT
BRANCH   1   3
ATOM      3  C   UNL     1     156.397 166.291 229.959  1.00  0.00     0.230 C 
BRANCH   3   4
ATOM      4  N   UNL     1     156.105 167.294 228.924  1.00  0.00    -0.350 N 
ATOM      5  H   UNL     1     155.465 168.039 229.283  1.00  0.00     0.345 HD
ATOM      6  H   UNL     1     155.646 166.828 228.107  1.00  0.00     0.345 HD
ATOM      7  H   UNL     1     156.988 167.733 228.582  1.00  0.00     0.345 HD
ENDBRANCH   3   4
BRANCH   3   8
ATOM      8  C   UNL     1     157.231 166.889 231.066  1.00  0.00     0.099 C 
ATOM      9  O   UNL     1     157.852 167.968 230.871  1.00  0.00    -0.544 OA
ATOM     10  O   UNL     1     157.291 166.286 232.317  1.00  0.00    -0.544 OA
ENDBRANCH   3   8
ENDBRANCH   1   3
BRANCH   1  11
ATOM     11  C   UNL     1     158.606 165.157 229.311  1.00  0.00     0.006 C 
ATOM     12  C   UNL     1     159.348 164.057 230.074  1.00  0.00     0.004 C 
ENDBRANCH   1  11
TORSDOF 4
ENDMDL
MODEL 2
REMARK VINA RESULT:    -4.149     13.286     14.485
REMARK INTER + INTRA:          -5.033
REMARK INTER:                  -5.006
REMARK INTRA:                  -0.028
REMARK UNBOUND:                -0.035
REMARK SMILES CC[C@@H](C)[C@H]([NH3+])C(=O)[O-]
REMARK SMILES IDX 3 1 4 2 5 3 6 4 7 8 8 9 9 10 2 11 1 12
REMARK H PARENT 6 5 6 6 6 7
REMARK Flexibility Score: inf
ROOT
ATOM      1  C   UNL     1     160.903 152.973 229.335  1.00  0.00     0.050 C 
ATOM      2  C   UNL     1     161.309 154.272 230.060  1.00  0.00     0.014 C 
ENDROOT
BRANCH   1   3
ATOM      3  C   UNL     1     161.598 151.708 229.928  1.00  0.00     0.230 C 
BRANCH   3   4
ATOM      4  N   UNL     1     161.900 150.692 228.909  1.00  0.00    -0.350 N 
ATOM      5  H   UNL     1     161.055 150.460 228.338  1.00  0.00     0.345 HD
ATOM      6  H   UNL     1     162.235 149.818 229.376  1.00  0.00     0.345 HD
ATOM      7  H   UNL     1     162.663 151.025 228.277  1.00  0.00     0.345 HD
ENDBRANCH   3   4
BRANCH   3   8
ATOM      8  C   UNL     1     160.781 151.116 231.051  1.00  0.00     0.099 C 
ATOM      9  O   UNL     1     160.187 150.019 230.883  1.00  0.00    -0.544 OA
ATOM     10  O   UNL     1     160.710 151.747 232.287  1.00  0.00    -0.544 OA
ENDBRANCH   3   8
ENDBRANCH   1   3
BRANCH   1  11
ATOM     11  C   UNL     1     159.363 152.806 229.305  1.00  0.00     0.006 C 
ATOM     12  C   UNL     1     158.633 153.897 230.092  1.00  0.00     0.004 C 
ENDBRANCH   1  11
TORSDOF 4
ENDMDL
MODEL 3
REMARK VINA RESULT:    -4.082     12.650     13.746
REMARK INTER + INTRA:          -4.952
REMARK INTER:                  -4.918
REMARK INTRA:                  -0.034
REMARK UNBOUND:                -0.035
REMARK SMILES CC[C@@H](C)[C@H]([NH3+])C(=O)[O-]
REMARK SMILES IDX 3 1 4 2 5 3 6 4 7 8 8 9 9 10 2 11 1 12
REMARK H PARENT 6 5 6 6 6 7
REMARK Flexibility Score: inf
ROOT
ATOM      1  C   UNL     1     160.314 151.962 229.281  1.00  0.00     0.050 C 
ATOM      2  C   UNL     1     158.963 152.650 229.559  1.00  0.00     0.014 C 
ENDROOT
BRANCH   1   3
ATOM      3  C   UNL     1     161.516 152.958 229.308  1.00  0.00     0.230 C 
BRANCH   3   4
ATOM      4  N   UNL     1     162.786 152.310 229.666  1.00  0.00    -0.350 N 
ATOM      5  H   UNL     1     163.438 152.980 230.135  1.00  0.00     0.345 HD
ATOM      6  H   UNL     1     163.249 151.948 228.801  1.00  0.00     0.345 HD
ATOM      7  H   UNL     1     162.615 151.496 230.298  1.00  0.00     0.345 HD
ENDBRANCH   3   4
BRANCH   3   8
ATOM      8  C   UNL     1     161.232 154.127 230.219  1.00  0.00     0.099 C 
ATOM      9  O   UNL     1     161.210 153.958 231.467  1.00  0.00    -0.544 OA
ATOM     10  O   UNL     1     161.036 155.402 229.701  1.00  0.00    -0.544 OA
ENDBRANCH   3   8
ENDBRANCH   1   3
BRANCH   1  11
ATOM     11  C   UNL     1     160.548 150.775 230.249  1.00  0.00     0.006 C 
ATOM     12  C   UNL     1     159.540 150.742 231.401  1.00  0.00     0.004 C 
ENDBRANCH   1  11
TORSDOF 4
ENDMDL
MODEL 4
REMARK VINA RESULT:    -4.074      1.967      3.045
REMARK INTER + INTRA:          -4.943
REMARK INTER:                  -4.905
REMARK INTRA:                  -0.038
REMARK UNBOUND:                -0.035
REMARK SMILES CC[C@@H](C)[C@H]([NH3+])C(=O)[O-]
REMARK SMILES IDX 3 1 4 2 5 3 6 4 7 8 8 9 9 10 2 11 1 12
REMARK H PARENT 6 5 6 6 6 7
REMARK Flexibility Score: inf
ROOT
ATOM      1  C   UNL     1     157.709 165.998 229.318  1.00  0.00     0.050 C 
ATOM      2  C   UNL     1     159.061 165.348 229.672  1.00  0.00     0.014 C 
ENDROOT
BRANCH   1   3
ATOM      3  C   UNL     1     156.527 164.978 229.330  1.00  0.00     0.230 C 
BRANCH   3   4
ATOM      4  N   UNL     1     155.233 165.608 229.630  1.00  0.00    -0.350 N 
ATOM      5  H   UNL     1     154.745 165.124 230.418  1.00  0.00     0.345 HD
ATOM      6  H   UNL     1     154.619 165.564 228.783  1.00  0.00     0.345 HD
ATOM      7  H   UNL     1     155.364 166.616 229.872  1.00  0.00     0.345 HD
ENDBRANCH   3   4
BRANCH   3   8
ATOM      8  C   UNL     1     156.803 163.838 230.280  1.00  0.00     0.099 C 
ATOM      9  O   UNL     1     156.771 164.037 231.523  1.00  0.00    -0.544 OA
ATOM     10  O   UNL     1     157.052 162.558 229.801  1.00  0.00    -0.544 OA
ENDBRANCH   3   8
ENDBRANCH   1   3
BRANCH   1  11
ATOM     11  C   UNL     1     157.413 167.210 230.236  1.00  0.00     0.006 C 
ATOM     12  C   UNL     1     158.338 167.272 231.454  1.00  0.00     0.004 C 
ENDBRANCH   1  11
TORSDOF 4
ENDMDL
MODEL 5
REMARK VINA RESULT:    -4.063      1.887      2.418
REMARK INTER + INTRA:          -4.929
REMARK INTER:                  -4.847
REMARK INTRA:                  -0.082
REMARK UNBOUND:                -0.035
REMARK SMILES CC[C@@H](C)[C@H]([NH3+])C(=O)[O-]
REMARK SMILES IDX 3 1 4 2 5 3 6 4 7 8 8 9 9 10 2 11 1 12
REMARK H PARENT 6 5 6 6 6 7
REMARK Flexibility Score: inf
ROOT
ATOM      1  C   UNL     1     156.978 163.601 230.016  1.00  0.00     0.050 C 
ATOM      2  C   UNL     1     156.021 162.705 229.204  1.00  0.00     0.014 C 
ENDROOT
BRANCH   1   3
ATOM      3  C   UNL     1     156.544 165.100 230.021  1.00  0.00     0.230 C 
BRANCH   3   4
ATOM      4  N   UNL     1     155.246 165.320 229.368  1.00  0.00    -0.350 N 
ATOM      5  H   UNL     1     155.334 165.968 228.552  1.00  0.00     0.345 HD
ATOM      6  H   UNL     1     154.577 165.741 230.054  1.00  0.00     0.345 HD
ATOM      7  H   UNL     1     154.840 164.413 229.047  1.00  0.00     0.345 HD
ENDBRANCH   3   4
BRANCH   3   8
ATOM      8  C   UNL     1     157.610 165.975 229.409  1.00  0.00     0.099 C 
ATOM      9  O   UNL     1     157.525 167.228 229.506  1.00  0.00    -0.544 OA
ATOM     10  O   UNL     1     158.712 165.415 228.773  1.00  0.00    -0.544 OA
ENDBRANCH   3   8
ENDBRANCH   1   3
BRANCH   1  11
ATOM     11  C   UNL     1     157.159 163.064 231.458  1.00  0.00     0.006 C 
ATOM     12  C   UNL     1     157.550 164.159 232.454  1.00  0.00     0.004 C 
ENDBRANCH   1  11
TORSDOF 4
ENDMDL
MODEL 6
REMARK VINA RESULT:    -4.029     12.440     13.488
REMARK INTER + INTRA:          -4.888
REMARK INTER:                  -4.761
REMARK INTRA:                  -0.127
REMARK UNBOUND:                -0.035
REMARK SMILES CC[C@@H](C)[C@H]([NH3+])C(=O)[O-]
REMARK SMILES IDX 3 1 4 2 5 3 6 4 7 8 8 9 9 10 2 11 1 12
REMARK H PARENT 6 5 6 6 6 7
REMARK Flexibility Score: inf
ROOT
ATOM      1  C   UNL     1     160.984 154.384 229.997  1.00  0.00     0.050 C 
ATOM      2  C   UNL     1     161.966 155.300 229.239  1.00  0.00     0.014 C 
ENDROOT
BRANCH   1   3
ATOM      3  C   UNL     1     161.435 152.890 230.004  1.00  0.00     0.230 C 
BRANCH   3   4
ATOM      4  N   UNL     1     162.720 152.678 229.321  1.00  0.00    -0.350 N 
ATOM      5  H   UNL     1     163.520 152.716 229.992  1.00  0.00     0.345 HD
ATOM      6  H   UNL     1     162.857 153.422 228.598  1.00  0.00     0.345 HD
ATOM      7  H   UNL     1     162.724 151.756 228.830  1.00  0.00     0.345 HD
ENDBRANCH   3   4
BRANCH   3   8
ATOM      8  C   UNL     1     160.364 151.997 229.425  1.00  0.00     0.099 C 
ATOM      9  O   UNL     1     160.440 150.749 229.574  1.00  0.00    -0.544 OA
ATOM     10  O   UNL     1     159.268 152.538 228.763  1.00  0.00    -0.544 OA
ENDBRANCH   3   8
ENDBRANCH   1   3
BRANCH   1  11
ATOM     11  C   UNL     1     160.732 154.901 231.435  1.00  0.00     0.006 C 
ATOM     12  C   UNL     1     159.253 154.873 231.825  1.00  0.00     0.004 C 
ENDBRANCH   1  11
TORSDOF 4
ENDMDL
MODEL 7
REMARK VINA RESULT:    -4.029      2.242      2.997
REMARK INTER + INTRA:          -4.888
REMARK INTER:                  -4.824
REMARK INTRA:                  -0.064
REMARK UNBOUND:                -0.035
REMARK SMILES CC[C@@H](C)[C@H]([NH3+])C(=O)[O-]
REMARK SMILES IDX 3 1 4 2 5 3 6 4 7 8 8 9 9 10 2 11 1 12
REMARK H PARENT 6 5 6 6 6 7
REMARK Flexibility Score: inf
ROOT
ATOM      1  C   UNL     1     157.576 165.709 230.589  1.00  0.00     0.050 C 
ATOM      2  C   UNL     1     157.464 167.246 230.651  1.00  0.00     0.014 C 
ENDROOT
BRANCH   1   3
ATOM      3  C   UNL     1     156.543 165.067 229.612  1.00  0.00     0.230 C 
BRANCH   3   4
ATOM      4  N   UNL     1     155.278 165.814 229.547  1.00  0.00    -0.350 N 
ATOM      5  H   UNL     1     155.143 166.257 228.610  1.00  0.00     0.345 HD
ATOM      6  H   UNL     1     155.280 166.567 230.273  1.00  0.00     0.345 HD
ATOM      7  H   UNL     1     154.471 165.183 229.750  1.00  0.00     0.345 HD
ENDBRANCH   3   4
BRANCH   3   8
ATOM      8  C   UNL     1     156.295 163.619 229.959  1.00  0.00     0.099 C 
ATOM      9  O   UNL     1     156.022 162.793 229.048  1.00  0.00    -0.544 OA
ATOM     10  O   UNL     1     156.405 163.173 231.271  1.00  0.00    -0.544 OA
ENDBRANCH   3   8
ENDBRANCH   1   3
BRANCH   1  11
ATOM     11  C   UNL     1     159.021 165.267 230.248  1.00  0.00     0.006 C 
ATOM     12  C   UNL     1     159.608 164.307 231.286  1.00  0.00     0.004 C 
ENDBRANCH   1  11
TORSDOF 4
ENDMDL
MODEL 8
REMARK VINA RESULT:    -3.965     17.011     17.604
REMARK INTER + INTRA:          -4.811
REMARK INTER:                  -4.676
REMARK INTRA:                  -0.135
REMARK UNBOUND:                -0.035
REMARK SMILES CC[C@@H](C)[C@H]([NH3+])C(=O)[O-]
REMARK SMILES IDX 3 1 4 2 5 3 6 4 7 8 8 9 9 10 2 11 1 12
REMARK H PARENT 6 5 6 6 6 7
REMARK Flexibility Score: inf
ROOT
ATOM      1  C   UNL     1     160.352 156.674 217.074  1.00  0.00     0.050 C 
ATOM      2  C   UNL     1     159.575 155.780 218.061  1.00  0.00     0.014 C 
ENDROOT
BRANCH   1   3
ATOM      3  C   UNL     1     160.948 155.873 215.874  1.00  0.00     0.230 C 
BRANCH   3   4
ATOM      4  N   UNL     1     160.026 154.851 215.356  1.00  0.00    -0.350 N 
ATOM      5  H   UNL     1     159.291 154.609 216.058  1.00  0.00     0.345 HD
ATOM      6  H   UNL     1     160.563 153.983 215.125  1.00  0.00     0.345 HD
ATOM      7  H   UNL     1     159.570 155.183 214.477  1.00  0.00     0.345 HD
ENDBRANCH   3   4
BRANCH   3   8
ATOM      8  C   UNL     1     162.279 155.261 216.238  1.00  0.00     0.099 C 
ATOM      9  O   UNL     1     163.175 155.976 216.761  1.00  0.00    -0.544 OA
ATOM     10  O   UNL     1     162.517 153.906 216.042  1.00  0.00    -0.544 OA
ENDBRANCH   3   8
ENDBRANCH   1   3
BRANCH   1  11
ATOM     11  C   UNL     1     159.479 157.855 216.582  1.00  0.00     0.006 C 
ATOM     12  C   UNL     1     160.131 158.639 215.440  1.00  0.00     0.004 C 
ENDBRANCH   1  11
TORSDOF 4
ENDMDL
MODEL 9
REMARK VINA RESULT:    -3.944     14.117     14.681
REMARK INTER + INTRA:          -4.786
REMARK INTER:                  -4.648
REMARK INTRA:                  -0.138
REMARK UNBOUND:                -0.035
REMARK SMILES CC[C@@H](C)[C@H]([NH3+])C(=O)[O-]
REMARK SMILES IDX 3 1 4 2 5 3 6 4 7 8 8 9 9 10 2 11 1 12
REMARK H PARENT 6 5 6 6 6 7
REMARK Flexibility Score: inf
ROOT
ATOM      1  C   UNL     1     157.715 161.235 217.015  1.00  0.00     0.050 C 
ATOM      2  C   UNL     1     158.530 162.123 217.977  1.00  0.00     0.014 C 
ENDROOT
BRANCH   1   3
ATOM      3  C   UNL     1     157.068 162.044 215.847  1.00  0.00     0.230 C 
BRANCH   3   4
ATOM      4  N   UNL     1     157.908 163.162 215.394  1.00  0.00    -0.350 N 
ATOM      5  H   UNL     1     157.543 164.079 215.739  1.00  0.00     0.345 HD
ATOM      6  H   UNL     1     157.923 163.185 214.347  1.00  0.00     0.345 HD
ATOM      7  H   UNL     1     158.892 163.036 215.721  1.00  0.00     0.345 HD
ENDBRANCH   3   4
BRANCH   3   8
ATOM      8  C   UNL     1     155.687 162.525 216.220  1.00  0.00     0.099 C 
ATOM      9  O   UNL     1     154.860 161.724 216.731  1.00  0.00    -0.544 OA
ATOM     10  O   UNL     1     155.327 163.857 216.047  1.00  0.00    -0.544 OA
ENDBRANCH   3   8
ENDBRANCH   1   3
BRANCH   1  11
ATOM     11  C   UNL     1     158.569 160.060 216.478  1.00  0.00     0.006 C 
ATOM     12  C   UNL     1     157.885 159.301 215.338  1.00  0.00     0.004 C 
ENDBRANCH   1  11
TORSDOF 4
ENDMDL
