MODEL 1
REMARK VINA RESULT:    -2.532      0.000      0.000
REMARK INTER + INTRA:          -3.491
REMARK INTER:                  -3.347
REMARK INTRA:                  -0.145
REMARK UNBOUND:                -0.145
REMARK SMILES CCCCCCCO
REMARK SMILES IDX 5 1 4 2 3 3 2 4 1 5 6 6 7 7 8 8
REMARK H PARENT 8 9
REMARK Flexibility Score: inf
ROOT
ATOM      1  C   UNL     1     139.494 137.654 142.787  1.00  0.00     0.002 C 
ENDROOT
BRANCH   1   2
ATOM      2  C   UNL     1     140.362 137.215 143.973  1.00  0.00     0.000 C 
BRANCH   2   3
ATOM      3  C   UNL     1     141.237 136.009 143.597  1.00  0.00    -0.000 C 
BRANCH   3   4
ATOM      4  C   UNL     1     142.069 136.255 142.330  1.00  0.00    -0.003 C 
ATOM      5  C   UNL     1     141.875 135.167 141.274  1.00  0.00     0.004 C 
ENDBRANCH   3   4
ENDBRANCH   2   3
ENDBRANCH   1   2
BRANCH   1   6
ATOM      6  C   UNL     1     138.049 137.920 143.232  1.00  0.00     0.028 C 
BRANCH   6   7
ATOM      7  C   UNL     1     137.306 138.816 142.240  1.00  0.00     0.156 C 
BRANCH   7   8
ATOM      8  O   UNL     1     135.927 138.584 142.320  1.00  0.00    -0.396 OA
ATOM      9  H   UNL     1     135.818 137.602 142.405  1.00  0.00     0.210 HD
ENDBRANCH   7   8
ENDBRANCH   6   7
ENDBRANCH   1   6
TORSDOF 6
ENDMDL
MODEL 2
REMARK VINA RESULT:    -2.523      7.693      9.003
REMARK INTER + INTRA:          -3.479
REMARK INTER:                  -3.352
REMARK INTRA:                  -0.127
REMARK UNBOUND:                -0.145
REMARK SMILES CCCCCCCO
REMARK SMILES IDX 5 1 4 2 3 3 2 4 1 5 6 6 7 7 8 8
REMARK H PARENT 8 9
REMARK Flexibility Score: inf
ROOT
ATOM      1  C   UNL     1     142.196 143.943 142.819  1.00  0.00     0.002 C 
ENDROOT
BRANCH   1   2
ATOM      2  C   UNL     1     141.210 144.213 143.962  1.00  0.00     0.000 C 
BRANCH   2   3
ATOM      3  C   UNL     1     140.435 145.518 143.723  1.00  0.00    -0.000 C 
BRANCH   3   4
ATOM      4  C   UNL     1     139.412 145.396 142.584  1.00  0.00    -0.003 C 
ATOM      5  C   UNL     1     139.738 146.302 141.397  1.00  0.00     0.004 C 
ENDBRANCH   3   4
ENDBRANCH   2   3
ENDBRANCH   1   2
BRANCH   1   6
ATOM      6  C   UNL     1     143.604 143.663 143.363  1.00  0.00     0.028 C 
BRANCH   6   7
ATOM      7  C   UNL     1     144.328 142.597 142.539  1.00  0.00     0.156 C 
BRANCH   7   8
ATOM      8  O   UNL     1     145.650 142.992 142.295  1.00  0.00    -0.396 OA
ATOM      9  H   UNL     1     145.667 143.978 142.400  1.00  0.00     0.210 HD
ENDBRANCH   7   8
ENDBRANCH   6   7
ENDBRANCH   1   6
TORSDOF 6
ENDMDL
MODEL 3
REMARK VINA RESULT:    -2.513      5.258      6.243
REMARK INTER + INTRA:          -3.466
REMARK INTER:                  -3.325
REMARK INTRA:                  -0.141
REMARK UNBOUND:                -0.145
REMARK SMILES CCCCCCCO
REMARK SMILES IDX 5 1 4 2 3 3 2 4 1 5 6 6 7 7 8 8
REMARK H PARENT 8 9
REMARK Flexibility Score: inf
ROOT
ATOM      1  C   UNL     1     144.109 138.622 143.822  1.00  0.00     0.002 C 
ENDROOT
BRANCH   1   2
ATOM      2  C   UNL     1     143.983 140.150 143.840  1.00  0.00     0.000 C 
BRANCH   2   3
ATOM      3  C   UNL     1     145.364 140.814 143.953  1.00  0.00    -0.000 C 
BRANCH   3   4
ATOM      4  C   UNL     1     145.737 141.619 142.700  1.00  0.00    -0.003 C 
ATOM      5  C   UNL     1     144.713 142.703 142.367  1.00  0.00     0.004 C 
ENDBRANCH   3   4
ENDBRANCH   2   3
ENDBRANCH   1   2
BRANCH   1   6
ATOM      6  C   UNL     1     143.451 138.031 142.567  1.00  0.00     0.028 C 
BRANCH   6   7
ATOM      7  C   UNL     1     142.536 136.853 142.908  1.00  0.00     0.156 C 
BRANCH   7   8
ATOM      8  O   UNL     1     142.901 135.727 142.159  1.00  0.00    -0.396 OA
ATOM      9  H   UNL     1     142.122 135.112 142.189  1.00  0.00     0.210 HD
ENDBRANCH   7   8
ENDBRANCH   6   7
ENDBRANCH   1   6
TORSDOF 6
ENDMDL
MODEL 4
REMARK VINA RESULT:    -2.504      9.748     11.212
REMARK INTER + INTRA:          -3.453
REMARK INTER:                  -3.361
REMARK INTRA:                  -0.093
REMARK UNBOUND:                -0.145
REMARK SMILES CCCCCCCO
REMARK SMILES IDX 5 1 4 2 3 3 2 4 1 5 6 6 7 7 8 8
REMARK H PARENT 8 9
REMARK Flexibility Score: inf
ROOT
ATOM      1  C   UNL     1     140.135 146.416 140.029  1.00  0.00     0.002 C 
ENDROOT
BRANCH   1   2
ATOM      2  C   UNL     1     140.020 147.812 139.407  1.00  0.00     0.000 C 
BRANCH   2   3
ATOM      3  C   UNL     1     141.358 148.253 138.794  1.00  0.00    -0.000 C 
BRANCH   3   4
ATOM      4  C   UNL     1     141.749 149.683 139.196  1.00  0.00    -0.003 C 
ATOM      5  C   UNL     1     140.929 150.747 138.467  1.00  0.00     0.004 C 
ENDBRANCH   3   4
ENDBRANCH   2   3
ENDBRANCH   1   2
BRANCH   1   6
ATOM      6  C   UNL     1     139.712 146.435 141.505  1.00  0.00     0.028 C 
BRANCH   6   7
ATOM      7  C   UNL     1     139.097 145.102 141.936  1.00  0.00     0.156 C 
BRANCH   7   8
ATOM      8  O   UNL     1     138.658 145.181 143.264  1.00  0.00    -0.396 OA
ATOM      9  H   UNL     1     137.675 145.307 143.221  1.00  0.00     0.210 HD
ENDBRANCH   7   8
ENDBRANCH   6   7
ENDBRANCH   1   6
TORSDOF 6
ENDMDL
MODEL 5
REMARK VINA RESULT:    -2.491      4.179      5.624
REMARK INTER + INTRA:          -3.437
REMARK INTER:                  -3.346
REMARK INTRA:                  -0.091
REMARK UNBOUND:                -0.145
REMARK SMILES CCCCCCCO
REMARK SMILES IDX 5 1 4 2 3 3 2 4 1 5 6 6 7 7 8 8
REMARK H PARENT 8 9
REMARK Flexibility Score: inf
ROOT
ATOM      1  C   UNL     1     141.666 135.323 139.939  1.00  0.00     0.002 C 
ENDROOT
BRANCH   1   2
ATOM      2  C   UNL     1     141.633 133.865 139.465  1.00  0.00     0.000 C 
BRANCH   2   3
ATOM      3  C   UNL     1     140.261 133.511 138.871  1.00  0.00    -0.000 C 
BRANCH   3   4
ATOM      4  C   UNL     1     139.838 132.068 139.181  1.00  0.00    -0.003 C 
ATOM      5  C   UNL     1     140.675 131.032 138.431  1.00  0.00     0.004 C 
ENDBRANCH   3   4
ENDBRANCH   2   3
ENDBRANCH   1   2
BRANCH   1   6
ATOM      6  C   UNL     1     141.866 135.402 141.460  1.00  0.00     0.028 C 
BRANCH   6   7
ATOM      7  C   UNL     1     142.575 136.694 141.871  1.00  0.00     0.156 C 
BRANCH   7   8
ATOM      8  O   UNL     1     143.125 136.554 143.152  1.00  0.00    -0.396 OA
ATOM      9  H   UNL     1     144.103 136.691 143.048  1.00  0.00     0.210 HD
ENDBRANCH   7   8
ENDBRANCH   6   7
ENDBRANCH   1   6
TORSDOF 6
ENDMDL
MODEL 6
REMARK VINA RESULT:    -2.489      5.250      8.357
REMARK INTER + INTRA:          -3.435
REMARK INTER:                  -3.289
REMARK INTRA:                  -0.146
REMARK UNBOUND:                -0.145
REMARK SMILES CCCCCCCO
REMARK SMILES IDX 5 1 4 2 3 3 2 4 1 5 6 6 7 7 8 8
REMARK H PARENT 8 9
REMARK Flexibility Score: inf
ROOT
ATOM      1  C   UNL     1     135.653 140.708 139.680  1.00  0.00     0.002 C 
ENDROOT
BRANCH   1   2
ATOM      2  C   UNL     1     134.600 141.391 138.797  1.00  0.00     0.000 C 
BRANCH   2   3
ATOM      3  C   UNL     1     133.180 140.991 139.227  1.00  0.00    -0.000 C 
BRANCH   3   4
ATOM      4  C   UNL     1     132.103 141.915 138.640  1.00  0.00    -0.003 C 
ATOM      5  C   UNL     1     130.921 142.121 139.585  1.00  0.00     0.004 C 
ENDBRANCH   3   4
ENDBRANCH   2   3
ENDBRANCH   1   2
BRANCH   1   6
ATOM      6  C   UNL     1     134.987 139.844 140.760  1.00  0.00     0.028 C 
BRANCH   6   7
ATOM      7  C   UNL     1     135.810 139.814 142.049  1.00  0.00     0.156 C 
BRANCH   7   8
ATOM      8  O   UNL     1     136.016 138.490 142.459  1.00  0.00    -0.396 OA
ATOM      9  H   UNL     1     135.220 138.242 142.998  1.00  0.00     0.210 HD
ENDBRANCH   7   8
ENDBRANCH   6   7
ENDBRANCH   1   6
TORSDOF 6
ENDMDL
MODEL 7
REMARK VINA RESULT:    -2.460      4.686      6.202
REMARK INTER + INTRA:          -3.396
REMARK INTER:                  -3.178
REMARK INTRA:                  -0.218
REMARK UNBOUND:                -0.145
REMARK SMILES CCCCCCCO
REMARK SMILES IDX 5 1 4 2 3 3 2 4 1 5 6 6 7 7 8 8
REMARK H PARENT 8 9
REMARK Flexibility Score: inf
ROOT
ATOM      1  C   UNL     1     137.543 142.868 143.679  1.00  0.00     0.002 C 
ENDROOT
BRANCH   1   2
ATOM      2  C   UNL     1     137.555 141.386 144.072  1.00  0.00     0.000 C 
BRANCH   2   3
ATOM      3  C   UNL     1     136.140 140.789 144.011  1.00  0.00    -0.000 C 
BRANCH   3   4
ATOM      4  C   UNL     1     135.921 139.915 142.767  1.00  0.00    -0.003 C 
ATOM      5  C   UNL     1     137.042 138.899 142.553  1.00  0.00     0.004 C 
ENDBRANCH   3   4
ENDBRANCH   2   3
ENDBRANCH   1   2
BRANCH   1   6
ATOM      6  C   UNL     1     137.956 143.049 142.211  1.00  0.00     0.028 C 
BRANCH   6   7
ATOM      7  C   UNL     1     138.753 144.339 142.003  1.00  0.00     0.156 C 
BRANCH   7   8
ATOM      8  O   UNL     1     138.614 145.177 143.117  1.00  0.00    -0.396 OA
ATOM      9  H   UNL     1     139.274 144.857 143.785  1.00  0.00     0.210 HD
ENDBRANCH   7   8
ENDBRANCH   6   7
ENDBRANCH   1   6
TORSDOF 6
ENDMDL
MODEL 8
REMARK VINA RESULT:    -2.392      8.610      9.642
REMARK INTER + INTRA:          -3.306
REMARK INTER:                  -3.211
REMARK INTRA:                  -0.095
REMARK UNBOUND:                -0.145
REMARK SMILES CCCCCCCO
REMARK SMILES IDX 5 1 4 2 3 3 2 4 1 5 6 6 7 7 8 8
REMARK H PARENT 8 9
REMARK Flexibility Score: inf
ROOT
ATOM      1  C   UNL     1     146.608 141.428 139.701  1.00  0.00     0.002 C 
ENDROOT
BRANCH   1   2
ATOM      2  C   UNL     1     147.965 141.540 138.994  1.00  0.00     0.000 C 
BRANCH   2   3
ATOM      3  C   UNL     1     148.659 140.171 138.919  1.00  0.00    -0.000 C 
BRANCH   3   4
ATOM      4  C   UNL     1     150.186 140.290 138.800  1.00  0.00    -0.003 C 
ATOM      5  C   UNL     1     150.927 139.272 139.667  1.00  0.00     0.004 C 
ENDBRANCH   3   4
ENDBRANCH   2   3
ENDBRANCH   1   2
BRANCH   1   6
ATOM      6  C   UNL     1     146.739 141.757 141.195  1.00  0.00     0.028 C 
BRANCH   6   7
ATOM      7  C   UNL     1     145.372 141.928 141.859  1.00  0.00     0.156 C 
BRANCH   7   8
ATOM      8  O   UNL     1     145.261 143.211 142.411  1.00  0.00    -0.396 OA
ATOM      9  H   UNL     1     144.392 143.572 142.096  1.00  0.00     0.210 HD
ENDBRANCH   7   8
ENDBRANCH   6   7
ENDBRANCH   1   6
TORSDOF 6
ENDMDL
MODEL 9
REMARK VINA RESULT:    -2.391      8.059      9.511
REMARK INTER + INTRA:          -3.304
REMARK INTER:                  -3.122
REMARK INTRA:                  -0.182
REMARK UNBOUND:                -0.145
REMARK SMILES CCCCCCCO
REMARK SMILES IDX 5 1 4 2 3 3 2 4 1 5 6 6 7 7 8 8
REMARK H PARENT 8 9
REMARK Flexibility Score: inf
ROOT
ATOM      1  C   UNL     1     139.550 146.097 141.833  1.00  0.00     0.002 C 
ENDROOT
BRANCH   1   2
ATOM      2  C   UNL     1     139.918 145.268 140.597  1.00  0.00     0.000 C 
BRANCH   2   3
ATOM      3  C   UNL     1     140.669 146.124 139.565  1.00  0.00    -0.000 C 
BRANCH   3   4
ATOM      4  C   UNL     1     140.285 147.609 139.638  1.00  0.00    -0.003 C 
ATOM      5  C   UNL     1     141.300 148.517 138.944  1.00  0.00     0.004 C 
ENDBRANCH   3   4
ENDBRANCH   2   3
ENDBRANCH   1   2
BRANCH   1   6
ATOM      6  C   UNL     1     140.090 145.442 143.113  1.00  0.00     0.028 C 
BRANCH   6   7
ATOM      7  C   UNL     1     139.429 144.089 143.380  1.00  0.00     0.156 C 
BRANCH   7   8
ATOM      8  O   UNL     1     138.061 144.262 143.632  1.00  0.00    -0.396 OA
ATOM      9  H   UNL     1     137.861 145.211 143.423  1.00  0.00     0.210 HD
ENDBRANCH   7   8
ENDBRANCH   6   7
ENDBRANCH   1   6
TORSDOF 6
ENDMDL
