MODEL 1
REMARK VINA RESULT:    -4.631      0.000      0.000
REMARK INTER + INTRA:          -5.468
REMARK INTER:                  -5.308
REMARK INTRA:                  -0.160
REMARK UNBOUND:                -0.160
REMARK SMILES CC=Cc1ccc(O)c(OC)c1
REMARK SMILES IDX 4 1 12 2 9 3 7 4 6 5 5 6 3 7 1 8 2 9 10 10 11 11 8 12
REMARK H PARENT 8 13
REMARK Flexibility Score: inf
ROOT
ATOM      1  C   UNL     1     -32.106 -22.506 -34.968  1.00  0.00    -0.022 A 
ATOM      2  C   UNL     1     -31.766 -23.414 -35.989  1.00  0.00     0.058 A 
ATOM      3  C   UNL     1     -32.389 -23.345 -37.253  1.00  0.00     0.161 A 
ATOM      4  C   UNL     1     -33.367 -22.361 -37.483  1.00  0.00     0.157 A 
ATOM      5  C   UNL     1     -33.717 -21.471 -36.465  1.00  0.00     0.051 A 
ATOM      6  C   UNL     1     -33.097 -21.545 -35.217  1.00  0.00     0.012 A 
ENDROOT
BRANCH   1   7
ATOM      7  C   UNL     1     -31.483 -22.546 -33.622  1.00  0.00     0.003 C 
ATOM      8  C   UNL     1     -30.195 -21.647 -31.722  1.00  0.00     0.035 C 
ATOM      9  C   UNL     1     -30.781 -21.536 -33.094  1.00  0.00    -0.030 C 
ENDBRANCH   1   7
BRANCH   3  10
ATOM     10  O   UNL     1     -32.065 -24.233 -38.291  1.00  0.00    -0.493 OA
ATOM     11  C   UNL     1     -31.293 -25.419 -38.132  1.00  0.00     0.278 C 
ENDBRANCH   3  10
BRANCH   4  12
ATOM     12  O   UNL     1     -34.006 -22.256 -38.718  1.00  0.00    -0.504 OA
ATOM     13  H   UNL     1     -33.654 -21.663 -39.460  1.00  0.00     0.293 HD
ENDBRANCH   4  12
TORSDOF 3
ENDMDL
MODEL 2
REMARK VINA RESULT:    -4.533      4.420      6.959
REMARK INTER + INTRA:          -5.355
REMARK INTER:                  -5.205
REMARK INTRA:                  -0.149
REMARK UNBOUND:                -0.160
REMARK SMILES CC=Cc1ccc(O)c(OC)c1
REMARK SMILES IDX 4 1 12 2 9 3 7 4 6 5 5 6 3 7 1 8 2 9 10 10 11 11 8 12
REMARK H PARENT 8 13
REMARK Flexibility Score: inf
ROOT
ATOM      1  C   UNL     1     -30.481 -21.139 -33.042  1.00  0.00    -0.022 A 
ATOM      2  C   UNL     1     -31.078 -21.017 -31.772  1.00  0.00     0.058 A 
ATOM      3  C   UNL     1     -30.324 -20.593 -30.658  1.00  0.00     0.161 A 
ATOM      4  C   UNL     1     -28.958 -20.300 -30.825  1.00  0.00     0.157 A 
ATOM      5  C   UNL     1     -28.362 -20.437 -32.080  1.00  0.00     0.051 A 
ATOM      6  C   UNL     1     -29.114 -20.857 -33.179  1.00  0.00     0.012 A 
ENDROOT
BRANCH   1   7
ATOM      7  C   UNL     1     -31.233 -21.589 -34.239  1.00  0.00     0.003 C 
ATOM      8  C   UNL     1     -32.413 -23.221 -35.659  1.00  0.00     0.035 C 
ATOM      9  C   UNL     1     -31.646 -22.848 -34.431  1.00  0.00    -0.030 C 
ENDBRANCH   1   7
BRANCH   3  10
ATOM     10  O   UNL     1     -30.893 -20.456 -29.382  1.00  0.00    -0.493 OA
ATOM     11  C   UNL     1     -32.174 -19.891 -29.123  1.00  0.00     0.278 C 
ENDBRANCH   3  10
BRANCH   4  12
ATOM     12  O   UNL     1     -28.176 -19.875 -29.751  1.00  0.00    -0.504 OA
ATOM     13  H   UNL     1     -28.314 -20.225 -28.810  1.00  0.00     0.293 HD
ENDBRANCH   4  12
TORSDOF 3
ENDMDL
MODEL 3
REMARK VINA RESULT:    -4.172      1.925      4.943
REMARK INTER + INTRA:          -4.941
REMARK INTER:                  -4.776
REMARK INTRA:                  -0.164
REMARK UNBOUND:                -0.160
REMARK SMILES CC=Cc1ccc(O)c(OC)c1
REMARK SMILES IDX 4 1 12 2 9 3 7 4 6 5 5 6 3 7 1 8 2 9 10 10 11 11 8 12
REMARK H PARENT 8 13
REMARK Flexibility Score: inf
ROOT
ATOM      1  C   UNL     1     -31.896 -24.816 -37.868  1.00  0.00    -0.022 A 
ATOM      2  C   UNL     1     -32.033 -24.497 -36.502  1.00  0.00     0.058 A 
ATOM      3  C   UNL     1     -32.443 -23.209 -36.100  1.00  0.00     0.161 A 
ATOM      4  C   UNL     1     -32.707 -22.235 -37.080  1.00  0.00     0.157 A 
ATOM      5  C   UNL     1     -32.555 -22.546 -38.433  1.00  0.00     0.051 A 
ATOM      6  C   UNL     1     -32.149 -23.822 -38.825  1.00  0.00     0.012 A 
ENDROOT
BRANCH   1   7
ATOM      7  C   UNL     1     -31.460 -26.154 -38.336  1.00  0.00     0.003 C 
ATOM      8  C   UNL     1     -31.781 -28.492 -39.049  1.00  0.00     0.035 C 
ATOM      9  C   UNL     1     -32.297 -27.175 -38.563  1.00  0.00    -0.030 C 
ENDBRANCH   1   7
BRANCH   3  10
ATOM     10  O   UNL     1     -32.594 -22.865 -34.747  1.00  0.00    -0.493 OA
ATOM     11  C   UNL     1     -31.540 -22.411 -33.904  1.00  0.00     0.278 C 
ENDBRANCH   3  10
BRANCH   4  12
ATOM     12  O   UNL     1     -33.117 -20.950 -36.727  1.00  0.00    -0.504 OA
ATOM     13  H   UNL     1     -32.717 -20.452 -35.940  1.00  0.00     0.293 HD
ENDBRANCH   4  12
TORSDOF 3
ENDMDL
MODEL 4
REMARK VINA RESULT:    -3.910      0.957      2.513
REMARK INTER + INTRA:          -4.641
REMARK INTER:                  -4.464
REMARK INTRA:                  -0.177
REMARK UNBOUND:                -0.160
REMARK SMILES CC=Cc1ccc(O)c(OC)c1
REMARK SMILES IDX 4 1 12 2 9 3 7 4 6 5 5 6 3 7 1 8 2 9 10 10 11 11 8 12
REMARK H PARENT 8 13
REMARK Flexibility Score: inf
ROOT
ATOM      1  C   UNL     1     -31.790 -22.732 -35.070  1.00  0.00    -0.022 A 
ATOM      2  C   UNL     1     -32.846 -22.123 -35.777  1.00  0.00     0.058 A 
ATOM      3  C   UNL     1     -33.077 -22.429 -37.134  1.00  0.00     0.161 A 
ATOM      4  C   UNL     1     -32.232 -23.346 -37.785  1.00  0.00     0.157 A 
ATOM      5  C   UNL     1     -31.175 -23.938 -37.089  1.00  0.00     0.051 A 
ATOM      6  C   UNL     1     -30.951 -23.631 -35.746  1.00  0.00     0.012 A 
ENDROOT
BRANCH   1   7
ATOM      7  C   UNL     1     -31.505 -22.435 -33.645  1.00  0.00     0.003 C 
ATOM      8  C   UNL     1     -30.278 -21.398 -31.776  1.00  0.00     0.035 C 
ATOM      9  C   UNL     1     -30.491 -21.663 -33.233  1.00  0.00    -0.030 C 
ENDBRANCH   1   7
BRANCH   3  10
ATOM     10  O   UNL     1     -34.125 -21.842 -37.861  1.00  0.00    -0.493 OA
ATOM     11  C   UNL     1     -34.095 -20.528 -38.409  1.00  0.00     0.278 C 
ENDBRANCH   3  10
BRANCH   4  12
ATOM     12  O   UNL     1     -32.426 -23.679 -39.125  1.00  0.00    -0.504 OA
ATOM     13  H   UNL     1     -31.852 -24.366 -39.599  1.00  0.00     0.293 HD
ENDBRANCH   4  12
TORSDOF 3
ENDMDL
MODEL 5
REMARK VINA RESULT:    -3.897      1.804      2.742
REMARK INTER + INTRA:          -4.626
REMARK INTER:                  -4.459
REMARK INTRA:                  -0.167
REMARK UNBOUND:                -0.160
REMARK SMILES CC=Cc1ccc(O)c(OC)c1
REMARK SMILES IDX 4 1 12 2 9 3 7 4 6 5 5 6 3 7 1 8 2 9 10 10 11 11 8 12
REMARK H PARENT 8 13
REMARK Flexibility Score: inf
ROOT
ATOM      1  C   UNL     1     -30.854 -21.066 -33.172  1.00  0.00    -0.022 A 
ATOM      2  C   UNL     1     -31.192 -22.293 -33.777  1.00  0.00     0.058 A 
ATOM      3  C   UNL     1     -32.261 -22.374 -34.694  1.00  0.00     0.161 A 
ATOM      4  C   UNL     1     -32.998 -21.214 -34.994  1.00  0.00     0.157 A 
ATOM      5  C   UNL     1     -32.674 -20.001 -34.381  1.00  0.00     0.051 A 
ATOM      6  C   UNL     1     -31.615 -19.927 -33.475  1.00  0.00     0.012 A 
ENDROOT
BRANCH   1   7
ATOM      7  C   UNL     1     -29.744 -20.935 -32.196  1.00  0.00     0.003 C 
ATOM      8  C   UNL     1     -28.492 -19.875 -30.357  1.00  0.00     0.035 C 
ATOM      9  C   UNL     1     -29.635 -19.929 -31.320  1.00  0.00    -0.030 C 
ENDBRANCH   1   7
BRANCH   3  10
ATOM     10  O   UNL     1     -32.617 -23.580 -35.316  1.00  0.00    -0.493 OA
ATOM     11  C   UNL     1     -32.138 -24.008 -36.587  1.00  0.00     0.278 C 
ENDBRANCH   3  10
BRANCH   4  12
ATOM     12  O   UNL     1     -34.061 -21.249 -35.896  1.00  0.00    -0.504 OA
ATOM     13  H   UNL     1     -34.946 -20.793 -35.706  1.00  0.00     0.293 HD
ENDBRANCH   4  12
TORSDOF 3
ENDMDL
MODEL 6
REMARK VINA RESULT:    -3.809      2.488      5.769
REMARK INTER + INTRA:          -4.525
REMARK INTER:                  -4.366
REMARK INTRA:                  -0.158
REMARK UNBOUND:                -0.160
REMARK SMILES CC=Cc1ccc(O)c(OC)c1
REMARK SMILES IDX 4 1 12 2 9 3 7 4 6 5 5 6 3 7 1 8 2 9 10 10 11 11 8 12
REMARK H PARENT 8 13
REMARK Flexibility Score: inf
ROOT
ATOM      1  C   UNL     1     -32.803 -26.228 -37.958  1.00  0.00    -0.022 A 
ATOM      2  C   UNL     1     -33.097 -25.308 -36.932  1.00  0.00     0.058 A 
ATOM      3  C   UNL     1     -32.491 -24.034 -36.912  1.00  0.00     0.161 A 
ATOM      4  C   UNL     1     -31.578 -23.691 -37.925  1.00  0.00     0.157 A 
ATOM      5  C   UNL     1     -31.274 -24.610 -38.932  1.00  0.00     0.051 A 
ATOM      6  C   UNL     1     -31.876 -25.869 -38.947  1.00  0.00     0.012 A 
ENDROOT
BRANCH   1   7
ATOM      7  C   UNL     1     -33.410 -27.581 -38.015  1.00  0.00     0.003 C 
ATOM      8  C   UNL     1     -34.080 -29.691 -39.098  1.00  0.00     0.035 C 
ATOM      9  C   UNL     1     -33.464 -28.328 -39.125  1.00  0.00    -0.030 C 
ENDBRANCH   1   7
BRANCH   3  10
ATOM     10  O   UNL     1     -32.769 -23.095 -35.906  1.00  0.00    -0.493 OA
ATOM     11  C   UNL     1     -31.991 -22.916 -34.727  1.00  0.00     0.278 C 
ENDBRANCH   3  10
BRANCH   4  12
ATOM     12  O   UNL     1     -30.958 -22.442 -37.944  1.00  0.00    -0.504 OA
ATOM     13  H   UNL     1     -30.668 -21.970 -37.096  1.00  0.00     0.293 HD
ENDBRANCH   4  12
TORSDOF 3
ENDMDL
MODEL 7
REMARK VINA RESULT:    -3.641      2.052      4.689
REMARK INTER + INTRA:          -4.333
REMARK INTER:                  -4.180
REMARK INTRA:                  -0.153
REMARK UNBOUND:                -0.160
REMARK SMILES CC=Cc1ccc(O)c(OC)c1
REMARK SMILES IDX 4 1 12 2 9 3 7 4 6 5 5 6 3 7 1 8 2 9 10 10 11 11 8 12
REMARK H PARENT 8 13
REMARK Flexibility Score: inf
ROOT
ATOM      1  C   UNL     1     -32.201 -24.116 -37.262  1.00  0.00    -0.022 A 
ATOM      2  C   UNL     1     -32.951 -23.093 -37.876  1.00  0.00     0.058 A 
ATOM      3  C   UNL     1     -33.359 -21.959 -37.143  1.00  0.00     0.161 A 
ATOM      4  C   UNL     1     -33.018 -21.862 -35.781  1.00  0.00     0.157 A 
ATOM      5  C   UNL     1     -32.290 -22.884 -35.168  1.00  0.00     0.051 A 
ATOM      6  C   UNL     1     -31.889 -24.004 -35.899  1.00  0.00     0.012 A 
ENDROOT
BRANCH   1   7
ATOM      7  C   UNL     1     -31.758 -25.330 -37.991  1.00  0.00     0.003 C 
ATOM      8  C   UNL     1     -31.942 -27.654 -38.791  1.00  0.00     0.035 C 
ATOM      9  C   UNL     1     -32.449 -26.476 -38.020  1.00  0.00    -0.030 C 
ENDBRANCH   1   7
BRANCH   3  10
ATOM     10  O   UNL     1     -34.100 -20.922 -37.729  1.00  0.00    -0.493 OA
ATOM     11  C   UNL     1     -34.125 -20.631 -39.123  1.00  0.00     0.278 C 
ENDBRANCH   3  10
BRANCH   4  12
ATOM     12  O   UNL     1     -33.399 -20.757 -35.020  1.00  0.00    -0.504 OA
ATOM     13  H   UNL     1     -33.318 -20.744 -34.010  1.00  0.00     0.293 HD
ENDBRANCH   4  12
TORSDOF 3
ENDMDL
MODEL 8
REMARK VINA RESULT:    -3.459      1.954      3.197
REMARK INTER + INTRA:          -4.125
REMARK INTER:                  -4.164
REMARK INTRA:                   0.039
REMARK UNBOUND:                -0.160
REMARK SMILES CC=Cc1ccc(O)c(OC)c1
REMARK SMILES IDX 4 1 12 2 9 3 7 4 6 5 5 6 3 7 1 8 2 9 10 10 11 11 8 12
REMARK H PARENT 8 13
REMARK Flexibility Score: inf
ROOT
ATOM      1  C   UNL     1     -31.468 -21.115 -33.557  1.00  0.00    -0.022 A 
ATOM      2  C   UNL     1     -32.405 -20.429 -34.356  1.00  0.00     0.058 A 
ATOM      3  C   UNL     1     -33.170 -21.117 -35.321  1.00  0.00     0.161 A 
ATOM      4  C   UNL     1     -32.982 -22.501 -35.488  1.00  0.00     0.157 A 
ATOM      5  C   UNL     1     -32.042 -23.178 -34.708  1.00  0.00     0.051 A 
ATOM      6  C   UNL     1     -31.287 -22.492 -33.755  1.00  0.00     0.012 A 
ENDROOT
BRANCH   1   7
ATOM      7  C   UNL     1     -30.636 -20.432 -32.537  1.00  0.00     0.003 C 
ATOM      8  C   UNL     1     -28.622 -20.077 -31.161  1.00  0.00     0.035 C 
ATOM      9  C   UNL     1     -29.405 -20.828 -32.190  1.00  0.00    -0.030 C 
ENDBRANCH   1   7
BRANCH   3  10
ATOM     10  O   UNL     1     -34.114 -20.462 -36.127  1.00  0.00    -0.493 OA
ATOM     11  C   UNL     1     -34.030 -20.346 -37.543  1.00  0.00     0.278 C 
ENDBRANCH   3  10
BRANCH   4  12
ATOM     12  O   UNL     1     -33.719 -23.220 -36.428  1.00  0.00    -0.504 OA
ATOM     13  H   UNL     1     -34.662 -22.958 -36.691  1.00  0.00     0.293 HD
ENDBRANCH   4  12
TORSDOF 3
ENDMDL
MODEL 9
REMARK VINA RESULT:    -3.193      4.204      6.773
REMARK INTER + INTRA:          -3.819
REMARK INTER:                  -3.790
REMARK INTRA:                  -0.029
REMARK UNBOUND:                -0.160
REMARK SMILES CC=Cc1ccc(O)c(OC)c1
REMARK SMILES IDX 4 1 12 2 9 3 7 4 6 5 5 6 3 7 1 8 2 9 10 10 11 11 8 12
REMARK H PARENT 8 13
REMARK Flexibility Score: inf
ROOT
ATOM      1  C   UNL     1     -30.960 -22.064 -32.935  1.00  0.00    -0.022 A 
ATOM      2  C   UNL     1     -30.370 -20.952 -32.302  1.00  0.00     0.058 A 
ATOM      3  C   UNL     1     -29.935 -21.032 -30.962  1.00  0.00     0.161 A 
ATOM      4  C   UNL     1     -30.105 -22.236 -30.255  1.00  0.00     0.157 A 
ATOM      5  C   UNL     1     -30.706 -23.333 -30.877  1.00  0.00     0.051 A 
ATOM      6  C   UNL     1     -31.134 -23.248 -32.203  1.00  0.00     0.012 A 
ENDROOT
BRANCH   1   7
ATOM      7  C   UNL     1     -31.439 -22.023 -34.338  1.00  0.00     0.003 C 
ATOM      8  C   UNL     1     -32.705 -22.822 -36.296  1.00  0.00     0.035 C 
ATOM      9  C   UNL     1     -32.253 -22.940 -34.875  1.00  0.00    -0.030 C 
ENDBRANCH   1   7
BRANCH   3  10
ATOM     10  O   UNL     1     -29.338 -19.943 -30.308  1.00  0.00    -0.493 OA
ATOM     11  C   UNL     1     -27.968 -19.879 -29.925  1.00  0.00     0.278 C 
ENDBRANCH   3  10
BRANCH   4  12
ATOM     12  O   UNL     1     -29.687 -22.359 -28.931  1.00  0.00    -0.504 OA
ATOM     13  H   UNL     1     -30.293 -22.134 -28.150  1.00  0.00     0.293 HD
ENDBRANCH   4  12
TORSDOF 3
ENDMDL
