MODEL 1
REMARK VINA RESULT:    -2.821      0.000      0.000
REMARK INTER + INTRA:          -3.673
REMARK INTER:                  -3.481
REMARK INTRA:                  -0.192
REMARK UNBOUND:                -0.192
REMARK SMILES CCCCC=CC(C)=O
REMARK SMILES IDX 4 1 3 2 2 3 1 4 5 5 6 6 7 7 9 8 8 9
REMARK H PARENT
REMARK Flexibility Score: inf
ROOT
ATOM      1  C   UNL     1       7.331  24.644  21.396  1.00  0.00     0.027 C 
ENDROOT
BRANCH   1   2
ATOM      2  C   UNL     1       8.747  24.098  21.149  1.00  0.00     0.004 C 
BRANCH   2   3
ATOM      3  C   UNL     1       8.854  22.602  21.481  1.00  0.00    -0.003 C 
ATOM      4  C   UNL     1       9.995  21.948  20.708  1.00  0.00     0.004 C 
ENDBRANCH   2   3
ENDBRANCH   1   2
BRANCH   1   5
ATOM      5  C   UNL     1       6.786  25.404  20.214  1.00  0.00    -0.023 C 
ATOM      6  C   UNL     1       5.488  25.582  19.922  1.00  0.00     0.042 C 
BRANCH   6   7
ATOM      7  C   UNL     1       4.341  24.991  20.640  1.00  0.00     0.152 C 
ATOM      8  O   UNL     1       3.973  23.827  20.329  1.00  0.00    -0.295 OA
ATOM      9  C   UNL     1       3.641  25.690  21.765  1.00  0.00     0.093 C 
ENDBRANCH   6   7
ENDBRANCH   1   5
TORSDOF 4
ENDMDL
MODEL 2
REMARK VINA RESULT:    -2.803      2.037      4.613
REMARK INTER + INTRA:          -3.650
REMARK INTER:                  -3.436
REMARK INTRA:                  -0.213
REMARK UNBOUND:                -0.192
REMARK SMILES CCCCC=CC(C)=O
REMARK SMILES IDX 4 1 3 2 2 3 1 4 5 5 6 6 7 7 9 8 8 9
REMARK H PARENT
REMARK Flexibility Score: inf
ROOT
ATOM      1  C   UNL     1       6.742  25.020  20.744  1.00  0.00     0.027 C 
ENDROOT
BRANCH   1   2
ATOM      2  C   UNL     1       5.986  25.712  19.598  1.00  0.00     0.004 C 
BRANCH   2   3
ATOM      3  C   UNL     1       4.668  25.000  19.263  1.00  0.00    -0.003 C 
ATOM      4  C   UNL     1       4.110  24.272  20.482  1.00  0.00     0.004 C 
ENDBRANCH   2   3
ENDBRANCH   1   2
BRANCH   1   5
ATOM      5  C   UNL     1       8.231  25.246  20.679  1.00  0.00    -0.023 C 
ATOM      6  C   UNL     1       9.175  24.404  21.127  1.00  0.00     0.042 C 
BRANCH   6   7
ATOM      7  C   UNL     1       8.947  23.142  21.859  1.00  0.00     0.152 C 
ATOM      8  O   UNL     1       8.750  22.090  21.195  1.00  0.00    -0.295 OA
ATOM      9  C   UNL     1       9.006  23.049  23.353  1.00  0.00     0.093 C 
ENDBRANCH   6   7
ENDBRANCH   1   5
TORSDOF 4
ENDMDL
MODEL 3
REMARK VINA RESULT:    -2.631      4.019      5.083
REMARK INTER + INTRA:          -3.438
REMARK INTER:                  -3.130
REMARK INTRA:                  -0.309
REMARK UNBOUND:                -0.192
REMARK SMILES CCCCC=CC(C)=O
REMARK SMILES IDX 4 1 3 2 2 3 1 4 5 5 6 6 7 7 9 8 8 9
REMARK H PARENT
REMARK Flexibility Score: inf
ROOT
ATOM      1  C   UNL     1       9.070  22.605  21.765  1.00  0.00     0.027 C 
ENDROOT
BRANCH   1   2
ATOM      2  C   UNL     1      10.558  22.649  21.381  1.00  0.00     0.004 C 
BRANCH   2   3
ATOM      3  C   UNL     1      10.976  21.426  20.552  1.00  0.00    -0.003 C 
ATOM      4  C   UNL     1      10.772  21.677  19.061  1.00  0.00     0.004 C 
ENDBRANCH   2   3
ENDBRANCH   1   2
BRANCH   1   5
ATOM      5  C   UNL     1       8.697  23.665  22.770  1.00  0.00    -0.023 C 
ATOM      6  C   UNL     1       8.715  23.527  24.105  1.00  0.00     0.042 C 
BRANCH   6   7
ATOM      7  C   UNL     1       9.008  22.287  24.852  1.00  0.00     0.152 C 
ATOM      8  O   UNL     1       8.047  21.543  25.181  1.00  0.00    -0.295 OA
ATOM      9  C   UNL     1      10.403  21.846  25.176  1.00  0.00     0.093 C 
ENDBRANCH   6   7
ENDBRANCH   1   5
TORSDOF 4
ENDMDL
MODEL 4
REMARK VINA RESULT:    -2.585     12.288     13.572
REMARK INTER + INTRA:          -3.382
REMARK INTER:                  -3.218
REMARK INTRA:                  -0.163
REMARK UNBOUND:                -0.192
REMARK SMILES CCCCC=CC(C)=O
REMARK SMILES IDX 4 1 3 2 2 3 1 4 5 5 6 6 7 7 9 8 8 9
REMARK H PARENT
REMARK Flexibility Score: inf
ROOT
ATOM      1  C   UNL     1      10.004  21.795   8.375  1.00  0.00     0.027 C 
ENDROOT
BRANCH   1   2
ATOM      2  C   UNL     1       9.426  22.291   9.711  1.00  0.00     0.004 C 
BRANCH   2   3
ATOM      3  C   UNL     1      10.522  22.779  10.669  1.00  0.00    -0.003 C 
ATOM      4  C   UNL     1      11.038  24.155  10.258  1.00  0.00     0.004 C 
ENDBRANCH   2   3
ENDBRANCH   1   2
BRANCH   1   5
ATOM      5  C   UNL     1      11.104  20.781   8.559  1.00  0.00    -0.023 C 
ATOM      6  C   UNL     1      10.992  19.456   8.378  1.00  0.00     0.042 C 
BRANCH   6   7
ATOM      7  C   UNL     1       9.753  18.718   8.062  1.00  0.00     0.152 C 
ATOM      8  O   UNL     1       8.742  18.902   8.791  1.00  0.00    -0.295 OA
ATOM      9  C   UNL     1       9.628  17.812   6.875  1.00  0.00     0.093 C 
ENDBRANCH   6   7
ENDBRANCH   1   5
TORSDOF 4
ENDMDL
MODEL 5
REMARK VINA RESULT:    -2.582      2.884      5.076
REMARK INTER + INTRA:          -3.378
REMARK INTER:                  -3.087
REMARK INTRA:                  -0.290
REMARK UNBOUND:                -0.192
REMARK SMILES CCCCC=CC(C)=O
REMARK SMILES IDX 4 1 3 2 2 3 1 4 5 5 6 6 7 7 9 8 8 9
REMARK H PARENT
REMARK Flexibility Score: inf
ROOT
ATOM      1  C   UNL     1       7.650  25.020  22.264  1.00  0.00     0.027 C 
ENDROOT
BRANCH   1   2
ATOM      2  C   UNL     1       6.332  25.558  21.683  1.00  0.00     0.004 C 
BRANCH   2   3
ATOM      3  C   UNL     1       5.899  24.791  20.425  1.00  0.00    -0.003 C 
ATOM      4  C   UNL     1       4.413  24.450  20.473  1.00  0.00     0.004 C 
ENDBRANCH   2   3
ENDBRANCH   1   2
BRANCH   1   5
ATOM      5  C   UNL     1       8.173  23.825  21.509  1.00  0.00    -0.023 C 
ATOM      6  C   UNL     1       8.959  22.859  22.010  1.00  0.00     0.042 C 
BRANCH   6   7
ATOM      7  C   UNL     1       9.546  22.823  23.364  1.00  0.00     0.152 C 
ATOM      8  O   UNL     1      10.717  23.260  23.522  1.00  0.00    -0.295 OA
ATOM      9  C   UNL     1       8.786  22.353  24.566  1.00  0.00     0.093 C 
ENDBRANCH   6   7
ENDBRANCH   1   5
TORSDOF 4
ENDMDL
MODEL 6
REMARK VINA RESULT:    -2.532      2.024      2.662
REMARK INTER + INTRA:          -3.315
REMARK INTER:                  -3.060
REMARK INTRA:                  -0.255
REMARK UNBOUND:                -0.192
REMARK SMILES CCCCC=CC(C)=O
REMARK SMILES IDX 4 1 3 2 2 3 1 4 5 5 6 6 7 7 9 8 8 9
REMARK H PARENT
REMARK Flexibility Score: inf
ROOT
ATOM      1  C   UNL     1       8.491  23.455  21.598  1.00  0.00     0.027 C 
ENDROOT
BRANCH   1   2
ATOM      2  C   UNL     1       9.328  22.569  22.535  1.00  0.00     0.004 C 
BRANCH   2   3
ATOM      3  C   UNL     1       8.876  22.687  23.998  1.00  0.00    -0.003 C 
ATOM      4  C   UNL     1       9.817  21.928  24.927  1.00  0.00     0.004 C 
ENDBRANCH   2   3
ENDBRANCH   1   2
BRANCH   1   5
ATOM      5  C   UNL     1       7.892  24.644  22.304  1.00  0.00    -0.023 C 
ATOM      6  C   UNL     1       6.870  25.392  21.858  1.00  0.00     0.042 C 
BRANCH   6   7
ATOM      7  C   UNL     1       6.196  25.263  20.551  1.00  0.00     0.152 C 
ATOM      8  O   UNL     1       6.774  25.720  19.529  1.00  0.00    -0.295 OA
ATOM      9  C   UNL     1       4.888  24.553  20.379  1.00  0.00     0.093 C 
ENDBRANCH   6   7
ENDBRANCH   1   5
TORSDOF 4
ENDMDL
MODEL 7
REMARK VINA RESULT:    -2.521      3.491      5.791
REMARK INTER + INTRA:          -3.302
REMARK INTER:                  -2.805
REMARK INTRA:                  -0.497
REMARK UNBOUND:                -0.192
REMARK SMILES CCCCC=CC(C)=O
REMARK SMILES IDX 4 1 3 2 2 3 1 4 5 5 6 6 7 7 9 8 8 9
REMARK H PARENT
REMARK Flexibility Score: inf
ROOT
ATOM      1  C   UNL     1      10.424  23.057  22.330  1.00  0.00     0.027 C 
ENDROOT
BRANCH   1   2
ATOM      2  C   UNL     1       9.148  22.697  21.551  1.00  0.00     0.004 C 
BRANCH   2   3
ATOM      3  C   UNL     1       8.163  23.873  21.483  1.00  0.00    -0.003 C 
ATOM      4  C   UNL     1       8.135  24.644  22.799  1.00  0.00     0.004 C 
ENDBRANCH   2   3
ENDBRANCH   1   2
BRANCH   1   5
ATOM      5  C   UNL     1      10.991  21.885  23.090  1.00  0.00    -0.023 C 
ATOM      6  C   UNL     1      10.593  21.464  24.301  1.00  0.00     0.042 C 
BRANCH   6   7
ATOM      7  C   UNL     1       9.593  22.118  25.169  1.00  0.00     0.152 C 
ATOM      8  O   UNL     1       8.378  21.823  25.013  1.00  0.00    -0.295 OA
ATOM      9  C   UNL     1       9.968  23.063  26.269  1.00  0.00     0.093 C 
ENDBRANCH   6   7
ENDBRANCH   1   5
TORSDOF 4
ENDMDL
MODEL 8
REMARK VINA RESULT:    -2.498      4.195      5.337
REMARK INTER + INTRA:          -3.274
REMARK INTER:                  -2.803
REMARK INTRA:                  -0.471
REMARK UNBOUND:                -0.192
REMARK SMILES CCCCC=CC(C)=O
REMARK SMILES IDX 4 1 3 2 2 3 1 4 5 5 6 6 7 7 9 8 8 9
REMARK H PARENT
REMARK Flexibility Score: inf
ROOT
ATOM      1  C   UNL     1      11.118  22.018  23.976  1.00  0.00     0.027 C 
ENDROOT
BRANCH   1   2
ATOM      2  C   UNL     1      11.125  21.403  22.567  1.00  0.00     0.004 C 
BRANCH   2   3
ATOM      3  C   UNL     1      10.679  22.409  21.497  1.00  0.00    -0.003 C 
ATOM      4  C   UNL     1       9.211  22.209  21.132  1.00  0.00     0.004 C 
ENDBRANCH   2   3
ENDBRANCH   1   2
BRANCH   1   5
ATOM      5  C   UNL     1       9.899  21.630  24.774  1.00  0.00    -0.023 C 
ATOM      6  C   UNL     1       8.874  22.437  25.090  1.00  0.00     0.042 C 
BRANCH   6   7
ATOM      7  C   UNL     1       8.780  23.883  24.805  1.00  0.00     0.152 C 
ATOM      8  O   UNL     1       8.165  24.253  23.770  1.00  0.00    -0.295 OA
ATOM      9  C   UNL     1       9.326  24.929  25.729  1.00  0.00     0.093 C 
ENDBRANCH   6   7
ENDBRANCH   1   5
TORSDOF 4
ENDMDL
MODEL 9
REMARK VINA RESULT:    -2.486     16.813     17.793
REMARK INTER + INTRA:          -3.259
REMARK INTER:                  -2.961
REMARK INTRA:                  -0.298
REMARK UNBOUND:                -0.192
REMARK SMILES CCCCC=CC(C)=O
REMARK SMILES IDX 4 1 3 2 2 3 1 4 5 5 6 6 7 7 9 8 8 9
REMARK H PARENT
REMARK Flexibility Score: inf
ROOT
ATOM      1  C   UNL     1      -7.293  24.778  10.087  1.00  0.00     0.027 C 
ENDROOT
BRANCH   1   2
ATOM      2  C   UNL     1      -8.311  24.601  11.226  1.00  0.00     0.004 C 
BRANCH   2   3
ATOM      3  C   UNL     1      -7.634  24.219  12.550  1.00  0.00    -0.003 C 
ATOM      4  C   UNL     1      -8.370  23.071  13.234  1.00  0.00     0.004 C 
ENDBRANCH   2   3
ENDBRANCH   1   2
BRANCH   1   5
ATOM      5  C   UNL     1      -6.090  23.883  10.236  1.00  0.00    -0.023 C 
ATOM      6  C   UNL     1      -5.428  23.279   9.237  1.00  0.00     0.042 C 
BRANCH   6   7
ATOM      7  C   UNL     1      -5.801  23.290   7.808  1.00  0.00     0.152 C 
ATOM      8  O   UNL     1      -5.141  24.018   7.020  1.00  0.00    -0.295 OA
ATOM      9  C   UNL     1      -6.886  22.423   7.247  1.00  0.00     0.093 C 
ENDBRANCH   6   7
ENDBRANCH   1   5
TORSDOF 4
ENDMDL
