MODEL 1
REMARK VINA RESULT:    -3.667      0.000      0.000
REMARK INTER + INTRA:         -11.333
REMARK INTER:                  -8.383
REMARK INTRA:                  -2.950
REMARK UNBOUND:                -2.950
REMARK SMILES CCCCCCCCCCCCCCCCCCCCCCCC(=O)[O-]
REMARK SMILES IDX 13 1 14 2 15 3 16 4 17 5 18 6 19 7 20 8 21 9 22 10 23 11
REMARK SMILES IDX 24 12 25 13 26 14 12 15 11 16 10 17 9 18 8 19 7 20 6 21 5 22
REMARK SMILES IDX 4 23 3 24 2 25 1 26
REMARK H PARENT
REMARK Flexibility Score: inf
ROOT
ATOM      1  C   UNL     1      62.393  30.219  60.751  1.00  0.00     0.000 C 
ENDROOT
BRANCH   1   2
ATOM      2  C   UNL     1      63.719  29.709  61.344  1.00  0.00     0.000 C 
BRANCH   2   3
ATOM      3  C   UNL     1      64.117  28.321  60.817  1.00  0.00     0.000 C 
BRANCH   3   4
ATOM      4  C   UNL     1      65.581  28.258  60.344  1.00  0.00     0.000 C 
BRANCH   4   5
ATOM      5  C   UNL     1      66.551  29.215  61.067  1.00  0.00     0.000 C 
BRANCH   5   6
ATOM      6  C   UNL     1      67.854  28.568  61.566  1.00  0.00     0.000 C 
BRANCH   6   7
ATOM      7  C   UNL     1      68.992  29.583  61.746  1.00  0.00     0.000 C 
BRANCH   7   8
ATOM      8  C   UNL     1      70.191  29.227  60.859  1.00  0.00     0.000 C 
BRANCH   8   9
ATOM      9  C   UNL     1      69.981  29.726  59.424  1.00  0.00     0.000 C 
BRANCH   9  10
ATOM     10  C   UNL     1      71.041  30.770  59.044  1.00  0.00     0.006 C 
BRANCH  10  11
ATOM     11  C   UNL     1      70.598  32.197  59.391  1.00  0.00     0.053 C 
BRANCH  11  12
ATOM     12  C   UNL     1      71.444  32.792  60.475  1.00  0.00     0.041 C 
ATOM     13  O   UNL     1      71.400  34.029  60.708  1.00  0.00    -0.550 OA
ATOM     14  O   UNL     1      72.308  31.985  61.205  1.00  0.00    -0.550 OA
ENDBRANCH  11  12
ENDBRANCH  10  11
ENDBRANCH   9  10
ENDBRANCH   8   9
ENDBRANCH   7   8
ENDBRANCH   6   7
ENDBRANCH   5   6
ENDBRANCH   4   5
ENDBRANCH   3   4
ENDBRANCH   2   3
ENDBRANCH   1   2
BRANCH   1  15
ATOM     15  C   UNL     1      61.524  31.057  61.707  1.00  0.00     0.000 C 
BRANCH  15  16
ATOM     16  C   UNL     1      60.869  32.265  61.020  1.00  0.00     0.000 C 
BRANCH  16  17
ATOM     17  C   UNL     1      60.697  32.015  59.515  1.00  0.00     0.000 C 
BRANCH  17  18
ATOM     18  C   UNL     1      60.607  33.318  58.703  1.00  0.00    -0.000 C 
BRANCH  18  19
ATOM     19  C   UNL     1      61.932  33.680  58.016  1.00  0.00    -0.000 C 
BRANCH  19  20
ATOM     20  C   UNL     1      62.800  32.431  57.797  1.00  0.00    -0.000 C 
BRANCH  20  21
ATOM     21  C   UNL     1      64.087  32.455  58.649  1.00  0.00    -0.000 C 
BRANCH  21  22
ATOM     22  C   UNL     1      64.322  33.786  59.388  1.00  0.00    -0.000 C 
BRANCH  22  23
ATOM     23  C   UNL     1      64.077  33.744  60.906  1.00  0.00    -0.000 C 
BRANCH  23  24
ATOM     24  C   UNL     1      64.099  35.139  61.554  1.00  0.00    -0.000 C 
BRANCH  24  25
ATOM     25  C   UNL     1      63.322  36.179  60.733  1.00  0.00    -0.003 C 
ATOM     26  C   UNL     1      61.809  36.070  60.918  1.00  0.00     0.004 C 
ENDBRANCH  24  25
ENDBRANCH  23  24
ENDBRANCH  22  23
ENDBRANCH  21  22
ENDBRANCH  20  21
ENDBRANCH  19  20
ENDBRANCH  18  19
ENDBRANCH  17  18
ENDBRANCH  16  17
ENDBRANCH  15  16
ENDBRANCH   1  15
TORSDOF 22
ENDMDL
MODEL 2
REMARK VINA RESULT:    -3.611      5.562      8.329
REMARK INTER + INTRA:         -11.206
REMARK INTER:                  -6.690
REMARK INTRA:                  -4.516
REMARK UNBOUND:                -2.950
REMARK SMILES CCCCCCCCCCCCCCCCCCCCCCCC(=O)[O-]
REMARK SMILES IDX 13 1 14 2 15 3 16 4 17 5 18 6 19 7 20 8 21 9 22 10 23 11
REMARK SMILES IDX 24 12 25 13 26 14 12 15 11 16 10 17 9 18 8 19 7 20 6 21 5 22
REMARK SMILES IDX 4 23 3 24 2 25 1 26
REMARK H PARENT
REMARK Flexibility Score: inf
ROOT
ATOM      1  C   UNL     1      62.484  29.232  57.858  1.00  0.00     0.000 C 
ENDROOT
BRANCH   1   2
ATOM      2  C   UNL     1      61.823  28.143  58.723  1.00  0.00     0.000 C 
BRANCH   2   3
ATOM      3  C   UNL     1      62.774  26.980  59.051  1.00  0.00     0.000 C 
BRANCH   3   4
ATOM      4  C   UNL     1      63.061  26.848  60.557  1.00  0.00     0.000 C 
BRANCH   4   5
ATOM      5  C   UNL     1      63.043  25.408  61.111  1.00  0.00     0.000 C 
BRANCH   5   6
ATOM      6  C   UNL     1      62.133  25.191  62.332  1.00  0.00     0.000 C 
BRANCH   6   7
ATOM      7  C   UNL     1      61.306  26.435  62.689  1.00  0.00     0.000 C 
BRANCH   7   8
ATOM      8  C   UNL     1      59.814  26.194  62.434  1.00  0.00     0.000 C 
BRANCH   8   9
ATOM      9  C   UNL     1      59.409  26.680  61.037  1.00  0.00     0.000 C 
BRANCH   9  10
ATOM     10  C   UNL     1      58.772  28.076  61.103  1.00  0.00     0.006 C 
BRANCH  10  11
ATOM     11  C   UNL     1      57.286  28.053  60.724  1.00  0.00     0.053 C 
BRANCH  11  12
ATOM     12  C   UNL     1      56.413  27.816  61.918  1.00  0.00     0.041 C 
ATOM     13  O   UNL     1      56.059  28.781  62.647  1.00  0.00    -0.550 OA
ATOM     14  O   UNL     1      56.019  26.526  62.247  1.00  0.00    -0.550 OA
ENDBRANCH  11  12
ENDBRANCH  10  11
ENDBRANCH   9  10
ENDBRANCH   8   9
ENDBRANCH   7   8
ENDBRANCH   6   7
ENDBRANCH   5   6
ENDBRANCH   4   5
ENDBRANCH   3   4
ENDBRANCH   2   3
ENDBRANCH   1   2
BRANCH   1  15
ATOM     15  C   UNL     1      63.975  29.487  58.150  1.00  0.00     0.000 C 
BRANCH  15  16
ATOM     16  C   UNL     1      64.309  30.978  58.310  1.00  0.00     0.000 C 
BRANCH  16  17
ATOM     17  C   UNL     1      64.922  31.260  59.690  1.00  0.00     0.000 C 
BRANCH  17  18
ATOM     18  C   UNL     1      64.453  30.262  60.762  1.00  0.00    -0.000 C 
BRANCH  18  19
ATOM     19  C   UNL     1      63.473  30.888  61.765  1.00  0.00    -0.000 C 
BRANCH  19  20
ATOM     20  C   UNL     1      62.136  30.131  61.777  1.00  0.00    -0.000 C 
BRANCH  20  21
ATOM     21  C   UNL     1      60.924  31.079  61.649  1.00  0.00    -0.000 C 
BRANCH  21  22
ATOM     22  C   UNL     1      60.547  31.416  60.193  1.00  0.00    -0.000 C 
BRANCH  22  23
ATOM     23  C   UNL     1      61.287  32.621  59.589  1.00  0.00    -0.000 C 
BRANCH  23  24
ATOM     24  C   UNL     1      61.399  33.805  60.565  1.00  0.00    -0.000 C 
BRANCH  24  25
ATOM     25  C   UNL     1      62.816  34.397  60.609  1.00  0.00    -0.003 C 
ATOM     26  C   UNL     1      63.433  34.561  59.220  1.00  0.00     0.004 C 
ENDBRANCH  24  25
ENDBRANCH  23  24
ENDBRANCH  22  23
ENDBRANCH  21  22
ENDBRANCH  20  21
ENDBRANCH  19  20
ENDBRANCH  18  19
ENDBRANCH  17  18
ENDBRANCH  16  17
ENDBRANCH  15  16
ENDBRANCH   1  15
TORSDOF 22
ENDMDL
MODEL 3
REMARK VINA RESULT:    -3.508     10.284     12.645
REMARK INTER + INTRA:         -10.971
REMARK INTER:                  -7.153
REMARK INTRA:                  -3.818
REMARK UNBOUND:                -2.950
REMARK SMILES CCCCCCCCCCCCCCCCCCCCCCCC(=O)[O-]
REMARK SMILES IDX 13 1 14 2 15 3 16 4 17 5 18 6 19 7 20 8 21 9 22 10 23 11
REMARK SMILES IDX 24 12 25 13 26 14 12 15 11 16 10 17 9 18 8 19 7 20 6 21 5 22
REMARK SMILES IDX 4 23 3 24 2 25 1 26
REMARK H PARENT
REMARK Flexibility Score: inf
ROOT
ATOM      1  C   UNL     1      62.002  26.685  51.570  1.00  0.00     0.000 C 
ENDROOT
BRANCH   1   2
ATOM      2  C   UNL     1      60.903  26.972  52.609  1.00  0.00     0.000 C 
BRANCH   2   3
ATOM      3  C   UNL     1      60.987  28.392  53.194  1.00  0.00     0.000 C 
BRANCH   3   4
ATOM      4  C   UNL     1      61.981  29.292  52.438  1.00  0.00     0.000 C 
BRANCH   4   5
ATOM      5  C   UNL     1      61.367  30.537  51.766  1.00  0.00     0.000 C 
BRANCH   5   6
ATOM      6  C   UNL     1      62.001  30.932  50.422  1.00  0.00     0.000 C 
BRANCH   6   7
ATOM      7  C   UNL     1      63.030  29.907  49.923  1.00  0.00     0.000 C 
BRANCH   7   8
ATOM      8  C   UNL     1      63.643  30.348  48.589  1.00  0.00     0.000 C 
BRANCH   8   9
ATOM      9  C   UNL     1      64.184  29.144  47.808  1.00  0.00     0.000 C 
BRANCH   9  10
ATOM     10  C   UNL     1      65.519  29.483  47.129  1.00  0.00     0.006 C 
BRANCH  10  11
ATOM     11  C   UNL     1      66.142  30.769  47.687  1.00  0.00     0.053 C 
BRANCH  11  12
ATOM     12  C   UNL     1      66.989  31.463  46.664  1.00  0.00     0.041 C 
ATOM     13  O   UNL     1      66.991  32.721  46.589  1.00  0.00    -0.550 OA
ATOM     14  O   UNL     1      67.751  30.719  45.772  1.00  0.00    -0.550 OA
ENDBRANCH  11  12
ENDBRANCH  10  11
ENDBRANCH   9  10
ENDBRANCH   8   9
ENDBRANCH   7   8
ENDBRANCH   6   7
ENDBRANCH   5   6
ENDBRANCH   4   5
ENDBRANCH   3   4
ENDBRANCH   2   3
ENDBRANCH   1   2
BRANCH   1  15
ATOM     15  C   UNL     1      61.496  26.326  50.161  1.00  0.00     0.000 C 
BRANCH  15  16
ATOM     16  C   UNL     1      60.036  25.847  50.151  1.00  0.00     0.000 C 
BRANCH  16  17
ATOM     17  C   UNL     1      59.137  26.839  49.397  1.00  0.00     0.000 C 
BRANCH  17  18
ATOM     18  C   UNL     1      59.863  28.148  49.045  1.00  0.00    -0.000 C 
BRANCH  18  19
ATOM     19  C   UNL     1      58.952  29.379  49.159  1.00  0.00    -0.000 C 
BRANCH  19  20
ATOM     20  C   UNL     1      57.678  29.052  49.953  1.00  0.00    -0.000 C 
BRANCH  20  21
ATOM     21  C   UNL     1      57.849  29.302  51.467  1.00  0.00    -0.000 C 
BRANCH  21  22
ATOM     22  C   UNL     1      57.274  28.180  52.354  1.00  0.00    -0.000 C 
BRANCH  22  23
ATOM     23  C   UNL     1      55.898  27.646  51.921  1.00  0.00    -0.000 C 
BRANCH  23  24
ATOM     24  C   UNL     1      55.979  26.265  51.247  1.00  0.00    -0.000 C 
BRANCH  24  25
ATOM     25  C   UNL     1      55.149  26.194  49.956  1.00  0.00    -0.003 C 
ATOM     26  C   UNL     1      54.183  27.369  49.806  1.00  0.00     0.004 C 
ENDBRANCH  24  25
ENDBRANCH  23  24
ENDBRANCH  22  23
ENDBRANCH  21  22
ENDBRANCH  20  21
ENDBRANCH  19  20
ENDBRANCH  18  19
ENDBRANCH  17  18
ENDBRANCH  16  17
ENDBRANCH  15  16
ENDBRANCH   1  15
TORSDOF 22
ENDMDL
MODEL 4
REMARK VINA RESULT:    -3.462      9.673     12.442
REMARK INTER + INTRA:         -10.866
REMARK INTER:                  -6.630
REMARK INTRA:                  -4.236
REMARK UNBOUND:                -2.950
REMARK SMILES CCCCCCCCCCCCCCCCCCCCCCCC(=O)[O-]
REMARK SMILES IDX 13 1 14 2 15 3 16 4 17 5 18 6 19 7 20 8 21 9 22 10 23 11
REMARK SMILES IDX 24 12 25 13 26 14 12 15 11 16 10 17 9 18 8 19 7 20 6 21 5 22
REMARK SMILES IDX 4 23 3 24 2 25 1 26
REMARK H PARENT
REMARK Flexibility Score: inf
ROOT
ATOM      1  C   UNL     1      57.934  29.336  51.625  1.00  0.00     0.000 C 
ENDROOT
BRANCH   1   2
ATOM      2  C   UNL     1      58.911  30.358  52.235  1.00  0.00     0.000 C 
BRANCH   2   3
ATOM      3  C   UNL     1      59.631  29.825  53.485  1.00  0.00     0.000 C 
BRANCH   3   4
ATOM      4  C   UNL     1      59.882  28.307  53.430  1.00  0.00     0.000 C 
BRANCH   4   5
ATOM      5  C   UNL     1      61.352  27.873  53.605  1.00  0.00     0.000 C 
BRANCH   5   6
ATOM      6  C   UNL     1      62.347  28.537  52.638  1.00  0.00     0.000 C 
BRANCH   6   7
ATOM      7  C   UNL     1      63.238  29.583  53.324  1.00  0.00     0.000 C 
BRANCH   7   8
ATOM      8  C   UNL     1      63.358  30.849  52.468  1.00  0.00     0.000 C 
BRANCH   8   9
ATOM      9  C   UNL     1      62.520  30.730  51.189  1.00  0.00     0.000 C 
BRANCH   9  10
ATOM     10  C   UNL     1      61.986  32.102  50.751  1.00  0.00     0.006 C 
BRANCH  10  11
ATOM     11  C   UNL     1      62.068  32.296  49.231  1.00  0.00     0.053 C 
BRANCH  11  12
ATOM     12  C   UNL     1      62.611  33.647  48.875  1.00  0.00     0.041 C 
ATOM     13  O   UNL     1      63.837  33.792  48.623  1.00  0.00    -0.550 OA
ATOM     14  O   UNL     1      61.769  34.751  48.853  1.00  0.00    -0.550 OA
ENDBRANCH  11  12
ENDBRANCH  10  11
ENDBRANCH   9  10
ENDBRANCH   8   9
ENDBRANCH   7   8
ENDBRANCH   6   7
ENDBRANCH   5   6
ENDBRANCH   4   5
ENDBRANCH   3   4
ENDBRANCH   2   3
ENDBRANCH   1   2
BRANCH   1  15
ATOM     15  C   UNL     1      57.936  29.263  50.087  1.00  0.00     0.000 C 
BRANCH  15  16
ATOM     16  C   UNL     1      59.299  29.614  49.471  1.00  0.00     0.000 C 
BRANCH  16  17
ATOM     17  C   UNL     1      60.263  28.421  49.553  1.00  0.00     0.000 C 
BRANCH  17  18
ATOM     18  C   UNL     1      59.576  27.080  49.249  1.00  0.00    -0.000 C 
BRANCH  18  19
ATOM     19  C   UNL     1      59.508  26.158  50.475  1.00  0.00    -0.000 C 
BRANCH  19  20
ATOM     20  C   UNL     1      58.181  25.384  50.511  1.00  0.00    -0.000 C 
BRANCH  20  21
ATOM     21  C   UNL     1      57.362  25.683  51.785  1.00  0.00    -0.000 C 
BRANCH  21  22
ATOM     22  C   UNL     1      55.925  26.163  51.505  1.00  0.00    -0.000 C 
BRANCH  22  23
ATOM     23  C   UNL     1      55.586  26.381  50.021  1.00  0.00    -0.000 C 
BRANCH  23  24
ATOM     24  C   UNL     1      54.407  27.347  49.812  1.00  0.00    -0.000 C 
BRANCH  24  25
ATOM     25  C   UNL     1      54.383  28.476  50.854  1.00  0.00    -0.003 C 
ATOM     26  C   UNL     1      53.785  29.773  50.309  1.00  0.00     0.004 C 
ENDBRANCH  24  25
ENDBRANCH  23  24
ENDBRANCH  22  23
ENDBRANCH  21  22
ENDBRANCH  20  21
ENDBRANCH  19  20
ENDBRANCH  18  19
ENDBRANCH  17  18
ENDBRANCH  16  17
ENDBRANCH  15  16
ENDBRANCH   1  15
TORSDOF 22
ENDMDL
MODEL 5
REMARK VINA RESULT:    -3.460      1.613      3.459
REMARK INTER + INTRA:         -10.860
REMARK INTER:                  -8.324
REMARK INTRA:                  -2.536
REMARK UNBOUND:                -2.950
REMARK SMILES CCCCCCCCCCCCCCCCCCCCCCCC(=O)[O-]
REMARK SMILES IDX 13 1 14 2 15 3 16 4 17 5 18 6 19 7 20 8 21 9 22 10 23 11
REMARK SMILES IDX 24 12 25 13 26 14 12 15 11 16 10 17 9 18 8 19 7 20 6 21 5 22
REMARK SMILES IDX 4 23 3 24 2 25 1 26
REMARK H PARENT
REMARK Flexibility Score: inf
ROOT
ATOM      1  C   UNL     1      66.024  28.579  58.963  1.00  0.00     0.000 C 
ENDROOT
BRANCH   1   2
ATOM      2  C   UNL     1      66.113  27.600  60.147  1.00  0.00     0.000 C 
BRANCH   2   3
ATOM      3  C   UNL     1      67.487  27.618  60.838  1.00  0.00     0.000 C 
BRANCH   3   4
ATOM      4  C   UNL     1      67.659  28.810  61.796  1.00  0.00     0.000 C 
BRANCH   4   5
ATOM      5  C   UNL     1      69.003  29.560  61.685  1.00  0.00     0.000 C 
BRANCH   5   6
ATOM      6  C   UNL     1      69.880  29.152  60.488  1.00  0.00     0.000 C 
BRANCH   6   7
ATOM      7  C   UNL     1      70.107  30.302  59.497  1.00  0.00     0.000 C 
BRANCH   7   8
ATOM      8  C   UNL     1      71.586  30.411  59.111  1.00  0.00     0.000 C 
BRANCH   8   9
ATOM      9  C   UNL     1      72.002  31.876  58.933  1.00  0.00     0.000 C 
BRANCH   9  10
ATOM     10  C   UNL     1      71.767  32.344  57.490  1.00  0.00     0.006 C 
BRANCH  10  11
ATOM     11  C   UNL     1      71.541  33.859  57.402  1.00  0.00     0.053 C 
BRANCH  11  12
ATOM     12  C   UNL     1      70.335  34.285  58.183  1.00  0.00     0.041 C 
ATOM     13  O   UNL     1      69.178  34.040  57.749  1.00  0.00    -0.550 OA
ATOM     14  O   UNL     1      70.490  34.983  59.374  1.00  0.00    -0.550 OA
ENDBRANCH  11  12
ENDBRANCH  10  11
ENDBRANCH   9  10
ENDBRANCH   8   9
ENDBRANCH   7   8
ENDBRANCH   6   7
ENDBRANCH   5   6
ENDBRANCH   4   5
ENDBRANCH   3   4
ENDBRANCH   2   3
ENDBRANCH   1   2
BRANCH   1  15
ATOM     15  C   UNL     1      64.900  29.628  59.061  1.00  0.00     0.000 C 
BRANCH  15  16
ATOM     16  C   UNL     1      65.328  30.898  59.811  1.00  0.00     0.000 C 
BRANCH  16  17
ATOM     17  C   UNL     1      64.411  31.160  61.015  1.00  0.00     0.000 C 
BRANCH  17  18
ATOM     18  C   UNL     1      63.580  29.928  61.408  1.00  0.00    -0.000 C 
BRANCH  18  19
ATOM     19  C   UNL     1      62.132  30.283  61.774  1.00  0.00    -0.000 C 
BRANCH  19  20
ATOM     20  C   UNL     1      61.209  30.169  60.550  1.00  0.00    -0.000 C 
BRANCH  20  21
ATOM     21  C   UNL     1      60.635  31.536  60.119  1.00  0.00    -0.000 C 
BRANCH  21  22
ATOM     22  C   UNL     1      61.111  32.716  60.989  1.00  0.00    -0.000 C 
BRANCH  22  23
ATOM     23  C   UNL     1      62.002  33.742  60.269  1.00  0.00    -0.000 C 
BRANCH  23  24
ATOM     24  C   UNL     1      61.708  35.191  60.694  1.00  0.00    -0.000 C 
BRANCH  24  25
ATOM     25  C   UNL     1      62.967  35.928  61.173  1.00  0.00    -0.003 C 
ATOM     26  C   UNL     1      64.116  34.980  61.515  1.00  0.00     0.004 C 
ENDBRANCH  24  25
ENDBRANCH  23  24
ENDBRANCH  22  23
ENDBRANCH  21  22
ENDBRANCH  20  21
ENDBRANCH  19  20
ENDBRANCH  18  19
ENDBRANCH  17  18
ENDBRANCH  16  17
ENDBRANCH  15  16
ENDBRANCH   1  15
TORSDOF 22
ENDMDL
MODEL 6
REMARK VINA RESULT:    -3.451      1.831      2.011
REMARK INTER + INTRA:         -10.840
REMARK INTER:                  -7.481
REMARK INTRA:                  -3.359
REMARK UNBOUND:                -2.950
REMARK SMILES CCCCCCCCCCCCCCCCCCCCCCCC(=O)[O-]
REMARK SMILES IDX 13 1 14 2 15 3 16 4 17 5 18 6 19 7 20 8 21 9 22 10 23 11
REMARK SMILES IDX 24 12 25 13 26 14 12 15 11 16 10 17 9 18 8 19 7 20 6 21 5 22
REMARK SMILES IDX 4 23 3 24 2 25 1 26
REMARK H PARENT
REMARK Flexibility Score: inf
ROOT
ATOM      1  C   UNL     1      62.380  30.211  60.747  1.00  0.00     0.000 C 
ENDROOT
BRANCH   1   2
ATOM      2  C   UNL     1      63.705  29.735  61.369  1.00  0.00     0.000 C 
BRANCH   2   3
ATOM      3  C   UNL     1      64.065  28.291  60.979  1.00  0.00     0.000 C 
BRANCH   3   4
ATOM      4  C   UNL     1      65.527  28.143  60.519  1.00  0.00     0.000 C 
BRANCH   4   5
ATOM      5  C   UNL     1      66.506  29.196  61.078  1.00  0.00     0.000 C 
BRANCH   5   6
ATOM      6  C   UNL     1      67.821  28.630  61.642  1.00  0.00     0.000 C 
BRANCH   6   7
ATOM      7  C   UNL     1      68.970  29.648  61.611  1.00  0.00     0.000 C 
BRANCH   7   8
ATOM      8  C   UNL     1      70.148  29.121  60.784  1.00  0.00     0.000 C 
BRANCH   8   9
ATOM      9  C   UNL     1      69.711  27.963  59.878  1.00  0.00     0.000 C 
BRANCH   9  10
ATOM     10  C   UNL     1      69.867  28.334  58.396  1.00  0.00     0.006 C 
BRANCH  10  11
ATOM     11  C   UNL     1      68.576  28.917  57.807  1.00  0.00     0.053 C 
BRANCH  11  12
ATOM     12  C   UNL     1      68.628  30.412  57.728  1.00  0.00     0.041 C 
ATOM     13  O   UNL     1      69.456  30.980  56.967  1.00  0.00    -0.550 OA
ATOM     14  O   UNL     1      67.786  31.180  58.522  1.00  0.00    -0.550 OA
ENDBRANCH  11  12
ENDBRANCH  10  11
ENDBRANCH   9  10
ENDBRANCH   8   9
ENDBRANCH   7   8
ENDBRANCH   6   7
ENDBRANCH   5   6
ENDBRANCH   4   5
ENDBRANCH   3   4
ENDBRANCH   2   3
ENDBRANCH   1   2
BRANCH   1  15
ATOM     15  C   UNL     1      61.461  31.009  61.690  1.00  0.00     0.000 C 
BRANCH  15  16
ATOM     16  C   UNL     1      60.807  32.221  61.009  1.00  0.00     0.000 C 
BRANCH  16  17
ATOM     17  C   UNL     1      60.598  31.962  59.509  1.00  0.00     0.000 C 
BRANCH  17  18
ATOM     18  C   UNL     1      60.518  33.259  58.689  1.00  0.00    -0.000 C 
BRANCH  18  19
ATOM     19  C   UNL     1      61.874  33.669  58.096  1.00  0.00    -0.000 C 
BRANCH  19  20
ATOM     20  C   UNL     1      62.759  32.440  57.840  1.00  0.00    -0.000 C 
BRANCH  20  21
ATOM     21  C   UNL     1      64.092  32.504  58.617  1.00  0.00    -0.000 C 
BRANCH  21  22
ATOM     22  C   UNL     1      64.302  33.823  59.386  1.00  0.00    -0.000 C 
BRANCH  22  23
ATOM     23  C   UNL     1      64.057  33.742  60.902  1.00  0.00    -0.000 C 
BRANCH  23  24
ATOM     24  C   UNL     1      64.122  35.115  61.593  1.00  0.00    -0.000 C 
BRANCH  24  25
ATOM     25  C   UNL     1      63.358  36.198  60.816  1.00  0.00    -0.003 C 
ATOM     26  C   UNL     1      61.841  36.041  60.915  1.00  0.00     0.004 C 
ENDBRANCH  24  25
ENDBRANCH  23  24
ENDBRANCH  22  23
ENDBRANCH  21  22
ENDBRANCH  20  21
ENDBRANCH  19  20
ENDBRANCH  18  19
ENDBRANCH  17  18
ENDBRANCH  16  17
ENDBRANCH  15  16
ENDBRANCH   1  15
TORSDOF 22
ENDMDL
MODEL 7
REMARK VINA RESULT:    -3.449      6.091      9.294
REMARK INTER + INTRA:         -10.835
REMARK INTER:                  -7.829
REMARK INTRA:                  -3.006
REMARK UNBOUND:                -2.950
REMARK SMILES CCCCCCCCCCCCCCCCCCCCCCCC(=O)[O-]
REMARK SMILES IDX 13 1 14 2 15 3 16 4 17 5 18 6 19 7 20 8 21 9 22 10 23 11
REMARK SMILES IDX 24 12 25 13 26 14 12 15 11 16 10 17 9 18 8 19 7 20 6 21 5 22
REMARK SMILES IDX 4 23 3 24 2 25 1 26
REMARK H PARENT
REMARK Flexibility Score: inf
ROOT
ATOM      1  C   UNL     1      63.852  27.481  60.656  1.00  0.00     0.000 C 
ENDROOT
BRANCH   1   2
ATOM      2  C   UNL     1      62.737  26.484  61.019  1.00  0.00     0.000 C 
BRANCH   2   3
ATOM      3  C   UNL     1      61.873  26.956  62.200  1.00  0.00     0.000 C 
BRANCH   3   4
ATOM      4  C   UNL     1      60.667  26.036  62.465  1.00  0.00     0.000 C 
BRANCH   4   5
ATOM      5  C   UNL     1      59.411  26.331  61.620  1.00  0.00     0.000 C 
BRANCH   5   6
ATOM      6  C   UNL     1      59.155  27.821  61.331  1.00  0.00     0.000 C 
BRANCH   6   7
ATOM      7  C   UNL     1      59.021  28.122  59.831  1.00  0.00     0.000 C 
BRANCH   7   8
ATOM      8  C   UNL     1      57.699  28.840  59.532  1.00  0.00     0.000 C 
BRANCH   8   9
ATOM      9  C   UNL     1      56.501  27.924  59.811  1.00  0.00     0.000 C 
BRANCH   9  10
ATOM     10  C   UNL     1      55.550  28.559  60.836  1.00  0.00     0.006 C 
BRANCH  10  11
ATOM     11  C   UNL     1      55.576  27.824  62.182  1.00  0.00     0.053 C 
BRANCH  11  12
ATOM     12  C   UNL     1      55.344  26.353  62.014  1.00  0.00     0.041 C 
ATOM     13  O   UNL     1      54.366  25.937  61.336  1.00  0.00    -0.550 OA
ATOM     14  O   UNL     1      56.188  25.441  62.635  1.00  0.00    -0.550 OA
ENDBRANCH  11  12
ENDBRANCH  10  11
ENDBRANCH   9  10
ENDBRANCH   8   9
ENDBRANCH   7   8
ENDBRANCH   6   7
ENDBRANCH   5   6
ENDBRANCH   4   5
ENDBRANCH   3   4
ENDBRANCH   2   3
ENDBRANCH   1   2
BRANCH   1  15
ATOM     15  C   UNL     1      63.368  28.864  60.181  1.00  0.00     0.000 C 
BRANCH  15  16
ATOM     16  C   UNL     1      64.230  30.018  60.715  1.00  0.00     0.000 C 
BRANCH  16  17
ATOM     17  C   UNL     1      63.372  31.036  61.481  1.00  0.00     0.000 C 
BRANCH  17  18
ATOM     18  C   UNL     1      61.962  30.509  61.792  1.00  0.00    -0.000 C 
BRANCH  18  19
ATOM     19  C   UNL     1      60.856  31.474  61.343  1.00  0.00    -0.000 C 
BRANCH  19  20
ATOM     20  C   UNL     1      60.648  31.407  59.822  1.00  0.00    -0.000 C 
BRANCH  20  21
ATOM     21  C   UNL     1      60.377  32.796  59.205  1.00  0.00    -0.000 C 
BRANCH  21  22
ATOM     22  C   UNL     1      61.488  33.828  59.479  1.00  0.00    -0.000 C 
BRANCH  22  23
ATOM     23  C   UNL     1      61.061  35.039  60.325  1.00  0.00    -0.000 C 
BRANCH  23  24
ATOM     24  C   UNL     1      62.256  35.805  60.917  1.00  0.00    -0.000 C 
BRANCH  24  25
ATOM     25  C   UNL     1      63.455  34.889  61.206  1.00  0.00    -0.003 C 
ATOM     26  C   UNL     1      64.613  35.623  61.883  1.00  0.00     0.004 C 
ENDBRANCH  24  25
ENDBRANCH  23  24
ENDBRANCH  22  23
ENDBRANCH  21  22
ENDBRANCH  20  21
ENDBRANCH  19  20
ENDBRANCH  18  19
ENDBRANCH  17  18
ENDBRANCH  16  17
ENDBRANCH  15  16
ENDBRANCH   1  15
TORSDOF 22
ENDMDL
MODEL 8
REMARK VINA RESULT:    -3.425      6.217     10.404
REMARK INTER + INTRA:         -10.781
REMARK INTER:                  -6.999
REMARK INTRA:                  -3.782
REMARK UNBOUND:                -2.950
REMARK SMILES CCCCCCCCCCCCCCCCCCCCCCCC(=O)[O-]
REMARK SMILES IDX 13 1 14 2 15 3 16 4 17 5 18 6 19 7 20 8 21 9 22 10 23 11
REMARK SMILES IDX 24 12 25 13 26 14 12 15 11 16 10 17 9 18 8 19 7 20 6 21 5 22
REMARK SMILES IDX 4 23 3 24 2 25 1 26
REMARK H PARENT
REMARK Flexibility Score: inf
ROOT
ATOM      1  C   UNL     1      63.158  36.599  61.269  1.00  0.00     0.000 C 
ENDROOT
BRANCH   1   2
ATOM      2  C   UNL     1      61.694  36.209  60.998  1.00  0.00     0.000 C 
BRANCH   2   3
ATOM      3  C   UNL     1      61.184  36.708  59.636  1.00  0.00     0.000 C 
BRANCH   3   4
ATOM      4  C   UNL     1      59.718  36.324  59.368  1.00  0.00     0.000 C 
BRANCH   4   5
ATOM      5  C   UNL     1      59.350  36.111  57.885  1.00  0.00     0.000 C 
BRANCH   5   6
ATOM      6  C   UNL     1      58.165  35.162  57.637  1.00  0.00     0.000 C 
BRANCH   6   7
ATOM      7  C   UNL     1      58.310  34.354  56.339  1.00  0.00     0.000 C 
BRANCH   7   8
ATOM      8  C   UNL     1      57.327  33.179  56.311  1.00  0.00     0.000 C 
BRANCH   8   9
ATOM      9  C   UNL     1      57.035  32.671  57.729  1.00  0.00     0.000 C 
BRANCH   9  10
ATOM     10  C   UNL     1      55.524  32.543  57.968  1.00  0.00     0.006 C 
BRANCH  10  11
ATOM     11  C   UNL     1      54.725  33.609  57.207  1.00  0.00     0.053 C 
BRANCH  11  12
ATOM     12  C   UNL     1      54.209  34.675  58.125  1.00  0.00     0.041 C 
ATOM     13  O   UNL     1      54.848  34.979  59.167  1.00  0.00    -0.550 OA
ATOM     14  O   UNL     1      53.004  35.308  57.848  1.00  0.00    -0.550 OA
ENDBRANCH  11  12
ENDBRANCH  10  11
ENDBRANCH   9  10
ENDBRANCH   8   9
ENDBRANCH   7   8
ENDBRANCH   6   7
ENDBRANCH   5   6
ENDBRANCH   4   5
ENDBRANCH   3   4
ENDBRANCH   2   3
ENDBRANCH   1   2
BRANCH   1  15
ATOM     15  C   UNL     1      64.067  35.449  61.743  1.00  0.00     0.000 C 
BRANCH  15  16
ATOM     16  C   UNL     1      64.138  34.288  60.740  1.00  0.00     0.000 C 
BRANCH  16  17
ATOM     17  C   UNL     1      64.450  34.801  59.326  1.00  0.00     0.000 C 
BRANCH  17  18
ATOM     18  C   UNL     1      63.538  34.181  58.255  1.00  0.00    -0.000 C 
BRANCH  18  19
ATOM     19  C   UNL     1      62.774  32.952  58.768  1.00  0.00    -0.000 C 
BRANCH  19  20
ATOM     20  C   UNL     1      61.306  32.985  58.315  1.00  0.00    -0.000 C 
BRANCH  20  21
ATOM     21  C   UNL     1      60.353  32.386  59.371  1.00  0.00    -0.000 C 
BRANCH  21  22
ATOM     22  C   UNL     1      60.809  32.615  60.825  1.00  0.00    -0.000 C 
BRANCH  22  23
ATOM     23  C   UNL     1      60.843  31.355  61.706  1.00  0.00    -0.000 C 
BRANCH  23  24
ATOM     24  C   UNL     1      62.208  30.646  61.682  1.00  0.00    -0.000 C 
BRANCH  24  25
ATOM     25  C   UNL     1      62.076  29.126  61.499  1.00  0.00    -0.003 C 
ATOM     26  C   UNL     1      60.969  28.741  60.517  1.00  0.00     0.004 C 
ENDBRANCH  24  25
ENDBRANCH  23  24
ENDBRANCH  22  23
ENDBRANCH  21  22
ENDBRANCH  20  21
ENDBRANCH  19  20
ENDBRANCH  18  19
ENDBRANCH  17  18
ENDBRANCH  16  17
ENDBRANCH  15  16
ENDBRANCH   1  15
TORSDOF 22
ENDMDL
MODEL 9
REMARK VINA RESULT:    -3.363     10.444     12.958
REMARK INTER + INTRA:         -10.638
REMARK INTER:                  -6.165
REMARK INTRA:                  -4.473
REMARK UNBOUND:                -2.950
REMARK SMILES CCCCCCCCCCCCCCCCCCCCCCCC(=O)[O-]
REMARK SMILES IDX 13 1 14 2 15 3 16 4 17 5 18 6 19 7 20 8 21 9 22 10 23 11
REMARK SMILES IDX 24 12 25 13 26 14 12 15 11 16 10 17 9 18 8 19 7 20 6 21 5 22
REMARK SMILES IDX 4 23 3 24 2 25 1 26
REMARK H PARENT
REMARK Flexibility Score: inf
ROOT
ATOM      1  C   UNL     1      58.808  26.838  49.598  1.00  0.00     0.000 C 
ENDROOT
BRANCH   1   2
ATOM      2  C   UNL     1      58.456  28.332  49.720  1.00  0.00     0.000 C 
BRANCH   2   3
ATOM      3  C   UNL     1      59.694  29.243  49.683  1.00  0.00     0.000 C 
BRANCH   3   4
ATOM      4  C   UNL     1      61.004  28.464  49.471  1.00  0.00     0.000 C 
BRANCH   4   5
ATOM      5  C   UNL     1      62.109  28.733  50.514  1.00  0.00     0.000 C 
BRANCH   5   6
ATOM      6  C   UNL     1      61.617  29.319  51.848  1.00  0.00     0.000 C 
BRANCH   6   7
ATOM      7  C   UNL     1      61.593  28.284  52.982  1.00  0.00     0.000 C 
BRANCH   7   8
ATOM      8  C   UNL     1      60.338  27.406  52.897  1.00  0.00     0.000 C 
BRANCH   8   9
ATOM      9  C   UNL     1      60.580  26.037  53.545  1.00  0.00     0.000 C 
BRANCH   9  10
ATOM     10  C   UNL     1      60.151  24.901  52.605  1.00  0.00     0.006 C 
BRANCH  10  11
ATOM     11  C   UNL     1      61.353  24.169  51.996  1.00  0.00     0.053 C 
BRANCH  11  12
ATOM     12  C   UNL     1      61.433  24.373  50.514  1.00  0.00     0.041 C 
ATOM     13  O   UNL     1      62.238  25.214  50.031  1.00  0.00    -0.550 OA
ATOM     14  O   UNL     1      60.595  23.658  49.667  1.00  0.00    -0.550 OA
ENDBRANCH  11  12
ENDBRANCH  10  11
ENDBRANCH   9  10
ENDBRANCH   8   9
ENDBRANCH   7   8
ENDBRANCH   6   7
ENDBRANCH   5   6
ENDBRANCH   4   5
ENDBRANCH   3   4
ENDBRANCH   2   3
ENDBRANCH   1   2
BRANCH   1  15
ATOM     15  C   UNL     1      57.733  25.865  50.118  1.00  0.00     0.000 C 
BRANCH  15  16
ATOM     16  C   UNL     1      56.994  26.394  51.357  1.00  0.00     0.000 C 
BRANCH  16  17
ATOM     17  C   UNL     1      55.482  26.149  51.242  1.00  0.00     0.000 C 
BRANCH  17  18
ATOM     18  C   UNL     1      54.940  26.438  49.833  1.00  0.00    -0.000 C 
BRANCH  18  19
ATOM     19  C   UNL     1      54.000  27.651  49.798  1.00  0.00    -0.000 C 
BRANCH  19  20
ATOM     20  C   UNL     1      54.743  28.938  50.188  1.00  0.00    -0.000 C 
BRANCH  20  21
ATOM     21  C   UNL     1      53.863  29.895  51.021  1.00  0.00    -0.000 C 
BRANCH  21  22
ATOM     22  C   UNL     1      54.506  30.335  52.351  1.00  0.00    -0.000 C 
BRANCH  22  23
ATOM     23  C   UNL     1      55.192  29.214  53.149  1.00  0.00    -0.000 C 
BRANCH  23  24
ATOM     24  C   UNL     1      56.677  29.501  53.428  1.00  0.00    -0.000 C 
BRANCH  24  25
ATOM     25  C   UNL     1      57.265  30.541  52.462  1.00  0.00    -0.003 C 
ATOM     26  C   UNL     1      58.659  31.013  52.875  1.00  0.00     0.004 C 
ENDBRANCH  24  25
ENDBRANCH  23  24
ENDBRANCH  22  23
ENDBRANCH  21  22
ENDBRANCH  20  21
ENDBRANCH  19  20
ENDBRANCH  18  19
ENDBRANCH  17  18
ENDBRANCH  16  17
ENDBRANCH  15  16
ENDBRANCH   1  15
TORSDOF 22
ENDMDL
