MODEL 1
REMARK VINA RESULT:    -6.400      0.000      0.000
REMARK INTER + INTRA:          -6.995
REMARK INTER:                  -6.774
REMARK INTRA:                  -0.220
REMARK UNBOUND:                -0.220
REMARK SMILES O=c1cc(-c2ccccc2)oc2ccccc12
REMARK SMILES IDX 4 1 3 2 2 3 1 4 17 5 16 6 15 7 14 8 13 9 12 10 11 11 5 12
REMARK SMILES IDX 8 13 7 14 9 15 6 16 10 17
REMARK H PARENT
REMARK Flexibility Score: inf
ROOT
ATOM      1  C   UNL     1       3.740  28.883  54.162  1.00  0.00     0.138 A 
ATOM      2  C   UNL     1       4.249  28.271  55.326  1.00  0.00     0.100 A 
ATOM      3  C   UNL     1       3.423  28.120  56.442  1.00  0.00     0.193 A 
ATOM      4  O   UNL     1       3.877  27.574  57.483  1.00  0.00    -0.289 OA
ATOM      5  C   UNL     1       2.099  28.578  56.387  1.00  0.00     0.065 A 
ATOM      6  C   UNL     1       1.213  28.455  57.474  1.00  0.00     0.016 A 
ATOM      7  C   UNL     1      -0.098  28.929  57.365  1.00  0.00     0.001 A 
ATOM      8  C   UNL     1      -0.534  29.525  56.179  1.00  0.00     0.004 A 
ATOM      9  C   UNL     1       0.338  29.650  55.094  1.00  0.00     0.048 A 
ATOM     10  C   UNL     1       1.653  29.180  55.191  1.00  0.00     0.138 A 
ATOM     11  O   UNL     1       2.474  29.303  54.154  1.00  0.00    -0.456 OA
ENDROOT
BRANCH   1  12
ATOM     12  C   UNL     1       4.556  29.084  52.925  1.00  0.00     0.017 A 
ATOM     13  C   UNL     1       6.125  29.551  50.624  1.00  0.00     0.000 A 
ATOM     14  C   UNL     1       6.067  30.508  51.636  1.00  0.00     0.001 A 
ATOM     15  C   UNL     1       5.407  28.363  50.750  1.00  0.00     0.001 A 
ATOM     16  C   UNL     1       5.291  30.279  52.776  1.00  0.00     0.012 A 
ATOM     17  C   UNL     1       4.628  28.125  51.887  1.00  0.00     0.012 A 
ENDBRANCH   1  12
TORSDOF 1
ENDMDL
MODEL 2
REMARK VINA RESULT:    -6.255      9.759     11.249
REMARK INTER + INTRA:          -6.841
REMARK INTER:                  -6.620
REMARK INTRA:                  -0.221
REMARK UNBOUND:                -0.220
REMARK SMILES O=c1cc(-c2ccccc2)oc2ccccc12
REMARK SMILES IDX 4 1 3 2 2 3 1 4 17 5 16 6 15 7 14 8 13 9 12 10 11 11 5 12
REMARK SMILES IDX 8 13 7 14 9 15 6 16 10 17
REMARK H PARENT
REMARK Flexibility Score: inf
ROOT
ATOM      1  C   UNL     1      -7.261  28.224  56.286  1.00  0.00     0.138 A 
ATOM      2  C   UNL     1      -8.334  29.139  56.312  1.00  0.00     0.100 A 
ATOM      3  C   UNL     1      -8.260  30.264  57.136  1.00  0.00     0.193 A 
ATOM      4  O   UNL     1      -9.220  31.082  57.160  1.00  0.00    -0.289 OA
ATOM      5  C   UNL     1      -7.119  30.467  57.925  1.00  0.00     0.065 A 
ATOM      6  C   UNL     1      -6.980  31.580  58.776  1.00  0.00     0.016 A 
ATOM      7  C   UNL     1      -5.819  31.735  59.541  1.00  0.00     0.001 A 
ATOM      8  C   UNL     1      -4.795  30.787  59.464  1.00  0.00     0.004 A 
ATOM      9  C   UNL     1      -4.925  29.680  58.622  1.00  0.00     0.048 A 
ATOM     10  C   UNL     1      -6.081  29.514  57.851  1.00  0.00     0.138 A 
ATOM     11  O   UNL     1      -6.195  28.457  57.053  1.00  0.00    -0.456 OA
ENDROOT
BRANCH   1  12
ATOM     12  C   UNL     1      -7.260  26.995  55.434  1.00  0.00     0.017 A 
ATOM     13  C   UNL     1      -7.287  24.624  53.901  1.00  0.00     0.000 A 
ATOM     14  C   UNL     1      -7.656  24.591  55.245  1.00  0.00     0.001 A 
ATOM     15  C   UNL     1      -6.905  25.830  53.315  1.00  0.00     0.001 A 
ATOM     16  C   UNL     1      -7.643  25.764  56.006  1.00  0.00     0.012 A 
ATOM     17  C   UNL     1      -6.889  27.008  54.069  1.00  0.00     0.012 A 
ENDBRANCH   1  12
TORSDOF 1
ENDMDL
MODEL 3
REMARK VINA RESULT:    -5.656      1.841      6.318
REMARK INTER + INTRA:          -6.207
REMARK INTER:                  -5.979
REMARK INTRA:                  -0.228
REMARK UNBOUND:                -0.220
REMARK SMILES O=c1cc(-c2ccccc2)oc2ccccc12
REMARK SMILES IDX 4 1 3 2 2 3 1 4 17 5 16 6 15 7 14 8 13 9 12 10 11 11 5 12
REMARK SMILES IDX 8 13 7 14 9 15 6 16 10 17
REMARK H PARENT
REMARK Flexibility Score: inf
ROOT
ATOM      1  C   UNL     1       3.838  29.111  53.485  1.00  0.00     0.138 A 
ATOM      2  C   UNL     1       3.779  30.432  52.995  1.00  0.00     0.100 A 
ATOM      3  C   UNL     1       4.169  30.697  51.681  1.00  0.00     0.193 A 
ATOM      4  O   UNL     1       4.117  31.878  51.242  1.00  0.00    -0.289 OA
ATOM      5  C   UNL     1       4.615  29.645  50.868  1.00  0.00     0.065 A 
ATOM      6  C   UNL     1       5.022  29.843  49.535  1.00  0.00     0.016 A 
ATOM      7  C   UNL     1       5.457  28.758  48.768  1.00  0.00     0.001 A 
ATOM      8  C   UNL     1       5.489  27.474  49.320  1.00  0.00     0.004 A 
ATOM      9  C   UNL     1       5.086  27.268  50.642  1.00  0.00     0.048 A 
ATOM     10  C   UNL     1       4.649  28.347  51.420  1.00  0.00     0.138 A 
ATOM     11  O   UNL     1       4.268  28.141  52.677  1.00  0.00    -0.456 OA
ENDROOT
BRANCH   1  12
ATOM     12  C   UNL     1       3.439  28.741  54.878  1.00  0.00     0.017 A 
ATOM     13  C   UNL     1       2.594  28.061  57.486  1.00  0.00     0.000 A 
ATOM     14  C   UNL     1       1.663  28.480  56.536  1.00  0.00     0.001 A 
ATOM     15  C   UNL     1       3.944  27.979  57.145  1.00  0.00     0.001 A 
ATOM     16  C   UNL     1       2.079  28.817  55.245  1.00  0.00     0.012 A 
ATOM     17  C   UNL     1       4.369  28.314  55.856  1.00  0.00     0.012 A 
ENDBRANCH   1  12
TORSDOF 1
ENDMDL
MODEL 4
REMARK VINA RESULT:    -5.638     10.187     13.463
REMARK INTER + INTRA:          -6.188
REMARK INTER:                  -5.965
REMARK INTRA:                  -0.222
REMARK UNBOUND:                -0.220
REMARK SMILES O=c1cc(-c2ccccc2)oc2ccccc12
REMARK SMILES IDX 4 1 3 2 2 3 1 4 17 5 16 6 15 7 14 8 13 9 12 10 11 11 5 12
REMARK SMILES IDX 8 13 7 14 9 15 6 16 10 17
REMARK H PARENT
REMARK Flexibility Score: inf
ROOT
ATOM      1  C   UNL     1      -8.170  32.180  58.248  1.00  0.00     0.138 A 
ATOM      2  C   UNL     1      -8.120  33.371  57.495  1.00  0.00     0.100 A 
ATOM      3  C   UNL     1      -9.238  34.207  57.453  1.00  0.00     0.193 A 
ATOM      4  O   UNL     1      -9.194  35.272  56.779  1.00  0.00    -0.289 OA
ATOM      5  C   UNL     1     -10.393  33.849  58.162  1.00  0.00     0.065 A 
ATOM      6  C   UNL     1     -11.554  34.646  58.163  1.00  0.00     0.016 A 
ATOM      7  C   UNL     1     -12.679  34.242  58.888  1.00  0.00     0.001 A 
ATOM      8  C   UNL     1     -12.657  33.047  59.613  1.00  0.00     0.004 A 
ATOM      9  C   UNL     1     -11.509  32.250  59.618  1.00  0.00     0.048 A 
ATOM     10  C   UNL     1     -10.376  32.644  58.896  1.00  0.00     0.138 A 
ATOM     11  O   UNL     1      -9.290  31.879  58.907  1.00  0.00    -0.456 OA
ENDROOT
BRANCH   1  12
ATOM     12  C   UNL     1      -7.019  31.230  58.346  1.00  0.00     0.017 A 
ATOM     13  C   UNL     1      -4.802  29.498  58.592  1.00  0.00     0.000 A 
ATOM     14  C   UNL     1      -4.823  30.708  59.284  1.00  0.00     0.001 A 
ATOM     15  C   UNL     1      -5.878  29.144  57.779  1.00  0.00     0.001 A 
ATOM     16  C   UNL     1      -5.919  31.568  59.164  1.00  0.00     0.012 A 
ATOM     17  C   UNL     1      -6.979  29.998  57.652  1.00  0.00     0.012 A 
ENDBRANCH   1  12
TORSDOF 1
ENDMDL
MODEL 5
REMARK VINA RESULT:    -5.636     10.021     12.191
REMARK INTER + INTRA:          -6.186
REMARK INTER:                  -5.920
REMARK INTRA:                  -0.266
REMARK UNBOUND:                -0.220
REMARK SMILES O=c1cc(-c2ccccc2)oc2ccccc12
REMARK SMILES IDX 4 1 3 2 2 3 1 4 17 5 16 6 15 7 14 8 13 9 12 10 11 11 5 12
REMARK SMILES IDX 8 13 7 14 9 15 6 16 10 17
REMARK H PARENT
REMARK Flexibility Score: inf
ROOT
ATOM      1  C   UNL     1      -7.658  28.897  56.884  1.00  0.00     0.138 A 
ATOM      2  C   UNL     1      -8.863  29.349  56.311  1.00  0.00     0.100 A 
ATOM      3  C   UNL     1      -9.604  28.490  55.496  1.00  0.00     0.193 A 
ATOM      4  O   UNL     1     -10.682  28.895  54.982  1.00  0.00    -0.289 OA
ATOM      5  C   UNL     1      -9.137  27.189  55.262  1.00  0.00     0.065 A 
ATOM      6  C   UNL     1      -9.834  26.272  54.453  1.00  0.00     0.016 A 
ATOM      7  C   UNL     1      -9.324  24.986  54.253  1.00  0.00     0.001 A 
ATOM      8  C   UNL     1      -8.121  24.605  54.854  1.00  0.00     0.004 A 
ATOM      9  C   UNL     1      -7.422  25.509  55.660  1.00  0.00     0.048 A 
ATOM     10  C   UNL     1      -7.923  26.799  55.867  1.00  0.00     0.138 A 
ATOM     11  O   UNL     1      -7.251  27.651  56.635  1.00  0.00    -0.456 OA
ENDROOT
BRANCH   1  12
ATOM     12  C   UNL     1      -6.805  29.752  57.767  1.00  0.00     0.017 A 
ATOM     13  C   UNL     1      -5.263  31.434  59.430  1.00  0.00     0.000 A 
ATOM     14  C   UNL     1      -6.507  31.860  58.966  1.00  0.00     0.001 A 
ATOM     15  C   UNL     1      -4.781  30.176  59.071  1.00  0.00     0.001 A 
ATOM     16  C   UNL     1      -7.272  31.029  58.143  1.00  0.00     0.012 A 
ATOM     17  C   UNL     1      -5.540  29.338  58.247  1.00  0.00     0.012 A 
ENDBRANCH   1  12
TORSDOF 1
ENDMDL
MODEL 6
REMARK VINA RESULT:    -5.579      9.762     13.920
REMARK INTER + INTRA:          -6.125
REMARK INTER:                  -5.902
REMARK INTRA:                  -0.224
REMARK UNBOUND:                -0.220
REMARK SMILES O=c1cc(-c2ccccc2)oc2ccccc12
REMARK SMILES IDX 4 1 3 2 2 3 1 4 17 5 16 6 15 7 14 8 13 9 12 10 11 11 5 12
REMARK SMILES IDX 8 13 7 14 9 15 6 16 10 17
REMARK H PARENT
REMARK Flexibility Score: inf
ROOT
ATOM      1  C   UNL     1      -9.103  31.933  58.413  1.00  0.00     0.138 A 
ATOM      2  C   UNL     1      -9.124  30.933  57.418  1.00  0.00     0.100 A 
ATOM      3  C   UNL     1      -7.991  30.144  57.210  1.00  0.00     0.193 A 
ATOM      4  O   UNL     1      -8.010  29.251  56.320  1.00  0.00    -0.289 OA
ATOM      5  C   UNL     1      -6.849  30.357  57.995  1.00  0.00     0.065 A 
ATOM      6  C   UNL     1      -5.674  29.597  57.838  1.00  0.00     0.016 A 
ATOM      7  C   UNL     1      -4.563  29.851  58.648  1.00  0.00     0.001 A 
ATOM      8  C   UNL     1      -4.614  30.859  59.615  1.00  0.00     0.004 A 
ATOM      9  C   UNL     1      -5.775  31.618  59.778  1.00  0.00     0.048 A 
ATOM     10  C   UNL     1      -6.894  31.373  58.973  1.00  0.00     0.138 A 
ATOM     11  O   UNL     1      -7.994  32.101  59.136  1.00  0.00    -0.456 OA
ENDROOT
BRANCH   1  12
ATOM     12  C   UNL     1     -10.271  32.821  58.700  1.00  0.00     0.017 A 
ATOM     13  C   UNL     1     -12.524  34.422  59.280  1.00  0.00     0.000 A 
ATOM     14  C   UNL     1     -12.525  33.068  59.611  1.00  0.00     0.001 A 
ATOM     15  C   UNL     1     -11.408  34.985  58.661  1.00  0.00     0.001 A 
ATOM     16  C   UNL     1     -11.411  32.273  59.325  1.00  0.00     0.012 A 
ATOM     17  C   UNL     1     -10.289  34.197  58.371  1.00  0.00     0.012 A 
ENDBRANCH   1  12
TORSDOF 1
ENDMDL
MODEL 7
REMARK VINA RESULT:    -5.524     10.123     12.171
REMARK INTER + INTRA:          -6.068
REMARK INTER:                  -5.810
REMARK INTRA:                  -0.258
REMARK UNBOUND:                -0.220
REMARK SMILES O=c1cc(-c2ccccc2)oc2ccccc12
REMARK SMILES IDX 4 1 3 2 2 3 1 4 17 5 16 6 15 7 14 8 13 9 12 10 11 11 5 12
REMARK SMILES IDX 8 13 7 14 9 15 6 16 10 17
REMARK H PARENT
REMARK Flexibility Score: inf
ROOT
ATOM      1  C   UNL     1      -7.458  28.694  56.801  1.00  0.00     0.138 A 
ATOM      2  C   UNL     1      -6.773  27.716  56.051  1.00  0.00     0.100 A 
ATOM      3  C   UNL     1      -7.496  26.839  55.239  1.00  0.00     0.193 A 
ATOM      4  O   UNL     1      -6.884  25.964  54.569  1.00  0.00    -0.289 OA
ATOM      5  C   UNL     1      -8.893  26.945  55.182  1.00  0.00     0.065 A 
ATOM      6  C   UNL     1      -9.681  26.095  54.383  1.00  0.00     0.016 A 
ATOM      7  C   UNL     1     -11.071  26.245  54.363  1.00  0.00     0.001 A 
ATOM      8  C   UNL     1     -11.683  27.238  55.132  1.00  0.00     0.004 A 
ATOM      9  C   UNL     1     -10.908  28.087  55.927  1.00  0.00     0.048 A 
ATOM     10  C   UNL     1      -9.516  27.947  55.956  1.00  0.00     0.138 A 
ATOM     11  O   UNL     1      -8.788  28.759  56.715  1.00  0.00    -0.456 OA
ENDROOT
BRANCH   1  12
ATOM     12  C   UNL     1      -6.762  29.671  57.694  1.00  0.00     0.017 A 
ATOM     13  C   UNL     1      -5.521  31.576  59.368  1.00  0.00     0.000 A 
ATOM     14  C   UNL     1      -6.754  31.858  58.783  1.00  0.00     0.001 A 
ATOM     15  C   UNL     1      -4.901  30.351  59.126  1.00  0.00     0.001 A 
ATOM     16  C   UNL     1      -7.370  30.917  57.953  1.00  0.00     0.012 A 
ATOM     17  C   UNL     1      -5.510  29.402  58.297  1.00  0.00     0.012 A 
ENDBRANCH   1  12
TORSDOF 1
ENDMDL
MODEL 8
REMARK VINA RESULT:    -5.351     10.059     11.773
REMARK INTER + INTRA:          -5.884
REMARK INTER:                  -5.619
REMARK INTRA:                  -0.265
REMARK UNBOUND:                -0.220
REMARK SMILES O=c1cc(-c2ccccc2)oc2ccccc12
REMARK SMILES IDX 4 1 3 2 2 3 1 4 17 5 16 6 15 7 14 8 13 9 12 10 11 11 5 12
REMARK SMILES IDX 8 13 7 14 9 15 6 16 10 17
REMARK H PARENT
REMARK Flexibility Score: inf
ROOT
ATOM      1  C   UNL     1      -7.607  27.756  56.411  1.00  0.00     0.138 A 
ATOM      2  C   UNL     1      -6.338  27.716  57.025  1.00  0.00     0.100 A 
ATOM      3  C   UNL     1      -5.877  28.833  57.724  1.00  0.00     0.193 A 
ATOM      4  O   UNL     1      -4.742  28.798  58.273  1.00  0.00    -0.289 OA
ATOM      5  C   UNL     1      -6.682  29.977  57.806  1.00  0.00     0.065 A 
ATOM      6  C   UNL     1      -6.278  31.136  58.496  1.00  0.00     0.016 A 
ATOM      7  C   UNL     1      -7.122  32.250  58.547  1.00  0.00     0.001 A 
ATOM      8  C   UNL     1      -8.367  32.219  57.914  1.00  0.00     0.004 A 
ATOM      9  C   UNL     1      -8.777  31.073  57.227  1.00  0.00     0.048 A 
ATOM     10  C   UNL     1      -7.941  29.951  57.170  1.00  0.00     0.138 A 
ATOM     11  O   UNL     1      -8.340  28.866  56.514  1.00  0.00    -0.456 OA
ENDROOT
BRANCH   1  12
ATOM     12  C   UNL     1      -8.177  26.606  55.643  1.00  0.00     0.017 A 
ATOM     13  C   UNL     1      -9.177  24.380  54.223  1.00  0.00     0.000 A 
ATOM     14  C   UNL     1      -7.992  24.270  54.949  1.00  0.00     0.001 A 
ATOM     15  C   UNL     1      -9.867  25.591  54.199  1.00  0.00     0.001 A 
ATOM     16  C   UNL     1      -7.495  25.371  55.653  1.00  0.00     0.012 A 
ATOM     17  C   UNL     1      -9.377  26.697  54.900  1.00  0.00     0.012 A 
ENDBRANCH   1  12
TORSDOF 1
ENDMDL
MODEL 9
REMARK VINA RESULT:    -5.306     15.366     16.227
REMARK INTER + INTRA:          -5.837
REMARK INTER:                  -5.578
REMARK INTRA:                  -0.259
REMARK UNBOUND:                -0.220
REMARK SMILES O=c1cc(-c2ccccc2)oc2ccccc12
REMARK SMILES IDX 4 1 3 2 2 3 1 4 17 5 16 6 15 7 14 8 13 9 12 10 11 11 5 12
REMARK SMILES IDX 8 13 7 14 9 15 6 16 10 17
REMARK H PARENT
REMARK Flexibility Score: inf
ROOT
ATOM      1  C   UNL     1      -5.270  35.815  42.863  1.00  0.00     0.138 A 
ATOM      2  C   UNL     1      -6.142  34.893  43.478  1.00  0.00     0.100 A 
ATOM      3  C   UNL     1      -7.151  35.359  44.323  1.00  0.00     0.193 A 
ATOM      4  O   UNL     1      -7.931  34.535  44.875  1.00  0.00    -0.289 OA
ATOM      5  C   UNL     1      -7.283  36.737  44.547  1.00  0.00     0.065 A 
ATOM      6  C   UNL     1      -8.279  37.272  45.386  1.00  0.00     0.016 A 
ATOM      7  C   UNL     1      -8.366  38.655  45.573  1.00  0.00     0.001 A 
ATOM      8  C   UNL     1      -7.467  39.510  44.930  1.00  0.00     0.004 A 
ATOM      9  C   UNL     1      -6.476  38.987  44.095  1.00  0.00     0.048 A 
ATOM     10  C   UNL     1      -6.378  37.604  43.900  1.00  0.00     0.138 A 
ATOM     11  O   UNL     1      -5.432  37.117  43.104  1.00  0.00    -0.456 OA
ENDROOT
BRANCH   1  12
ATOM     12  C   UNL     1      -4.163  35.402  41.946  1.00  0.00     0.017 A 
ATOM     13  C   UNL     1      -2.078  34.709  40.172  1.00  0.00     0.000 A 
ATOM     14  C   UNL     1      -2.668  35.970  40.098  1.00  0.00     0.001 A 
ATOM     15  C   UNL     1      -2.520  33.790  41.124  1.00  0.00     0.001 A 
ATOM     16  C   UNL     1      -3.701  36.315  40.975  1.00  0.00     0.012 A 
ATOM     17  C   UNL     1      -3.552  34.127  42.005  1.00  0.00     0.012 A 
ENDBRANCH   1  12
TORSDOF 1
ENDMDL
