MODEL 1
REMARK VINA RESULT:    -7.925      0.000      0.000
REMARK INTER + INTRA:          -9.853
REMARK INTER:                  -9.546
REMARK INTRA:                  -0.306
REMARK UNBOUND:                -0.306
REMARK SMILES O=c1c(O)c(-c2ccc(O)c(O)c2)oc2cc(O)cc(O)c12
REMARK SMILES IDX 5 1 3 2 2 3 1 4 22 5 20 6 19 7 17 8 16 9 15 10 14 11 6 12
REMARK SMILES IDX 7 13 8 14 9 15 13 16 11 17 10 18 12 20 4 22 21 24 18 26
REMARK H PARENT 10 19 12 21 4 23 21 25 18 27
REMARK Flexibility Score: inf
ROOT
ATOM      1  C   UNL     1      39.574 -12.007   8.582  1.00  0.00     0.180 A 
ATOM      2  C   UNL     1      39.835 -10.811   9.274  1.00  0.00     0.208 A 
ATOM      3  C   UNL     1      40.841 -10.797  10.255  1.00  0.00     0.238 A 
ATOM      4  O   UNL     1      41.032  -9.739  10.907  1.00  0.00    -0.285 OA
ATOM      5  C   UNL     1      41.583 -11.973  10.518  1.00  0.00     0.111 A 
ATOM      6  C   UNL     1      42.651 -12.062  11.461  1.00  0.00     0.134 A 
ATOM      7  C   UNL     1      43.229 -13.308  11.734  1.00  0.00     0.093 A 
ATOM      8  C   UNL     1      42.821 -14.457  11.051  1.00  0.00     0.123 A 
ATOM      9  C   UNL     1      41.821 -14.369  10.087  1.00  0.00     0.094 A 
ATOM     10  C   UNL     1      41.201 -13.147   9.818  1.00  0.00     0.146 A 
ATOM     11  O   UNL     1      40.243 -13.109   8.899  1.00  0.00    -0.452 OA
ENDROOT
BRANCH   1  12
ATOM     12  C   UNL     1      38.548 -12.094   7.518  1.00  0.00     0.025 A 
ATOM     13  C   UNL     1      37.315 -12.704   7.796  1.00  0.00     0.016 A 
ATOM     14  C   UNL     1      36.339 -12.816   6.802  1.00  0.00     0.051 A 
ATOM     15  C   UNL     1      36.590 -12.332   5.511  1.00  0.00     0.157 A 
ATOM     16  C   UNL     1      38.802 -11.628   6.215  1.00  0.00     0.062 A 
ATOM     17  C   UNL     1      37.825 -11.742   5.216  1.00  0.00     0.158 A 
BRANCH  15  18
ATOM     18  O   UNL     1      35.619 -12.440   4.517  1.00  0.00    -0.504 OA
ATOM     19  H   UNL     1      35.532 -13.273   3.948  1.00  0.00     0.293 HD
ENDBRANCH  15  18
BRANCH  17  20
ATOM     20  O   UNL     1      38.075 -11.275   3.927  1.00  0.00    -0.504 OA
ATOM     21  H   UNL     1      38.348 -10.314   3.756  1.00  0.00     0.293 HD
ENDBRANCH  17  20
ENDBRANCH   1  12
BRANCH   2  22
ATOM     22  O   UNL     1      39.075  -9.668   9.013  1.00  0.00    -0.502 OA
ATOM     23  H   UNL     1      39.492  -8.752   8.897  1.00  0.00     0.293 HD
ENDBRANCH   2  22
BRANCH   6  24
ATOM     24  O   UNL     1      43.197 -10.961  12.129  1.00  0.00    -0.507 OA
ATOM     25  H   UNL     1      43.429 -10.942  13.110  1.00  0.00     0.293 HD
ENDBRANCH   6  24
BRANCH   8  26
ATOM     26  O   UNL     1      43.412 -15.689  11.318  1.00  0.00    -0.508 OA
ATOM     27  H   UNL     1      44.162 -15.783  11.994  1.00  0.00     0.293 HD
ENDBRANCH   8  26
TORSDOF 6
ENDMDL
MODEL 2
REMARK VINA RESULT:    -7.288      6.418     10.060
REMARK INTER + INTRA:          -9.086
REMARK INTER:                  -9.083
REMARK INTRA:                  -0.003
REMARK UNBOUND:                -0.306
REMARK SMILES O=c1c(O)c(-c2ccc(O)c(O)c2)oc2cc(O)cc(O)c12
REMARK SMILES IDX 5 1 3 2 2 3 1 4 22 5 20 6 19 7 17 8 16 9 15 10 14 11 6 12
REMARK SMILES IDX 7 13 8 14 9 15 13 16 11 17 10 18 12 20 4 22 21 24 18 26
REMARK H PARENT 10 19 12 21 4 23 21 25 18 27
REMARK Flexibility Score: inf
ROOT
ATOM      1  C   UNL     1      32.515 -13.997   2.026  1.00  0.00     0.180 A 
ATOM      2  C   UNL     1      33.211 -13.091   1.206  1.00  0.00     0.208 A 
ATOM      3  C   UNL     1      34.519 -12.720   1.557  1.00  0.00     0.238 A 
ATOM      4  O   UNL     1      35.115 -11.868   0.850  1.00  0.00    -0.285 OA
ATOM      5  C   UNL     1      35.121 -13.272   2.713  1.00  0.00     0.111 A 
ATOM      6  C   UNL     1      36.455 -12.999   3.141  1.00  0.00     0.134 A 
ATOM      7  C   UNL     1      36.902 -13.498   4.370  1.00  0.00     0.093 A 
ATOM      8  C   UNL     1      36.085 -14.316   5.156  1.00  0.00     0.123 A 
ATOM      9  C   UNL     1      34.803 -14.637   4.718  1.00  0.00     0.094 A 
ATOM     10  C   UNL     1      34.316 -14.124   3.514  1.00  0.00     0.146 A 
ATOM     11  O   UNL     1      33.083 -14.446   3.138  1.00  0.00    -0.452 OA
ENDROOT
BRANCH   1  12
ATOM     12  C   UNL     1      31.143 -14.454   1.708  1.00  0.00     0.025 A 
ATOM     13  C   UNL     1      30.172 -14.481   2.721  1.00  0.00     0.016 A 
ATOM     14  C   UNL     1      28.877 -14.928   2.449  1.00  0.00     0.051 A 
ATOM     15  C   UNL     1      28.539 -15.369   1.163  1.00  0.00     0.157 A 
ATOM     16  C   UNL     1      30.804 -14.917   0.423  1.00  0.00     0.062 A 
ATOM     17  C   UNL     1      29.506 -15.368   0.150  1.00  0.00     0.158 A 
BRANCH  15  18
ATOM     18  O   UNL     1      27.247 -15.814   0.886  1.00  0.00    -0.504 OA
ATOM     19  H   UNL     1      26.482 -15.655   1.531  1.00  0.00     0.293 HD
ENDBRANCH  15  18
BRANCH  17  20
ATOM     20  O   UNL     1      29.169 -15.820  -1.125  1.00  0.00    -0.504 OA
ATOM     21  H   UNL     1      28.870 -15.181  -1.852  1.00  0.00     0.293 HD
ENDBRANCH  17  20
ENDBRANCH   1  12
BRANCH   2  22
ATOM     22  O   UNL     1      32.589 -12.540   0.082  1.00  0.00    -0.502 OA
ATOM     23  H   UNL     1      31.590 -12.609  -0.076  1.00  0.00     0.293 HD
ENDBRANCH   2  22
BRANCH   6  24
ATOM     24  O   UNL     1      37.383 -12.272   2.389  1.00  0.00    -0.507 OA
ATOM     25  H   UNL     1      38.114 -12.681   1.829  1.00  0.00     0.293 HD
ENDBRANCH   6  24
BRANCH   8  26
ATOM     26  O   UNL     1      36.543 -14.821   6.370  1.00  0.00    -0.508 OA
ATOM     27  H   UNL     1      36.105 -15.623   6.810  1.00  0.00     0.293 HD
ENDBRANCH   8  26
TORSDOF 6
ENDMDL
MODEL 3
REMARK VINA RESULT:    -7.226      5.940     11.796
REMARK INTER + INTRA:          -9.010
REMARK INTER:                  -8.806
REMARK INTRA:                  -0.204
REMARK UNBOUND:                -0.306
REMARK SMILES O=c1c(O)c(-c2ccc(O)c(O)c2)oc2cc(O)cc(O)c12
REMARK SMILES IDX 5 1 3 2 2 3 1 4 22 5 20 6 19 7 17 8 16 9 15 10 14 11 6 12
REMARK SMILES IDX 7 13 8 14 9 15 13 16 11 17 10 18 12 20 4 22 21 24 18 26
REMARK H PARENT 10 19 12 21 4 23 21 25 18 27
REMARK Flexibility Score: inf
ROOT
ATOM      1  C   UNL     1      33.438 -14.379   2.691  1.00  0.00     0.180 A 
ATOM      2  C   UNL     1      33.723 -14.856   1.400  1.00  0.00     0.208 A 
ATOM      3  C   UNL     1      32.659 -15.226   0.560  1.00  0.00     0.238 A 
ATOM      4  O   UNL     1      32.923 -15.703  -0.573  1.00  0.00    -0.285 OA
ATOM      5  C   UNL     1      31.326 -15.098   1.016  1.00  0.00     0.111 A 
ATOM      6  C   UNL     1      30.170 -15.404   0.236  1.00  0.00     0.134 A 
ATOM      7  C   UNL     1      28.903 -15.364   0.832  1.00  0.00     0.093 A 
ATOM      8  C   UNL     1      28.746 -14.966   2.163  1.00  0.00     0.123 A 
ATOM      9  C   UNL     1      29.862 -14.608   2.914  1.00  0.00     0.094 A 
ATOM     10  C   UNL     1      31.142 -14.672   2.358  1.00  0.00     0.146 A 
ATOM     11  O   UNL     1      32.180 -14.333   3.112  1.00  0.00    -0.452 OA
ENDROOT
BRANCH   1  12
ATOM     12  C   UNL     1      34.504 -13.947   3.624  1.00  0.00     0.025 A 
ATOM     13  C   UNL     1      34.688 -14.640   4.831  1.00  0.00     0.016 A 
ATOM     14  C   UNL     1      35.674 -14.237   5.736  1.00  0.00     0.051 A 
ATOM     15  C   UNL     1      36.479 -13.126   5.453  1.00  0.00     0.157 A 
ATOM     16  C   UNL     1      35.301 -12.820   3.354  1.00  0.00     0.062 A 
ATOM     17  C   UNL     1      36.289 -12.413   4.263  1.00  0.00     0.158 A 
BRANCH  15  18
ATOM     18  O   UNL     1      37.464 -12.722   6.352  1.00  0.00    -0.504 OA
ATOM     19  H   UNL     1      37.246 -12.143   7.154  1.00  0.00     0.293 HD
ENDBRANCH  15  18
BRANCH  17  20
ATOM     20  O   UNL     1      37.082 -11.300   3.991  1.00  0.00    -0.504 OA
ATOM     21  H   UNL     1      36.813 -10.371   4.294  1.00  0.00     0.293 HD
ENDBRANCH  17  20
ENDBRANCH   1  12
BRANCH   2  22
ATOM     22  O   UNL     1      35.048 -14.996   0.979  1.00  0.00    -0.502 OA
ATOM     23  H   UNL     1      35.479 -15.901   0.831  1.00  0.00     0.293 HD
ENDBRANCH   2  22
BRANCH   6  24
ATOM     24  O   UNL     1      30.209 -15.722  -1.125  1.00  0.00    -0.507 OA
ATOM     25  H   UNL     1      31.015 -15.605  -1.719  1.00  0.00     0.293 HD
ENDBRANCH   6  24
BRANCH   8  26
ATOM     26  O   UNL     1      27.481 -14.914   2.744  1.00  0.00    -0.508 OA
ATOM     27  H   UNL     1      26.653 -15.211   2.240  1.00  0.00     0.293 HD
ENDBRANCH   8  26
TORSDOF 6
ENDMDL
MODEL 4
REMARK VINA RESULT:    -7.178      1.525      6.850
REMARK INTER + INTRA:          -8.953
REMARK INTER:                  -8.966
REMARK INTRA:                   0.012
REMARK UNBOUND:                -0.306
REMARK SMILES O=c1c(O)c(-c2ccc(O)c(O)c2)oc2cc(O)cc(O)c12
REMARK SMILES IDX 5 1 3 2 2 3 1 4 22 5 20 6 19 7 17 8 16 9 15 10 14 11 6 12
REMARK SMILES IDX 7 13 8 14 9 15 13 16 11 17 10 18 12 20 4 22 21 24 18 26
REMARK H PARENT 10 19 12 21 4 23 21 25 18 27
REMARK Flexibility Score: inf
ROOT
ATOM      1  C   UNL     1      40.756 -12.156   8.778  1.00  0.00     0.180 A 
ATOM      2  C   UNL     1      41.103 -11.167   7.841  1.00  0.00     0.208 A 
ATOM      3  C   UNL     1      40.239 -10.917   6.762  1.00  0.00     0.238 A 
ATOM      4  O   UNL     1      40.582 -10.070   5.898  1.00  0.00    -0.285 OA
ATOM      5  C   UNL     1      39.033 -11.647   6.643  1.00  0.00     0.111 A 
ATOM      6  C   UNL     1      38.064 -11.449   5.614  1.00  0.00     0.134 A 
ATOM      7  C   UNL     1      36.969 -12.317   5.519  1.00  0.00     0.093 A 
ATOM      8  C   UNL     1      36.774 -13.335   6.456  1.00  0.00     0.123 A 
ATOM      9  C   UNL     1      37.681 -13.498   7.499  1.00  0.00     0.094 A 
ATOM     10  C   UNL     1      38.803 -12.671   7.599  1.00  0.00     0.146 A 
ATOM     11  O   UNL     1      39.650 -12.868   8.603  1.00  0.00    -0.452 OA
ENDROOT
BRANCH   1  12
ATOM     12  C   UNL     1      41.603 -12.458   9.955  1.00  0.00     0.025 A 
ATOM     13  C   UNL     1      42.041 -11.410  10.778  1.00  0.00     0.016 A 
ATOM     14  C   UNL     1      42.858 -11.671  11.882  1.00  0.00     0.051 A 
ATOM     15  C   UNL     1      43.260 -12.982  12.168  1.00  0.00     0.157 A 
ATOM     16  C   UNL     1      42.026 -13.771  10.234  1.00  0.00     0.062 A 
ATOM     17  C   UNL     1      42.847 -14.033  11.340  1.00  0.00     0.158 A 
BRANCH  15  18
ATOM     18  O   UNL     1      44.073 -13.246  13.269  1.00  0.00    -0.504 OA
ATOM     19  H   UNL     1      44.998 -12.843  13.354  1.00  0.00     0.293 HD
ENDBRANCH  15  18
BRANCH  17  20
ATOM     20  O   UNL     1      43.260 -15.334  11.619  1.00  0.00    -0.504 OA
ATOM     21  H   UNL     1      43.145 -15.740  12.540  1.00  0.00     0.293 HD
ENDBRANCH  17  20
ENDBRANCH   1  12
BRANCH   2  22
ATOM     22  O   UNL     1      42.310 -10.474   7.965  1.00  0.00    -0.502 OA
ATOM     23  H   UNL     1      43.053 -10.547   7.279  1.00  0.00     0.293 HD
ENDBRANCH   2  22
BRANCH   6  24
ATOM     24  O   UNL     1      38.115 -10.406   4.684  1.00  0.00    -0.507 OA
ATOM     25  H   UNL     1      37.559 -10.358   3.844  1.00  0.00     0.293 HD
ENDBRANCH   6  24
BRANCH   8  26
ATOM     26  O   UNL     1      35.673 -14.184   6.364  1.00  0.00    -0.508 OA
ATOM     27  H   UNL     1      35.769 -15.145   6.054  1.00  0.00     0.293 HD
ENDBRANCH   8  26
TORSDOF 6
ENDMDL
MODEL 5
REMARK VINA RESULT:    -7.130      1.903      7.275
REMARK INTER + INTRA:          -8.896
REMARK INTER:                  -8.617
REMARK INTRA:                  -0.279
REMARK UNBOUND:                -0.306
REMARK SMILES O=c1c(O)c(-c2ccc(O)c(O)c2)oc2cc(O)cc(O)c12
REMARK SMILES IDX 5 1 3 2 2 3 1 4 22 5 20 6 19 7 17 8 16 9 15 10 14 11 6 12
REMARK SMILES IDX 7 13 8 14 9 15 13 16 11 17 10 18 12 20 4 22 21 24 18 26
REMARK H PARENT 10 19 12 21 4 23 21 25 18 27
REMARK Flexibility Score: inf
ROOT
ATOM      1  C   UNL     1      39.122 -11.439   8.037  1.00  0.00     0.180 A 
ATOM      2  C   UNL     1      37.949 -12.140   8.366  1.00  0.00     0.208 A 
ATOM      3  C   UNL     1      36.984 -12.360   7.370  1.00  0.00     0.238 A 
ATOM      4  O   UNL     1      35.913 -12.940   7.685  1.00  0.00    -0.285 OA
ATOM      5  C   UNL     1      37.211 -11.891   6.054  1.00  0.00     0.111 A 
ATOM      6  C   UNL     1      36.320 -12.093   4.957  1.00  0.00     0.134 A 
ATOM      7  C   UNL     1      36.584 -11.473   3.730  1.00  0.00     0.093 A 
ATOM      8  C   UNL     1      37.741 -10.711   3.541  1.00  0.00     0.123 A 
ATOM      9  C   UNL     1      38.646 -10.559   4.588  1.00  0.00     0.094 A 
ATOM     10  C   UNL     1      38.392 -11.135   5.835  1.00  0.00     0.146 A 
ATOM     11  O   UNL     1      39.276 -10.955   6.810  1.00  0.00    -0.452 OA
ENDROOT
BRANCH   1  12
ATOM     12  C   UNL     1      40.196 -11.190   9.025  1.00  0.00     0.025 A 
ATOM     13  C   UNL     1      41.336 -12.008   9.028  1.00  0.00     0.016 A 
ATOM     14  C   UNL     1      42.352 -11.803   9.966  1.00  0.00     0.051 A 
ATOM     15  C   UNL     1      42.234 -10.788  10.923  1.00  0.00     0.157 A 
ATOM     16  C   UNL     1      40.073 -10.184  10.002  1.00  0.00     0.062 A 
ATOM     17  C   UNL     1      41.090  -9.980  10.945  1.00  0.00     0.158 A 
BRANCH  15  18
ATOM     18  O   UNL     1      43.246 -10.580  11.859  1.00  0.00    -0.504 OA
ATOM     19  H   UNL     1      44.199 -10.384  11.576  1.00  0.00     0.293 HD
ENDBRANCH  15  18
BRANCH  17  20
ATOM     20  O   UNL     1      40.970  -8.980  11.908  1.00  0.00    -0.504 OA
ATOM     21  H   UNL     1      40.666  -8.045  11.665  1.00  0.00     0.293 HD
ENDBRANCH  17  20
ENDBRANCH   1  12
BRANCH   2  22
ATOM     22  O   UNL     1      37.735 -12.574   9.677  1.00  0.00    -0.502 OA
ATOM     23  H   UNL     1      36.872 -13.017   9.970  1.00  0.00     0.293 HD
ENDBRANCH   2  22
BRANCH   6  24
ATOM     24  O   UNL     1      35.187 -12.910   5.012  1.00  0.00    -0.507 OA
ATOM     25  H   UNL     1      34.449 -12.822   5.693  1.00  0.00     0.293 HD
ENDBRANCH   6  24
BRANCH   8  26
ATOM     26  O   UNL     1      38.004 -10.111   2.312  1.00  0.00    -0.508 OA
ATOM     27  H   UNL     1      38.725  -9.405   2.210  1.00  0.00     0.293 HD
ENDBRANCH   8  26
TORSDOF 6
ENDMDL
MODEL 6
REMARK VINA RESULT:    -7.095      1.539      7.071
REMARK INTER + INTRA:          -8.853
REMARK INTER:                  -8.611
REMARK INTRA:                  -0.242
REMARK UNBOUND:                -0.306
REMARK SMILES O=c1c(O)c(-c2ccc(O)c(O)c2)oc2cc(O)cc(O)c12
REMARK SMILES IDX 5 1 3 2 2 3 1 4 22 5 20 6 19 7 17 8 16 9 15 10 14 11 6 12
REMARK SMILES IDX 7 13 8 14 9 15 13 16 11 17 10 18 12 20 4 22 21 24 18 26
REMARK H PARENT 10 19 12 21 4 23 21 25 18 27
REMARK Flexibility Score: inf
ROOT
ATOM      1  C   UNL     1      40.061 -12.038   8.743  1.00  0.00     0.180 A 
ATOM      2  C   UNL     1      38.737 -12.477   8.912  1.00  0.00     0.208 A 
ATOM      3  C   UNL     1      37.817 -12.286   7.867  1.00  0.00     0.238 A 
ATOM      4  O   UNL     1      36.621 -12.632   8.045  1.00  0.00    -0.285 OA
ATOM      5  C   UNL     1      38.239 -11.676   6.662  1.00  0.00     0.111 A 
ATOM      6  C   UNL     1      37.403 -11.470   5.522  1.00  0.00     0.134 A 
ATOM      7  C   UNL     1      37.889 -10.738   4.432  1.00  0.00     0.093 A 
ATOM      8  C   UNL     1      39.203 -10.262   4.413  1.00  0.00     0.123 A 
ATOM      9  C   UNL     1      40.044 -10.510   5.494  1.00  0.00     0.094 A 
ATOM     10  C   UNL     1      39.577 -11.205   6.611  1.00  0.00     0.146 A 
ATOM     11  O   UNL     1      40.409 -11.410   7.626  1.00  0.00    -0.452 OA
ENDROOT
BRANCH   1  12
ATOM     12  C   UNL     1      41.093 -12.226   9.789  1.00  0.00     0.025 A 
ATOM     13  C   UNL     1      41.620 -11.104  10.447  1.00  0.00     0.016 A 
ATOM     14  C   UNL     1      42.610 -11.256  11.423  1.00  0.00     0.051 A 
ATOM     15  C   UNL     1      43.096 -12.531  11.742  1.00  0.00     0.157 A 
ATOM     16  C   UNL     1      41.599 -13.502  10.098  1.00  0.00     0.062 A 
ATOM     17  C   UNL     1      42.593 -13.655  11.074  1.00  0.00     0.158 A 
BRANCH  15  18
ATOM     18  O   UNL     1      44.081 -12.687  12.715  1.00  0.00    -0.504 OA
ATOM     19  H   UNL     1      44.827 -12.011  12.829  1.00  0.00     0.293 HD
ENDBRANCH  15  18
BRANCH  17  20
ATOM     20  O   UNL     1      43.089 -14.920  11.385  1.00  0.00    -0.504 OA
ATOM     21  H   UNL     1      42.471 -15.687  11.622  1.00  0.00     0.293 HD
ENDBRANCH  17  20
ENDBRANCH   1  12
BRANCH   2  22
ATOM     22  O   UNL     1      38.337 -13.057  10.119  1.00  0.00    -0.502 OA
ATOM     23  H   UNL     1      39.000 -13.417  10.795  1.00  0.00     0.293 HD
ENDBRANCH   2  22
BRANCH   6  24
ATOM     24  O   UNL     1      36.108 -11.983   5.401  1.00  0.00    -0.507 OA
ATOM     25  H   UNL     1      35.447 -11.711   4.691  1.00  0.00     0.293 HD
ENDBRANCH   6  24
BRANCH   8  26
ATOM     26  O   UNL     1      39.684  -9.549   3.317  1.00  0.00    -0.508 OA
ATOM     27  H   UNL     1      40.640  -9.651   2.995  1.00  0.00     0.293 HD
ENDBRANCH   8  26
TORSDOF 6
ENDMDL
MODEL 7
REMARK VINA RESULT:    -7.067      7.171     10.501
REMARK INTER + INTRA:          -8.819
REMARK INTER:                  -8.531
REMARK INTRA:                  -0.288
REMARK UNBOUND:                -0.306
REMARK SMILES O=c1c(O)c(-c2ccc(O)c(O)c2)oc2cc(O)cc(O)c12
REMARK SMILES IDX 5 1 3 2 2 3 1 4 22 5 20 6 19 7 17 8 16 9 15 10 14 11 6 12
REMARK SMILES IDX 7 13 8 14 9 15 13 16 11 17 10 18 12 20 4 22 21 24 18 26
REMARK H PARENT 10 19 12 21 4 23 21 25 18 27
REMARK Flexibility Score: inf
ROOT
ATOM      1  C   UNL     1      32.899 -14.346   1.781  1.00  0.00     0.180 A 
ATOM      2  C   UNL     1      33.649 -15.202   2.607  1.00  0.00     0.208 A 
ATOM      3  C   UNL     1      34.883 -14.757   3.108  1.00  0.00     0.238 A 
ATOM      4  O   UNL     1      35.574 -15.547   3.801  1.00  0.00    -0.285 OA
ATOM      5  C   UNL     1      35.344 -13.457   2.791  1.00  0.00     0.111 A 
ATOM      6  C   UNL     1      36.560 -12.887   3.276  1.00  0.00     0.134 A 
ATOM      7  C   UNL     1      36.980 -11.642   2.793  1.00  0.00     0.093 A 
ATOM      8  C   UNL     1      36.196 -10.916   1.892  1.00  0.00     0.123 A 
ATOM      9  C   UNL     1      34.980 -11.437   1.460  1.00  0.00     0.094 A 
ATOM     10  C   UNL     1      34.551 -12.693   1.895  1.00  0.00     0.146 A 
ATOM     11  O   UNL     1      33.389 -13.157   1.449  1.00  0.00    -0.452 OA
ENDROOT
BRANCH   1  12
ATOM     12  C   UNL     1      31.579 -14.734   1.235  1.00  0.00     0.025 A 
ATOM     13  C   UNL     1      31.463 -15.064  -0.124  1.00  0.00     0.016 A 
ATOM     14  C   UNL     1      30.222 -15.413  -0.665  1.00  0.00     0.051 A 
ATOM     15  C   UNL     1      29.078 -15.422   0.143  1.00  0.00     0.157 A 
ATOM     16  C   UNL     1      30.423 -14.725   2.038  1.00  0.00     0.062 A 
ATOM     17  C   UNL     1      29.178 -15.073   1.496  1.00  0.00     0.158 A 
BRANCH  15  18
ATOM     18  O   UNL     1      27.840 -15.772  -0.392  1.00  0.00    -0.504 OA
ATOM     19  H   UNL     1      26.975 -15.407  -0.011  1.00  0.00     0.293 HD
ENDBRANCH  15  18
BRANCH  17  20
ATOM     20  O   UNL     1      28.035 -15.070   2.293  1.00  0.00    -0.504 OA
ATOM     21  H   UNL     1      27.270 -14.429   2.120  1.00  0.00     0.293 HD
ENDBRANCH  17  20
ENDBRANCH   1  12
BRANCH   2  22
ATOM     22  O   UNL     1      33.185 -16.490   2.888  1.00  0.00    -0.502 OA
ATOM     23  H   UNL     1      32.225 -16.769   2.727  1.00  0.00     0.293 HD
ENDBRANCH   2  22
BRANCH   6  24
ATOM     24  O   UNL     1      37.370 -13.486   4.246  1.00  0.00    -0.507 OA
ATOM     25  H   UNL     1      37.192 -13.460   5.238  1.00  0.00     0.293 HD
ENDBRANCH   6  24
BRANCH   8  26
ATOM     26  O   UNL     1      36.614  -9.671   1.429  1.00  0.00    -0.508 OA
ATOM     27  H   UNL     1      36.470  -8.827   1.972  1.00  0.00     0.293 HD
ENDBRANCH   8  26
TORSDOF 6
ENDMDL
MODEL 8
REMARK VINA RESULT:    -6.994      1.921      7.054
REMARK INTER + INTRA:          -8.731
REMARK INTER:                  -8.412
REMARK INTRA:                  -0.319
REMARK UNBOUND:                -0.306
REMARK SMILES O=c1c(O)c(-c2ccc(O)c(O)c2)oc2cc(O)cc(O)c12
REMARK SMILES IDX 5 1 3 2 2 3 1 4 22 5 20 6 19 7 17 8 16 9 15 10 14 11 6 12
REMARK SMILES IDX 7 13 8 14 9 15 13 16 11 17 10 18 12 20 4 22 21 24 18 26
REMARK H PARENT 10 19 12 21 4 23 21 25 18 27
REMARK Flexibility Score: inf
ROOT
ATOM      1  C   UNL     1      39.633 -11.268   7.490  1.00  0.00     0.180 A 
ATOM      2  C   UNL     1      39.871 -10.612   6.269  1.00  0.00     0.208 A 
ATOM      3  C   UNL     1      38.945 -10.761   5.224  1.00  0.00     0.238 A 
ATOM      4  O   UNL     1      39.191 -10.217   4.117  1.00  0.00    -0.285 OA
ATOM      5  C   UNL     1      37.785 -11.549   5.418  1.00  0.00     0.111 A 
ATOM      6  C   UNL     1      36.760 -11.737   4.442  1.00  0.00     0.134 A 
ATOM      7  C   UNL     1      35.723 -12.643   4.695  1.00  0.00     0.093 A 
ATOM      8  C   UNL     1      35.638 -13.318   5.916  1.00  0.00     0.123 A 
ATOM      9  C   UNL     1      36.600 -13.096   6.896  1.00  0.00     0.094 A 
ATOM     10  C   UNL     1      37.667 -12.227   6.660  1.00  0.00     0.146 A 
ATOM     11  O   UNL     1      38.570 -12.053   7.618  1.00  0.00    -0.452 OA
ENDROOT
BRANCH   1  12
ATOM     12  C   UNL     1      40.550 -11.139   8.646  1.00  0.00     0.025 A 
ATOM     13  C   UNL     1      41.641 -12.013   8.762  1.00  0.00     0.016 A 
ATOM     14  C   UNL     1      42.508 -11.923   9.855  1.00  0.00     0.051 A 
ATOM     15  C   UNL     1      42.284 -10.967  10.855  1.00  0.00     0.157 A 
ATOM     16  C   UNL     1      40.318 -10.195   9.663  1.00  0.00     0.062 A 
ATOM     17  C   UNL     1      41.185 -10.105  10.761  1.00  0.00     0.158 A 
BRANCH  15  18
ATOM     18  O   UNL     1      43.147 -10.873  11.945  1.00  0.00    -0.504 OA
ATOM     19  H   UNL     1      42.931 -10.288  12.744  1.00  0.00     0.293 HD
ENDBRANCH  15  18
BRANCH  17  20
ATOM     20  O   UNL     1      40.958  -9.165  11.764  1.00  0.00    -0.504 OA
ATOM     21  H   UNL     1      40.425  -8.322  11.589  1.00  0.00     0.293 HD
ENDBRANCH  17  20
ENDBRANCH   1  12
BRANCH   2  22
ATOM     22  O   UNL     1      41.033  -9.857   6.092  1.00  0.00    -0.502 OA
ATOM     23  H   UNL     1      41.935 -10.156   6.447  1.00  0.00     0.293 HD
ENDBRANCH   2  22
BRANCH   6  24
ATOM     24  O   UNL     1      36.700 -11.042   3.230  1.00  0.00    -0.507 OA
ATOM     25  H   UNL     1      37.427 -10.438   2.878  1.00  0.00     0.293 HD
ENDBRANCH   6  24
BRANCH   8  26
ATOM     26  O   UNL     1      34.594 -14.206   6.165  1.00  0.00    -0.508 OA
ATOM     27  H   UNL     1      34.640 -14.881   6.920  1.00  0.00     0.293 HD
ENDBRANCH   8  26
TORSDOF 6
ENDMDL
