MODEL 1
REMARK VINA RESULT:    -2.153      0.000      0.000
REMARK INTER + INTRA:          -2.153
REMARK INTER:                  -2.153
REMARK INTRA:                   0.000
REMARK UNBOUND:                 0.000
REMARK SMILES CC(=O)[O-]
REMARK SMILES IDX 1 1 2 2 3 3 4 4
REMARK H PARENT
REMARK Flexibility Score: inf
ROOT
ATOM      1  C   UNL     1      10.497   5.740  -7.176  1.00  0.00     0.063 C 
ATOM      2  C   UNL     1      11.148   4.647  -6.397  1.00  0.00     0.038 C 
ATOM      3  O   UNL     1      10.538   4.105  -5.438  1.00  0.00    -0.550 OA
ATOM      4  O   UNL     1      12.450   4.263  -6.691  1.00  0.00    -0.550 OA
ENDROOT
TORSDOF 0
ENDMDL
MODEL 2
REMARK VINA RESULT:    -2.151      0.605      1.679
REMARK INTER + INTRA:          -2.151
REMARK INTER:                  -2.151
REMARK INTRA:                   0.000
REMARK UNBOUND:                 0.000
REMARK SMILES CC(=O)[O-]
REMARK SMILES IDX 1 1 2 2 3 3 4 4
REMARK H PARENT
REMARK Flexibility Score: inf
ROOT
ATOM      1  C   UNL     1      10.235   5.958  -7.234  1.00  0.00     0.063 C 
ATOM      2  C   UNL     1      10.857   4.685  -6.766  1.00  0.00     0.038 C 
ATOM      3  O   UNL     1      11.758   4.134  -7.451  1.00  0.00    -0.550 OA
ATOM      4  O   UNL     1      10.406   4.076  -5.603  1.00  0.00    -0.550 OA
ENDROOT
TORSDOF 0
ENDMDL
MODEL 3
REMARK VINA RESULT:    -2.111     16.049     16.424
REMARK INTER + INTRA:          -2.111
REMARK INTER:                  -2.111
REMARK INTRA:                   0.000
REMARK UNBOUND:                 0.000
REMARK SMILES CC(=O)[O-]
REMARK SMILES IDX 1 1 2 2 3 3 4 4
REMARK H PARENT
REMARK Flexibility Score: inf
ROOT
ATOM      1  C   UNL     1      24.476  10.252   1.125  1.00  0.00     0.063 C 
ATOM      2  C   UNL     1      24.051   9.596   2.395  1.00  0.00     0.038 C 
ATOM      3  O   UNL     1      24.915   9.173   3.206  1.00  0.00    -0.550 OA
ATOM      4  O   UNL     1      22.702   9.402   2.661  1.00  0.00    -0.550 OA
ENDROOT
TORSDOF 0
ENDMDL
MODEL 4
REMARK VINA RESULT:    -2.108     16.165     16.327
REMARK INTER + INTRA:          -2.108
REMARK INTER:                  -2.108
REMARK INTRA:                   0.000
REMARK UNBOUND:                 0.000
REMARK SMILES CC(=O)[O-]
REMARK SMILES IDX 1 1 2 2 3 3 4 4
REMARK H PARENT
REMARK Flexibility Score: inf
ROOT
ATOM      1  C   UNL     1      24.484   9.500   2.354  1.00  0.00     0.063 C 
ATOM      2  C   UNL     1      24.343  10.363   1.146  1.00  0.00     0.038 C 
ATOM      3  O   UNL     1      23.539  11.332   1.153  1.00  0.00    -0.550 OA
ATOM      4  O   UNL     1      25.056  10.068  -0.008  1.00  0.00    -0.550 OA
ENDROOT
TORSDOF 0
ENDMDL
MODEL 5
REMARK VINA RESULT:    -2.092     16.086     16.206
REMARK INTER + INTRA:          -2.092
REMARK INTER:                  -2.092
REMARK INTRA:                   0.000
REMARK UNBOUND:                 0.000
REMARK SMILES CC(=O)[O-]
REMARK SMILES IDX 1 1 2 2 3 3 4 4
REMARK H PARENT
REMARK Flexibility Score: inf
ROOT
ATOM      1  C   UNL     1      23.343  11.319   1.412  1.00  0.00     0.063 C 
ATOM      2  C   UNL     1      24.319  10.211   1.201  1.00  0.00     0.038 C 
ATOM      3  O   UNL     1      24.566   9.402   2.133  1.00  0.00    -0.550 OA
ATOM      4  O   UNL     1      24.999  10.102  -0.004  1.00  0.00    -0.550 OA
ENDROOT
TORSDOF 0
ENDMDL
MODEL 6
REMARK VINA RESULT:    -2.050     16.093     16.479
REMARK INTER + INTRA:          -2.050
REMARK INTER:                  -2.050
REMARK INTRA:                   0.000
REMARK UNBOUND:                 0.000
REMARK SMILES CC(=O)[O-]
REMARK SMILES IDX 1 1 2 2 3 3 4 4
REMARK H PARENT
REMARK Flexibility Score: inf
ROOT
ATOM      1  C   UNL     1      22.642   9.508   2.895  1.00  0.00     0.063 C 
ATOM      2  C   UNL     1      24.092   9.493   2.544  1.00  0.00     0.038 C 
ATOM      3  O   UNL     1      24.945   9.141   3.401  1.00  0.00    -0.550 OA
ATOM      4  O   UNL     1      24.510   9.919   1.291  1.00  0.00    -0.550 OA
ENDROOT
TORSDOF 0
ENDMDL
MODEL 7
REMARK VINA RESULT:    -2.034      1.103      1.103
REMARK INTER + INTRA:          -2.034
REMARK INTER:                  -2.034
REMARK INTRA:                   0.000
REMARK UNBOUND:                 0.000
REMARK SMILES CC(=O)[O-]
REMARK SMILES IDX 1 1 2 2 3 3 4 4
REMARK H PARENT
REMARK Flexibility Score: inf
ROOT
ATOM      1  C   UNL     1      11.235   6.420  -6.382  1.00  0.00     0.063 C 
ATOM      2  C   UNL     1      11.373   4.941  -6.518  1.00  0.00     0.038 C 
ATOM      3  O   UNL     1      10.449   4.267  -7.045  1.00  0.00    -0.550 OA
ATOM      4  O   UNL     1      12.494   4.297  -6.013  1.00  0.00    -0.550 OA
ENDROOT
TORSDOF 0
ENDMDL
MODEL 8
REMARK VINA RESULT:    -2.033      6.581      6.992
REMARK INTER + INTRA:          -2.033
REMARK INTER:                  -2.033
REMARK INTRA:                   0.000
REMARK UNBOUND:                 0.000
REMARK SMILES CC(=O)[O-]
REMARK SMILES IDX 1 1 2 2 3 3 4 4
REMARK H PARENT
REMARK Flexibility Score: inf
ROOT
ATOM      1  C   UNL     1      11.851   9.976  -7.862  1.00  0.00     0.063 C 
ATOM      2  C   UNL     1      12.758  10.871  -8.637  1.00  0.00     0.038 C 
ATOM      3  O   UNL     1      12.836  10.760  -9.888  1.00  0.00    -0.550 OA
ATOM      4  O   UNL     1      13.559  11.792  -7.976  1.00  0.00    -0.550 OA
ENDROOT
TORSDOF 0
ENDMDL
MODEL 9
REMARK VINA RESULT:    -2.023      1.176      1.643
REMARK INTER + INTRA:          -2.023
REMARK INTER:                  -2.023
REMARK INTRA:                   0.000
REMARK UNBOUND:                 0.000
REMARK SMILES CC(=O)[O-]
REMARK SMILES IDX 1 1 2 2 3 3 4 4
REMARK H PARENT
REMARK Flexibility Score: inf
ROOT
ATOM      1  C   UNL     1      11.439   6.391  -6.197  1.00  0.00     0.063 C 
ATOM      2  C   UNL     1      11.492   4.914  -6.401  1.00  0.00     0.038 C 
ATOM      3  O   UNL     1      12.503   4.262  -6.028  1.00  0.00    -0.550 OA
ATOM      4  O   UNL     1      10.454   4.262  -7.052  1.00  0.00    -0.550 OA
ENDROOT
TORSDOF 0
ENDMDL
