MODEL 1
REMARK VINA RESULT:    -6.171      0.000      0.000
REMARK INTER + INTRA:         -11.580
REMARK INTER:                  -9.598
REMARK INTRA:                  -1.982
REMARK UNBOUND:                -1.982
REMARK SMILES COc1cc(CNC(=O)CCCCC=CC(C)C)ccc1O
REMARK SMILES IDX 11 1 12 2 13 3 14 4 15 5 16 6 17 7 18 8 10 9 8 10 9 11 7 12
REMARK SMILES IDX 6 14 5 15 4 16 19 17 3 18 20 19 21 20 2 21 1 22 22 23
REMARK H PARENT 7 13 22 24
REMARK Flexibility Score: inf
ROOT
ATOM      1  C   UNL     1      14.295  15.441  69.004  1.00  0.00     0.010 C 
ENDROOT
BRANCH   1   2
ATOM      2  C   UNL     1      14.347  14.185  69.887  1.00  0.00     0.005 C 
BRANCH   2   3
ATOM      3  C   UNL     1      13.251  13.185  69.496  1.00  0.00     0.027 C 
BRANCH   3   4
ATOM      4  C   UNL     1      12.136  13.188  70.510  1.00  0.00    -0.031 C 
ATOM      5  C   UNL     1      10.823  13.171  70.212  1.00  0.00    -0.028 C 
BRANCH   5   6
ATOM      6  C   UNL     1      10.256  13.251  68.811  1.00  0.00     0.005 C 
ATOM      7  C   UNL     1       9.711  11.883  68.389  1.00  0.00     0.012 C 
ATOM      8  C   UNL     1       9.154  14.311  68.755  1.00  0.00     0.012 C 
ENDBRANCH   5   6
ENDBRANCH   3   4
ENDBRANCH   2   3
ENDBRANCH   1   2
BRANCH   1   9
ATOM      9  C   UNL     1      13.288  15.310  67.852  1.00  0.00     0.100 C 
BRANCH   9  10
ATOM     10  C   UNL     1      12.168  16.303  67.975  1.00  0.00     0.220 C 
ATOM     11  O   UNL     1      11.293  16.365  67.069  1.00  0.00    -0.275 OA
ATOM     12  N   UNL     1      12.064  17.132  69.143  1.00  0.00    -0.352 N 
ATOM     13  H   UNL     1      12.846  17.122  69.837  1.00  0.00     0.163 HD
BRANCH  12  14
ATOM     14  C   UNL     1      10.799  17.732  69.561  1.00  0.00     0.151 C 
BRANCH  14  15
ATOM     15  C   UNL     1      10.454  17.258  70.945  1.00  0.00    -0.025 A 
ATOM     16  C   UNL     1       9.239  17.634  71.543  1.00  0.00     0.056 A 
ATOM     17  C   UNL     1      11.294  16.345  71.602  1.00  0.00     0.009 A 
ATOM     18  C   UNL     1       8.861  17.099  72.791  1.00  0.00     0.160 A 
ATOM     19  C   UNL     1      10.935  15.830  72.848  1.00  0.00     0.050 A 
ATOM     20  C   UNL     1       9.723  16.205  73.445  1.00  0.00     0.157 A 
BRANCH  18  21
ATOM     21  O   UNL     1       7.637  17.414  73.401  1.00  0.00    -0.493 OA
ATOM     22  C   UNL     1       7.461  18.447  74.367  1.00  0.00     0.278 C 
ENDBRANCH  18  21
BRANCH  20  23
ATOM     23  O   UNL     1       9.357  15.677  74.682  1.00  0.00    -0.504 OA
ATOM     24  H   UNL     1       9.009  14.730  74.774  1.00  0.00     0.293 HD
ENDBRANCH  20  23
ENDBRANCH  14  15
ENDBRANCH  12  14
ENDBRANCH   9  10
ENDBRANCH   1   9
TORSDOF 10
ENDMDL
MODEL 2
REMARK VINA RESULT:    -5.798      1.343      3.000
REMARK INTER + INTRA:         -11.001
REMARK INTER:                  -9.661
REMARK INTRA:                  -1.339
REMARK UNBOUND:                -1.982
REMARK SMILES COc1cc(CNC(=O)CCCCC=CC(C)C)ccc1O
REMARK SMILES IDX 11 1 12 2 13 3 14 4 15 5 16 6 17 7 18 8 10 9 8 10 9 11 7 12
REMARK SMILES IDX 6 14 5 15 4 16 19 17 3 18 20 19 21 20 2 21 1 22 22 23
REMARK H PARENT 7 13 22 24
REMARK Flexibility Score: inf
ROOT
ATOM      1  C   UNL     1       9.890  13.637  68.507  1.00  0.00     0.010 C 
ENDROOT
BRANCH   1   2
ATOM      2  C   UNL     1      10.964  12.537  68.528  1.00  0.00     0.005 C 
BRANCH   2   3
ATOM      3  C   UNL     1      12.364  13.132  68.720  1.00  0.00     0.027 C 
BRANCH   3   4
ATOM      4  C   UNL     1      12.664  13.336  70.184  1.00  0.00    -0.031 C 
ATOM      5  C   UNL     1      13.507  14.263  70.676  1.00  0.00    -0.028 C 
BRANCH   5   6
ATOM      6  C   UNL     1      14.366  15.182  69.833  1.00  0.00     0.005 C 
ATOM      7  C   UNL     1      14.186  16.632  70.292  1.00  0.00     0.012 C 
ATOM      8  C   UNL     1      15.834  14.761  69.937  1.00  0.00     0.012 C 
ENDBRANCH   5   6
ENDBRANCH   3   4
ENDBRANCH   2   3
ENDBRANCH   1   2
BRANCH   1   9
ATOM      9  C   UNL     1      10.396  14.942  67.877  1.00  0.00     0.100 C 
BRANCH   9  10
ATOM     10  C   UNL     1       9.738  16.146  68.488  1.00  0.00     0.220 C 
ATOM     11  O   UNL     1       8.503  16.115  68.742  1.00  0.00    -0.275 OA
ATOM     12  N   UNL     1      10.522  17.299  68.834  1.00  0.00    -0.352 N 
ATOM     13  H   UNL     1      11.523  17.333  68.535  1.00  0.00     0.163 HD
BRANCH  12  14
ATOM     14  C   UNL     1      10.084  18.264  69.840  1.00  0.00     0.151 C 
BRANCH  14  15
ATOM     15  C   UNL     1       9.977  17.580  71.174  1.00  0.00    -0.025 A 
ATOM     16  C   UNL     1       8.918  17.885  72.047  1.00  0.00     0.056 A 
ATOM     17  C   UNL     1      10.872  16.550  71.507  1.00  0.00     0.009 A 
ATOM     18  C   UNL     1       8.750  17.164  73.246  1.00  0.00     0.160 A 
ATOM     19  C   UNL     1      10.723  15.849  72.704  1.00  0.00     0.050 A 
ATOM     20  C   UNL     1       9.667  16.153  73.574  1.00  0.00     0.157 A 
BRANCH  18  21
ATOM     21  O   UNL     1       7.682  17.407  74.122  1.00  0.00    -0.493 OA
ATOM     22  C   UNL     1       6.381  16.844  73.980  1.00  0.00     0.278 C 
ENDBRANCH  18  21
BRANCH  20  23
ATOM     23  O   UNL     1       9.509  15.441  74.761  1.00  0.00    -0.504 OA
ATOM     24  H   UNL     1       9.858  15.796  75.644  1.00  0.00     0.293 HD
ENDBRANCH  20  23
ENDBRANCH  14  15
ENDBRANCH  12  14
ENDBRANCH   9  10
ENDBRANCH   1   9
TORSDOF 10
ENDMDL
MODEL 3
REMARK VINA RESULT:    -5.779      1.485      2.849
REMARK INTER + INTRA:         -10.970
REMARK INTER:                  -9.434
REMARK INTRA:                  -1.536
REMARK UNBOUND:                -1.982
REMARK SMILES COc1cc(CNC(=O)CCCCC=CC(C)C)ccc1O
REMARK SMILES IDX 11 1 12 2 13 3 14 4 15 5 16 6 17 7 18 8 10 9 8 10 9 11 7 12
REMARK SMILES IDX 6 14 5 15 4 16 19 17 3 18 20 19 21 20 2 21 1 22 22 23
REMARK H PARENT 7 13 22 24
REMARK Flexibility Score: inf
ROOT
ATOM      1  C   UNL     1      11.664  15.338  67.398  1.00  0.00     0.010 C 
ENDROOT
BRANCH   1   2
ATOM      2  C   UNL     1      11.101  14.060  68.040  1.00  0.00     0.005 C 
BRANCH   2   3
ATOM      3  C   UNL     1      12.202  13.263  68.749  1.00  0.00     0.027 C 
BRANCH   3   4
ATOM      4  C   UNL     1      12.165  13.505  70.238  1.00  0.00    -0.031 C 
ATOM      5  C   UNL     1      12.761  14.536  70.865  1.00  0.00    -0.028 C 
BRANCH   5   6
ATOM      6  C   UNL     1      13.648  15.561  70.190  1.00  0.00     0.005 C 
ATOM      7  C   UNL     1      13.505  16.917  70.888  1.00  0.00     0.012 C 
ATOM      8  C   UNL     1      15.104  15.089  70.222  1.00  0.00     0.012 C 
ENDBRANCH   5   6
ENDBRANCH   3   4
ENDBRANCH   2   3
ENDBRANCH   1   2
BRANCH   1   9
ATOM      9  C   UNL     1      10.603  16.436  67.240  1.00  0.00     0.100 C 
BRANCH   9  10
ATOM     10  C   UNL     1      10.703  17.468  68.327  1.00  0.00     0.220 C 
ATOM     11  O   UNL     1      11.218  18.591  68.069  1.00  0.00    -0.275 OA
ATOM     12  N   UNL     1      10.165  17.198  69.631  1.00  0.00    -0.352 N 
ATOM     13  H   UNL     1       9.823  16.233  69.842  1.00  0.00     0.163 HD
BRANCH  12  14
ATOM     14  C   UNL     1       9.783  18.267  70.551  1.00  0.00     0.151 C 
BRANCH  14  15
ATOM     15  C   UNL     1       9.389  17.670  71.873  1.00  0.00    -0.025 A 
ATOM     16  C   UNL     1       8.214  18.089  72.520  1.00  0.00     0.056 A 
ATOM     17  C   UNL     1      10.135  16.610  72.413  1.00  0.00     0.009 A 
ATOM     18  C   UNL     1       7.782  17.452  73.700  1.00  0.00     0.160 A 
ATOM     19  C   UNL     1       9.723  15.991  73.593  1.00  0.00     0.050 A 
ATOM     20  C   UNL     1       8.551  16.408  74.239  1.00  0.00     0.157 A 
BRANCH  18  21
ATOM     21  O   UNL     1       6.592  17.809  74.352  1.00  0.00    -0.493 OA
ATOM     22  C   UNL     1       5.865  19.008  74.099  1.00  0.00     0.278 C 
ENDBRANCH  18  21
BRANCH  20  23
ATOM     23  O   UNL     1       8.131  15.778  75.409  1.00  0.00    -0.504 OA
ATOM     24  H   UNL     1       7.440  16.197  76.020  1.00  0.00     0.293 HD
ENDBRANCH  20  23
ENDBRANCH  14  15
ENDBRANCH  12  14
ENDBRANCH   9  10
ENDBRANCH   1   9
TORSDOF 10
ENDMDL
MODEL 4
REMARK VINA RESULT:    -5.566      2.082      3.589
REMARK INTER + INTRA:         -10.639
REMARK INTER:                  -9.200
REMARK INTRA:                  -1.439
REMARK UNBOUND:                -1.982
REMARK SMILES COc1cc(CNC(=O)CCCCC=CC(C)C)ccc1O
REMARK SMILES IDX 11 1 12 2 13 3 14 4 15 5 16 6 17 7 18 8 10 9 8 10 9 11 7 12
REMARK SMILES IDX 6 14 5 15 4 16 19 17 3 18 20 19 21 20 2 21 1 22 22 23
REMARK H PARENT 7 13 22 24
REMARK Flexibility Score: inf
ROOT
ATOM      1  C   UNL     1      13.786  14.125  70.067  1.00  0.00     0.010 C 
ENDROOT
BRANCH   1   2
ATOM      2  C   UNL     1      13.945  15.061  68.859  1.00  0.00     0.005 C 
BRANCH   2   3
ATOM      3  C   UNL     1      12.912  14.744  67.771  1.00  0.00     0.027 C 
BRANCH   3   4
ATOM      4  C   UNL     1      12.692  15.938  66.876  1.00  0.00    -0.031 C 
ATOM      5  C   UNL     1      11.911  16.992  67.177  1.00  0.00    -0.028 C 
BRANCH   5   6
ATOM      6  C   UNL     1      11.048  17.101  68.416  1.00  0.00     0.005 C 
ATOM      7  C   UNL     1      10.749  18.572  68.717  1.00  0.00     0.012 C 
ATOM      8  C   UNL     1       9.749  16.316  68.214  1.00  0.00     0.012 C 
ENDBRANCH   5   6
ENDBRANCH   3   4
ENDBRANCH   2   3
ENDBRANCH   1   2
BRANCH   1   9
ATOM      9  C   UNL     1      12.391  13.488  70.140  1.00  0.00     0.100 C 
BRANCH   9  10
ATOM     10  C   UNL     1      11.604  14.003  71.311  1.00  0.00     0.220 C 
ATOM     11  O   UNL     1      11.090  13.183  72.120  1.00  0.00    -0.275 OA
ATOM     12  N   UNL     1      11.489  15.416  71.538  1.00  0.00    -0.352 N 
ATOM     13  H   UNL     1      11.851  16.072  70.809  1.00  0.00     0.163 HD
BRANCH  12  14
ATOM     14  C   UNL     1      11.191  15.970  72.857  1.00  0.00     0.151 C 
BRANCH  14  15
ATOM     15  C   UNL     1       9.836  16.621  72.831  1.00  0.00    -0.025 A 
ATOM     16  C   UNL     1       8.945  16.449  73.904  1.00  0.00     0.056 A 
ATOM     17  C   UNL     1       9.500  17.496  71.786  1.00  0.00     0.009 A 
ATOM     18  C   UNL     1       7.722  17.149  73.936  1.00  0.00     0.160 A 
ATOM     19  C   UNL     1       8.280  18.174  71.803  1.00  0.00     0.050 A 
ATOM     20  C   UNL     1       7.391  18.003  72.872  1.00  0.00     0.157 A 
BRANCH  18  21
ATOM     21  O   UNL     1       6.825  17.040  75.009  1.00  0.00    -0.493 OA
ATOM     22  C   UNL     1       6.991  16.152  76.111  1.00  0.00     0.278 C 
ENDBRANCH  18  21
BRANCH  20  23
ATOM     23  O   UNL     1       6.181  18.694  72.896  1.00  0.00    -0.504 OA
ATOM     24  H   UNL     1       6.127  19.661  73.194  1.00  0.00     0.293 HD
ENDBRANCH  20  23
ENDBRANCH  14  15
ENDBRANCH  12  14
ENDBRANCH   9  10
ENDBRANCH   1   9
TORSDOF 10
ENDMDL
MODEL 5
REMARK VINA RESULT:    -5.552      1.782      3.622
REMARK INTER + INTRA:         -10.617
REMARK INTER:                  -8.647
REMARK INTRA:                  -1.970
REMARK UNBOUND:                -1.982
REMARK SMILES COc1cc(CNC(=O)CCCCC=CC(C)C)ccc1O
REMARK SMILES IDX 11 1 12 2 13 3 14 4 15 5 16 6 17 7 18 8 10 9 8 10 9 11 7 12
REMARK SMILES IDX 6 14 5 15 4 16 19 17 3 18 20 19 21 20 2 21 1 22 22 23
REMARK H PARENT 7 13 22 24
REMARK Flexibility Score: inf
ROOT
ATOM      1  C   UNL     1      10.913  12.834  69.634  1.00  0.00     0.010 C 
ENDROOT
BRANCH   1   2
ATOM      2  C   UNL     1       9.952  13.433  68.594  1.00  0.00     0.005 C 
BRANCH   2   3
ATOM      3  C   UNL     1       9.298  14.718  69.118  1.00  0.00     0.027 C 
BRANCH   3   4
ATOM      4  C   UNL     1       9.032  15.682  67.989  1.00  0.00    -0.031 C 
ATOM      5  C   UNL     1       9.923  16.570  67.509  1.00  0.00    -0.028 C 
BRANCH   5   6
ATOM      6  C   UNL     1      11.299  16.812  68.092  1.00  0.00     0.005 C 
ATOM      7  C   UNL     1      12.363  16.139  67.220  1.00  0.00     0.012 C 
ATOM      8  C   UNL     1      11.561  18.317  68.197  1.00  0.00     0.012 C 
ENDBRANCH   5   6
ENDBRANCH   3   4
ENDBRANCH   2   3
ENDBRANCH   1   2
BRANCH   1   9
ATOM      9  C   UNL     1      12.337  13.395  69.512  1.00  0.00     0.100 C 
BRANCH   9  10
ATOM     10  C   UNL     1      12.677  14.305  70.657  1.00  0.00     0.220 C 
ATOM     11  O   UNL     1      13.818  14.843  70.703  1.00  0.00    -0.275 OA
ATOM     12  N   UNL     1      11.692  14.606  71.658  1.00  0.00    -0.352 N 
ATOM     13  H   UNL     1      10.787  14.082  71.643  1.00  0.00     0.163 HD
BRANCH  12  14
ATOM     14  C   UNL     1      11.763  15.809  72.482  1.00  0.00     0.151 C 
BRANCH  14  15
ATOM     15  C   UNL     1      10.430  16.505  72.466  1.00  0.00    -0.025 A 
ATOM     16  C   UNL     1       9.604  16.486  73.603  1.00  0.00     0.056 A 
ATOM     17  C   UNL     1      10.056  17.274  71.352  1.00  0.00     0.009 A 
ATOM     18  C   UNL     1       8.410  17.233  73.631  1.00  0.00     0.160 A 
ATOM     19  C   UNL     1       8.862  17.997  71.367  1.00  0.00     0.050 A 
ATOM     20  C   UNL     1       8.038  17.978  72.500  1.00  0.00     0.157 A 
BRANCH  18  21
ATOM     21  O   UNL     1       7.580  17.276  74.761  1.00  0.00    -0.493 OA
ATOM     22  C   UNL     1       7.173  16.131  75.505  1.00  0.00     0.278 C 
ENDBRANCH  18  21
BRANCH  20  23
ATOM     23  O   UNL     1       6.855  18.714  72.520  1.00  0.00    -0.504 OA
ATOM     24  H   UNL     1       6.093  18.477  73.145  1.00  0.00     0.293 HD
ENDBRANCH  20  23
ENDBRANCH  14  15
ENDBRANCH  12  14
ENDBRANCH   9  10
ENDBRANCH   1   9
TORSDOF 10
ENDMDL
MODEL 6
REMARK VINA RESULT:    -5.431      1.708      2.829
REMARK INTER + INTRA:         -10.428
REMARK INTER:                  -9.358
REMARK INTRA:                  -1.070
REMARK UNBOUND:                -1.982
REMARK SMILES COc1cc(CNC(=O)CCCCC=CC(C)C)ccc1O
REMARK SMILES IDX 11 1 12 2 13 3 14 4 15 5 16 6 17 7 18 8 10 9 8 10 9 11 7 12
REMARK SMILES IDX 6 14 5 15 4 16 19 17 3 18 20 19 21 20 2 21 1 22 22 23
REMARK H PARENT 7 13 22 24
REMARK Flexibility Score: inf
ROOT
ATOM      1  C   UNL     1      13.325  15.397  68.112  1.00  0.00     0.010 C 
ENDROOT
BRANCH   1   2
ATOM      2  C   UNL     1      12.071  16.284  68.058  1.00  0.00     0.005 C 
BRANCH   2   3
ATOM      3  C   UNL     1      10.870  15.514  67.493  1.00  0.00     0.027 C 
BRANCH   3   4
ATOM      4  C   UNL     1       9.965  15.042  68.604  1.00  0.00    -0.031 C 
ATOM      5  C   UNL     1       9.735  13.752  68.914  1.00  0.00    -0.028 C 
BRANCH   5   6
ATOM      6  C   UNL     1      10.266  12.569  68.133  1.00  0.00     0.005 C 
ATOM      7  C   UNL     1      11.753  12.366  68.437  1.00  0.00     0.012 C 
ATOM      8  C   UNL     1       9.467  11.312  68.485  1.00  0.00     0.012 C 
ENDBRANCH   5   6
ENDBRANCH   3   4
ENDBRANCH   2   3
ENDBRANCH   1   2
BRANCH   1   9
ATOM      9  C   UNL     1      13.983  15.390  69.499  1.00  0.00     0.100 C 
BRANCH   9  10
ATOM     10  C   UNL     1      12.990  15.089  70.584  1.00  0.00     0.220 C 
ATOM     11  O   UNL     1      12.866  13.904  70.999  1.00  0.00    -0.275 OA
ATOM     12  N   UNL     1      12.232  16.151  71.185  1.00  0.00    -0.352 N 
ATOM     13  H   UNL     1      12.291  17.107  70.766  1.00  0.00     0.163 HD
BRANCH  12  14
ATOM     14  C   UNL     1      11.648  16.032  72.518  1.00  0.00     0.151 C 
BRANCH  14  15
ATOM     15  C   UNL     1      10.268  16.628  72.514  1.00  0.00    -0.025 A 
ATOM     16  C   UNL     1       9.456  16.548  73.659  1.00  0.00     0.056 A 
ATOM     17  C   UNL     1       9.828  17.368  71.405  1.00  0.00     0.009 A 
ATOM     18  C   UNL     1       8.210  17.204  73.697  1.00  0.00     0.160 A 
ATOM     19  C   UNL     1       8.585  18.001  71.431  1.00  0.00     0.050 A 
ATOM     20  C   UNL     1       7.775  17.921  72.571  1.00  0.00     0.157 A 
BRANCH  18  21
ATOM     21  O   UNL     1       7.388  17.186  74.835  1.00  0.00    -0.493 OA
ATOM     22  C   UNL     1       7.192  16.046  75.667  1.00  0.00     0.278 C 
ENDBRANCH  18  21
BRANCH  20  23
ATOM     23  O   UNL     1       6.541  18.568  72.602  1.00  0.00    -0.504 OA
ATOM     24  H   UNL     1       6.470  19.578  72.581  1.00  0.00     0.293 HD
ENDBRANCH  20  23
ENDBRANCH  14  15
ENDBRANCH  12  14
ENDBRANCH   9  10
ENDBRANCH   1   9
TORSDOF 10
ENDMDL
MODEL 7
REMARK VINA RESULT:    -5.286      2.067      6.005
REMARK INTER + INTRA:         -10.204
REMARK INTER:                  -8.846
REMARK INTRA:                  -1.358
REMARK UNBOUND:                -1.982
REMARK SMILES COc1cc(CNC(=O)CCCCC=CC(C)C)ccc1O
REMARK SMILES IDX 11 1 12 2 13 3 14 4 15 5 16 6 17 7 18 8 10 9 8 10 9 11 7 12
REMARK SMILES IDX 6 14 5 15 4 16 19 17 3 18 20 19 21 20 2 21 1 22 22 23
REMARK H PARENT 7 13 22 24
REMARK Flexibility Score: inf
ROOT
ATOM      1  C   UNL     1       7.663  18.319  72.155  1.00  0.00     0.010 C 
ENDROOT
BRANCH   1   2
ATOM      2  C   UNL     1       8.817  19.077  71.480  1.00  0.00     0.005 C 
BRANCH   2   3
ATOM      3  C   UNL     1       9.671  18.136  70.621  1.00  0.00     0.027 C 
BRANCH   3   4
ATOM      4  C   UNL     1      10.363  18.897  69.517  1.00  0.00    -0.031 C 
ATOM      5  C   UNL     1      10.930  18.336  68.433  1.00  0.00    -0.028 C 
BRANCH   5   6
ATOM      6  C   UNL     1      11.056  16.846  68.199  1.00  0.00     0.005 C 
ATOM      7  C   UNL     1       9.670  16.232  67.980  1.00  0.00     0.012 C 
ATOM      8  C   UNL     1      11.959  16.584  66.991  1.00  0.00     0.012 C 
ENDBRANCH   5   6
ENDBRANCH   3   4
ENDBRANCH   2   3
ENDBRANCH   1   2
BRANCH   1   9
ATOM      9  C   UNL     1       7.868  18.161  73.669  1.00  0.00     0.100 C 
BRANCH   9  10
ATOM     10  C   UNL     1       8.531  16.856  74.007  1.00  0.00     0.220 C 
ATOM     11  O   UNL     1       7.888  15.985  74.656  1.00  0.00    -0.275 OA
ATOM     12  N   UNL     1       9.862  16.580  73.544  1.00  0.00    -0.352 N 
ATOM     13  H   UNL     1      10.401  17.349  73.084  1.00  0.00     0.163 HD
BRANCH  12  14
ATOM     14  C   UNL     1      10.369  15.218  73.398  1.00  0.00     0.151 C 
BRANCH  14  15
ATOM     15  C   UNL     1      11.439  15.193  72.343  1.00  0.00    -0.025 A 
ATOM     16  C   UNL     1      11.553  14.097  71.471  1.00  0.00     0.056 A 
ATOM     17  C   UNL     1      12.259  16.317  72.151  1.00  0.00     0.009 A 
ATOM     18  C   UNL     1      12.479  14.122  70.410  1.00  0.00     0.160 A 
ATOM     19  C   UNL     1      13.192  16.337  71.115  1.00  0.00     0.050 A 
ATOM     20  C   UNL     1      13.307  15.244  70.245  1.00  0.00     0.157 A 
BRANCH  18  21
ATOM     21  O   UNL     1      12.594  13.068  69.491  1.00  0.00    -0.493 OA
ATOM     22  C   UNL     1      11.671  12.817  68.435  1.00  0.00     0.278 C 
ENDBRANCH  18  21
BRANCH  20  23
ATOM     23  O   UNL     1      14.228  15.272  69.200  1.00  0.00    -0.504 OA
ATOM     24  H   UNL     1      13.950  15.096  68.242  1.00  0.00     0.293 HD
ENDBRANCH  20  23
ENDBRANCH  14  15
ENDBRANCH  12  14
ENDBRANCH   9  10
ENDBRANCH   1   9
TORSDOF 10
ENDMDL
MODEL 8
REMARK VINA RESULT:    -5.238      2.850      5.773
REMARK INTER + INTRA:         -10.129
REMARK INTER:                  -8.648
REMARK INTRA:                  -1.481
REMARK UNBOUND:                -1.982
REMARK SMILES COc1cc(CNC(=O)CCCCC=CC(C)C)ccc1O
REMARK SMILES IDX 11 1 12 2 13 3 14 4 15 5 16 6 17 7 18 8 10 9 8 10 9 11 7 12
REMARK SMILES IDX 6 14 5 15 4 16 19 17 3 18 20 19 21 20 2 21 1 22 22 23
REMARK H PARENT 7 13 22 24
REMARK Flexibility Score: inf
ROOT
ATOM      1  C   UNL     1      11.109  18.620  69.529  1.00  0.00     0.010 C 
ENDROOT
BRANCH   1   2
ATOM      2  C   UNL     1       9.815  19.024  70.253  1.00  0.00     0.005 C 
BRANCH   2   3
ATOM      3  C   UNL     1       9.000  17.790  70.663  1.00  0.00     0.027 C 
BRANCH   3   4
ATOM      4  C   UNL     1       9.015  17.612  72.160  1.00  0.00    -0.031 C 
ATOM      5  C   UNL     1       9.861  16.809  72.832  1.00  0.00    -0.028 C 
BRANCH   5   6
ATOM      6  C   UNL     1      10.865  15.880  72.185  1.00  0.00     0.005 C 
ATOM      7  C   UNL     1      12.259  16.513  72.215  1.00  0.00     0.012 C 
ATOM      8  C   UNL     1      10.869  14.532  72.911  1.00  0.00     0.012 C 
ENDBRANCH   5   6
ENDBRANCH   3   4
ENDBRANCH   2   3
ENDBRANCH   1   2
BRANCH   1   9
ATOM      9  C   UNL     1      11.048  18.890  68.018  1.00  0.00     0.100 C 
BRANCH   9  10
ATOM     10  C   UNL     1      11.390  17.664  67.220  1.00  0.00     0.220 C 
ATOM     11  O   UNL     1      12.003  17.791  66.125  1.00  0.00    -0.275 OA
ATOM     12  N   UNL     1      11.073  16.359  67.729  1.00  0.00    -0.352 N 
ATOM     13  H   UNL     1      10.490  16.287  68.594  1.00  0.00     0.163 HD
BRANCH  12  14
ATOM     14  C   UNL     1      11.780  15.160  67.288  1.00  0.00     0.151 C 
BRANCH  14  15
ATOM     15  C   UNL     1      12.742  14.725  68.358  1.00  0.00    -0.025 A 
ATOM     16  C   UNL     1      14.056  15.224  68.379  1.00  0.00     0.056 A 
ATOM     17  C   UNL     1      12.297  13.906  69.408  1.00  0.00     0.009 A 
ATOM     18  C   UNL     1      14.922  14.909  69.445  1.00  0.00     0.160 A 
ATOM     19  C   UNL     1      13.159  13.574  70.454  1.00  0.00     0.050 A 
ATOM     20  C   UNL     1      14.469  14.071  70.475  1.00  0.00     0.157 A 
BRANCH  18  21
ATOM     21  O   UNL     1      16.226  15.422  69.526  1.00  0.00    -0.493 OA
ATOM     22  C   UNL     1      17.407  14.625  69.503  1.00  0.00     0.278 C 
ENDBRANCH  18  21
BRANCH  20  23
ATOM     23  O   UNL     1      15.324  13.751  71.528  1.00  0.00    -0.504 OA
ATOM     24  H   UNL     1      15.858  14.463  72.013  1.00  0.00     0.293 HD
ENDBRANCH  20  23
ENDBRANCH  14  15
ENDBRANCH  12  14
ENDBRANCH   9  10
ENDBRANCH   1   9
TORSDOF 10
ENDMDL
MODEL 9
REMARK VINA RESULT:    -5.144      1.759      3.697
REMARK INTER + INTRA:          -9.983
REMARK INTER:                  -8.678
REMARK INTRA:                  -1.305
REMARK UNBOUND:                -1.982
REMARK SMILES COc1cc(CNC(=O)CCCCC=CC(C)C)ccc1O
REMARK SMILES IDX 11 1 12 2 13 3 14 4 15 5 16 6 17 7 18 8 10 9 8 10 9 11 7 12
REMARK SMILES IDX 6 14 5 15 4 16 19 17 3 18 20 19 21 20 2 21 1 22 22 23
REMARK H PARENT 7 13 22 24
REMARK Flexibility Score: inf
ROOT
ATOM      1  C   UNL     1       9.380  14.653  68.757  1.00  0.00     0.010 C 
ENDROOT
BRANCH   1   2
ATOM      2  C   UNL     1      10.181  13.386  68.416  1.00  0.00     0.005 C 
BRANCH   2   3
ATOM      3  C   UNL     1      11.690  13.636  68.529  1.00  0.00     0.027 C 
BRANCH   3   4
ATOM      4  C   UNL     1      12.162  13.435  69.947  1.00  0.00    -0.031 C 
ATOM      5  C   UNL     1      13.095  14.185  70.562  1.00  0.00    -0.028 C 
BRANCH   5   6
ATOM      6  C   UNL     1      13.894  15.285  69.896  1.00  0.00     0.005 C 
ATOM      7  C   UNL     1      13.715  16.599  70.664  1.00  0.00     0.012 C 
ATOM      8  C   UNL     1      15.372  14.892  69.836  1.00  0.00     0.012 C 
ENDBRANCH   5   6
ENDBRANCH   3   4
ENDBRANCH   2   3
ENDBRANCH   1   2
BRANCH   1   9
ATOM      9  C   UNL     1      10.024  15.927  68.192  1.00  0.00     0.100 C 
BRANCH   9  10
ATOM     10  C   UNL     1      10.442  16.870  69.283  1.00  0.00     0.220 C 
ATOM     11  O   UNL     1      10.901  18.006  68.977  1.00  0.00    -0.275 OA
ATOM     12  N   UNL     1      10.266  16.505  70.660  1.00  0.00    -0.352 N 
ATOM     13  H   UNL     1       9.965  15.529  70.885  1.00  0.00     0.163 HD
BRANCH  12  14
ATOM     14  C   UNL     1      10.176  17.502  71.724  1.00  0.00     0.151 C 
BRANCH  14  15
ATOM     15  C   UNL     1       8.793  17.483  72.311  1.00  0.00    -0.025 A 
ATOM     16  C   UNL     1       8.602  17.184  73.672  1.00  0.00     0.056 A 
ATOM     17  C   UNL     1       7.695  17.876  71.529  1.00  0.00     0.009 A 
ATOM     18  C   UNL     1       7.321  17.278  74.251  1.00  0.00     0.160 A 
ATOM     19  C   UNL     1       6.421  17.949  72.093  1.00  0.00     0.050 A 
ATOM     20  C   UNL     1       6.230  17.651  73.449  1.00  0.00     0.157 A 
BRANCH  18  21
ATOM     21  O   UNL     1       7.094  17.031  75.613  1.00  0.00    -0.493 OA
ATOM     22  C   UNL     1       7.124  15.739  76.213  1.00  0.00     0.278 C 
ENDBRANCH  18  21
BRANCH  20  23
ATOM     23  O   UNL     1       4.959  17.740  74.015  1.00  0.00    -0.504 OA
ATOM     24  H   UNL     1       4.771  17.404  74.952  1.00  0.00     0.293 HD
ENDBRANCH  20  23
ENDBRANCH  14  15
ENDBRANCH  12  14
ENDBRANCH   9  10
ENDBRANCH   1   9
TORSDOF 10
ENDMDL
