MODEL 1
REMARK VINA RESULT:    29.970      0.000      0.000
REMARK INTER + INTRA:          34.959
REMARK INTER:                  35.226
REMARK INTRA:                  -0.267
REMARK UNBOUND:                -0.267
REMARK SMILES O=c1cc(-c2ccc(O)c(O)c2)oc2cc(O)cc(O)c12
REMARK SMILES IDX 4 1 3 2 2 3 1 4 21 5 19 6 18 7 16 8 15 9 14 10 13 11 5 12
REMARK SMILES IDX 6 13 7 14 8 15 12 16 10 17 9 18 11 20 20 22 17 24
REMARK H PARENT 9 19 11 21 20 23 17 25
REMARK Flexibility Score: inf
ROOT
ATOM      1  C   UNL     1       9.464   1.458   8.582  1.00  0.00     0.138 A 
ATOM      2  C   UNL     1      10.220   0.379   8.104  1.00  0.00     0.100 A 
ATOM      3  C   UNL     1      11.263   0.611   7.206  1.00  0.00     0.197 A 
ATOM      4  O   UNL     1      11.883  -0.383   6.747  1.00  0.00    -0.289 OA
ATOM      5  C   UNL     1      11.569   1.936   6.810  1.00  0.00     0.107 A 
ATOM      6  C   UNL     1      12.634   2.295   5.933  1.00  0.00     0.134 A 
ATOM      7  C   UNL     1      12.769   3.627   5.520  1.00  0.00     0.093 A 
ATOM      8  C   UNL     1      11.913   4.621   6.002  1.00  0.00     0.123 A 
ATOM      9  C   UNL     1      10.903   4.287   6.901  1.00  0.00     0.094 A 
ATOM     10  C   UNL     1      10.722   2.963   7.305  1.00  0.00     0.146 A 
ATOM     11  O   UNL     1       9.737   2.686   8.153  1.00  0.00    -0.456 OA
ENDROOT
BRANCH   1  12
ATOM     12  C   UNL     1       8.345   1.268   9.540  1.00  0.00     0.021 A 
ATOM     13  C   UNL     1       8.573   1.058  10.913  1.00  0.00     0.016 A 
ATOM     14  C   UNL     1       7.501   0.892  11.793  1.00  0.00     0.051 A 
ATOM     15  C   UNL     1       6.184   0.940  11.319  1.00  0.00     0.157 A 
ATOM     16  C   UNL     1       7.018   1.329   9.075  1.00  0.00     0.062 A 
ATOM     17  C   UNL     1       5.943   1.161   9.959  1.00  0.00     0.158 A 
BRANCH  15  18
ATOM     18  O   UNL     1       5.112   0.774  12.194  1.00  0.00    -0.504 OA
ATOM     19  H   UNL     1       4.583  -0.090  12.226  1.00  0.00     0.293 HD
ENDBRANCH  15  18
BRANCH  17  20
ATOM     20  O   UNL     1       4.630   1.213   9.490  1.00  0.00    -0.504 OA
ATOM     21  H   UNL     1       4.119   2.086   9.442  1.00  0.00     0.293 HD
ENDBRANCH  17  20
ENDBRANCH   1  12
BRANCH   6  22
ATOM     22  O   UNL     1      13.596   1.396   5.461  1.00  0.00    -0.507 OA
ATOM     23  H   UNL     1      14.588   1.481   5.611  1.00  0.00     0.293 HD
ENDBRANCH   6  22
BRANCH   8  24
ATOM     24  O   UNL     1      12.064   5.945   5.598  1.00  0.00    -0.508 OA
ATOM     25  H   UNL     1      11.809   6.716   6.202  1.00  0.00     0.293 HD
ENDBRANCH   8  24
TORSDOF 5
ENDMDL
MODEL 2
REMARK VINA RESULT:    30.255      1.084      2.614
REMARK INTER + INTRA:          35.293
REMARK INTER:                  35.555
REMARK INTRA:                  -0.262
REMARK UNBOUND:                -0.267
REMARK SMILES O=c1cc(-c2ccc(O)c(O)c2)oc2cc(O)cc(O)c12
REMARK SMILES IDX 4 1 3 2 2 3 1 4 21 5 19 6 18 7 16 8 15 9 14 10 13 11 5 12
REMARK SMILES IDX 6 13 7 14 8 15 12 16 10 17 9 18 11 20 20 22 17 24
REMARK H PARENT 9 19 11 21 20 23 17 25
REMARK Flexibility Score: inf
ROOT
ATOM      1  C   UNL     1       9.370   2.117   8.544  1.00  0.00     0.138 A 
ATOM      2  C   UNL     1       9.366   3.435   8.066  1.00  0.00     0.100 A 
ATOM      3  C   UNL     1      10.349   3.844   7.164  1.00  0.00     0.197 A 
ATOM      4  O   UNL     1      10.357   5.049   6.801  1.00  0.00    -0.289 OA
ATOM      5  C   UNL     1      11.321   2.918   6.713  1.00  0.00     0.107 A 
ATOM      6  C   UNL     1      12.344   3.211   5.764  1.00  0.00     0.134 A 
ATOM      7  C   UNL     1      13.320   2.248   5.482  1.00  0.00     0.093 A 
ATOM      8  C   UNL     1      13.275   0.981   6.071  1.00  0.00     0.123 A 
ATOM      9  C   UNL     1      12.248   0.668   6.958  1.00  0.00     0.094 A 
ATOM     10  C   UNL     1      11.279   1.618   7.285  1.00  0.00     0.146 A 
ATOM     11  O   UNL     1      10.325   1.283   8.148  1.00  0.00    -0.456 OA
ENDROOT
BRANCH   1  12
ATOM     12  C   UNL     1       8.347   1.629   9.505  1.00  0.00     0.021 A 
ATOM     13  C   UNL     1       8.682   1.272  10.825  1.00  0.00     0.016 A 
ATOM     14  C   UNL     1       7.698   0.826  11.710  1.00  0.00     0.051 A 
ATOM     15  C   UNL     1       6.363   0.737  11.295  1.00  0.00     0.157 A 
ATOM     16  C   UNL     1       7.002   1.549   9.102  1.00  0.00     0.062 A 
ATOM     17  C   UNL     1       6.015   1.100   9.990  1.00  0.00     0.158 A 
BRANCH  15  18
ATOM     18  O   UNL     1       5.379   0.291  12.176  1.00  0.00    -0.504 OA
ATOM     19  H   UNL     1       5.063   0.862  12.952  1.00  0.00     0.293 HD
ENDBRANCH  15  18
BRANCH  17  20
ATOM     20  O   UNL     1       4.684   1.014   9.582  1.00  0.00    -0.504 OA
ATOM     21  H   UNL     1       4.423   1.089   8.606  1.00  0.00     0.293 HD
ENDBRANCH  17  20
ENDBRANCH   1  12
BRANCH   6  22
ATOM     22  O   UNL     1      12.431   4.414   5.056  1.00  0.00    -0.507 OA
ATOM     23  H   UNL     1      12.877   5.252   5.395  1.00  0.00     0.293 HD
ENDBRANCH   6  22
BRANCH   8  24
ATOM     24  O   UNL     1      14.242   0.024   5.772  1.00  0.00    -0.508 OA
ATOM     25  H   UNL     1      14.415  -0.275   4.821  1.00  0.00     0.293 HD
ENDBRANCH   8  24
TORSDOF 5
ENDMDL
MODEL 3
REMARK VINA RESULT:    30.470      4.753      8.157
REMARK INTER + INTRA:          35.547
REMARK INTER:                  35.816
REMARK INTRA:                  -0.269
REMARK UNBOUND:                -0.267
REMARK SMILES O=c1cc(-c2ccc(O)c(O)c2)oc2cc(O)cc(O)c12
REMARK SMILES IDX 4 1 3 2 2 3 1 4 21 5 19 6 18 7 16 8 15 9 14 10 13 11 5 12
REMARK SMILES IDX 6 13 7 14 8 15 12 16 10 17 9 18 11 20 20 22 17 24
REMARK H PARENT 9 19 11 21 20 23 17 25
REMARK Flexibility Score: inf
ROOT
ATOM      1  C   UNL     1      14.988   3.689   8.486  1.00  0.00     0.138 A 
ATOM      2  C   UNL     1      14.179   4.761   8.087  1.00  0.00     0.100 A 
ATOM      3  C   UNL     1      13.105   4.532   7.226  1.00  0.00     0.197 A 
ATOM      4  O   UNL     1      12.434   5.523   6.836  1.00  0.00    -0.289 OA
ATOM      5  C   UNL     1      12.822   3.215   6.788  1.00  0.00     0.107 A 
ATOM      6  C   UNL     1      11.730   2.857   5.943  1.00  0.00     0.134 A 
ATOM      7  C   UNL     1      11.618   1.540   5.482  1.00  0.00     0.093 A 
ATOM      8  C   UNL     1      12.525   0.555   5.884  1.00  0.00     0.123 A 
ATOM      9  C   UNL     1      13.563   0.885   6.751  1.00  0.00     0.094 A 
ATOM     10  C   UNL     1      13.722   2.197   7.202  1.00  0.00     0.146 A 
ATOM     11  O   UNL     1      14.735   2.471   8.017  1.00  0.00    -0.456 OA
ENDROOT
BRANCH   1  12
ATOM     12  C   UNL     1      16.143   3.876   9.401  1.00  0.00     0.021 A 
ATOM     13  C   UNL     1      15.966   4.098  10.780  1.00  0.00     0.016 A 
ATOM     14  C   UNL     1      17.070   4.261  11.620  1.00  0.00     0.051 A 
ATOM     15  C   UNL     1      18.369   4.198  11.099  1.00  0.00     0.157 A 
ATOM     16  C   UNL     1      17.452   3.800   8.890  1.00  0.00     0.062 A 
ATOM     17  C   UNL     1      18.559   3.965   9.733  1.00  0.00     0.158 A 
BRANCH  15  18
ATOM     18  O   UNL     1      19.473   4.362  11.934  1.00  0.00    -0.504 OA
ATOM     19  H   UNL     1      19.430   4.946  12.761  1.00  0.00     0.293 HD
ENDBRANCH  15  18
BRANCH  17  20
ATOM     20  O   UNL     1      19.853   3.899   9.218  1.00  0.00    -0.504 OA
ATOM     21  H   UNL     1      20.349   4.730   8.920  1.00  0.00     0.293 HD
ENDBRANCH  17  20
ENDBRANCH   1  12
BRANCH   6  22
ATOM     22  O   UNL     1      10.722   3.743   5.552  1.00  0.00    -0.507 OA
ATOM     23  H   UNL     1      10.624   4.135   4.629  1.00  0.00     0.293 HD
ENDBRANCH   6  22
BRANCH   8  24
ATOM     24  O   UNL     1      12.397  -0.755   5.431  1.00  0.00    -0.508 OA
ATOM     25  H   UNL     1      11.939  -1.466   5.988  1.00  0.00     0.293 HD
ENDBRANCH   8  24
TORSDOF 5
ENDMDL
MODEL 4
REMARK VINA RESULT:    30.761      4.634      7.619
REMARK INTER + INTRA:          35.888
REMARK INTER:                  36.151
REMARK INTRA:                  -0.263
REMARK UNBOUND:                -0.267
REMARK SMILES O=c1cc(-c2ccc(O)c(O)c2)oc2cc(O)cc(O)c12
REMARK SMILES IDX 4 1 3 2 2 3 1 4 21 5 19 6 18 7 16 8 15 9 14 10 13 11 5 12
REMARK SMILES IDX 6 13 7 14 8 15 12 16 10 17 9 18 11 20 20 22 17 24
REMARK H PARENT 9 19 11 21 20 23 17 25
REMARK Flexibility Score: inf
ROOT
ATOM      1  C   UNL     1      14.984   3.035   8.356  1.00  0.00     0.138 A 
ATOM      2  C   UNL     1      14.968   1.741   7.819  1.00  0.00     0.100 A 
ATOM      3  C   UNL     1      13.930   1.361   6.967  1.00  0.00     0.197 A 
ATOM      4  O   UNL     1      13.909   0.174   6.550  1.00  0.00    -0.289 OA
ATOM      5  C   UNL     1      12.921   2.294   6.626  1.00  0.00     0.107 A 
ATOM      6  C   UNL     1      11.838   2.030   5.736  1.00  0.00     0.134 A 
ATOM      7  C   UNL     1      10.835   2.993   5.565  1.00  0.00     0.093 A 
ATOM      8  C   UNL     1      10.909   4.232   6.208  1.00  0.00     0.123 A 
ATOM      9  C   UNL     1      11.990   4.518   7.037  1.00  0.00     0.094 A 
ATOM     10  C   UNL     1      12.988   3.566   7.254  1.00  0.00     0.146 A 
ATOM     11  O   UNL     1      13.995   3.874   8.065  1.00  0.00    -0.456 OA
ENDROOT
BRANCH   1  12
ATOM     12  C   UNL     1      16.064   3.492   9.267  1.00  0.00     0.021 A 
ATOM     13  C   UNL     1      15.809   3.825  10.611  1.00  0.00     0.016 A 
ATOM     14  C   UNL     1      16.846   4.242  11.448  1.00  0.00     0.051 A 
ATOM     15  C   UNL     1      18.157   4.326  10.960  1.00  0.00     0.157 A 
ATOM     16  C   UNL     1      17.386   3.566   8.791  1.00  0.00     0.062 A 
ATOM     17  C   UNL     1      18.427   3.986   9.631  1.00  0.00     0.158 A 
BRANCH  15  18
ATOM     18  O   UNL     1      19.194   4.743  11.793  1.00  0.00    -0.504 OA
ATOM     19  H   UNL     1      19.491   4.189  12.589  1.00  0.00     0.293 HD
ENDBRANCH  15  18
BRANCH  17  20
ATOM     20  O   UNL     1      19.733   4.066   9.149  1.00  0.00    -0.504 OA
ATOM     21  H   UNL     1      20.523   4.172   9.774  1.00  0.00     0.293 HD
ENDBRANCH  17  20
ENDBRANCH   1  12
BRANCH   6  22
ATOM     22  O   UNL     1      11.715   0.860   4.981  1.00  0.00    -0.507 OA
ATOM     23  H   UNL     1      11.025   0.707   4.262  1.00  0.00     0.293 HD
ENDBRANCH   6  22
BRANCH   8  24
ATOM     24  O   UNL     1       9.914   5.189   6.020  1.00  0.00    -0.508 OA
ATOM     25  H   UNL     1      10.099   6.057   5.532  1.00  0.00     0.293 HD
ENDBRANCH   8  24
TORSDOF 5
ENDMDL
MODEL 5
REMARK VINA RESULT:    31.335      1.369      7.072
REMARK INTER + INTRA:          36.563
REMARK INTER:                  36.831
REMARK INTRA:                  -0.268
REMARK UNBOUND:                -0.267
REMARK SMILES O=c1cc(-c2ccc(O)c(O)c2)oc2cc(O)cc(O)c12
REMARK SMILES IDX 4 1 3 2 2 3 1 4 21 5 19 6 18 7 16 8 15 9 14 10 13 11 5 12
REMARK SMILES IDX 6 13 7 14 8 15 12 16 10 17 9 18 11 20 20 22 17 24
REMARK H PARENT 9 19 11 21 20 23 17 25
REMARK Flexibility Score: inf
ROOT
ATOM      1  C   UNL     1       9.141   1.618   8.661  1.00  0.00     0.138 A 
ATOM      2  C   UNL     1       9.257   1.367  10.035  1.00  0.00     0.100 A 
ATOM      3  C   UNL     1       8.107   1.179  10.803  1.00  0.00     0.197 A 
ATOM      4  O   UNL     1       8.241   1.018  12.044  1.00  0.00    -0.289 OA
ATOM      5  C   UNL     1       6.834   1.211  10.183  1.00  0.00     0.107 A 
ATOM      6  C   UNL     1       5.597   0.992  10.857  1.00  0.00     0.134 A 
ATOM      7  C   UNL     1       4.393   1.164  10.162  1.00  0.00     0.093 A 
ATOM      8  C   UNL     1       4.385   1.487   8.802  1.00  0.00     0.123 A 
ATOM      9  C   UNL     1       5.590   1.649   8.123  1.00  0.00     0.094 A 
ATOM     10  C   UNL     1       6.806   1.519   8.796  1.00  0.00     0.146 A 
ATOM     11  O   UNL     1       7.933   1.696   8.114  1.00  0.00    -0.456 OA
ENDROOT
BRANCH   1  12
ATOM     12  C   UNL     1      10.332   1.823   7.799  1.00  0.00     0.021 A 
ATOM     13  C   UNL     1      11.044   0.740   7.249  1.00  0.00     0.016 A 
ATOM     14  C   UNL     1      12.155   0.963   6.433  1.00  0.00     0.051 A 
ATOM     15  C   UNL     1      12.569   2.270   6.144  1.00  0.00     0.157 A 
ATOM     16  C   UNL     1      10.747   3.132   7.491  1.00  0.00     0.062 A 
ATOM     17  C   UNL     1      11.862   3.356   6.673  1.00  0.00     0.158 A 
BRANCH  15  18
ATOM     18  O   UNL     1      13.678   2.496   5.330  1.00  0.00    -0.504 OA
ATOM     19  H   UNL     1      13.596   2.530   4.320  1.00  0.00     0.293 HD
ENDBRANCH  15  18
BRANCH  17  20
ATOM     20  O   UNL     1      12.274   4.655   6.380  1.00  0.00    -0.504 OA
ATOM     21  H   UNL     1      12.278   5.382   7.086  1.00  0.00     0.293 HD
ENDBRANCH  17  20
ENDBRANCH   1  12
BRANCH   6  22
ATOM     22  O   UNL     1       5.495   0.584  12.190  1.00  0.00    -0.507 OA
ATOM     23  H   UNL     1       4.685   0.718  12.775  1.00  0.00     0.293 HD
ENDBRANCH   6  22
BRANCH   8  24
ATOM     24  O   UNL     1       3.183   1.640   8.117  1.00  0.00    -0.508 OA
ATOM     25  H   UNL     1       2.305   1.321   8.508  1.00  0.00     0.293 HD
ENDBRANCH   8  24
TORSDOF 5
ENDMDL
MODEL 6
REMARK VINA RESULT:    31.407      5.635      7.797
REMARK INTER + INTRA:          36.648
REMARK INTER:                  36.917
REMARK INTRA:                  -0.269
REMARK UNBOUND:                -0.267
REMARK SMILES O=c1cc(-c2ccc(O)c(O)c2)oc2cc(O)cc(O)c12
REMARK SMILES IDX 4 1 3 2 2 3 1 4 21 5 19 6 18 7 16 8 15 9 14 10 13 11 5 12
REMARK SMILES IDX 6 13 7 14 8 15 12 16 10 17 9 18 11 20 20 22 17 24
REMARK H PARENT 9 19 11 21 20 23 17 25
REMARK Flexibility Score: inf
ROOT
ATOM      1  C   UNL     1      15.361   3.542   8.623  1.00  0.00     0.138 A 
ATOM      2  C   UNL     1      15.284   3.774  10.003  1.00  0.00     0.100 A 
ATOM      3  C   UNL     1      16.457   3.942  10.741  1.00  0.00     0.197 A 
ATOM      4  O   UNL     1      16.359   4.087  11.987  1.00  0.00    -0.289 OA
ATOM      5  C   UNL     1      17.711   3.908  10.086  1.00  0.00     0.107 A 
ATOM      6  C   UNL     1      18.969   4.107  10.728  1.00  0.00     0.134 A 
ATOM      7  C   UNL     1      20.152   3.936   9.998  1.00  0.00     0.093 A 
ATOM      8  C   UNL     1      20.120   3.631   8.635  1.00  0.00     0.123 A 
ATOM      9  C   UNL     1      18.895   3.488   7.987  1.00  0.00     0.094 A 
ATOM     10  C   UNL     1      17.699   3.619   8.695  1.00  0.00     0.146 A 
ATOM     11  O   UNL     1      16.553   3.460   8.042  1.00  0.00    -0.456 OA
ENDROOT
BRANCH   1  12
ATOM     12  C   UNL     1      14.145   3.358   7.791  1.00  0.00     0.021 A 
ATOM     13  C   UNL     1      13.417   4.454   7.291  1.00  0.00     0.016 A 
ATOM     14  C   UNL     1      12.282   4.252   6.502  1.00  0.00     0.051 A 
ATOM     15  C   UNL     1      11.860   2.953   6.192  1.00  0.00     0.157 A 
ATOM     16  C   UNL     1      13.721   2.057   7.462  1.00  0.00     0.062 A 
ATOM     17  C   UNL     1      12.581   1.854   6.671  1.00  0.00     0.158 A 
BRANCH  15  18
ATOM     18  O   UNL     1      10.727   2.748   5.405  1.00  0.00    -0.504 OA
ATOM     19  H   UNL     1      10.766   2.809   4.394  1.00  0.00     0.293 HD
ENDBRANCH  15  18
BRANCH  17  20
ATOM     20  O   UNL     1      12.161   0.562   6.357  1.00  0.00    -0.504 OA
ATOM     21  H   UNL     1      12.824  -0.188   6.201  1.00  0.00     0.293 HD
ENDBRANCH  17  20
ENDBRANCH   1  12
BRANCH   6  22
ATOM     22  O   UNL     1      19.111   4.497  12.064  1.00  0.00    -0.507 OA
ATOM     23  H   UNL     1      18.526   4.182  12.821  1.00  0.00     0.293 HD
ENDBRANCH   6  22
BRANCH   8  24
ATOM     24  O   UNL     1      21.301   3.477   7.914  1.00  0.00    -0.508 OA
ATOM     25  H   UNL     1      22.007   4.204   7.891  1.00  0.00     0.293 HD
ENDBRANCH   8  24
TORSDOF 5
ENDMDL
