MODEL 1
REMARK VINA RESULT:    -4.005      0.000      0.000
REMARK INTER + INTRA:          -6.112
REMARK INTER:                  -5.644
REMARK INTRA:                  -0.469
REMARK UNBOUND:                -0.469
REMARK SMILES CCCCCCCCC(=O)[O-]
REMARK SMILES IDX 6 1 7 2 8 3 9 4 10 5 11 6 5 7 4 8 3 9 2 10 1 11
REMARK H PARENT
REMARK Flexibility Score: inf
ROOT
ATOM      1  C   UNL     1      -9.883  -2.826   4.632  1.00  0.00     0.000 C 
ENDROOT
BRANCH   1   2
ATOM      2  C   UNL     1      -8.517  -3.468   4.935  1.00  0.00     0.006 C 
BRANCH   2   3
ATOM      3  C   UNL     1      -8.410  -4.090   6.337  1.00  0.00     0.053 C 
BRANCH   3   4
ATOM      4  C   UNL     1      -9.040  -5.448   6.399  1.00  0.00     0.041 C 
ATOM      5  O   UNL     1      -9.257  -5.995   7.512  1.00  0.00    -0.550 OA
ATOM      6  O   UNL     1      -9.352  -6.124   5.227  1.00  0.00    -0.550 OA
ENDBRANCH   3   4
ENDBRANCH   2   3
ENDBRANCH   1   2
BRANCH   1   7
ATOM      7  C   UNL     1     -10.453  -3.259   3.270  1.00  0.00     0.000 C 
BRANCH   7   8
ATOM      8  C   UNL     1     -10.425  -2.126   2.231  1.00  0.00    -0.000 C 
BRANCH   8   9
ATOM      9  C   UNL     1      -9.966  -0.788   2.829  1.00  0.00    -0.000 C 
BRANCH   9  10
ATOM     10  C   UNL     1      -9.002  -0.065   1.881  1.00  0.00    -0.003 C 
ATOM     11  C   UNL     1      -7.549  -0.350   2.250  1.00  0.00     0.004 C 
ENDBRANCH   9  10
ENDBRANCH   8   9
ENDBRANCH   7   8
ENDBRANCH   1   7
TORSDOF 7
ENDMDL
MODEL 2
REMARK VINA RESULT:    -4.004      3.115      5.752
REMARK INTER + INTRA:          -6.111
REMARK INTER:                  -5.628
REMARK INTRA:                  -0.483
REMARK UNBOUND:                -0.469
REMARK SMILES CCCCCCCCC(=O)[O-]
REMARK SMILES IDX 6 1 7 2 8 3 9 4 10 5 11 6 5 7 4 8 3 9 2 10 1 11
REMARK H PARENT
REMARK Flexibility Score: inf
ROOT
ATOM      1  C   UNL     1      -9.509  -3.952   3.872  1.00  0.00     0.000 C 
ENDROOT
BRANCH   1   2
ATOM      2  C   UNL     1      -9.942  -2.862   2.876  1.00  0.00     0.006 C 
BRANCH   2   3
ATOM      3  C   UNL     1      -9.988  -1.445   3.471  1.00  0.00     0.053 C 
BRANCH   3   4
ATOM      4  C   UNL     1      -9.125  -0.487   2.707  1.00  0.00     0.041 C 
ATOM      5  O   UNL     1      -7.886  -0.690   2.609  1.00  0.00    -0.550 OA
ATOM      6  O   UNL     1      -9.684   0.649   2.136  1.00  0.00    -0.550 OA
ENDBRANCH   3   4
ENDBRANCH   2   3
ENDBRANCH   1   2
BRANCH   1   7
ATOM      7  C   UNL     1      -8.511  -3.433   4.922  1.00  0.00     0.000 C 
BRANCH   7   8
ATOM      8  C   UNL     1      -8.533  -4.262   6.217  1.00  0.00    -0.000 C 
BRANCH   8   9
ATOM      9  C   UNL     1      -9.630  -5.336   6.212  1.00  0.00    -0.000 C 
BRANCH   9  10
ATOM     10  C   UNL     1      -9.022  -6.743   6.241  1.00  0.00    -0.003 C 
ATOM     11  C   UNL     1      -9.465  -7.561   5.031  1.00  0.00     0.004 C 
ENDBRANCH   9  10
ENDBRANCH   8   9
ENDBRANCH   7   8
ENDBRANCH   1   7
TORSDOF 7
ENDMDL
MODEL 3
REMARK VINA RESULT:    -3.984      1.137      1.490
REMARK INTER + INTRA:          -6.083
REMARK INTER:                  -5.772
REMARK INTRA:                  -0.311
REMARK UNBOUND:                -0.469
REMARK SMILES CCCCCCCCC(=O)[O-]
REMARK SMILES IDX 6 1 7 2 8 3 9 4 10 5 11 6 5 7 4 8 3 9 2 10 1 11
REMARK H PARENT
REMARK Flexibility Score: inf
ROOT
ATOM      1  C   UNL     1      -9.389  -3.506   5.544  1.00  0.00     0.000 C 
ENDROOT
BRANCH   1   2
ATOM      2  C   UNL     1      -8.455  -4.446   6.326  1.00  0.00     0.006 C 
BRANCH   2   3
ATOM      3  C   UNL     1      -9.139  -5.715   6.859  1.00  0.00     0.053 C 
BRANCH   3   4
ATOM      4  C   UNL     1      -8.996  -6.870   5.915  1.00  0.00     0.041 C 
ATOM      5  O   UNL     1      -8.296  -7.866   6.235  1.00  0.00    -0.550 OA
ATOM      6  O   UNL     1      -9.606  -6.828   4.668  1.00  0.00    -0.550 OA
ENDBRANCH   3   4
ENDBRANCH   2   3
ENDBRANCH   1   2
BRANCH   1   7
ATOM      7  C   UNL     1      -8.894  -3.231   4.114  1.00  0.00     0.000 C 
BRANCH   7   8
ATOM      8  C   UNL     1      -9.990  -2.638   3.214  1.00  0.00    -0.000 C 
BRANCH   8   9
ATOM      9  C   UNL     1      -9.431  -1.669   2.162  1.00  0.00    -0.000 C 
BRANCH   9  10
ATOM     10  C   UNL     1      -8.677  -0.512   2.828  1.00  0.00    -0.003 C 
ATOM     11  C   UNL     1      -7.366  -0.219   2.104  1.00  0.00     0.004 C 
ENDBRANCH   9  10
ENDBRANCH   8   9
ENDBRANCH   7   8
ENDBRANCH   1   7
TORSDOF 7
ENDMDL
MODEL 4
REMARK VINA RESULT:    -3.909      1.134      1.659
REMARK INTER + INTRA:          -5.977
REMARK INTER:                  -5.353
REMARK INTRA:                  -0.624
REMARK UNBOUND:                -0.469
REMARK SMILES CCCCCCCCC(=O)[O-]
REMARK SMILES IDX 6 1 7 2 8 3 9 4 10 5 11 6 5 7 4 8 3 9 2 10 1 11
REMARK H PARENT
REMARK Flexibility Score: inf
ROOT
ATOM      1  C   UNL     1     -11.215  -3.296   3.778  1.00  0.00     0.000 C 
ENDROOT
BRANCH   1   2
ATOM      2  C   UNL     1     -10.285  -2.680   4.838  1.00  0.00     0.006 C 
BRANCH   2   3
ATOM      3  C   UNL     1      -8.863  -3.263   4.844  1.00  0.00     0.053 C 
BRANCH   3   4
ATOM      4  C   UNL     1      -8.659  -4.236   5.965  1.00  0.00     0.041 C 
ATOM      5  O   UNL     1      -8.038  -3.886   7.003  1.00  0.00    -0.550 OA
ATOM      6  O   UNL     1      -9.122  -5.540   5.847  1.00  0.00    -0.550 OA
ENDBRANCH   3   4
ENDBRANCH   2   3
ENDBRANCH   1   2
BRANCH   1   7
ATOM      7  C   UNL     1     -10.763  -2.989   2.340  1.00  0.00     0.000 C 
BRANCH   7   8
ATOM      8  C   UNL     1     -10.545  -1.486   2.098  1.00  0.00    -0.000 C 
BRANCH   8   9
ATOM      9  C   UNL     1      -9.067  -1.132   1.875  1.00  0.00    -0.000 C 
BRANCH   9  10
ATOM     10  C   UNL     1      -8.700   0.168   2.600  1.00  0.00    -0.003 C 
ATOM     11  C   UNL     1      -9.898   0.737   3.355  1.00  0.00     0.004 C 
ENDBRANCH   9  10
ENDBRANCH   8   9
ENDBRANCH   7   8
ENDBRANCH   1   7
TORSDOF 7
ENDMDL
MODEL 5
REMARK VINA RESULT:    -3.837      3.023      5.910
REMARK INTER + INTRA:          -5.876
REMARK INTER:                  -5.627
REMARK INTRA:                  -0.249
REMARK UNBOUND:                -0.469
REMARK SMILES CCCCCCCCC(=O)[O-]
REMARK SMILES IDX 6 1 7 2 8 3 9 4 10 5 11 6 5 7 4 8 3 9 2 10 1 11
REMARK H PARENT
REMARK Flexibility Score: inf
ROOT
ATOM      1  C   UNL     1      -8.542  -3.338   4.777  1.00  0.00     0.000 C 
ENDROOT
BRANCH   1   2
ATOM      2  C   UNL     1      -9.722  -3.484   3.801  1.00  0.00     0.006 C 
BRANCH   2   3
ATOM      3  C   UNL     1      -9.695  -2.494   2.625  1.00  0.00     0.053 C 
BRANCH   3   4
ATOM      4  C   UNL     1      -9.147  -1.159   3.028  1.00  0.00     0.041 C 
ATOM      5  O   UNL     1      -9.842  -0.372   3.723  1.00  0.00    -0.550 OA
ATOM      6  O   UNL     1      -7.883  -0.769   2.603  1.00  0.00    -0.550 OA
ENDBRANCH   3   4
ENDBRANCH   2   3
ENDBRANCH   1   2
BRANCH   1   7
ATOM      7  C   UNL     1      -8.626  -4.316   5.962  1.00  0.00     0.000 C 
BRANCH   7   8
ATOM      8  C   UNL     1      -9.492  -5.547   5.650  1.00  0.00    -0.000 C 
BRANCH   8   9
ATOM      9  C   UNL     1      -8.999  -6.813   6.367  1.00  0.00    -0.000 C 
BRANCH   9  10
ATOM     10  C   UNL     1      -8.956  -8.006   5.405  1.00  0.00    -0.003 C 
ATOM     11  C   UNL     1      -7.815  -8.957   5.757  1.00  0.00     0.004 C 
ENDBRANCH   9  10
ENDBRANCH   8   9
ENDBRANCH   7   8
ENDBRANCH   1   7
TORSDOF 7
ENDMDL
MODEL 6
REMARK VINA RESULT:    -3.751      2.947      5.617
REMARK INTER + INTRA:          -5.755
REMARK INTER:                  -5.286
REMARK INTRA:                  -0.468
REMARK UNBOUND:                -0.469
REMARK SMILES CCCCCCCCC(=O)[O-]
REMARK SMILES IDX 6 1 7 2 8 3 9 4 10 5 11 6 5 7 4 8 3 9 2 10 1 11
REMARK H PARENT
REMARK Flexibility Score: inf
ROOT
ATOM      1  C   UNL     1     -11.235  -3.501   3.807  1.00  0.00     0.000 C 
ENDROOT
BRANCH   1   2
ATOM      2  C   UNL     1     -10.139  -3.086   2.810  1.00  0.00     0.006 C 
BRANCH   2   3
ATOM      3  C   UNL     1     -10.443  -1.790   2.041  1.00  0.00     0.053 C 
BRANCH   3   4
ATOM      4  C   UNL     1      -9.427  -0.723   2.314  1.00  0.00     0.041 C 
ATOM      5  O   UNL     1      -8.262  -1.035   2.676  1.00  0.00    -0.550 OA
ATOM      6  O   UNL     1      -9.779   0.616   2.205  1.00  0.00    -0.550 OA
ENDBRANCH   3   4
ENDBRANCH   2   3
ENDBRANCH   1   2
BRANCH   1   7
ATOM      7  C   UNL     1     -10.707  -3.649   5.244  1.00  0.00     0.000 C 
BRANCH   7   8
ATOM      8  C   UNL     1      -9.180  -3.486   5.331  1.00  0.00    -0.000 C 
BRANCH   8   9
ATOM      9  C   UNL     1      -8.540  -4.452   6.338  1.00  0.00    -0.000 C 
BRANCH   9  10
ATOM     10  C   UNL     1      -9.112  -5.866   6.183  1.00  0.00    -0.003 C 
ATOM     11  C   UNL     1      -9.496  -6.457   7.537  1.00  0.00     0.004 C 
ENDBRANCH   9  10
ENDBRANCH   8   9
ENDBRANCH   7   8
ENDBRANCH   1   7
TORSDOF 7
ENDMDL
MODEL 7
REMARK VINA RESULT:    -3.737      3.608      5.683
REMARK INTER + INTRA:          -5.735
REMARK INTER:                  -5.337
REMARK INTRA:                  -0.398
REMARK UNBOUND:                -0.469
REMARK SMILES CCCCCCCCC(=O)[O-]
REMARK SMILES IDX 6 1 7 2 8 3 9 4 10 5 11 6 5 7 4 8 3 9 2 10 1 11
REMARK H PARENT
REMARK Flexibility Score: inf
ROOT
ATOM      1  C   UNL     1      -9.096  -0.378   3.016  1.00  0.00     0.000 C 
ENDROOT
BRANCH   1   2
ATOM      2  C   UNL     1     -10.052   0.794   2.726  1.00  0.00     0.006 C 
BRANCH   2   3
ATOM      3  C   UNL     1     -11.276   0.414   1.878  1.00  0.00     0.053 C 
BRANCH   3   4
ATOM      4  C   UNL     1     -12.527   0.342   2.698  1.00  0.00     0.041 C 
ATOM      5  O   UNL     1     -12.742  -0.652   3.440  1.00  0.00    -0.550 OA
ATOM      6  O   UNL     1     -13.474   1.355   2.613  1.00  0.00    -0.550 OA
ENDBRANCH   3   4
ENDBRANCH   2   3
ENDBRANCH   1   2
BRANCH   1   7
ATOM      7  C   UNL     1      -9.469  -1.654   2.243  1.00  0.00     0.000 C 
BRANCH   7   8
ATOM      8  C   UNL     1      -9.803  -2.831   3.174  1.00  0.00    -0.000 C 
BRANCH   8   9
ATOM      9  C   UNL     1      -8.684  -3.121   4.185  1.00  0.00    -0.000 C 
BRANCH   9  10
ATOM     10  C   UNL     1      -9.116  -4.198   5.186  1.00  0.00    -0.003 C 
ATOM     11  C   UNL     1      -8.340  -4.076   6.496  1.00  0.00     0.004 C 
ENDBRANCH   9  10
ENDBRANCH   8   9
ENDBRANCH   7   8
ENDBRANCH   1   7
TORSDOF 7
ENDMDL
MODEL 8
REMARK VINA RESULT:    -3.735      2.558      5.054
REMARK INTER + INTRA:          -5.732
REMARK INTER:                  -5.050
REMARK INTRA:                  -0.682
REMARK UNBOUND:                -0.469
REMARK SMILES CCCCCCCCC(=O)[O-]
REMARK SMILES IDX 6 1 7 2 8 3 9 4 10 5 11 6 5 7 4 8 3 9 2 10 1 11
REMARK H PARENT
REMARK Flexibility Score: inf
ROOT
ATOM      1  C   UNL     1      -9.009  -2.101   3.675  1.00  0.00     0.000 C 
ENDROOT
BRANCH   1   2
ATOM      2  C   UNL     1     -10.010  -2.140   2.507  1.00  0.00     0.006 C 
BRANCH   2   3
ATOM      3  C   UNL     1     -11.216  -3.064   2.740  1.00  0.00     0.053 C 
BRANCH   3   4
ATOM      4  C   UNL     1     -12.166  -2.504   3.754  1.00  0.00     0.041 C 
ATOM      5  O   UNL     1     -12.949  -1.569   3.439  1.00  0.00    -0.550 OA
ATOM      6  O   UNL     1     -12.161  -2.988   5.056  1.00  0.00    -0.550 OA
ENDBRANCH   3   4
ENDBRANCH   2   3
ENDBRANCH   1   2
BRANCH   1   7
ATOM      7  C   UNL     1      -8.597  -3.504   4.152  1.00  0.00     0.000 C 
BRANCH   7   8
ATOM      8  C   UNL     1      -8.733  -3.674   5.674  1.00  0.00    -0.000 C 
BRANCH   8   9
ATOM      9  C   UNL     1      -9.080  -5.114   6.079  1.00  0.00    -0.000 C 
BRANCH   9  10
ATOM     10  C   UNL     1      -9.924  -5.799   4.999  1.00  0.00    -0.003 C 
ATOM     11  C   UNL     1      -9.579  -7.282   4.888  1.00  0.00     0.004 C 
ENDBRANCH   9  10
ENDBRANCH   8   9
ENDBRANCH   7   8
ENDBRANCH   1   7
TORSDOF 7
ENDMDL
