MODEL 1
REMARK VINA RESULT:    -5.716      0.000      0.000
REMARK INTER + INTRA:         -17.845
REMARK INTER:                 -15.072
REMARK INTRA:                  -2.773
REMARK UNBOUND:                -2.773
REMARK SMILES CCCCCCCCCCCCCCCCCCCCCCCCCCCCCC(=O)[O-]
REMARK SMILES IDX 16 1 17 2 18 3 19 4 20 5 21 6 22 7 23 8 24 9 25 10 26 11
REMARK SMILES IDX 27 12 28 13 29 14 30 15 31 16 32 17 15 18 14 19 13 20 12 21
REMARK SMILES IDX 11 22 10 23 9 24 8 25 7 26 6 27 5 28 4 29 3 30 2 31 1 32
REMARK H PARENT
REMARK Flexibility Score: inf
ROOT
ATOM      1  C   UNL     1      47.594  30.161  17.310  1.00  0.00     0.000 C 
ENDROOT
BRANCH   1   2
ATOM      2  C   UNL     1      48.789  29.535  16.563  1.00  0.00     0.000 C 
BRANCH   2   3
ATOM      3  C   UNL     1      48.423  28.585  15.404  1.00  0.00     0.000 C 
BRANCH   3   4
ATOM      4  C   UNL     1      48.428  27.085  15.753  1.00  0.00     0.000 C 
BRANCH   4   5
ATOM      5  C   UNL     1      49.250  26.759  17.011  1.00  0.00     0.000 C 
BRANCH   5   6
ATOM      6  C   UNL     1      48.916  25.375  17.594  1.00  0.00     0.000 C 
BRANCH   6   7
ATOM      7  C   UNL     1      48.625  25.354  19.108  1.00  0.00     0.000 C 
BRANCH   7   8
ATOM      8  C   UNL     1      48.388  26.751  19.718  1.00  0.00     0.000 C 
BRANCH   8   9
ATOM      9  C   UNL     1      48.086  26.695  21.226  1.00  0.00     0.000 C 
BRANCH   9  10
ATOM     10  C   UNL     1      49.247  26.079  22.026  1.00  0.00     0.000 C 
BRANCH  10  11
ATOM     11  C   UNL     1      50.105  27.145  22.723  1.00  0.00     0.000 C 
BRANCH  11  12
ATOM     12  C   UNL     1      51.596  26.950  22.406  1.00  0.00     0.000 C 
BRANCH  12  13
ATOM     13  C   UNL     1      51.841  25.862  21.348  1.00  0.00     0.006 C 
BRANCH  13  14
ATOM     14  C   UNL     1      53.241  25.946  20.720  1.00  0.00     0.053 C 
BRANCH  14  15
ATOM     15  C   UNL     1      53.227  26.829  19.511  1.00  0.00     0.041 C 
ATOM     16  O   UNL     1      52.136  27.116  18.949  1.00  0.00    -0.550 OA
ATOM     17  O   UNL     1      54.420  27.336  19.005  1.00  0.00    -0.550 OA
ENDBRANCH  14  15
ENDBRANCH  13  14
ENDBRANCH  12  13
ENDBRANCH  11  12
ENDBRANCH  10  11
ENDBRANCH   9  10
ENDBRANCH   8   9
ENDBRANCH   7   8
ENDBRANCH   6   7
ENDBRANCH   5   6
ENDBRANCH   4   5
ENDBRANCH   3   4
ENDBRANCH   2   3
ENDBRANCH   1   2
BRANCH   1  18
ATOM     18  C   UNL     1      47.917  31.449  18.089  1.00  0.00     0.000 C 
BRANCH  18  19
ATOM     19  C   UNL     1      49.323  31.989  17.792  1.00  0.00     0.000 C 
BRANCH  19  20
ATOM     20  C   UNL     1      49.255  33.458  17.346  1.00  0.00     0.000 C 
BRANCH  20  21
ATOM     21  C   UNL     1      47.819  33.937  17.068  1.00  0.00     0.000 C 
BRANCH  21  22
ATOM     22  C   UNL     1      47.367  33.839  15.600  1.00  0.00     0.000 C 
BRANCH  22  23
ATOM     23  C   UNL     1      48.463  33.292  14.667  1.00  0.00     0.000 C 
BRANCH  23  24
ATOM     24  C   UNL     1      48.817  34.255  13.518  1.00  0.00    -0.000 C 
BRANCH  24  25
ATOM     25  C   UNL     1      48.476  33.749  12.104  1.00  0.00    -0.000 C 
BRANCH  25  26
ATOM     26  C   UNL     1      47.134  34.289  11.574  1.00  0.00    -0.000 C 
BRANCH  26  27
ATOM     27  C   UNL     1      46.670  35.522  12.363  1.00  0.00    -0.000 C 
BRANCH  27  28
ATOM     28  C   UNL     1      45.219  35.378  12.867  1.00  0.00    -0.000 C 
BRANCH  28  29
ATOM     29  C   UNL     1      44.320  36.548  12.428  1.00  0.00    -0.000 C 
BRANCH  29  30
ATOM     30  C   UNL     1      42.877  36.119  12.081  1.00  0.00    -0.000 C 
BRANCH  30  31
ATOM     31  C   UNL     1      42.029  37.219  11.415  1.00  0.00    -0.003 C 
ATOM     32  C   UNL     1      41.781  36.958   9.927  1.00  0.00     0.004 C 
ENDBRANCH  30  31
ENDBRANCH  29  30
ENDBRANCH  28  29
ENDBRANCH  27  28
ENDBRANCH  26  27
ENDBRANCH  25  26
ENDBRANCH  24  25
ENDBRANCH  23  24
ENDBRANCH  22  23
ENDBRANCH  21  22
ENDBRANCH  20  21
ENDBRANCH  19  20
ENDBRANCH  18  19
ENDBRANCH   1  18
TORSDOF 28
ENDMDL
MODEL 2
REMARK VINA RESULT:    -5.703      4.198     12.271
REMARK INTER + INTRA:         -17.811
REMARK INTER:                 -14.977
REMARK INTRA:                  -2.834
REMARK UNBOUND:                -2.773
REMARK SMILES CCCCCCCCCCCCCCCCCCCCCCCCCCCCCC(=O)[O-]
REMARK SMILES IDX 16 1 17 2 18 3 19 4 20 5 21 6 22 7 23 8 24 9 25 10 26 11
REMARK SMILES IDX 27 12 28 13 29 14 30 15 31 16 32 17 15 18 14 19 13 20 12 21
REMARK SMILES IDX 11 22 10 23 9 24 8 25 7 26 6 27 5 28 4 29 3 30 2 31 1 32
REMARK H PARENT
REMARK Flexibility Score: inf
ROOT
ATOM      1  C   UNL     1      48.934  29.763  16.604  1.00  0.00     0.000 C 
ENDROOT
BRANCH   1   2
ATOM      2  C   UNL     1      47.757  30.289  17.451  1.00  0.00     0.000 C 
BRANCH   2   3
ATOM      3  C   UNL     1      47.980  31.663  18.115  1.00  0.00     0.000 C 
BRANCH   3   4
ATOM      4  C   UNL     1      49.181  32.467  17.582  1.00  0.00     0.000 C 
BRANCH   4   5
ATOM      5  C   UNL     1      48.770  33.763  16.861  1.00  0.00     0.000 C 
BRANCH   5   6
ATOM      6  C   UNL     1      47.771  33.511  15.718  1.00  0.00     0.000 C 
BRANCH   6   7
ATOM      7  C   UNL     1      48.402  33.081  14.379  1.00  0.00     0.000 C 
BRANCH   7   8
ATOM      8  C   UNL     1      48.859  34.260  13.496  1.00  0.00     0.000 C 
BRANCH   8   9
ATOM      9  C   UNL     1      48.258  34.207  12.080  1.00  0.00     0.000 C 
BRANCH   9  10
ATOM     10  C   UNL     1      46.739  34.454  12.086  1.00  0.00     0.000 C 
BRANCH  10  11
ATOM     11  C   UNL     1      46.362  35.745  12.827  1.00  0.00     0.000 C 
BRANCH  11  12
ATOM     12  C   UNL     1      44.886  35.728  13.254  1.00  0.00     0.000 C 
BRANCH  12  13
ATOM     13  C   UNL     1      43.950  36.304  12.179  1.00  0.00     0.006 C 
BRANCH  13  14
ATOM     14  C   UNL     1      42.537  36.590  12.709  1.00  0.00     0.053 C 
BRANCH  14  15
ATOM     15  C   UNL     1      41.513  36.364  11.640  1.00  0.00     0.041 C 
ATOM     16  O   UNL     1      41.015  35.218  11.472  1.00  0.00    -0.550 OA
ATOM     17  O   UNL     1      41.109  37.420  10.829  1.00  0.00    -0.550 OA
ENDBRANCH  14  15
ENDBRANCH  13  14
ENDBRANCH  12  13
ENDBRANCH  11  12
ENDBRANCH  10  11
ENDBRANCH   9  10
ENDBRANCH   8   9
ENDBRANCH   7   8
ENDBRANCH   6   7
ENDBRANCH   5   6
ENDBRANCH   4   5
ENDBRANCH   3   4
ENDBRANCH   2   3
ENDBRANCH   1   2
BRANCH   1  18
ATOM     18  C   UNL     1      48.540  29.191  15.230  1.00  0.00     0.000 C 
BRANCH  18  19
ATOM     19  C   UNL     1      48.487  27.657  15.215  1.00  0.00     0.000 C 
BRANCH  19  20
ATOM     20  C   UNL     1      49.511  27.073  16.201  1.00  0.00     0.000 C 
BRANCH  20  21
ATOM     21  C   UNL     1      49.102  25.693  16.746  1.00  0.00     0.000 C 
BRANCH  21  22
ATOM     22  C   UNL     1      48.463  25.704  18.146  1.00  0.00     0.000 C 
BRANCH  22  23
ATOM     23  C   UNL     1      49.486  25.494  19.277  1.00  0.00     0.000 C 
BRANCH  23  24
ATOM     24  C   UNL     1      48.833  25.133  20.625  1.00  0.00    -0.000 C 
BRANCH  24  25
ATOM     25  C   UNL     1      48.896  26.230  21.704  1.00  0.00    -0.000 C 
BRANCH  25  26
ATOM     26  C   UNL     1      50.075  26.054  22.680  1.00  0.00    -0.000 C 
BRANCH  26  27
ATOM     27  C   UNL     1      51.149  27.132  22.470  1.00  0.00    -0.000 C 
BRANCH  27  28
ATOM     28  C   UNL     1      52.570  26.534  22.408  1.00  0.00    -0.000 C 
BRANCH  28  29
ATOM     29  C   UNL     1      52.730  25.503  21.277  1.00  0.00    -0.000 C 
BRANCH  29  30
ATOM     30  C   UNL     1      53.503  26.044  20.055  1.00  0.00    -0.000 C 
BRANCH  30  31
ATOM     31  C   UNL     1      52.757  27.132  19.259  1.00  0.00    -0.003 C 
ATOM     32  C   UNL     1      53.464  28.488  19.299  1.00  0.00     0.004 C 
ENDBRANCH  30  31
ENDBRANCH  29  30
ENDBRANCH  28  29
ENDBRANCH  27  28
ENDBRANCH  26  27
ENDBRANCH  25  26
ENDBRANCH  24  25
ENDBRANCH  23  24
ENDBRANCH  22  23
ENDBRANCH  21  22
ENDBRANCH  20  21
ENDBRANCH  19  20
ENDBRANCH  18  19
ENDBRANCH   1  18
TORSDOF 28
ENDMDL
MODEL 3
REMARK VINA RESULT:    -5.618      4.382     12.558
REMARK INTER + INTRA:         -17.588
REMARK INTER:                 -14.967
REMARK INTRA:                  -2.621
REMARK UNBOUND:                -2.773
REMARK SMILES CCCCCCCCCCCCCCCCCCCCCCCCCCCCCC(=O)[O-]
REMARK SMILES IDX 16 1 17 2 18 3 19 4 20 5 21 6 22 7 23 8 24 9 25 10 26 11
REMARK SMILES IDX 27 12 28 13 29 14 30 15 31 16 32 17 15 18 14 19 13 20 12 21
REMARK SMILES IDX 11 22 10 23 9 24 8 25 7 26 6 27 5 28 4 29 3 30 2 31 1 32
REMARK H PARENT
REMARK Flexibility Score: inf
ROOT
ATOM      1  C   UNL     1      47.810  31.534  18.106  1.00  0.00     0.000 C 
ENDROOT
BRANCH   1   2
ATOM      2  C   UNL     1      49.089  32.231  17.600  1.00  0.00     0.000 C 
BRANCH   2   3
ATOM      3  C   UNL     1      48.865  33.547  16.827  1.00  0.00     0.000 C 
BRANCH   3   4
ATOM      4  C   UNL     1      47.952  33.440  15.591  1.00  0.00     0.000 C 
BRANCH   4   5
ATOM      5  C   UNL     1      48.474  32.448  14.538  1.00  0.00     0.000 C 
BRANCH   5   6
ATOM      6  C   UNL     1      48.850  33.135  13.214  1.00  0.00     0.000 C 
BRANCH   6   7
ATOM      7  C   UNL     1      48.359  34.589  13.068  1.00  0.00     0.000 C 
BRANCH   7   8
ATOM      8  C   UNL     1      47.066  34.733  12.240  1.00  0.00     0.000 C 
BRANCH   8   9
ATOM      9  C   UNL     1      45.920  35.378  13.038  1.00  0.00     0.000 C 
BRANCH   9  10
ATOM     10  C   UNL     1      44.723  35.740  12.142  1.00  0.00     0.000 C 
BRANCH  10  11
ATOM     11  C   UNL     1      43.642  36.523  12.902  1.00  0.00     0.000 C 
BRANCH  11  12
ATOM     12  C   UNL     1      42.693  37.242  11.931  1.00  0.00     0.000 C 
BRANCH  12  13
ATOM     13  C   UNL     1      41.903  36.268  11.042  1.00  0.00     0.006 C 
BRANCH  13  14
ATOM     14  C   UNL     1      40.750  35.579  11.789  1.00  0.00     0.053 C 
BRANCH  14  15
ATOM     15  C   UNL     1      39.921  36.585  12.526  1.00  0.00     0.041 C 
ATOM     16  O   UNL     1      39.249  37.440  11.890  1.00  0.00    -0.550 OA
ATOM     17  O   UNL     1      39.890  36.576  13.917  1.00  0.00    -0.550 OA
ENDBRANCH  14  15
ENDBRANCH  13  14
ENDBRANCH  12  13
ENDBRANCH  11  12
ENDBRANCH  10  11
ENDBRANCH   9  10
ENDBRANCH   8   9
ENDBRANCH   7   8
ENDBRANCH   6   7
ENDBRANCH   5   6
ENDBRANCH   4   5
ENDBRANCH   3   4
ENDBRANCH   2   3
ENDBRANCH   1   2
BRANCH   1  18
ATOM     18  C   UNL     1      47.735  30.024  17.813  1.00  0.00     0.000 C 
BRANCH  18  19
ATOM     19  C   UNL     1      48.838  29.545  16.860  1.00  0.00     0.000 C 
BRANCH  19  20
ATOM     20  C   UNL     1      48.277  28.531  15.850  1.00  0.00     0.000 C 
BRANCH  20  21
ATOM     21  C   UNL     1      49.130  27.255  15.742  1.00  0.00     0.000 C 
BRANCH  21  22
ATOM     22  C   UNL     1      48.399  25.945  16.084  1.00  0.00     0.000 C 
BRANCH  22  23
ATOM     23  C   UNL     1      49.009  25.213  17.293  1.00  0.00     0.000 C 
BRANCH  23  24
ATOM     24  C   UNL     1      48.406  25.660  18.639  1.00  0.00    -0.000 C 
BRANCH  24  25
ATOM     25  C   UNL     1      49.200  25.239  19.890  1.00  0.00    -0.000 C 
BRANCH  25  26
ATOM     26  C   UNL     1      48.643  25.843  21.193  1.00  0.00    -0.000 C 
BRANCH  26  27
ATOM     27  C   UNL     1      49.631  25.681  22.358  1.00  0.00    -0.000 C 
BRANCH  27  28
ATOM     28  C   UNL     1      50.451  26.965  22.609  1.00  0.00    -0.000 C 
BRANCH  28  29
ATOM     29  C   UNL     1      51.964  26.744  22.439  1.00  0.00    -0.000 C 
BRANCH  29  30
ATOM     30  C   UNL     1      52.355  26.193  21.050  1.00  0.00    -0.000 C 
BRANCH  30  31
ATOM     31  C   UNL     1      52.782  27.270  20.035  1.00  0.00    -0.003 C 
ATOM     32  C   UNL     1      52.326  26.956  18.609  1.00  0.00     0.004 C 
ENDBRANCH  30  31
ENDBRANCH  29  30
ENDBRANCH  28  29
ENDBRANCH  27  28
ENDBRANCH  26  27
ENDBRANCH  25  26
ENDBRANCH  24  25
ENDBRANCH  23  24
ENDBRANCH  22  23
ENDBRANCH  21  22
ENDBRANCH  20  21
ENDBRANCH  19  20
ENDBRANCH  18  19
ENDBRANCH   1  18
TORSDOF 28
ENDMDL
MODEL 4
REMARK VINA RESULT:    -5.513      4.116     11.560
REMARK INTER + INTRA:         -17.311
REMARK INTER:                 -14.235
REMARK INTRA:                  -3.076
REMARK UNBOUND:                -2.773
REMARK SMILES CCCCCCCCCCCCCCCCCCCCCCCCCCCCCC(=O)[O-]
REMARK SMILES IDX 16 1 17 2 18 3 19 4 20 5 21 6 22 7 23 8 24 9 25 10 26 11
REMARK SMILES IDX 27 12 28 13 29 14 30 15 31 16 32 17 15 18 14 19 13 20 12 21
REMARK SMILES IDX 11 22 10 23 9 24 8 25 7 26 6 27 5 28 4 29 3 30 2 31 1 32
REMARK H PARENT
REMARK Flexibility Score: inf
ROOT
ATOM      1  C   UNL     1      51.492  28.789  17.012  1.00  0.00     0.000 C 
ENDROOT
BRANCH   1   2
ATOM      2  C   UNL     1      50.560  29.115  15.827  1.00  0.00     0.000 C 
BRANCH   2   3
ATOM      3  C   UNL     1      49.124  28.564  15.943  1.00  0.00     0.000 C 
BRANCH   3   4
ATOM      4  C   UNL     1      48.321  29.063  17.158  1.00  0.00     0.000 C 
BRANCH   4   5
ATOM      5  C   UNL     1      47.549  30.365  16.880  1.00  0.00     0.000 C 
BRANCH   5   6
ATOM      6  C   UNL     1      48.129  31.570  17.640  1.00  0.00     0.000 C 
BRANCH   6   7
ATOM      7  C   UNL     1      48.628  32.726  16.750  1.00  0.00     0.000 C 
BRANCH   7   8
ATOM      8  C   UNL     1      48.296  32.553  15.254  1.00  0.00     0.000 C 
BRANCH   8   9
ATOM      9  C   UNL     1      48.442  33.862  14.459  1.00  0.00     0.000 C 
BRANCH   9  10
ATOM     10  C   UNL     1      48.724  33.606  12.969  1.00  0.00     0.000 C 
BRANCH  10  11
ATOM     11  C   UNL     1      47.634  34.193  12.060  1.00  0.00     0.000 C 
BRANCH  11  12
ATOM     12  C   UNL     1      46.809  35.256  12.801  1.00  0.00     0.000 C 
BRANCH  12  13
ATOM     13  C   UNL     1      45.346  35.308  12.332  1.00  0.00     0.006 C 
BRANCH  13  14
ATOM     14  C   UNL     1      44.443  36.110  13.281  1.00  0.00     0.053 C 
BRANCH  14  15
ATOM     15  C   UNL     1      43.187  36.534  12.585  1.00  0.00     0.041 C 
ATOM     16  O   UNL     1      43.165  36.647  11.330  1.00  0.00    -0.550 OA
ATOM     17  O   UNL     1      42.038  36.803  13.323  1.00  0.00    -0.550 OA
ENDBRANCH  14  15
ENDBRANCH  13  14
ENDBRANCH  12  13
ENDBRANCH  11  12
ENDBRANCH  10  11
ENDBRANCH   9  10
ENDBRANCH   8   9
ENDBRANCH   7   8
ENDBRANCH   6   7
ENDBRANCH   5   6
ENDBRANCH   4   5
ENDBRANCH   3   4
ENDBRANCH   2   3
ENDBRANCH   1   2
BRANCH   1  18
ATOM     18  C   UNL     1      52.850  28.176  16.620  1.00  0.00     0.000 C 
BRANCH  18  19
ATOM     19  C   UNL     1      54.019  28.745  17.435  1.00  0.00     0.000 C 
BRANCH  19  20
ATOM     20  C   UNL     1      53.891  28.346  18.914  1.00  0.00     0.000 C 
BRANCH  20  21
ATOM     21  C   UNL     1      54.029  26.831  19.143  1.00  0.00     0.000 C 
BRANCH  21  22
ATOM     22  C   UNL     1      52.789  26.140  19.737  1.00  0.00     0.000 C 
BRANCH  22  23
ATOM     23  C   UNL     1      53.137  24.913  20.599  1.00  0.00     0.000 C 
BRANCH  23  24
ATOM     24  C   UNL     1      52.696  25.058  22.068  1.00  0.00    -0.000 C 
BRANCH  24  25
ATOM     25  C   UNL     1      52.689  26.497  22.615  1.00  0.00    -0.000 C 
BRANCH  25  26
ATOM     26  C   UNL     1      51.304  27.168  22.537  1.00  0.00    -0.000 C 
BRANCH  26  27
ATOM     27  C   UNL     1      50.170  26.138  22.639  1.00  0.00    -0.000 C 
BRANCH  27  28
ATOM     28  C   UNL     1      48.796  26.748  22.293  1.00  0.00    -0.000 C 
BRANCH  28  29
ATOM     29  C   UNL     1      48.058  25.962  21.194  1.00  0.00    -0.000 C 
BRANCH  29  30
ATOM     30  C   UNL     1      49.006  25.250  20.204  1.00  0.00    -0.000 C 
BRANCH  30  31
ATOM     31  C   UNL     1      48.615  25.408  18.723  1.00  0.00    -0.003 C 
ATOM     32  C   UNL     1      49.807  25.260  17.775  1.00  0.00     0.004 C 
ENDBRANCH  30  31
ENDBRANCH  29  30
ENDBRANCH  28  29
ENDBRANCH  27  28
ENDBRANCH  26  27
ENDBRANCH  25  26
ENDBRANCH  24  25
ENDBRANCH  23  24
ENDBRANCH  22  23
ENDBRANCH  21  22
ENDBRANCH  20  21
ENDBRANCH  19  20
ENDBRANCH  18  19
ENDBRANCH   1  18
TORSDOF 28
ENDMDL
MODEL 5
REMARK VINA RESULT:    -5.485      1.557      3.626
REMARK INTER + INTRA:         -17.235
REMARK INTER:                 -14.232
REMARK INTRA:                  -3.004
REMARK UNBOUND:                -2.773
REMARK SMILES CCCCCCCCCCCCCCCCCCCCCCCCCCCCCC(=O)[O-]
REMARK SMILES IDX 16 1 17 2 18 3 19 4 20 5 21 6 22 7 23 8 24 9 25 10 26 11
REMARK SMILES IDX 27 12 28 13 29 14 30 15 31 16 32 17 15 18 14 19 13 20 12 21
REMARK SMILES IDX 11 22 10 23 9 24 8 25 7 26 6 27 5 28 4 29 3 30 2 31 1 32
REMARK H PARENT
REMARK Flexibility Score: inf
ROOT
ATOM      1  C   UNL     1      49.076  32.521  17.690  1.00  0.00     0.000 C 
ENDROOT
BRANCH   1   2
ATOM      2  C   UNL     1      47.874  31.647  18.101  1.00  0.00     0.000 C 
BRANCH   2   3
ATOM      3  C   UNL     1      47.971  30.159  17.709  1.00  0.00     0.000 C 
BRANCH   3   4
ATOM      4  C   UNL     1      47.541  29.825  16.268  1.00  0.00     0.000 C 
BRANCH   4   5
ATOM      5  C   UNL     1      48.731  29.630  15.312  1.00  0.00     0.000 C 
BRANCH   5   6
ATOM      6  C   UNL     1      49.866  28.804  15.942  1.00  0.00     0.000 C 
BRANCH   6   7
ATOM      7  C   UNL     1      50.024  27.375  15.386  1.00  0.00     0.000 C 
BRANCH   7   8
ATOM      8  C   UNL     1      48.758  26.831  14.693  1.00  0.00     0.000 C 
BRANCH   8   9
ATOM      9  C   UNL     1      48.052  25.742  15.519  1.00  0.00     0.000 C 
BRANCH   9  10
ATOM     10  C   UNL     1      48.909  25.268  16.705  1.00  0.00     0.000 C 
BRANCH  10  11
ATOM     11  C   UNL     1      48.244  25.559  18.058  1.00  0.00     0.000 C 
BRANCH  11  12
ATOM     12  C   UNL     1      49.294  25.856  19.139  1.00  0.00     0.000 C 
BRANCH  12  13
ATOM     13  C   UNL     1      50.714  25.443  18.719  1.00  0.00     0.006 C 
BRANCH  13  14
ATOM     14  C   UNL     1      51.664  26.641  18.568  1.00  0.00     0.053 C 
BRANCH  14  15
ATOM     15  C   UNL     1      53.076  26.236  18.857  1.00  0.00     0.041 C 
ATOM     16  O   UNL     1      53.435  25.036  18.712  1.00  0.00    -0.550 OA
ATOM     17  O   UNL     1      53.999  27.186  19.287  1.00  0.00    -0.550 OA
ENDBRANCH  14  15
ENDBRANCH  13  14
ENDBRANCH  12  13
ENDBRANCH  11  12
ENDBRANCH  10  11
ENDBRANCH   9  10
ENDBRANCH   8   9
ENDBRANCH   7   8
ENDBRANCH   6   7
ENDBRANCH   5   6
ENDBRANCH   4   5
ENDBRANCH   3   4
ENDBRANCH   2   3
ENDBRANCH   1   2
BRANCH   1  18
ATOM     18  C   UNL     1      48.708  33.879  17.064  1.00  0.00     0.000 C 
BRANCH  18  19
ATOM     19  C   UNL     1      47.728  33.749  15.891  1.00  0.00     0.000 C 
BRANCH  19  20
ATOM     20  C   UNL     1      48.449  33.221  14.640  1.00  0.00     0.000 C 
BRANCH  20  21
ATOM     21  C   UNL     1      48.854  34.338  13.662  1.00  0.00     0.000 C 
BRANCH  21  22
ATOM     22  C   UNL     1      48.579  34.043  12.178  1.00  0.00     0.000 C 
BRANCH  22  23
ATOM     23  C   UNL     1      47.121  34.321  11.768  1.00  0.00     0.000 C 
BRANCH  23  24
ATOM     24  C   UNL     1      46.549  35.607  12.395  1.00  0.00    -0.000 C 
BRANCH  24  25
ATOM     25  C   UNL     1      45.139  35.477  12.999  1.00  0.00    -0.000 C 
BRANCH  25  26
ATOM     26  C   UNL     1      44.072  36.272  12.224  1.00  0.00    -0.000 C 
BRANCH  26  27
ATOM     27  C   UNL     1      42.858  36.598  13.106  1.00  0.00    -0.000 C 
BRANCH  27  28
ATOM     28  C   UNL     1      41.861  37.542  12.401  1.00  0.00    -0.000 C 
BRANCH  28  29
ATOM     29  C   UNL     1      41.201  36.894  11.171  1.00  0.00    -0.000 C 
BRANCH  29  30
ATOM     30  C   UNL     1      39.732  36.480  11.406  1.00  0.00    -0.000 C 
BRANCH  30  31
ATOM     31  C   UNL     1      39.391  35.050  10.949  1.00  0.00    -0.003 C 
ATOM     32  C   UNL     1      38.966  34.141  12.104  1.00  0.00     0.004 C 
ENDBRANCH  30  31
ENDBRANCH  29  30
ENDBRANCH  28  29
ENDBRANCH  27  28
ENDBRANCH  26  27
ENDBRANCH  25  26
ENDBRANCH  24  25
ENDBRANCH  23  24
ENDBRANCH  22  23
ENDBRANCH  21  22
ENDBRANCH  20  21
ENDBRANCH  19  20
ENDBRANCH  18  19
ENDBRANCH   1  18
TORSDOF 28
ENDMDL
MODEL 6
REMARK VINA RESULT:    -5.470      4.846      8.614
REMARK INTER + INTRA:         -17.197
REMARK INTER:                 -13.054
REMARK INTRA:                  -4.143
REMARK UNBOUND:                -2.773
REMARK SMILES CCCCCCCCCCCCCCCCCCCCCCCCCCCCCC(=O)[O-]
REMARK SMILES IDX 16 1 17 2 18 3 19 4 20 5 21 6 22 7 23 8 24 9 25 10 26 11
REMARK SMILES IDX 27 12 28 13 29 14 30 15 31 16 32 17 15 18 14 19 13 20 12 21
REMARK SMILES IDX 11 22 10 23 9 24 8 25 7 26 6 27 5 28 4 29 3 30 2 31 1 32
REMARK H PARENT
REMARK Flexibility Score: inf
ROOT
ATOM      1  C   UNL     1      48.227  27.161  21.119  1.00  0.00     0.000 C 
ENDROOT
BRANCH   1   2
ATOM      2  C   UNL     1      48.932  26.294  22.182  1.00  0.00     0.000 C 
BRANCH   2   3
ATOM      3  C   UNL     1      50.018  27.012  23.009  1.00  0.00     0.000 C 
BRANCH   3   4
ATOM      4  C   UNL     1      51.391  27.143  22.323  1.00  0.00     0.000 C 
BRANCH   4   5
ATOM      5  C   UNL     1      51.972  25.793  21.871  1.00  0.00     0.000 C 
BRANCH   5   6
ATOM      6  C   UNL     1      52.333  25.776  20.376  1.00  0.00     0.000 C 
BRANCH   6   7
ATOM      7  C   UNL     1      53.844  25.758  20.067  1.00  0.00     0.000 C 
BRANCH   7   8
ATOM      8  C   UNL     1      54.275  26.781  18.996  1.00  0.00     0.000 C 
BRANCH   8   9
ATOM      9  C   UNL     1      53.502  28.107  19.097  1.00  0.00     0.000 C 
BRANCH   9  10
ATOM     10  C   UNL     1      52.898  28.530  17.747  1.00  0.00     0.000 C 
BRANCH  10  11
ATOM     11  C   UNL     1      51.577  27.808  17.447  1.00  0.00     0.000 C 
BRANCH  11  12
ATOM     12  C   UNL     1      50.795  28.522  16.334  1.00  0.00     0.000 C 
BRANCH  12  13
ATOM     13  C   UNL     1      50.548  30.008  16.640  1.00  0.00     0.006 C 
BRANCH  13  14
ATOM     14  C   UNL     1      49.175  30.497  16.156  1.00  0.00     0.053 C 
BRANCH  14  15
ATOM     15  C   UNL     1      48.157  30.387  17.249  1.00  0.00     0.041 C 
ATOM     16  O   UNL     1      47.531  29.308  17.424  1.00  0.00    -0.550 OA
ATOM     17  O   UNL     1      47.902  31.477  18.075  1.00  0.00    -0.550 OA
ENDBRANCH  14  15
ENDBRANCH  13  14
ENDBRANCH  12  13
ENDBRANCH  11  12
ENDBRANCH  10  11
ENDBRANCH   9  10
ENDBRANCH   8   9
ENDBRANCH   7   8
ENDBRANCH   6   7
ENDBRANCH   5   6
ENDBRANCH   4   5
ENDBRANCH   3   4
ENDBRANCH   2   3
ENDBRANCH   1   2
BRANCH   1  18
ATOM     18  C   UNL     1      48.481  26.734  19.661  1.00  0.00     0.000 C 
BRANCH  18  19
ATOM     19  C   UNL     1      48.860  25.253  19.530  1.00  0.00     0.000 C 
BRANCH  19  20
ATOM     20  C   UNL     1      49.335  24.941  18.102  1.00  0.00     0.000 C 
BRANCH  20  21
ATOM     21  C   UNL     1      48.493  25.642  17.021  1.00  0.00     0.000 C 
BRANCH  21  22
ATOM     22  C   UNL     1      48.862  25.289  15.570  1.00  0.00     0.000 C 
BRANCH  22  23
ATOM     23  C   UNL     1      50.344  24.909  15.400  1.00  0.00     0.000 C 
BRANCH  23  24
ATOM     24  C   UNL     1      50.898  25.240  14.001  1.00  0.00    -0.000 C 
BRANCH  24  25
ATOM     25  C   UNL     1      49.934  26.002  13.073  1.00  0.00    -0.000 C 
BRANCH  25  26
ATOM     26  C   UNL     1      49.596  25.229  11.784  1.00  0.00    -0.000 C 
BRANCH  26  27
ATOM     27  C   UNL     1      50.166  25.928  10.540  1.00  0.00    -0.000 C 
BRANCH  27  28
ATOM     28  C   UNL     1      51.612  25.483  10.233  1.00  0.00    -0.000 C 
BRANCH  28  29
ATOM     29  C   UNL     1      52.612  26.652  10.272  1.00  0.00    -0.000 C 
BRANCH  29  30
ATOM     30  C   UNL     1      53.322  26.810  11.634  1.00  0.00    -0.000 C 
BRANCH  30  31
ATOM     31  C   UNL     1      54.010  28.173  11.840  1.00  0.00    -0.003 C 
ATOM     32  C   UNL     1      55.199  28.386  10.902  1.00  0.00     0.004 C 
ENDBRANCH  30  31
ENDBRANCH  29  30
ENDBRANCH  28  29
ENDBRANCH  27  28
ENDBRANCH  26  27
ENDBRANCH  25  26
ENDBRANCH  24  25
ENDBRANCH  23  24
ENDBRANCH  22  23
ENDBRANCH  21  22
ENDBRANCH  20  21
ENDBRANCH  19  20
ENDBRANCH  18  19
ENDBRANCH   1  18
TORSDOF 28
ENDMDL
MODEL 7
REMARK VINA RESULT:    -5.445      3.707      9.729
REMARK INTER + INTRA:         -17.131
REMARK INTER:                 -13.173
REMARK INTRA:                  -3.958
REMARK UNBOUND:                -2.773
REMARK SMILES CCCCCCCCCCCCCCCCCCCCCCCCCCCCCC(=O)[O-]
REMARK SMILES IDX 16 1 17 2 18 3 19 4 20 5 21 6 22 7 23 8 24 9 25 10 26 11
REMARK SMILES IDX 27 12 28 13 29 14 30 15 31 16 32 17 15 18 14 19 13 20 12 21
REMARK SMILES IDX 11 22 10 23 9 24 8 25 7 26 6 27 5 28 4 29 3 30 2 31 1 32
REMARK H PARENT
REMARK Flexibility Score: inf
ROOT
ATOM      1  C   UNL     1      49.158  25.362  21.091  1.00  0.00     0.000 C 
ENDROOT
BRANCH   1   2
ATOM      2  C   UNL     1      48.499  25.246  19.702  1.00  0.00     0.000 C 
BRANCH   2   3
ATOM      3  C   UNL     1      49.002  26.248  18.643  1.00  0.00     0.000 C 
BRANCH   3   4
ATOM      4  C   UNL     1      49.123  25.691  17.212  1.00  0.00     0.000 C 
BRANCH   4   5
ATOM      5  C   UNL     1      48.045  26.236  16.258  1.00  0.00     0.000 C 
BRANCH   5   6
ATOM      6  C   UNL     1      48.508  27.492  15.499  1.00  0.00     0.000 C 
BRANCH   6   7
ATOM      7  C   UNL     1      47.760  28.789  15.864  1.00  0.00     0.000 C 
BRANCH   7   8
ATOM      8  C   UNL     1      48.078  29.319  17.277  1.00  0.00     0.000 C 
BRANCH   8   9
ATOM      9  C   UNL     1      47.943  30.848  17.381  1.00  0.00     0.000 C 
BRANCH   9  10
ATOM     10  C   UNL     1      49.208  31.575  16.894  1.00  0.00     0.000 C 
BRANCH  10  11
ATOM     11  C   UNL     1      49.207  33.064  17.274  1.00  0.00     0.000 C 
BRANCH  11  12
ATOM     12  C   UNL     1      48.204  33.853  16.418  1.00  0.00     0.000 C 
BRANCH  12  13
ATOM     13  C   UNL     1      48.233  33.440  14.937  1.00  0.00     0.006 C 
BRANCH  13  14
ATOM     14  C   UNL     1      48.928  34.478  14.043  1.00  0.00     0.053 C 
BRANCH  14  15
ATOM     15  C   UNL     1      48.874  34.059  12.606  1.00  0.00     0.041 C 
ATOM     16  O   UNL     1      47.797  34.151  11.959  1.00  0.00    -0.550 OA
ATOM     17  O   UNL     1      50.016  33.567  11.981  1.00  0.00    -0.550 OA
ENDBRANCH  14  15
ENDBRANCH  13  14
ENDBRANCH  12  13
ENDBRANCH  11  12
ENDBRANCH  10  11
ENDBRANCH   9  10
ENDBRANCH   8   9
ENDBRANCH   7   8
ENDBRANCH   6   7
ENDBRANCH   5   6
ENDBRANCH   4   5
ENDBRANCH   3   4
ENDBRANCH   2   3
ENDBRANCH   1   2
BRANCH   1  18
ATOM     18  C   UNL     1      48.956  26.717  21.795  1.00  0.00     0.000 C 
BRANCH  18  19
ATOM     19  C   UNL     1      50.139  27.107  22.690  1.00  0.00     0.000 C 
BRANCH  19  20
ATOM     20  C   UNL     1      51.450  27.094  21.888  1.00  0.00     0.000 C 
BRANCH  20  21
ATOM     21  C   UNL     1      52.615  26.435  22.649  1.00  0.00     0.000 C 
BRANCH  21  22
ATOM     22  C   UNL     1      53.187  25.163  21.999  1.00  0.00     0.000 C 
BRANCH  22  23
ATOM     23  C   UNL     1      53.073  25.167  20.464  1.00  0.00     0.000 C 
BRANCH  23  24
ATOM     24  C   UNL     1      54.441  25.196  19.755  1.00  0.00    -0.000 C 
BRANCH  24  25
ATOM     25  C   UNL     1      54.394  25.474  18.241  1.00  0.00    -0.000 C 
BRANCH  25  26
ATOM     26  C   UNL     1      55.104  26.782  17.843  1.00  0.00    -0.000 C 
BRANCH  26  27
ATOM     27  C   UNL     1      54.593  27.976  18.662  1.00  0.00    -0.000 C 
BRANCH  27  28
ATOM     28  C   UNL     1      53.729  28.935  17.817  1.00  0.00    -0.000 C 
BRANCH  28  29
ATOM     29  C   UNL     1      52.254  28.502  17.752  1.00  0.00    -0.000 C 
BRANCH  29  30
ATOM     30  C   UNL     1      51.652  28.575  16.331  1.00  0.00    -0.000 C 
BRANCH  30  31
ATOM     31  C   UNL     1      52.451  27.808  15.260  1.00  0.00    -0.003 C 
ATOM     32  C   UNL     1      52.137  26.311  15.244  1.00  0.00     0.004 C 
ENDBRANCH  30  31
ENDBRANCH  29  30
ENDBRANCH  28  29
ENDBRANCH  27  28
ENDBRANCH  26  27
ENDBRANCH  25  26
ENDBRANCH  24  25
ENDBRANCH  23  24
ENDBRANCH  22  23
ENDBRANCH  21  22
ENDBRANCH  20  21
ENDBRANCH  19  20
ENDBRANCH  18  19
ENDBRANCH   1  18
TORSDOF 28
ENDMDL
MODEL 8
REMARK VINA RESULT:    -5.412      3.899      9.547
REMARK INTER + INTRA:         -17.043
REMARK INTER:                 -13.510
REMARK INTRA:                  -3.533
REMARK UNBOUND:                -2.773
REMARK SMILES CCCCCCCCCCCCCCCCCCCCCCCCCCCCCC(=O)[O-]
REMARK SMILES IDX 16 1 17 2 18 3 19 4 20 5 21 6 22 7 23 8 24 9 25 10 26 11
REMARK SMILES IDX 27 12 28 13 29 14 30 15 31 16 32 17 15 18 14 19 13 20 12 21
REMARK SMILES IDX 11 22 10 23 9 24 8 25 7 26 6 27 5 28 4 29 3 30 2 31 1 32
REMARK H PARENT
REMARK Flexibility Score: inf
ROOT
ATOM      1  C   UNL     1      48.433  25.618  19.852  1.00  0.00     0.000 C 
ENDROOT
BRANCH   1   2
ATOM      2  C   UNL     1      49.422  25.144  18.767  1.00  0.00     0.000 C 
BRANCH   2   3
ATOM      3  C   UNL     1      49.218  25.764  17.369  1.00  0.00     0.000 C 
BRANCH   3   4
ATOM      4  C   UNL     1      48.813  27.249  17.357  1.00  0.00     0.000 C 
BRANCH   4   5
ATOM      5  C   UNL     1      48.591  27.805  15.940  1.00  0.00     0.000 C 
BRANCH   5   6
ATOM      6  C   UNL     1      47.353  28.713  15.848  1.00  0.00     0.000 C 
BRANCH   6   7
ATOM      7  C   UNL     1      47.645  30.226  15.908  1.00  0.00     0.000 C 
BRANCH   7   8
ATOM      8  C   UNL     1      47.950  30.748  17.327  1.00  0.00     0.000 C 
BRANCH   8   9
ATOM      9  C   UNL     1      48.985  31.886  17.329  1.00  0.00     0.000 C 
BRANCH   9  10
ATOM     10  C   UNL     1      48.322  33.272  17.406  1.00  0.00     0.000 C 
BRANCH  10  11
ATOM     11  C   UNL     1      48.682  34.158  16.204  1.00  0.00     0.000 C 
BRANCH  11  12
ATOM     12  C   UNL     1      48.139  33.561  14.896  1.00  0.00     0.000 C 
BRANCH  12  13
ATOM     13  C   UNL     1      48.682  34.275  13.647  1.00  0.00     0.006 C 
BRANCH  13  14
ATOM     14  C   UNL     1      49.274  33.304  12.614  1.00  0.00     0.053 C 
BRANCH  14  15
ATOM     15  C   UNL     1      48.688  33.550  11.259  1.00  0.00     0.041 C 
ATOM     16  O   UNL     1      49.392  33.392  10.225  1.00  0.00    -0.550 OA
ATOM     17  O   UNL     1      47.361  33.954  11.136  1.00  0.00    -0.550 OA
ENDBRANCH  14  15
ENDBRANCH  13  14
ENDBRANCH  12  13
ENDBRANCH  11  12
ENDBRANCH  10  11
ENDBRANCH   9  10
ENDBRANCH   8   9
ENDBRANCH   7   8
ENDBRANCH   6   7
ENDBRANCH   5   6
ENDBRANCH   4   5
ENDBRANCH   3   4
ENDBRANCH   2   3
ENDBRANCH   1   2
BRANCH   1  18
ATOM     18  C   UNL     1      48.894  25.372  21.301  1.00  0.00     0.000 C 
BRANCH  18  19
ATOM     19  C   UNL     1      49.095  26.672  22.091  1.00  0.00     0.000 C 
BRANCH  19  20
ATOM     20  C   UNL     1      50.447  26.656  22.822  1.00  0.00     0.000 C 
BRANCH  20  21
ATOM     21  C   UNL     1      51.633  26.996  21.902  1.00  0.00     0.000 C 
BRANCH  21  22
ATOM     22  C   UNL     1      52.339  25.786  21.265  1.00  0.00     0.000 C 
BRANCH  22  23
ATOM     23  C   UNL     1      53.379  26.186  20.202  1.00  0.00     0.000 C 
BRANCH  23  24
ATOM     24  C   UNL     1      52.936  27.384  19.341  1.00  0.00    -0.000 C 
BRANCH  24  25
ATOM     25  C   UNL     1      53.006  27.164  17.819  1.00  0.00    -0.000 C 
BRANCH  25  26
ATOM     26  C   UNL     1      52.187  28.194  17.019  1.00  0.00    -0.000 C 
BRANCH  26  27
ATOM     27  C   UNL     1      52.253  27.920  15.509  1.00  0.00    -0.000 C 
BRANCH  27  28
ATOM     28  C   UNL     1      52.148  26.415  15.185  1.00  0.00    -0.000 C 
BRANCH  28  29
ATOM     29  C   UNL     1      52.560  26.091  13.738  1.00  0.00    -0.000 C 
BRANCH  29  30
ATOM     30  C   UNL     1      51.402  25.544  12.875  1.00  0.00    -0.000 C 
BRANCH  30  31
ATOM     31  C   UNL     1      50.074  25.359  13.633  1.00  0.00    -0.003 C 
ATOM     32  C   UNL     1      48.859  25.818  12.825  1.00  0.00     0.004 C 
ENDBRANCH  30  31
ENDBRANCH  29  30
ENDBRANCH  28  29
ENDBRANCH  27  28
ENDBRANCH  26  27
ENDBRANCH  25  26
ENDBRANCH  24  25
ENDBRANCH  23  24
ENDBRANCH  22  23
ENDBRANCH  21  22
ENDBRANCH  20  21
ENDBRANCH  19  20
ENDBRANCH  18  19
ENDBRANCH   1  18
TORSDOF 28
ENDMDL
MODEL 9
REMARK VINA RESULT:    -5.402      4.441     12.124
REMARK INTER + INTRA:         -17.017
REMARK INTER:                 -14.259
REMARK INTRA:                  -2.758
REMARK UNBOUND:                -2.773
REMARK SMILES CCCCCCCCCCCCCCCCCCCCCCCCCCCCCC(=O)[O-]
REMARK SMILES IDX 16 1 17 2 18 3 19 4 20 5 21 6 22 7 23 8 24 9 25 10 26 11
REMARK SMILES IDX 27 12 28 13 29 14 30 15 31 16 32 17 15 18 14 19 13 20 12 21
REMARK SMILES IDX 11 22 10 23 9 24 8 25 7 26 6 27 5 28 4 29 3 30 2 31 1 32
REMARK H PARENT
REMARK Flexibility Score: inf
ROOT
ATOM      1  C   UNL     1      48.863  28.545  16.445  1.00  0.00     0.000 C 
ENDROOT
BRANCH   1   2
ATOM      2  C   UNL     1      49.546  29.859  16.016  1.00  0.00     0.000 C 
BRANCH   2   3
ATOM      3  C   UNL     1      49.565  30.975  17.080  1.00  0.00     0.000 C 
BRANCH   3   4
ATOM      4  C   UNL     1      48.190  31.573  17.434  1.00  0.00     0.000 C 
BRANCH   4   5
ATOM      5  C   UNL     1      48.189  33.111  17.463  1.00  0.00     0.000 C 
BRANCH   5   6
ATOM      6  C   UNL     1      48.893  33.725  16.240  1.00  0.00     0.000 C 
BRANCH   6   7
ATOM      7  C   UNL     1      48.155  33.543  14.899  1.00  0.00     0.000 C 
BRANCH   7   8
ATOM      8  C   UNL     1      48.777  34.336  13.731  1.00  0.00     0.000 C 
BRANCH   8   9
ATOM      9  C   UNL     1      47.750  34.685  12.640  1.00  0.00     0.000 C 
BRANCH   9  10
ATOM     10  C   UNL     1      46.337  34.881  13.216  1.00  0.00     0.000 C 
BRANCH  10  11
ATOM     11  C   UNL     1      45.578  36.022  12.522  1.00  0.00     0.000 C 
BRANCH  11  12
ATOM     12  C   UNL     1      44.086  35.997  12.889  1.00  0.00     0.000 C 
BRANCH  12  13
ATOM     13  C   UNL     1      43.211  36.746  11.870  1.00  0.00     0.006 C 
BRANCH  13  14
ATOM     14  C   UNL     1      41.816  36.122  11.709  1.00  0.00     0.053 C 
BRANCH  14  15
ATOM     15  C   UNL     1      40.836  36.766  12.639  1.00  0.00     0.041 C 
ATOM     16  O   UNL     1      41.047  37.930  13.075  1.00  0.00    -0.550 OA
ATOM     17  O   UNL     1      39.688  36.081  13.026  1.00  0.00    -0.550 OA
ENDBRANCH  14  15
ENDBRANCH  13  14
ENDBRANCH  12  13
ENDBRANCH  11  12
ENDBRANCH  10  11
ENDBRANCH   9  10
ENDBRANCH   8   9
ENDBRANCH   7   8
ENDBRANCH   6   7
ENDBRANCH   5   6
ENDBRANCH   4   5
ENDBRANCH   3   4
ENDBRANCH   2   3
ENDBRANCH   1   2
BRANCH   1  18
ATOM     18  C   UNL     1      48.419  27.635  15.284  1.00  0.00     0.000 C 
BRANCH  18  19
ATOM     19  C   UNL     1      48.113  26.200  15.735  1.00  0.00     0.000 C 
BRANCH  19  20
ATOM     20  C   UNL     1      49.227  25.242  15.282  1.00  0.00     0.000 C 
BRANCH  20  21
ATOM     21  C   UNL     1      50.203  24.876  16.414  1.00  0.00     0.000 C 
BRANCH  21  22
ATOM     22  C   UNL     1      51.398  25.829  16.585  1.00  0.00     0.000 C 
BRANCH  22  23
ATOM     23  C   UNL     1      51.916  25.893  18.033  1.00  0.00     0.000 C 
BRANCH  23  24
ATOM     24  C   UNL     1      52.432  27.289  18.431  1.00  0.00    -0.000 C 
BRANCH  24  25
ATOM     25  C   UNL     1      52.871  27.437  19.900  1.00  0.00    -0.000 C 
BRANCH  25  26
ATOM     26  C   UNL     1      52.426  26.259  20.787  1.00  0.00    -0.000 C 
BRANCH  26  27
ATOM     27  C   UNL     1      52.036  26.728  22.197  1.00  0.00    -0.000 C 
BRANCH  27  28
ATOM     28  C   UNL     1      50.712  26.096  22.675  1.00  0.00    -0.000 C 
BRANCH  28  29
ATOM     29  C   UNL     1      49.534  27.086  22.636  1.00  0.00    -0.000 C 
BRANCH  29  30
ATOM     30  C   UNL     1      48.267  26.509  21.968  1.00  0.00    -0.000 C 
BRANCH  30  31
ATOM     31  C   UNL     1      48.545  25.528  20.813  1.00  0.00    -0.003 C 
ATOM     32  C   UNL     1      48.493  26.199  19.438  1.00  0.00     0.004 C 
ENDBRANCH  30  31
ENDBRANCH  29  30
ENDBRANCH  28  29
ENDBRANCH  27  28
ENDBRANCH  26  27
ENDBRANCH  25  26
ENDBRANCH  24  25
ENDBRANCH  23  24
ENDBRANCH  22  23
ENDBRANCH  21  22
ENDBRANCH  20  21
ENDBRANCH  19  20
ENDBRANCH  18  19
ENDBRANCH   1  18
TORSDOF 28
ENDMDL
