MODEL 1
REMARK VINA RESULT:    -5.120      0.000      0.000
REMARK INTER + INTRA:          -6.226
REMARK INTER:                  -6.168
REMARK INTRA:                  -0.058
REMARK UNBOUND:                -0.058
REMARK SMILES [NH3+][C@H](Cc1cnc[nH]1)C(=O)[O-]
REMARK SMILES IDX 3 1 2 2 1 3 9 7 10 8 11 9 4 10 5 11 8 12 6 13 7 14
REMARK H PARENT 1 4 1 5 1 6 8 15
REMARK Flexibility Score: inf
ROOT
ATOM      1  C   UNL     1     -23.868 -23.219 -14.439  1.00  0.00     0.127 C 
ENDROOT
BRANCH   1   2
ATOM      2  C   UNL     1     -25.122 -23.613 -15.246  1.00  0.00     0.233 C 
BRANCH   2   3
ATOM      3  N   UNL     1     -25.072 -23.027 -16.590  1.00  0.00    -0.350 N 
ATOM      4  H   UNL     1     -24.472 -23.617 -17.213  1.00  0.00     0.345 HD
ATOM      5  H   UNL     1     -26.034 -22.996 -16.999  1.00  0.00     0.345 HD
ATOM      6  H   UNL     1     -24.683 -22.057 -16.556  1.00  0.00     0.345 HD
ENDBRANCH   2   3
BRANCH   2   7
ATOM      7  C   UNL     1     -25.253 -25.112 -15.339  1.00  0.00     0.099 C 
ATOM      8  O   UNL     1     -26.381 -25.639 -15.526  1.00  0.00    -0.544 OA
ATOM      9  O   UNL     1     -24.131 -25.922 -15.206  1.00  0.00    -0.544 OA
ENDBRANCH   2   7
ENDBRANCH   1   2
BRANCH   1  10
ATOM     10  C   UNL     1     -24.075 -21.935 -13.690  1.00  0.00     0.041 A 
ATOM     11  C   UNL     1     -24.111 -21.779 -12.322  1.00  0.00     0.134 A 
ATOM     12  N   UNL     1     -24.335 -20.751 -14.265  1.00  0.00    -0.348 N 
ATOM     13  N   UNL     1     -24.382 -20.491 -12.033  1.00  0.00    -0.245 NA
ATOM     14  C   UNL     1     -24.511 -19.897 -13.239  1.00  0.00     0.196 A 
ATOM     15  H   UNL     1     -24.399 -20.537 -15.285  1.00  0.00     0.167 HD
ENDBRANCH   1  10
TORSDOF 4
ENDMDL
MODEL 2
REMARK VINA RESULT:    -4.987      0.750      1.161
REMARK INTER + INTRA:          -6.066
REMARK INTER:                  -5.947
REMARK INTRA:                  -0.119
REMARK UNBOUND:                -0.058
REMARK SMILES [NH3+][C@H](Cc1cnc[nH]1)C(=O)[O-]
REMARK SMILES IDX 3 1 2 2 1 3 9 7 10 8 11 9 4 10 5 11 8 12 6 13 7 14
REMARK H PARENT 1 4 1 5 1 6 8 15
REMARK Flexibility Score: inf
ROOT
ATOM      1  C   UNL     1     -23.799 -23.253 -14.433  1.00  0.00     0.127 C 
ENDROOT
BRANCH   1   2
ATOM      2  C   UNL     1     -25.081 -23.649 -15.194  1.00  0.00     0.233 C 
BRANCH   2   3
ATOM      3  N   UNL     1     -25.094 -23.039 -16.528  1.00  0.00    -0.350 N 
ATOM      4  H   UNL     1     -24.322 -22.337 -16.606  1.00  0.00     0.345 HD
ATOM      5  H   UNL     1     -24.939 -23.776 -17.255  1.00  0.00     0.345 HD
ATOM      6  H   UNL     1     -26.009 -22.566 -16.710  1.00  0.00     0.345 HD
ENDBRANCH   2   3
BRANCH   2   7
ATOM      7  C   UNL     1     -25.198 -25.147 -15.307  1.00  0.00     0.099 C 
ATOM      8  O   UNL     1     -26.323 -25.683 -15.483  1.00  0.00    -0.544 OA
ATOM      9  O   UNL     1     -24.066 -25.948 -15.206  1.00  0.00    -0.544 OA
ENDBRANCH   2   7
ENDBRANCH   1   2
BRANCH   1  10
ATOM     10  C   UNL     1     -24.063 -22.164 -13.435  1.00  0.00     0.041 A 
ATOM     11  C   UNL     1     -24.305 -20.836 -13.713  1.00  0.00     0.134 A 
ATOM     12  N   UNL     1     -24.022 -22.323 -12.104  1.00  0.00    -0.348 N 
ATOM     13  N   UNL     1     -24.429 -20.159 -12.555  1.00  0.00    -0.245 NA
ATOM     14  C   UNL     1     -24.252 -21.097 -11.598  1.00  0.00     0.196 A 
ATOM     15  H   UNL     1     -23.840 -23.203 -11.572  1.00  0.00     0.167 HD
ENDBRANCH   1  10
TORSDOF 4
ENDMDL
MODEL 3
REMARK VINA RESULT:    -4.969      0.881      0.990
REMARK INTER + INTRA:          -6.044
REMARK INTER:                  -5.902
REMARK INTRA:                  -0.142
REMARK UNBOUND:                -0.058
REMARK SMILES [NH3+][C@H](Cc1cnc[nH]1)C(=O)[O-]
REMARK SMILES IDX 3 1 2 2 1 3 9 7 10 8 11 9 4 10 5 11 8 12 6 13 7 14
REMARK H PARENT 1 4 1 5 1 6 8 15
REMARK Flexibility Score: inf
ROOT
ATOM      1  C   UNL     1     -23.758 -23.268 -14.503  1.00  0.00     0.127 C 
ENDROOT
BRANCH   1   2
ATOM      2  C   UNL     1     -25.082 -23.612 -15.214  1.00  0.00     0.233 C 
BRANCH   2   3
ATOM      3  N   UNL     1     -25.132 -22.982 -16.538  1.00  0.00    -0.350 N 
ATOM      4  H   UNL     1     -24.166 -22.722 -16.844  1.00  0.00     0.345 HD
ATOM      5  H   UNL     1     -25.526 -23.655 -17.236  1.00  0.00     0.345 HD
ATOM      6  H   UNL     1     -25.729 -22.123 -16.517  1.00  0.00     0.345 HD
ENDBRANCH   2   3
BRANCH   2   7
ATOM      7  C   UNL     1     -25.252 -25.103 -15.343  1.00  0.00     0.099 C 
ATOM      8  O   UNL     1     -26.392 -25.595 -15.555  1.00  0.00    -0.544 OA
ATOM      9  O   UNL     1     -24.155 -25.947 -15.218  1.00  0.00    -0.544 OA
ENDBRANCH   2   7
ENDBRANCH   1   2
BRANCH   1  10
ATOM     10  C   UNL     1     -23.995 -22.523 -13.223  1.00  0.00     0.041 A 
ATOM     11  C   UNL     1     -24.443 -23.055 -12.034  1.00  0.00     0.134 A 
ATOM     12  N   UNL     1     -23.874 -21.194 -13.080  1.00  0.00    -0.348 N 
ATOM     13  N   UNL     1     -24.593 -22.062 -11.136  1.00  0.00    -0.245 NA
ATOM     14  C   UNL     1     -24.237 -20.946 -11.808  1.00  0.00     0.196 A 
ATOM     15  H   UNL     1     -23.575 -20.501 -13.801  1.00  0.00     0.167 HD
ENDBRANCH   1  10
TORSDOF 4
ENDMDL
MODEL 4
REMARK VINA RESULT:    -4.872      1.467      1.650
REMARK INTER + INTRA:          -5.927
REMARK INTER:                  -5.748
REMARK INTRA:                  -0.179
REMARK UNBOUND:                -0.058
REMARK SMILES [NH3+][C@H](Cc1cnc[nH]1)C(=O)[O-]
REMARK SMILES IDX 3 1 2 2 1 3 9 7 10 8 11 9 4 10 5 11 8 12 6 13 7 14
REMARK H PARENT 1 4 1 5 1 6 8 15
REMARK Flexibility Score: inf
ROOT
ATOM      1  C   UNL     1     -24.430 -22.418 -14.261  1.00  0.00     0.127 C 
ENDROOT
BRANCH   1   2
ATOM      2  C   UNL     1     -25.591 -22.727 -15.229  1.00  0.00     0.233 C 
BRANCH   2   3
ATOM      3  N   UNL     1     -25.071 -23.167 -16.528  1.00  0.00    -0.350 N 
ATOM      4  H   UNL     1     -24.254 -23.806 -16.387  1.00  0.00     0.345 HD
ATOM      5  H   UNL     1     -25.812 -23.694 -17.046  1.00  0.00     0.345 HD
ATOM      6  H   UNL     1     -24.771 -22.347 -17.103  1.00  0.00     0.345 HD
ENDBRANCH   2   3
BRANCH   2   7
ATOM      7  C   UNL     1     -26.505 -23.779 -14.654  1.00  0.00     0.099 C 
ATOM      8  O   UNL     1     -27.002 -24.663 -15.400  1.00  0.00    -0.544 OA
ATOM      9  O   UNL     1     -26.814 -23.773 -13.299  1.00  0.00    -0.544 OA
ENDBRANCH   2   7
ENDBRANCH   1   2
BRANCH   1  10
ATOM     10  C   UNL     1     -24.470 -20.995 -13.789  1.00  0.00     0.041 A 
ATOM     11  C   UNL     1     -24.834 -20.555 -12.535  1.00  0.00     0.134 A 
ATOM     12  N   UNL     1     -24.226 -19.927 -14.564  1.00  0.00    -0.348 N 
ATOM     13  N   UNL     1     -24.806 -19.208 -12.515  1.00  0.00    -0.245 NA
ATOM     14  C   UNL     1     -24.432 -18.862 -13.766  1.00  0.00     0.196 A 
ATOM     15  H   UNL     1     -23.948 -19.920 -15.570  1.00  0.00     0.167 HD
ENDBRANCH   1  10
TORSDOF 4
ENDMDL
MODEL 5
REMARK VINA RESULT:    -4.727      3.196      4.813
REMARK INTER + INTRA:          -5.753
REMARK INTER:                  -5.467
REMARK INTRA:                  -0.286
REMARK UNBOUND:                -0.058
REMARK SMILES [NH3+][C@H](Cc1cnc[nH]1)C(=O)[O-]
REMARK SMILES IDX 3 1 2 2 1 3 9 7 10 8 11 9 4 10 5 11 8 12 6 13 7 14
REMARK H PARENT 1 4 1 5 1 6 8 15
REMARK Flexibility Score: inf
ROOT
ATOM      1  C   UNL     1     -23.463 -21.982 -13.279  1.00  0.00     0.127 C 
ENDROOT
BRANCH   1   2
ATOM      2  C   UNL     1     -24.501 -21.130 -12.521  1.00  0.00     0.233 C 
BRANCH   2   3
ATOM      3  N   UNL     1     -24.198 -21.109 -11.086  1.00  0.00    -0.350 N 
ATOM      4  H   UNL     1     -23.164 -21.027 -10.942  1.00  0.00     0.345 HD
ATOM      5  H   UNL     1     -24.656 -20.281 -10.639  1.00  0.00     0.345 HD
ATOM      6  H   UNL     1     -24.541 -21.981 -10.622  1.00  0.00     0.345 HD
ENDBRANCH   2   3
BRANCH   2   7
ATOM      7  C   UNL     1     -24.542 -19.725 -13.063  1.00  0.00     0.099 C 
ATOM      8  O   UNL     1     -24.955 -18.779 -12.341  1.00  0.00    -0.544 OA
ATOM      9  O   UNL     1     -24.136 -19.464 -14.366  1.00  0.00    -0.544 OA
ENDBRANCH   2   7
ENDBRANCH   1   2
BRANCH   1  10
ATOM     10  C   UNL     1     -24.116 -22.885 -14.283  1.00  0.00     0.041 A 
ATOM     11  C   UNL     1     -24.019 -24.258 -14.340  1.00  0.00     0.134 A 
ATOM     12  N   UNL     1     -24.836 -22.462 -15.333  1.00  0.00    -0.348 N 
ATOM     13  N   UNL     1     -24.691 -24.703 -15.420  1.00  0.00    -0.245 NA
ATOM     14  C   UNL     1     -25.175 -23.582 -15.999  1.00  0.00     0.196 A 
ATOM     15  H   UNL     1     -25.075 -21.478 -15.588  1.00  0.00     0.167 HD
ENDBRANCH   1  10
TORSDOF 4
ENDMDL
MODEL 6
REMARK VINA RESULT:    -4.646      2.415      4.155
REMARK INTER + INTRA:          -5.655
REMARK INTER:                  -5.644
REMARK INTRA:                  -0.011
REMARK UNBOUND:                -0.058
REMARK SMILES [NH3+][C@H](Cc1cnc[nH]1)C(=O)[O-]
REMARK SMILES IDX 3 1 2 2 1 3 9 7 10 8 11 9 4 10 5 11 8 12 6 13 7 14
REMARK H PARENT 1 4 1 5 1 6 8 15
REMARK Flexibility Score: inf
ROOT
ATOM      1  C   UNL     1     -22.923 -22.622 -13.642  1.00  0.00     0.127 C 
ENDROOT
BRANCH   1   2
ATOM      2  C   UNL     1     -23.663 -21.710 -12.643  1.00  0.00     0.233 C 
BRANCH   2   3
ATOM      3  N   UNL     1     -24.381 -20.646 -13.354  1.00  0.00    -0.350 N 
ATOM      4  H   UNL     1     -25.106 -21.065 -13.982  1.00  0.00     0.345 HD
ATOM      5  H   UNL     1     -24.864 -20.024 -12.666  1.00  0.00     0.345 HD
ATOM      6  H   UNL     1     -23.719 -20.073 -13.927  1.00  0.00     0.345 HD
ENDBRANCH   2   3
BRANCH   2   7
ATOM      7  C   UNL     1     -24.623 -22.506 -11.798  1.00  0.00     0.099 C 
ATOM      8  O   UNL     1     -24.189 -23.343 -10.963  1.00  0.00    -0.544 OA
ATOM      9  O   UNL     1     -25.995 -22.332 -11.942  1.00  0.00    -0.544 OA
ENDBRANCH   2   7
ENDBRANCH   1   2
BRANCH   1  10
ATOM     10  C   UNL     1     -23.878 -23.468 -14.431  1.00  0.00     0.041 A 
ATOM     11  C   UNL     1     -24.057 -24.829 -14.316  1.00  0.00     0.134 A 
ATOM     12  N   UNL     1     -24.650 -23.017 -15.431  1.00  0.00    -0.348 N 
ATOM     13  N   UNL     1     -24.953 -25.235 -15.237  1.00  0.00    -0.245 NA
ATOM     14  C   UNL     1     -25.292 -24.105 -15.895  1.00  0.00     0.196 A 
ATOM     15  H   UNL     1     -24.729 -22.037 -15.783  1.00  0.00     0.167 HD
ENDBRANCH   1  10
TORSDOF 4
ENDMDL
MODEL 7
REMARK VINA RESULT:    -4.559      3.084      3.550
REMARK INTER + INTRA:          -5.550
REMARK INTER:                  -5.303
REMARK INTRA:                  -0.247
REMARK UNBOUND:                -0.058
REMARK SMILES [NH3+][C@H](Cc1cnc[nH]1)C(=O)[O-]
REMARK SMILES IDX 3 1 2 2 1 3 9 7 10 8 11 9 4 10 5 11 8 12 6 13 7 14
REMARK H PARENT 1 4 1 5 1 6 8 15
REMARK Flexibility Score: inf
ROOT
ATOM      1  C   UNL     1     -26.266 -23.677 -14.261  1.00  0.00     0.127 C 
ENDROOT
BRANCH   1   2
ATOM      2  C   UNL     1     -24.966 -23.244 -14.969  1.00  0.00     0.233 C 
BRANCH   2   3
ATOM      3  N   UNL     1     -25.224 -22.964 -16.386  1.00  0.00    -0.350 N 
ATOM      4  H   UNL     1     -24.375 -23.195 -16.953  1.00  0.00     0.345 HD
ATOM      5  H   UNL     1     -26.016 -23.556 -16.726  1.00  0.00     0.345 HD
ATOM      6  H   UNL     1     -25.466 -21.956 -16.525  1.00  0.00     0.345 HD
ENDBRANCH   2   3
BRANCH   2   7
ATOM      7  C   UNL     1     -24.368 -22.033 -14.301  1.00  0.00     0.099 C 
ATOM      8  O   UNL     1     -24.896 -20.900 -14.454  1.00  0.00    -0.544 OA
ATOM      9  O   UNL     1     -23.223 -22.156 -13.523  1.00  0.00    -0.544 OA
ENDBRANCH   2   7
ENDBRANCH   1   2
BRANCH   1  10
ATOM     10  C   UNL     1     -26.068 -23.816 -12.780  1.00  0.00     0.041 A 
ATOM     11  C   UNL     1     -26.828 -23.230 -11.791  1.00  0.00     0.134 A 
ATOM     12  N   UNL     1     -25.055 -24.482 -12.205  1.00  0.00    -0.348 N 
ATOM     13  N   UNL     1     -26.300 -23.538 -10.590  1.00  0.00    -0.245 NA
ATOM     14  C   UNL     1     -25.224 -24.301 -10.882  1.00  0.00     0.196 A 
ATOM     15  H   UNL     1     -24.292 -25.015 -12.679  1.00  0.00     0.167 HD
ENDBRANCH   1  10
TORSDOF 4
ENDMDL
MODEL 8
REMARK VINA RESULT:    -4.536      3.050      4.530
REMARK INTER + INTRA:          -5.523
REMARK INTER:                  -5.482
REMARK INTRA:                  -0.041
REMARK UNBOUND:                -0.058
REMARK SMILES [NH3+][C@H](Cc1cnc[nH]1)C(=O)[O-]
REMARK SMILES IDX 3 1 2 2 1 3 9 7 10 8 11 9 4 10 5 11 8 12 6 13 7 14
REMARK H PARENT 1 4 1 5 1 6 8 15
REMARK Flexibility Score: inf
ROOT
ATOM      1  C   UNL     1     -24.537 -23.644 -12.471  1.00  0.00     0.127 C 
ENDROOT
BRANCH   1   2
ATOM      2  C   UNL     1     -23.669 -22.431 -12.862  1.00  0.00     0.233 C 
BRANCH   2   3
ATOM      3  N   UNL     1     -22.964 -22.690 -14.122  1.00  0.00    -0.350 N 
ATOM      4  H   UNL     1     -22.124 -23.289 -13.943  1.00  0.00     0.345 HD
ATOM      5  H   UNL     1     -23.595 -23.202 -14.782  1.00  0.00     0.345 HD
ATOM      6  H   UNL     1     -22.659 -21.794 -14.567  1.00  0.00     0.345 HD
ENDBRANCH   2   3
BRANCH   2   7
ATOM      7  C   UNL     1     -24.509 -21.186 -12.984  1.00  0.00     0.099 C 
ATOM      8  O   UNL     1     -25.451 -20.976 -12.176  1.00  0.00    -0.544 OA
ATOM      9  O   UNL     1     -24.257 -20.268 -13.997  1.00  0.00    -0.544 OA
ENDBRANCH   2   7
ENDBRANCH   1   2
BRANCH   1  10
ATOM     10  C   UNL     1     -25.201 -24.257 -13.668  1.00  0.00     0.041 A 
ATOM     11  C   UNL     1     -26.364 -23.830 -14.270  1.00  0.00     0.134 A 
ATOM     12  N   UNL     1     -24.786 -25.377 -14.281  1.00  0.00    -0.348 N 
ATOM     13  N   UNL     1     -26.676 -24.674 -15.274  1.00  0.00    -0.245 NA
ATOM     14  C   UNL     1     -25.693 -25.601 -15.250  1.00  0.00     0.196 A 
ATOM     15  H   UNL     1     -23.948 -25.956 -14.051  1.00  0.00     0.167 HD
ENDBRANCH   1  10
TORSDOF 4
ENDMDL
MODEL 9
REMARK VINA RESULT:    -4.515      3.046      3.583
REMARK INTER + INTRA:          -5.497
REMARK INTER:                  -5.168
REMARK INTRA:                  -0.329
REMARK UNBOUND:                -0.058
REMARK SMILES [NH3+][C@H](Cc1cnc[nH]1)C(=O)[O-]
REMARK SMILES IDX 3 1 2 2 1 3 9 7 10 8 11 9 4 10 5 11 8 12 6 13 7 14
REMARK H PARENT 1 4 1 5 1 6 8 15
REMARK Flexibility Score: inf
ROOT
ATOM      1  C   UNL     1     -23.784 -22.408 -12.775  1.00  0.00     0.127 C 
ENDROOT
BRANCH   1   2
ATOM      2  C   UNL     1     -24.878 -23.350 -12.233  1.00  0.00     0.233 C 
BRANCH   2   3
ATOM      3  N   UNL     1     -24.915 -24.594 -13.011  1.00  0.00    -0.350 N 
ATOM      4  H   UNL     1     -24.611 -24.406 -13.995  1.00  0.00     0.345 HD
ATOM      5  H   UNL     1     -24.256 -25.291 -12.593  1.00  0.00     0.345 HD
ATOM      6  H   UNL     1     -25.880 -24.996 -13.019  1.00  0.00     0.345 HD
ENDBRANCH   2   3
BRANCH   2   7
ATOM      7  C   UNL     1     -24.650 -23.657 -10.775  1.00  0.00     0.099 C 
ATOM      8  O   UNL     1     -24.597 -24.851 -10.380  1.00  0.00    -0.544 OA
ATOM      9  O   UNL     1     -24.510 -22.624  -9.856  1.00  0.00    -0.544 OA
ENDBRANCH   2   7
ENDBRANCH   1   2
BRANCH   1  10
ATOM     10  C   UNL     1     -24.275 -20.994 -12.879  1.00  0.00     0.041 A 
ATOM     11  C   UNL     1     -24.482 -20.279 -14.038  1.00  0.00     0.134 A 
ATOM     12  N   UNL     1     -24.509 -20.189 -11.831  1.00  0.00    -0.348 N 
ATOM     13  N   UNL     1     -24.861 -19.026 -13.721  1.00  0.00    -0.245 NA
ATOM     14  C   UNL     1     -24.867 -19.009 -12.370  1.00  0.00     0.196 A 
ATOM     15  H   UNL     1     -24.423 -20.422 -10.817  1.00  0.00     0.167 HD
ENDBRANCH   1  10
TORSDOF 4
ENDMDL
