MODEL 1
REMARK VINA RESULT:    -2.595      0.000      0.000
REMARK INTER + INTRA:          -4.580
REMARK INTER:                  -3.960
REMARK INTRA:                  -0.620
REMARK UNBOUND:                -0.620
REMARK SMILES O=C([O-])CCCCCCCCC(=O)[O-]
REMARK SMILES IDX 7 1 6 2 5 3 4 4 2 5 1 6 3 7 8 8 9 9 10 10 11 11 12 12 13 13
REMARK SMILES IDX 14 14
REMARK H PARENT
REMARK Flexibility Score: inf
ROOT
ATOM      1  C   UNL     1      -2.420  -9.216   2.880  1.00  0.00     0.000 C 
ENDROOT
BRANCH   1   2
ATOM      2  C   UNL     1      -0.989  -9.610   3.277  1.00  0.00     0.000 C 
BRANCH   2   3
ATOM      3  C   UNL     1      -0.703  -9.238   4.739  1.00  0.00     0.006 C 
BRANCH   3   4
ATOM      4  C   UNL     1      -1.315  -7.884   5.125  1.00  0.00     0.053 C 
BRANCH   4   5
ATOM      5  C   UNL     1      -0.352  -6.756   4.908  1.00  0.00     0.041 C 
ATOM      6  O   UNL     1      -0.774  -5.575   4.803  1.00  0.00    -0.550 OA
ATOM      7  O   UNL     1       1.008  -7.014   4.789  1.00  0.00    -0.550 OA
ENDBRANCH   4   5
ENDBRANCH   3   4
ENDBRANCH   2   3
ENDBRANCH   1   2
BRANCH   1   8
ATOM      8  C   UNL     1      -3.389 -10.409   2.884  1.00  0.00     0.000 C 
BRANCH   8   9
ATOM      9  C   UNL     1      -4.670 -10.132   2.078  1.00  0.00     0.000 C 
BRANCH   9  10
ATOM     10  C   UNL     1      -4.857  -8.639   1.763  1.00  0.00     0.006 C 
BRANCH  10  11
ATOM     11  C   UNL     1      -6.086  -8.036   2.457  1.00  0.00     0.053 C 
BRANCH  11  12
ATOM     12  C   UNL     1      -5.665  -7.112   3.554  1.00  0.00     0.041 C 
ATOM     13  O   UNL     1      -4.537  -6.552   3.513  1.00  0.00    -0.550 OA
ATOM     14  O   UNL     1      -6.496  -6.905   4.648  1.00  0.00    -0.550 OA
ENDBRANCH  11  12
ENDBRANCH  10  11
ENDBRANCH   9  10
ENDBRANCH   8   9
ENDBRANCH   1   8
TORSDOF 9
ENDMDL
MODEL 2
REMARK VINA RESULT:    -2.557      1.136      4.859
REMARK INTER + INTRA:          -4.522
REMARK INTER:                  -3.808
REMARK INTRA:                  -0.714
REMARK UNBOUND:                -0.620
REMARK SMILES O=C([O-])CCCCCCCCC(=O)[O-]
REMARK SMILES IDX 7 1 6 2 5 3 4 4 2 5 1 6 3 7 8 8 9 9 10 10 11 11 12 12 13 13
REMARK SMILES IDX 14 14
REMARK H PARENT
REMARK Flexibility Score: inf
ROOT
ATOM      1  C   UNL     1      -4.266  -9.685   3.911  1.00  0.00     0.000 C 
ENDROOT
BRANCH   1   2
ATOM      2  C   UNL     1      -4.984  -9.393   2.584  1.00  0.00     0.000 C 
BRANCH   2   3
ATOM      3  C   UNL     1      -4.945  -7.894   2.258  1.00  0.00     0.006 C 
BRANCH   3   4
ATOM      4  C   UNL     1      -4.549  -7.044   3.473  1.00  0.00     0.053 C 
BRANCH   4   5
ATOM      5  C   UNL     1      -5.608  -6.042   3.820  1.00  0.00     0.041 C 
ATOM      6  O   UNL     1      -6.719  -6.426   4.272  1.00  0.00    -0.550 OA
ATOM      7  O   UNL     1      -5.379  -4.687   3.613  1.00  0.00    -0.550 OA
ENDBRANCH   4   5
ENDBRANCH   3   4
ENDBRANCH   2   3
ENDBRANCH   1   2
BRANCH   1   8
ATOM      8  C   UNL     1      -3.252 -10.835   3.799  1.00  0.00     0.000 C 
BRANCH   8   9
ATOM      9  C   UNL     1      -2.053 -10.480   2.904  1.00  0.00     0.000 C 
BRANCH   9  10
ATOM     10  C   UNL     1      -1.488  -9.082   3.203  1.00  0.00     0.006 C 
BRANCH  10  11
ATOM     11  C   UNL     1      -0.329  -9.113   4.208  1.00  0.00     0.053 C 
BRANCH  11  12
ATOM     12  C   UNL     1      -0.074  -7.743   4.753  1.00  0.00     0.041 C 
ATOM     13  O   UNL     1       1.101  -7.376   5.019  1.00  0.00    -0.550 OA
ATOM     14  O   UNL     1      -1.139  -6.889   5.015  1.00  0.00    -0.550 OA
ENDBRANCH  11  12
ENDBRANCH  10  11
ENDBRANCH   9  10
ENDBRANCH   8   9
ENDBRANCH   1   8
TORSDOF 9
ENDMDL
MODEL 3
REMARK VINA RESULT:    -2.415      2.787      3.705
REMARK INTER + INTRA:          -4.306
REMARK INTER:                  -3.507
REMARK INTRA:                  -0.799
REMARK UNBOUND:                -0.620
REMARK SMILES O=C([O-])CCCCCCCCC(=O)[O-]
REMARK SMILES IDX 7 1 6 2 5 3 4 4 2 5 1 6 3 7 8 8 9 9 10 10 11 11 12 12 13 13
REMARK SMILES IDX 14 14
REMARK H PARENT
REMARK Flexibility Score: inf
ROOT
ATOM      1  C   UNL     1      -3.800  -7.347   3.899  1.00  0.00     0.000 C 
ENDROOT
BRANCH   1   2
ATOM      2  C   UNL     1      -3.907  -8.559   4.837  1.00  0.00     0.000 C 
BRANCH   2   3
ATOM      3  C   UNL     1      -3.034  -9.719   4.337  1.00  0.00     0.006 C 
BRANCH   3   4
ATOM      4  C   UNL     1      -2.347  -9.395   3.003  1.00  0.00     0.053 C 
BRANCH   4   5
ATOM      5  C   UNL     1      -0.853  -9.411   3.128  1.00  0.00     0.041 C 
ATOM      6  O   UNL     1      -0.277  -8.619   3.919  1.00  0.00    -0.550 OA
ATOM      7  O   UNL     1      -0.098 -10.275   2.346  1.00  0.00    -0.550 OA
ENDBRANCH   4   5
ENDBRANCH   3   4
ENDBRANCH   2   3
ENDBRANCH   1   2
BRANCH   1   8
ATOM      8  C   UNL     1      -5.157  -6.928   3.311  1.00  0.00     0.000 C 
BRANCH   8   9
ATOM      9  C   UNL     1      -6.222  -8.030   3.439  1.00  0.00     0.000 C 
BRANCH   9  10
ATOM     10  C   UNL     1      -6.674  -8.574   2.073  1.00  0.00     0.006 C 
BRANCH  10  11
ATOM     11  C   UNL     1      -5.497  -8.992   1.182  1.00  0.00     0.053 C 
BRANCH  11  12
ATOM     12  C   UNL     1      -5.992  -9.470  -0.146  1.00  0.00     0.041 C 
ATOM     13  O   UNL     1      -6.774  -8.754  -0.826  1.00  0.00    -0.550 OA
ATOM     14  O   UNL     1      -5.631 -10.729  -0.611  1.00  0.00    -0.550 OA
ENDBRANCH  11  12
ENDBRANCH  10  11
ENDBRANCH   9  10
ENDBRANCH   8   9
ENDBRANCH   1   8
TORSDOF 9
ENDMDL
MODEL 4
REMARK VINA RESULT:    -2.408      2.138      2.509
REMARK INTER + INTRA:          -4.295
REMARK INTER:                  -3.809
REMARK INTRA:                  -0.487
REMARK UNBOUND:                -0.620
REMARK SMILES O=C([O-])CCCCCCCCC(=O)[O-]
REMARK SMILES IDX 7 1 6 2 5 3 4 4 2 5 1 6 3 7 8 8 9 9 10 10 11 11 12 12 13 13
REMARK SMILES IDX 14 14
REMARK H PARENT
REMARK Flexibility Score: inf
ROOT
ATOM      1  C   UNL     1      -1.671  -9.688   2.880  1.00  0.00     0.000 C 
ENDROOT
BRANCH   1   2
ATOM      2  C   UNL     1      -0.315  -9.843   3.586  1.00  0.00     0.000 C 
BRANCH   2   3
ATOM      3  C   UNL     1      -0.328  -9.152   4.958  1.00  0.00     0.006 C 
BRANCH   3   4
ATOM      4  C   UNL     1       0.322  -7.763   4.915  1.00  0.00     0.053 C 
BRANCH   4   5
ATOM      5  C   UNL     1      -0.700  -6.668   4.973  1.00  0.00     0.041 C 
ATOM      6  O   UNL     1      -1.924  -6.938   4.854  1.00  0.00    -0.550 OA
ATOM      7  O   UNL     1      -0.298  -5.347   5.125  1.00  0.00    -0.550 OA
ENDBRANCH   4   5
ENDBRANCH   3   4
ENDBRANCH   2   3
ENDBRANCH   1   2
BRANCH   1   8
ATOM      8  C   UNL     1      -2.791 -10.491   3.562  1.00  0.00     0.000 C 
BRANCH   8   9
ATOM      9  C   UNL     1      -4.185  -9.893   3.307  1.00  0.00     0.000 C 
BRANCH   9  10
ATOM     10  C   UNL     1      -4.174  -8.816   2.210  1.00  0.00     0.006 C 
BRANCH  10  11
ATOM     11  C   UNL     1      -5.578  -8.489   1.686  1.00  0.00     0.053 C 
BRANCH  11  12
ATOM     12  C   UNL     1      -5.826  -9.185   0.386  1.00  0.00     0.041 C 
ATOM     13  O   UNL     1      -5.460 -10.380   0.227  1.00  0.00    -0.550 OA
ATOM     14  O   UNL     1      -6.415  -8.500  -0.670  1.00  0.00    -0.550 OA
ENDBRANCH  11  12
ENDBRANCH  10  11
ENDBRANCH   9  10
ENDBRANCH   8   9
ENDBRANCH   1   8
TORSDOF 9
ENDMDL
MODEL 5
REMARK VINA RESULT:    -2.390      2.137      2.853
REMARK INTER + INTRA:          -4.267
REMARK INTER:                  -3.655
REMARK INTRA:                  -0.612
REMARK UNBOUND:                -0.620
REMARK SMILES O=C([O-])CCCCCCCCC(=O)[O-]
REMARK SMILES IDX 7 1 6 2 5 3 4 4 2 5 1 6 3 7 8 8 9 9 10 10 11 11 12 12 13 13
REMARK SMILES IDX 14 14
REMARK H PARENT
REMARK Flexibility Score: inf
ROOT
ATOM      1  C   UNL     1      -3.943  -7.717   3.669  1.00  0.00     0.000 C 
ENDROOT
BRANCH   1   2
ATOM      2  C   UNL     1      -3.031  -8.849   3.172  1.00  0.00     0.000 C 
BRANCH   2   3
ATOM      3  C   UNL     1      -1.614  -8.704   3.744  1.00  0.00     0.006 C 
BRANCH   3   4
ATOM      4  C   UNL     1      -1.571  -7.767   4.959  1.00  0.00     0.053 C 
BRANCH   4   5
ATOM      5  C   UNL     1      -0.467  -6.759   4.847  1.00  0.00     0.041 C 
ATOM      6  O   UNL     1       0.733  -7.137   4.807  1.00  0.00    -0.550 OA
ATOM      7  O   UNL     1      -0.763  -5.402   4.819  1.00  0.00    -0.550 OA
ENDBRANCH   4   5
ENDBRANCH   3   4
ENDBRANCH   2   3
ENDBRANCH   1   2
BRANCH   1   8
ATOM      8  C   UNL     1      -5.138  -8.231   4.488  1.00  0.00     0.000 C 
BRANCH   8   9
ATOM      9  C   UNL     1      -6.135  -9.035   3.636  1.00  0.00     0.000 C 
BRANCH   9  10
ATOM     10  C   UNL     1      -6.688  -8.224   2.453  1.00  0.00     0.006 C 
BRANCH  10  11
ATOM     11  C   UNL     1      -7.056  -9.104   1.251  1.00  0.00     0.053 C 
BRANCH  11  12
ATOM     12  C   UNL     1      -5.852  -9.354   0.399  1.00  0.00     0.041 C 
ATOM     13  O   UNL     1      -5.110  -8.397   0.054  1.00  0.00    -0.550 OA
ATOM     14  O   UNL     1      -5.577 -10.638  -0.058  1.00  0.00    -0.550 OA
ENDBRANCH  11  12
ENDBRANCH  10  11
ENDBRANCH   9  10
ENDBRANCH   8   9
ENDBRANCH   1   8
TORSDOF 9
ENDMDL
MODEL 6
REMARK VINA RESULT:    -2.327      3.060      6.254
REMARK INTER + INTRA:          -4.171
REMARK INTER:                  -3.356
REMARK INTRA:                  -0.815
REMARK UNBOUND:                -0.620
REMARK SMILES O=C([O-])CCCCCCCCC(=O)[O-]
REMARK SMILES IDX 7 1 6 2 5 3 4 4 2 5 1 6 3 7 8 8 9 9 10 10 11 11 12 12 13 13
REMARK SMILES IDX 14 14
REMARK H PARENT
REMARK Flexibility Score: inf
ROOT
ATOM      1  C   UNL     1      -3.921  -7.649   3.981  1.00  0.00     0.000 C 
ENDROOT
BRANCH   1   2
ATOM      2  C   UNL     1      -5.101  -8.126   3.120  1.00  0.00     0.000 C 
BRANCH   2   3
ATOM      3  C   UNL     1      -4.625  -8.551   1.724  1.00  0.00     0.006 C 
BRANCH   3   4
ATOM      4  C   UNL     1      -5.284  -9.857   1.258  1.00  0.00     0.053 C 
BRANCH   4   5
ATOM      5  C   UNL     1      -6.178  -9.638   0.075  1.00  0.00     0.041 C 
ATOM      6  O   UNL     1      -6.224  -8.512  -0.484  1.00  0.00    -0.550 OA
ATOM      7  O   UNL     1      -6.985 -10.670  -0.388  1.00  0.00    -0.550 OA
ENDBRANCH   4   5
ENDBRANCH   3   4
ENDBRANCH   2   3
ENDBRANCH   1   2
BRANCH   1   8
ATOM      8  C   UNL     1      -2.646  -8.477   3.753  1.00  0.00     0.000 C 
BRANCH   8   9
ATOM      9  C   UNL     1      -2.487  -9.611   4.779  1.00  0.00     0.000 C 
BRANCH   9  10
ATOM     10  C   UNL     1      -2.138 -10.956   4.121  1.00  0.00     0.006 C 
BRANCH  10  11
ATOM     11  C   UNL     1      -1.625 -10.798   2.684  1.00  0.00     0.053 C 
BRANCH  11  12
ATOM     12  C   UNL     1      -0.140 -10.972   2.638  1.00  0.00     0.041 C 
ATOM     13  O   UNL     1       0.458 -11.029   1.530  1.00  0.00    -0.550 OA
ATOM     14  O   UNL     1       0.581 -11.122   3.817  1.00  0.00    -0.550 OA
ENDBRANCH  11  12
ENDBRANCH  10  11
ENDBRANCH   9  10
ENDBRANCH   8   9
ENDBRANCH   1   8
TORSDOF 9
ENDMDL
MODEL 7
REMARK VINA RESULT:    -2.317      1.955      2.713
REMARK INTER + INTRA:          -4.156
REMARK INTER:                  -3.245
REMARK INTRA:                  -0.912
REMARK UNBOUND:                -0.620
REMARK SMILES O=C([O-])CCCCCCCCC(=O)[O-]
REMARK SMILES IDX 7 1 6 2 5 3 4 4 2 5 1 6 3 7 8 8 9 9 10 10 11 11 12 12 13 13
REMARK SMILES IDX 14 14
REMARK H PARENT
REMARK Flexibility Score: inf
ROOT
ATOM      1  C   UNL     1      -4.775 -10.573   2.549  1.00  0.00     0.000 C 
ENDROOT
BRANCH   1   2
ATOM      2  C   UNL     1      -3.454 -10.400   3.316  1.00  0.00     0.000 C 
BRANCH   2   3
ATOM      3  C   UNL     1      -2.734  -9.114   2.886  1.00  0.00     0.006 C 
BRANCH   3   4
ATOM      4  C   UNL     1      -1.414  -8.906   3.642  1.00  0.00     0.053 C 
BRANCH   4   5
ATOM      5  C   UNL     1      -0.444 -10.019   3.384  1.00  0.00     0.041 C 
ATOM      6  O   UNL     1      -0.116 -10.313   2.205  1.00  0.00    -0.550 OA
ATOM      7  O   UNL     1       0.071 -10.753   4.445  1.00  0.00    -0.550 OA
ENDBRANCH   4   5
ENDBRANCH   3   4
ENDBRANCH   2   3
ENDBRANCH   1   2
BRANCH   1   8
ATOM      8  C   UNL     1      -4.929  -9.568   1.396  1.00  0.00     0.000 C 
BRANCH   8   9
ATOM      9  C   UNL     1      -6.318  -8.910   1.366  1.00  0.00     0.000 C 
BRANCH   9  10
ATOM     10  C   UNL     1      -6.959  -8.823   2.761  1.00  0.00     0.006 C 
BRANCH  10  11
ATOM     11  C   UNL     1      -6.971  -7.394   3.319  1.00  0.00     0.053 C 
BRANCH  11  12
ATOM     12  C   UNL     1      -5.653  -7.067   3.947  1.00  0.00     0.041 C 
ATOM     13  O   UNL     1      -4.922  -6.167   3.456  1.00  0.00    -0.550 OA
ATOM     14  O   UNL     1      -5.208  -7.792   5.047  1.00  0.00    -0.550 OA
ENDBRANCH  11  12
ENDBRANCH  10  11
ENDBRANCH   9  10
ENDBRANCH   8   9
ENDBRANCH   1   8
TORSDOF 9
ENDMDL
MODEL 8
REMARK VINA RESULT:    -2.197      3.171      5.693
REMARK INTER + INTRA:          -3.973
REMARK INTER:                  -3.401
REMARK INTRA:                  -0.572
REMARK UNBOUND:                -0.620
REMARK SMILES O=C([O-])CCCCCCCCC(=O)[O-]
REMARK SMILES IDX 7 1 6 2 5 3 4 4 2 5 1 6 3 7 8 8 9 9 10 10 11 11 12 12 13 13
REMARK SMILES IDX 14 14
REMARK H PARENT
REMARK Flexibility Score: inf
ROOT
ATOM      1  C   UNL     1      -4.669  -8.838   3.092  1.00  0.00     0.000 C 
ENDROOT
BRANCH   1   2
ATOM      2  C   UNL     1      -4.454 -10.039   2.157  1.00  0.00     0.000 C 
BRANCH   2   3
ATOM      3  C   UNL     1      -5.795 -10.666   1.753  1.00  0.00     0.006 C 
BRANCH   3   4
ATOM      4  C   UNL     1      -5.883 -10.930   0.243  1.00  0.00     0.053 C 
BRANCH   4   5
ATOM      5  C   UNL     1      -6.702  -9.889  -0.457  1.00  0.00     0.041 C 
ATOM      6  O   UNL     1      -7.104 -10.086  -1.633  1.00  0.00    -0.550 OA
ATOM      7  O   UNL     1      -6.993  -8.688   0.179  1.00  0.00    -0.550 OA
ENDBRANCH   4   5
ENDBRANCH   3   4
ENDBRANCH   2   3
ENDBRANCH   1   2
BRANCH   1   8
ATOM      8  C   UNL     1      -6.031  -8.874   3.803  1.00  0.00     0.000 C 
BRANCH   8   9
ATOM      9  C   UNL     1      -6.829  -7.573   3.619  1.00  0.00     0.000 C 
BRANCH   9  10
ATOM     10  C   UNL     1      -6.502  -6.523   4.694  1.00  0.00     0.006 C 
BRANCH  10  11
ATOM     11  C   UNL     1      -6.547  -5.088   4.155  1.00  0.00     0.053 C 
BRANCH  11  12
ATOM     12  C   UNL     1      -5.220  -4.704   3.582  1.00  0.00     0.041 C 
ATOM     13  O   UNL     1      -4.230  -5.474   3.703  1.00  0.00    -0.550 OA
ATOM     14  O   UNL     1      -5.061  -3.473   2.957  1.00  0.00    -0.550 OA
ENDBRANCH  11  12
ENDBRANCH  10  11
ENDBRANCH   9  10
ENDBRANCH   8   9
ENDBRANCH   1   8
TORSDOF 9
ENDMDL
