MODEL 1
REMARK VINA RESULT:    -3.570      0.000      0.000
REMARK INTER + INTRA:          -4.279
REMARK INTER:                  -4.196
REMARK INTRA:                  -0.082
REMARK UNBOUND:                -0.082
REMARK SMILES CCCCC(=O)[O-]
REMARK SMILES IDX 4 1 5 2 6 3 7 4 3 5 2 6 1 7
REMARK H PARENT
REMARK Flexibility Score: inf
ROOT
ATOM      1  C   UNL     1     -10.283 -18.921  29.657  1.00  0.00     0.053 C 
ENDROOT
BRANCH   1   2
ATOM      2  C   UNL     1     -10.305 -18.538  31.103  1.00  0.00     0.041 C 
ATOM      3  O   UNL     1      -9.347 -17.894  31.603  1.00  0.00    -0.550 OA
ATOM      4  O   UNL     1     -11.364 -18.934  31.911  1.00  0.00    -0.550 OA
ENDBRANCH   1   2
BRANCH   1   5
ATOM      5  C   UNL     1     -11.637 -18.631  29.004  1.00  0.00     0.006 C 
BRANCH   5   6
ATOM      6  C   UNL     1     -11.675 -17.213  28.423  1.00  0.00    -0.003 C 
ATOM      7  C   UNL     1     -12.966 -16.495  28.805  1.00  0.00     0.004 C 
ENDBRANCH   5   6
ENDBRANCH   1   5
TORSDOF 3
ENDMDL
MODEL 2
REMARK VINA RESULT:    -3.570      0.293      1.255
REMARK INTER + INTRA:          -4.278
REMARK INTER:                  -4.160
REMARK INTRA:                  -0.118
REMARK UNBOUND:                -0.082
REMARK SMILES CCCCC(=O)[O-]
REMARK SMILES IDX 4 1 5 2 6 3 7 4 3 5 2 6 1 7
REMARK H PARENT
REMARK Flexibility Score: inf
ROOT
ATOM      1  C   UNL     1     -10.310 -18.980  29.625  1.00  0.00     0.053 C 
ENDROOT
BRANCH   1   2
ATOM      2  C   UNL     1     -10.265 -18.595  31.070  1.00  0.00     0.041 C 
ATOM      3  O   UNL     1     -11.153 -19.001  31.864  1.00  0.00    -0.550 OA
ATOM      4  O   UNL     1      -9.267 -17.745  31.532  1.00  0.00    -0.550 OA
ENDBRANCH   1   2
BRANCH   1   5
ATOM      5  C   UNL     1     -11.620 -18.509  28.986  1.00  0.00     0.006 C 
BRANCH   5   6
ATOM      6  C   UNL     1     -11.539 -17.029  28.592  1.00  0.00    -0.003 C 
ATOM      7  C   UNL     1     -12.634 -16.216  29.276  1.00  0.00     0.004 C 
ENDBRANCH   5   6
ENDBRANCH   1   5
TORSDOF 3
ENDMDL
MODEL 3
REMARK VINA RESULT:    -3.561      1.457      1.897
REMARK INTER + INTRA:          -4.268
REMARK INTER:                  -4.187
REMARK INTRA:                  -0.081
REMARK UNBOUND:                -0.082
REMARK SMILES CCCCC(=O)[O-]
REMARK SMILES IDX 4 1 5 2 6 3 7 4 3 5 2 6 1 7
REMARK H PARENT
REMARK Flexibility Score: inf
ROOT
ATOM      1  C   UNL     1     -10.754 -16.761  29.652  1.00  0.00     0.053 C 
ENDROOT
BRANCH   1   2
ATOM      2  C   UNL     1     -10.534 -18.104  30.274  1.00  0.00     0.041 C 
ATOM      3  O   UNL     1     -10.236 -19.094  29.556  1.00  0.00    -0.550 OA
ATOM      4  O   UNL     1     -10.705 -18.273  31.642  1.00  0.00    -0.550 OA
ENDBRANCH   1   2
BRANCH   1   5
ATOM      5  C   UNL     1     -12.184 -16.279  29.910  1.00  0.00     0.006 C 
BRANCH   5   6
ATOM      6  C   UNL     1     -13.024 -16.338  28.629  1.00  0.00    -0.003 C 
ATOM      7  C   UNL     1     -12.137 -16.337  27.388  1.00  0.00     0.004 C 
ENDBRANCH   5   6
ENDBRANCH   1   5
TORSDOF 3
ENDMDL
MODEL 4
REMARK VINA RESULT:    -3.547      3.671      4.369
REMARK INTER + INTRA:          -4.251
REMARK INTER:                  -4.166
REMARK INTRA:                  -0.085
REMARK UNBOUND:                -0.082
REMARK SMILES CCCCC(=O)[O-]
REMARK SMILES IDX 4 1 5 2 6 3 7 4 3 5 2 6 1 7
REMARK H PARENT
REMARK Flexibility Score: inf
ROOT
ATOM      1  C   UNL     1     -11.592 -16.862  28.364  1.00  0.00     0.053 C 
ENDROOT
BRANCH   1   2
ATOM      2  C   UNL     1     -11.831 -16.066  27.120  1.00  0.00     0.041 C 
ATOM      3  O   UNL     1     -12.990 -15.974  26.639  1.00  0.00    -0.550 OA
ATOM      4  O   UNL     1     -10.764 -15.465  26.465  1.00  0.00    -0.550 OA
ENDBRANCH   1   2
BRANCH   1   5
ATOM      5  C   UNL     1     -12.228 -16.171  29.574  1.00  0.00     0.006 C 
BRANCH   5   6
ATOM      6  C   UNL     1     -13.314 -17.053  30.202  1.00  0.00    -0.003 C 
ATOM      7  C   UNL     1     -13.057 -18.530  29.919  1.00  0.00     0.004 C 
ENDBRANCH   5   6
ENDBRANCH   1   5
TORSDOF 3
ENDMDL
MODEL 5
REMARK VINA RESULT:    -3.538      1.604      2.132
REMARK INTER + INTRA:          -4.241
REMARK INTER:                  -4.128
REMARK INTRA:                  -0.113
REMARK UNBOUND:                -0.082
REMARK SMILES CCCCC(=O)[O-]
REMARK SMILES IDX 4 1 5 2 6 3 7 4 3 5 2 6 1 7
REMARK H PARENT
REMARK Flexibility Score: inf
ROOT
ATOM      1  C   UNL     1      -9.850 -18.178  31.544  1.00  0.00     0.053 C 
ENDROOT
BRANCH   1   2
ATOM      2  C   UNL     1     -10.991 -18.224  32.510  1.00  0.00     0.041 C 
ATOM      3  O   UNL     1     -11.490 -19.328  32.851  1.00  0.00    -0.550 OA
ATOM      4  O   UNL     1     -11.537 -17.043  32.997  1.00  0.00    -0.550 OA
ENDBRANCH   1   2
BRANCH   1   5
ATOM      5  C   UNL     1     -10.182 -18.980  30.282  1.00  0.00     0.006 C 
BRANCH   5   6
ATOM      6  C   UNL     1     -11.092 -18.178  29.345  1.00  0.00    -0.003 C 
ATOM      7  C   UNL     1     -10.556 -16.766  29.131  1.00  0.00     0.004 C 
ENDBRANCH   5   6
ENDBRANCH   1   5
TORSDOF 3
ENDMDL
MODEL 6
REMARK VINA RESULT:    -3.516      1.982      3.473
REMARK INTER + INTRA:          -4.215
REMARK INTER:                  -4.109
REMARK INTRA:                  -0.106
REMARK UNBOUND:                -0.082
REMARK SMILES CCCCC(=O)[O-]
REMARK SMILES IDX 4 1 5 2 6 3 7 4 3 5 2 6 1 7
REMARK H PARENT
REMARK Flexibility Score: inf
ROOT
ATOM      1  C   UNL     1     -10.456 -18.670  29.673  1.00  0.00     0.053 C 
ENDROOT
BRANCH   1   2
ATOM      2  C   UNL     1     -11.786 -17.988  29.604  1.00  0.00     0.041 C 
ATOM      3  O   UNL     1     -12.841 -18.631  29.843  1.00  0.00    -0.550 OA
ATOM      4  O   UNL     1     -11.864 -16.654  29.227  1.00  0.00    -0.550 OA
ENDBRANCH   1   2
BRANCH   1   5
ATOM      5  C   UNL     1     -10.109 -19.023  31.123  1.00  0.00     0.006 C 
BRANCH   5   6
ATOM      6  C   UNL     1     -10.039 -17.764  31.994  1.00  0.00    -0.003 C 
ATOM      7  C   UNL     1      -8.669 -17.099  31.894  1.00  0.00     0.004 C 
ENDBRANCH   5   6
ENDBRANCH   1   5
TORSDOF 3
ENDMDL
MODEL 7
REMARK VINA RESULT:    -3.511      2.541      3.617
REMARK INTER + INTRA:          -4.210
REMARK INTER:                  -4.155
REMARK INTRA:                  -0.055
REMARK UNBOUND:                -0.082
REMARK SMILES CCCCC(=O)[O-]
REMARK SMILES IDX 4 1 5 2 6 3 7 4 3 5 2 6 1 7
REMARK H PARENT
REMARK Flexibility Score: inf
ROOT
ATOM      1  C   UNL     1     -10.658 -17.219  29.239  1.00  0.00     0.053 C 
ENDROOT
BRANCH   1   2
ATOM      2  C   UNL     1     -11.915 -16.913  28.487  1.00  0.00     0.041 C 
ATOM      3  O   UNL     1     -11.858 -16.441  27.322  1.00  0.00    -0.550 OA
ATOM      4  O   UNL     1     -13.151 -17.105  29.092  1.00  0.00    -0.550 OA
ENDBRANCH   1   2
BRANCH   1   5
ATOM      5  C   UNL     1     -10.579 -18.712  29.569  1.00  0.00     0.006 C 
BRANCH   5   6
ATOM      6  C   UNL     1     -10.060 -18.934  30.994  1.00  0.00    -0.003 C 
ATOM      7  C   UNL     1      -9.433 -17.662  31.557  1.00  0.00     0.004 C 
ENDBRANCH   5   6
ENDBRANCH   1   5
TORSDOF 3
ENDMDL
MODEL 8
REMARK VINA RESULT:    -3.446      2.228      3.533
REMARK INTER + INTRA:          -4.133
REMARK INTER:                  -4.035
REMARK INTRA:                  -0.098
REMARK UNBOUND:                -0.082
REMARK SMILES CCCCC(=O)[O-]
REMARK SMILES IDX 4 1 5 2 6 3 7 4 3 5 2 6 1 7
REMARK H PARENT
REMARK Flexibility Score: inf
ROOT
ATOM      1  C   UNL     1     -11.226 -17.032  29.715  1.00  0.00     0.053 C 
ENDROOT
BRANCH   1   2
ATOM      2  C   UNL     1     -12.714 -16.880  29.753  1.00  0.00     0.041 C 
ATOM      3  O   UNL     1     -13.354 -17.168  30.798  1.00  0.00    -0.550 OA
ATOM      4  O   UNL     1     -13.399 -16.467  28.618  1.00  0.00    -0.550 OA
ENDBRANCH   1   2
BRANCH   1   5
ATOM      5  C   UNL     1     -10.838 -18.513  29.669  1.00  0.00     0.006 C 
BRANCH   5   6
ATOM      6  C   UNL     1     -10.053 -18.914  30.924  1.00  0.00    -0.003 C 
ATOM      7  C   UNL     1      -9.542 -17.686  31.671  1.00  0.00     0.004 C 
ENDBRANCH   5   6
ENDBRANCH   1   5
TORSDOF 3
ENDMDL
MODEL 9
REMARK VINA RESULT:    -3.393      3.560      4.322
REMARK INTER + INTRA:          -4.070
REMARK INTER:                  -4.025
REMARK INTRA:                  -0.046
REMARK UNBOUND:                -0.082
REMARK SMILES CCCCC(=O)[O-]
REMARK SMILES IDX 4 1 5 2 6 3 7 4 3 5 2 6 1 7
REMARK H PARENT
REMARK Flexibility Score: inf
ROOT
ATOM      1  C   UNL     1     -11.527 -16.756  28.475  1.00  0.00     0.053 C 
ENDROOT
BRANCH   1   2
ATOM      2  C   UNL     1     -11.736 -16.079  27.158  1.00  0.00     0.041 C 
ATOM      3  O   UNL     1     -10.757 -15.596  26.530  1.00  0.00    -0.550 OA
ATOM      4  O   UNL     1     -13.019 -15.937  26.645  1.00  0.00    -0.550 OA
ENDBRANCH   1   2
BRANCH   1   5
ATOM      5  C   UNL     1     -12.270 -16.009  29.587  1.00  0.00     0.006 C 
BRANCH   5   6
ATOM      6  C   UNL     1     -11.567 -16.193  30.937  1.00  0.00    -0.003 C 
ATOM      7  C   UNL     1     -10.099 -16.562  30.749  1.00  0.00     0.004 C 
ENDBRANCH   5   6
ENDBRANCH   1   5
TORSDOF 3
ENDMDL
