MODEL 1
REMARK VINA RESULT:    -4.129      0.000      0.000
REMARK INTER + INTRA:          -4.894
REMARK INTER:                  -4.733
REMARK INTRA:                  -0.162
REMARK UNBOUND:                -0.162
REMARK SMILES CC=Cc1ccc(O)c(OC)c1
REMARK SMILES IDX 4 1 12 2 9 3 7 4 6 5 5 6 3 7 1 8 2 9 10 10 11 11 8 12
REMARK H PARENT 8 13
REMARK Flexibility Score: inf
ROOT
ATOM      1  C   UNL     1      28.884  30.563  24.483  1.00  0.00    -0.022 A 
ATOM      2  C   UNL     1      28.772  29.169  24.346  1.00  0.00     0.058 A 
ATOM      3  C   UNL     1      28.823  28.326  25.474  1.00  0.00     0.161 A 
ATOM      4  C   UNL     1      28.998  28.890  26.745  1.00  0.00     0.157 A 
ATOM      5  C   UNL     1      29.125  30.277  26.886  1.00  0.00     0.051 A 
ATOM      6  C   UNL     1      29.073  31.109  25.767  1.00  0.00     0.012 A 
ENDROOT
BRANCH   1   7
ATOM      7  C   UNL     1      28.832  31.403  23.259  1.00  0.00     0.003 C 
ATOM      8  C   UNL     1      28.839  33.515  21.990  1.00  0.00     0.035 C 
ATOM      9  C   UNL     1      28.913  32.739  23.266  1.00  0.00    -0.030 C 
ENDBRANCH   1   7
BRANCH   3  10
ATOM     10  O   UNL     1      28.705  26.931  25.372  1.00  0.00    -0.493 OA
ATOM     11  C   UNL     1      27.471  26.221  25.402  1.00  0.00     0.278 C 
ENDBRANCH   3  10
BRANCH   4  12
ATOM     12  O   UNL     1      29.049  28.061  27.865  1.00  0.00    -0.504 OA
ATOM     13  H   UNL     1      29.930  27.795  28.288  1.00  0.00     0.293 HD
ENDBRANCH   4  12
TORSDOF 3
ENDMDL
MODEL 2
REMARK VINA RESULT:    -3.766      2.644      4.360
REMARK INTER + INTRA:          -4.478
REMARK INTER:                  -4.303
REMARK INTRA:                  -0.175
REMARK UNBOUND:                -0.162
REMARK SMILES CC=Cc1ccc(O)c(OC)c1
REMARK SMILES IDX 4 1 12 2 9 3 7 4 6 5 5 6 3 7 1 8 2 9 10 10 11 11 8 12
REMARK H PARENT 8 13
REMARK Flexibility Score: inf
ROOT
ATOM      1  C   UNL     1      27.838  27.067  25.607  1.00  0.00    -0.022 A 
ATOM      2  C   UNL     1      26.676  26.327  25.883  1.00  0.00     0.058 A 
ATOM      3  C   UNL     1      26.733  24.931  26.057  1.00  0.00     0.161 A 
ATOM      4  C   UNL     1      27.966  24.274  25.942  1.00  0.00     0.157 A 
ATOM      5  C   UNL     1      29.125  25.004  25.651  1.00  0.00     0.051 A 
ATOM      6  C   UNL     1      29.064  26.388  25.480  1.00  0.00     0.012 A 
ENDROOT
BRANCH   1   7
ATOM      7  C   UNL     1      27.717  28.536  25.424  1.00  0.00     0.003 C 
ATOM      8  C   UNL     1      28.374  30.747  24.555  1.00  0.00     0.035 C 
ATOM      9  C   UNL     1      28.555  29.267  24.678  1.00  0.00    -0.030 C 
ENDBRANCH   1   7
BRANCH   3  10
ATOM     10  O   UNL     1      25.593  24.164  26.344  1.00  0.00    -0.493 OA
ATOM     11  C   UNL     1      25.037  23.999  27.645  1.00  0.00     0.278 C 
ENDBRANCH   3  10
BRANCH   4  12
ATOM     12  O   UNL     1      28.029  22.892  26.113  1.00  0.00    -0.504 OA
ATOM     13  H   UNL     1      27.326  22.276  25.721  1.00  0.00     0.293 HD
ENDBRANCH   4  12
TORSDOF 3
ENDMDL
MODEL 3
REMARK VINA RESULT:    -3.465      2.138      3.413
REMARK INTER + INTRA:          -4.133
REMARK INTER:                  -4.063
REMARK INTRA:                  -0.070
REMARK UNBOUND:                -0.162
REMARK SMILES CC=Cc1ccc(O)c(OC)c1
REMARK SMILES IDX 4 1 12 2 9 3 7 4 6 5 5 6 3 7 1 8 2 9 10 10 11 11 8 12
REMARK H PARENT 8 13
REMARK Flexibility Score: inf
ROOT
ATOM      1  C   UNL     1      29.090  33.193  22.409  1.00  0.00    -0.022 A 
ATOM      2  C   UNL     1      29.081  31.796  22.553  1.00  0.00     0.058 A 
ATOM      3  C   UNL     1      29.071  31.202  23.831  1.00  0.00     0.161 A 
ATOM      4  C   UNL     1      29.082  32.019  24.968  1.00  0.00     0.157 A 
ATOM      5  C   UNL     1      29.107  33.412  24.831  1.00  0.00     0.051 A 
ATOM      6  C   UNL     1      29.115  33.998  23.564  1.00  0.00     0.012 A 
ENDROOT
BRANCH   1   7
ATOM      7  C   UNL     1      29.109  33.765  21.039  1.00  0.00     0.003 C 
ATOM      8  C   UNL     1      29.068  35.574  19.365  1.00  0.00     0.035 C 
ATOM      9  C   UNL     1      29.059  35.077  20.776  1.00  0.00    -0.030 C 
ENDBRANCH   1   7
BRANCH   3  10
ATOM     10  O   UNL     1      29.052  29.809  24.009  1.00  0.00    -0.493 OA
ATOM     11  C   UNL     1      27.893  29.055  24.349  1.00  0.00     0.278 C 
ENDBRANCH   3  10
BRANCH   4  12
ATOM     12  O   UNL     1      29.072  31.438  26.235  1.00  0.00    -0.504 OA
ATOM     13  H   UNL     1      28.953  30.439  26.359  1.00  0.00     0.293 HD
ENDBRANCH   4  12
TORSDOF 3
ENDMDL
MODEL 4
REMARK VINA RESULT:    -3.463      1.297      2.394
REMARK INTER + INTRA:          -4.131
REMARK INTER:                  -4.027
REMARK INTRA:                  -0.104
REMARK UNBOUND:                -0.162
REMARK SMILES CC=Cc1ccc(O)c(OC)c1
REMARK SMILES IDX 4 1 12 2 9 3 7 4 6 5 5 6 3 7 1 8 2 9 10 10 11 11 8 12
REMARK H PARENT 8 13
REMARK Flexibility Score: inf
ROOT
ATOM      1  C   UNL     1      28.558  30.757  23.935  1.00  0.00    -0.022 A 
ATOM      2  C   UNL     1      29.068  30.454  25.209  1.00  0.00     0.058 A 
ATOM      3  C   UNL     1      28.559  29.371  25.952  1.00  0.00     0.161 A 
ATOM      4  C   UNL     1      27.523  28.596  25.414  1.00  0.00     0.157 A 
ATOM      5  C   UNL     1      27.000  28.901  24.153  1.00  0.00     0.051 A 
ATOM      6  C   UNL     1      27.507  29.975  23.418  1.00  0.00     0.012 A 
ENDROOT
BRANCH   1   7
ATOM      7  C   UNL     1      29.125  31.915  23.200  1.00  0.00     0.003 C 
ATOM      8  C   UNL     1      29.082  34.153  22.168  1.00  0.00     0.035 C 
ATOM      9  C   UNL     1      28.443  33.034  22.927  1.00  0.00    -0.030 C 
ENDBRANCH   1   7
BRANCH   3  10
ATOM     10  O   UNL     1      29.054  29.037  27.222  1.00  0.00    -0.493 OA
ATOM     11  C   UNL     1      28.464  29.446  28.453  1.00  0.00     0.278 C 
ENDBRANCH   3  10
BRANCH   4  12
ATOM     12  O   UNL     1      27.016  27.522  26.145  1.00  0.00    -0.504 OA
ATOM     13  H   UNL     1      26.747  27.622  27.117  1.00  0.00     0.293 HD
ENDBRANCH   4  12
TORSDOF 3
ENDMDL
MODEL 5
REMARK VINA RESULT:    -3.370      1.923      5.257
REMARK INTER + INTRA:          -4.024
REMARK INTER:                  -4.068
REMARK INTRA:                   0.044
REMARK UNBOUND:                -0.162
REMARK SMILES CC=Cc1ccc(O)c(OC)c1
REMARK SMILES IDX 4 1 12 2 9 3 7 4 6 5 5 6 3 7 1 8 2 9 10 10 11 11 8 12
REMARK H PARENT 8 13
REMARK Flexibility Score: inf
ROOT
ATOM      1  C   UNL     1      28.042  26.908  25.712  1.00  0.00    -0.022 A 
ATOM      2  C   UNL     1      27.670  27.947  24.843  1.00  0.00     0.058 A 
ATOM      3  C   UNL     1      28.032  29.281  25.116  1.00  0.00     0.161 A 
ATOM      4  C   UNL     1      28.763  29.571  26.275  1.00  0.00     0.157 A 
ATOM      5  C   UNL     1      29.124  28.542  27.153  1.00  0.00     0.051 A 
ATOM      6  C   UNL     1      28.764  27.221  26.880  1.00  0.00     0.012 A 
ENDROOT
BRANCH   1   7
ATOM      7  C   UNL     1      27.626  25.521  25.380  1.00  0.00     0.003 C 
ATOM      8  C   UNL     1      26.443  23.390  25.744  1.00  0.00     0.035 C 
ATOM      9  C   UNL     1      26.805  24.786  26.140  1.00  0.00    -0.030 C 
ENDBRANCH   1   7
BRANCH   3  10
ATOM     10  O   UNL     1      27.685  30.340  24.263  1.00  0.00    -0.493 OA
ATOM     11  C   UNL     1      28.613  31.082  23.478  1.00  0.00     0.278 C 
ENDBRANCH   3  10
BRANCH   4  12
ATOM     12  O   UNL     1      29.125  30.889  26.550  1.00  0.00    -0.504 OA
ATOM     13  H   UNL     1      30.096  31.161  26.655  1.00  0.00     0.293 HD
ENDBRANCH   4  12
TORSDOF 3
ENDMDL
MODEL 6
REMARK VINA RESULT:    -2.751      4.084      7.862
REMARK INTER + INTRA:          -3.315
REMARK INTER:                  -3.135
REMARK INTRA:                  -0.179
REMARK UNBOUND:                -0.162
REMARK SMILES CC=Cc1ccc(O)c(OC)c1
REMARK SMILES IDX 4 1 12 2 9 3 7 4 6 5 5 6 3 7 1 8 2 9 10 10 11 11 8 12
REMARK H PARENT 8 13
REMARK Flexibility Score: inf
ROOT
ATOM      1  C   UNL     1      25.453  23.797  26.307  1.00  0.00    -0.022 A 
ATOM      2  C   UNL     1      26.467  24.671  26.733  1.00  0.00     0.058 A 
ATOM      3  C   UNL     1      27.697  24.739  26.049  1.00  0.00     0.161 A 
ATOM      4  C   UNL     1      27.910  23.914  24.937  1.00  0.00     0.157 A 
ATOM      5  C   UNL     1      26.910  23.030  24.517  1.00  0.00     0.051 A 
ATOM      6  C   UNL     1      25.692  22.966  25.196  1.00  0.00     0.012 A 
ENDROOT
BRANCH   1   7
ATOM      7  C   UNL     1      24.180  23.760  27.071  1.00  0.00     0.003 C 
ATOM      8  C   UNL     1      21.941  22.912  27.653  1.00  0.00     0.035 C 
ATOM      9  C   UNL     1      23.201  22.875  26.849  1.00  0.00    -0.030 C 
ENDBRANCH   1   7
BRANCH   3  10
ATOM     10  O   UNL     1      28.726  25.609  26.444  1.00  0.00    -0.493 OA
ATOM     11  C   UNL     1      28.785  26.992  26.112  1.00  0.00     0.278 C 
ENDBRANCH   3  10
BRANCH   4  12
ATOM     12  O   UNL     1      29.125  23.977  24.255  1.00  0.00    -0.504 OA
ATOM     13  H   UNL     1      29.527  24.862  23.968  1.00  0.00     0.293 HD
ENDBRANCH   4  12
TORSDOF 3
ENDMDL
MODEL 7
REMARK VINA RESULT:    -2.534      2.006      3.167
REMARK INTER + INTRA:          -3.066
REMARK INTER:                  -3.096
REMARK INTRA:                   0.029
REMARK UNBOUND:                -0.162
REMARK SMILES CC=Cc1ccc(O)c(OC)c1
REMARK SMILES IDX 4 1 12 2 9 3 7 4 6 5 5 6 3 7 1 8 2 9 10 10 11 11 8 12
REMARK H PARENT 8 13
REMARK Flexibility Score: inf
ROOT
ATOM      1  C   UNL     1      28.457  28.098  25.304  1.00  0.00    -0.022 A 
ATOM      2  C   UNL     1      29.084  26.874  25.016  1.00  0.00     0.058 A 
ATOM      3  C   UNL     1      28.528  25.656  25.455  1.00  0.00     0.161 A 
ATOM      4  C   UNL     1      27.340  25.672  26.197  1.00  0.00     0.157 A 
ATOM      5  C   UNL     1      26.718  26.889  26.500  1.00  0.00     0.051 A 
ATOM      6  C   UNL     1      27.271  28.093  26.063  1.00  0.00     0.012 A 
ENDROOT
BRANCH   1   7
ATOM      7  C   UNL     1      29.092  29.351  24.824  1.00  0.00     0.003 C 
ATOM      8  C   UNL     1      29.123  31.635  23.899  1.00  0.00     0.035 C 
ATOM      9  C   UNL     1      28.408  30.412  24.379  1.00  0.00    -0.030 C 
ENDBRANCH   1   7
BRANCH   3  10
ATOM     10  O   UNL     1      29.125  24.417  25.175  1.00  0.00    -0.493 OA
ATOM     11  C   UNL     1      28.585  23.442  24.287  1.00  0.00     0.278 C 
ENDBRANCH   3  10
BRANCH   4  12
ATOM     12  O   UNL     1      26.784  24.470  26.634  1.00  0.00    -0.504 OA
ATOM     13  H   UNL     1      26.634  24.283  27.618  1.00  0.00     0.293 HD
ENDBRANCH   4  12
TORSDOF 3
ENDMDL
MODEL 8
REMARK VINA RESULT:    -2.264      5.481      7.662
REMARK INTER + INTRA:          -2.756
REMARK INTER:                  -2.663
REMARK INTRA:                  -0.093
REMARK UNBOUND:                -0.162
REMARK SMILES CC=Cc1ccc(O)c(OC)c1
REMARK SMILES IDX 4 1 12 2 9 3 7 4 6 5 5 6 3 7 1 8 2 9 10 10 11 11 8 12
REMARK H PARENT 8 13
REMARK Flexibility Score: inf
ROOT
ATOM      1  C   UNL     1      25.774  24.133  26.509  1.00  0.00    -0.022 A 
ATOM      2  C   UNL     1      25.148  25.096  27.318  1.00  0.00     0.058 A 
ATOM      3  C   UNL     1      23.802  24.948  27.706  1.00  0.00     0.161 A 
ATOM      4  C   UNL     1      23.079  23.830  27.269  1.00  0.00     0.157 A 
ATOM      5  C   UNL     1      23.693  22.875  26.450  1.00  0.00     0.051 A 
ATOM      6  C   UNL     1      25.027  23.024  26.068  1.00  0.00     0.012 A 
ENDROOT
BRANCH   1   7
ATOM      7  C   UNL     1      27.192  24.344  26.123  1.00  0.00     0.003 C 
ATOM      8  C   UNL     1      29.118  25.634  25.285  1.00  0.00     0.035 C 
ATOM      9  C   UNL     1      27.677  25.505  25.668  1.00  0.00    -0.030 C 
ENDBRANCH   1   7
BRANCH   3  10
ATOM     10  O   UNL     1      23.150  25.887  28.522  1.00  0.00    -0.493 OA
ATOM     11  C   UNL     1      22.298  26.922  28.041  1.00  0.00     0.278 C 
ENDBRANCH   3  10
BRANCH   4  12
ATOM     12  O   UNL     1      21.747  23.678  27.650  1.00  0.00    -0.504 OA
ATOM     13  H   UNL     1      21.209  22.862  27.382  1.00  0.00     0.293 HD
ENDBRANCH   4  12
TORSDOF 3
ENDMDL
MODEL 9
REMARK VINA RESULT:    -2.156      2.666      5.442
REMARK INTER + INTRA:          -2.632
REMARK INTER:                  -3.370
REMARK INTRA:                   0.737
REMARK UNBOUND:                -0.162
REMARK SMILES CC=Cc1ccc(O)c(OC)c1
REMARK SMILES IDX 4 1 12 2 9 3 7 4 6 5 5 6 3 7 1 8 2 9 10 10 11 11 8 12
REMARK H PARENT 8 13
REMARK Flexibility Score: inf
ROOT
ATOM      1  C   UNL     1      28.559  29.236  24.967  1.00  0.00    -0.022 A 
ATOM      2  C   UNL     1      28.751  30.538  25.458  1.00  0.00     0.058 A 
ATOM      3  C   UNL     1      28.937  31.622  24.577  1.00  0.00     0.161 A 
ATOM      4  C   UNL     1      28.942  31.390  23.195  1.00  0.00     0.157 A 
ATOM      5  C   UNL     1      28.767  30.093  22.700  1.00  0.00     0.051 A 
ATOM      6  C   UNL     1      28.582  29.021  23.576  1.00  0.00     0.012 A 
ENDROOT
BRANCH   1   7
ATOM      7  C   UNL     1      28.377  28.130  25.941  1.00  0.00     0.003 C 
ATOM      8  C   UNL     1      28.533  25.807  26.748  1.00  0.00     0.035 C 
ATOM      9  C   UNL     1      28.765  26.868  25.721  1.00  0.00    -0.030 C 
ENDBRANCH   1   7
BRANCH   3  10
ATOM     10  O   UNL     1      29.120  32.936  25.035  1.00  0.00    -0.493 OA
ATOM     11  C   UNL     1      28.833  34.104  24.273  1.00  0.00     0.278 C 
ENDBRANCH   3  10
BRANCH   4  12
ATOM     12  O   UNL     1      29.125  32.459  22.318  1.00  0.00    -0.504 OA
ATOM     13  H   UNL     1      29.197  32.317  21.317  1.00  0.00     0.293 HD
ENDBRANCH   4  12
TORSDOF 3
ENDMDL
