MODEL 1
REMARK VINA RESULT:    -6.055      0.000      0.000
REMARK INTER + INTRA:         -12.282
REMARK INTER:                 -11.364
REMARK INTRA:                  -0.918
REMARK UNBOUND:                -0.918
REMARK SMILES CCCCCCCCC=CCCCCCCCC(=O)[O-]
REMARK SMILES IDX 10 1 9 2 11 3 12 4 13 5 14 6 15 7 16 8 17 9 18 10 19 11
REMARK SMILES IDX 20 12 8 13 7 14 6 15 5 16 4 17 3 18 2 19 1 20
REMARK H PARENT
REMARK Flexibility Score: inf
ROOT
ATOM      1  C   UNL     1      24.752 138.653 352.997  1.00  0.00    -0.031 C 
ATOM      2  C   UNL     1      23.897 139.582 353.466  1.00  0.00    -0.031 C 
ENDROOT
BRANCH   1   3
ATOM      3  C   UNL     1      24.806 138.179 351.565  1.00  0.00     0.027 C 
BRANCH   3   4
ATOM      4  C   UNL     1      24.788 136.648 351.467  1.00  0.00     0.004 C 
BRANCH   4   5
ATOM      5  C   UNL     1      25.261 135.977 352.765  1.00  0.00     0.000 C 
BRANCH   5   6
ATOM      6  C   UNL     1      26.728 135.541 352.657  1.00  0.00     0.000 C 
BRANCH   6   7
ATOM      7  C   UNL     1      27.418 135.596 354.027  1.00  0.00     0.000 C 
BRANCH   7   8
ATOM      8  C   UNL     1      28.946 135.739 353.913  1.00  0.00     0.006 C 
BRANCH   8   9
ATOM      9  C   UNL     1      29.670 134.394 354.048  1.00  0.00     0.053 C 
BRANCH   9  10
ATOM     10  C   UNL     1      30.490 134.115 352.828  1.00  0.00     0.041 C 
ATOM     11  O   UNL     1      30.281 134.757 351.765  1.00  0.00    -0.550 OA
ATOM     12  O   UNL     1      31.514 133.178 352.876  1.00  0.00    -0.550 OA
ENDBRANCH   9  10
ENDBRANCH   8   9
ENDBRANCH   7   8
ENDBRANCH   6   7
ENDBRANCH   5   6
ENDBRANCH   4   5
ENDBRANCH   3   4
ENDBRANCH   1   3
BRANCH   2  13
ATOM     13  C   UNL     1      22.929 140.367 352.616  1.00  0.00     0.027 C 
BRANCH  13  14
ATOM     14  C   UNL     1      22.512 141.684 353.286  1.00  0.00     0.004 C 
BRANCH  14  15
ATOM     15  C   UNL     1      22.188 142.781 352.257  1.00  0.00     0.000 C 
BRANCH  15  16
ATOM     16  C   UNL     1      20.694 143.152 352.225  1.00  0.00     0.000 C 
BRANCH  16  17
ATOM     17  C   UNL     1      20.160 143.818 353.506  1.00  0.00    -0.000 C 
BRANCH  17  18
ATOM     18  C   UNL     1      19.096 142.974 354.225  1.00  0.00    -0.000 C 
BRANCH  18  19
ATOM     19  C   UNL     1      17.748 143.059 353.500  1.00  0.00    -0.003 C 
ATOM     20  C   UNL     1      17.197 144.482 353.527  1.00  0.00     0.004 C 
ENDBRANCH  18  19
ENDBRANCH  17  18
ENDBRANCH  16  17
ENDBRANCH  15  16
ENDBRANCH  14  15
ENDBRANCH  13  14
ENDBRANCH   2  13
TORSDOF 15
ENDMDL
MODEL 2
REMARK VINA RESULT:    -5.846      5.251     10.630
REMARK INTER + INTRA:         -11.890
REMARK INTER:                 -10.668
REMARK INTRA:                  -1.222
REMARK UNBOUND:                -0.918
REMARK SMILES CCCCCCCCC=CCCCCCCCC(=O)[O-]
REMARK SMILES IDX 10 1 9 2 11 3 12 4 13 5 14 6 15 7 16 8 17 9 18 10 19 11
REMARK SMILES IDX 20 12 8 13 7 14 6 15 5 16 4 17 3 18 2 19 1 20
REMARK H PARENT
REMARK Flexibility Score: inf
ROOT
ATOM      1  C   UNL     1      23.147 139.566 350.998  1.00  0.00    -0.031 C 
ATOM      2  C   UNL     1      22.881 138.392 350.392  1.00  0.00    -0.031 C 
ENDROOT
BRANCH   1   3
ATOM      3  C   UNL     1      23.708 139.707 352.391  1.00  0.00     0.027 C 
BRANCH   3   4
ATOM      4  C   UNL     1      22.975 140.787 353.198  1.00  0.00     0.004 C 
BRANCH   4   5
ATOM      5  C   UNL     1      22.849 142.107 352.422  1.00  0.00     0.000 C 
BRANCH   5   6
ATOM      6  C   UNL     1      21.477 142.753 352.652  1.00  0.00     0.000 C 
BRANCH   6   7
ATOM      7  C   UNL     1      20.871 142.291 353.986  1.00  0.00     0.000 C 
BRANCH   7   8
ATOM      8  C   UNL     1      19.774 143.240 354.496  1.00  0.00     0.006 C 
BRANCH   8   9
ATOM      9  C   UNL     1      18.382 142.854 353.980  1.00  0.00     0.053 C 
BRANCH   9  10
ATOM     10  C   UNL     1      17.802 143.960 353.156  1.00  0.00     0.041 C 
ATOM     11  O   UNL     1      16.885 144.684 353.624  1.00  0.00    -0.550 OA
ATOM     12  O   UNL     1      18.305 144.221 351.888  1.00  0.00    -0.550 OA
ENDBRANCH   9  10
ENDBRANCH   8   9
ENDBRANCH   7   8
ENDBRANCH   6   7
ENDBRANCH   5   6
ENDBRANCH   4   5
ENDBRANCH   3   4
ENDBRANCH   1   3
BRANCH   2  13
ATOM     13  C   UNL     1      23.196 137.035 350.972  1.00  0.00     0.027 C 
BRANCH  13  14
ATOM     14  C   UNL     1      24.418 136.393 350.299  1.00  0.00     0.004 C 
BRANCH  14  15
ATOM     15  C   UNL     1      25.452 135.899 351.325  1.00  0.00     0.000 C 
BRANCH  15  16
ATOM     16  C   UNL     1      25.123 136.332 352.765  1.00  0.00     0.000 C 
BRANCH  16  17
ATOM     17  C   UNL     1      26.323 136.354 353.729  1.00  0.00    -0.000 C 
BRANCH  17  18
ATOM     18  C   UNL     1      27.327 135.221 353.467  1.00  0.00    -0.000 C 
BRANCH  18  19
ATOM     19  C   UNL     1      28.521 135.314 354.422  1.00  0.00    -0.003 C 
ATOM     20  C   UNL     1      29.840 135.153 353.671  1.00  0.00     0.004 C 
ENDBRANCH  18  19
ENDBRANCH  17  18
ENDBRANCH  16  17
ENDBRANCH  15  16
ENDBRANCH  14  15
ENDBRANCH  13  14
ENDBRANCH   2  13
TORSDOF 15
ENDMDL
MODEL 3
REMARK VINA RESULT:    -5.706      4.883     11.188
REMARK INTER + INTRA:         -11.628
REMARK INTER:                 -10.779
REMARK INTRA:                  -0.849
REMARK UNBOUND:                -0.918
REMARK SMILES CCCCCCCCC=CCCCCCCCC(=O)[O-]
REMARK SMILES IDX 10 1 9 2 11 3 12 4 13 5 14 6 15 7 16 8 17 9 18 10 19 11
REMARK SMILES IDX 20 12 8 13 7 14 6 15 5 16 4 17 3 18 2 19 1 20
REMARK H PARENT
REMARK Flexibility Score: inf
ROOT
ATOM      1  C   UNL     1      24.288 139.387 351.777  1.00  0.00    -0.031 C 
ATOM      2  C   UNL     1      24.808 138.152 351.916  1.00  0.00    -0.031 C 
ENDROOT
BRANCH   1   3
ATOM      3  C   UNL     1      23.388 140.059 352.784  1.00  0.00     0.027 C 
BRANCH   3   4
ATOM      4  C   UNL     1      23.335 141.580 352.580  1.00  0.00     0.004 C 
BRANCH   4   5
ATOM      5  C   UNL     1      21.898 142.121 352.623  1.00  0.00     0.000 C 
BRANCH   5   6
ATOM      6  C   UNL     1      21.521 142.573 354.040  1.00  0.00     0.000 C 
BRANCH   6   7
ATOM      7  C   UNL     1      20.040 142.286 354.330  1.00  0.00     0.000 C 
BRANCH   7   8
ATOM      8  C   UNL     1      19.134 143.489 354.018  1.00  0.00     0.006 C 
BRANCH   8   9
ATOM      9  C   UNL     1      17.984 143.124 353.070  1.00  0.00     0.053 C 
BRANCH   9  10
ATOM     10  C   UNL     1      18.213 143.717 351.716  1.00  0.00     0.041 C 
ATOM     11  O   UNL     1      17.569 144.736 351.354  1.00  0.00    -0.550 OA
ATOM     12  O   UNL     1      19.170 143.172 350.869  1.00  0.00    -0.550 OA
ENDBRANCH   9  10
ENDBRANCH   8   9
ENDBRANCH   7   8
ENDBRANCH   6   7
ENDBRANCH   5   6
ENDBRANCH   4   5
ENDBRANCH   3   4
ENDBRANCH   1   3
BRANCH   2  13
ATOM     13  C   UNL     1      24.653 137.288 353.144  1.00  0.00     0.027 C 
BRANCH  13  14
ATOM     14  C   UNL     1      25.986 136.655 353.573  1.00  0.00     0.004 C 
BRANCH  14  15
ATOM     15  C   UNL     1      26.492 135.623 352.550  1.00  0.00     0.000 C 
BRANCH  15  16
ATOM     16  C   UNL     1      27.548 134.667 353.135  1.00  0.00     0.000 C 
BRANCH  16  17
ATOM     17  C   UNL     1      28.527 135.310 354.135  1.00  0.00    -0.000 C 
BRANCH  17  18
ATOM     18  C   UNL     1      29.895 135.634 353.515  1.00  0.00    -0.000 C 
BRANCH  18  19
ATOM     19  C   UNL     1      30.399 134.467 352.658  1.00  0.00    -0.003 C 
ATOM     20  C   UNL     1      31.010 133.371 353.527  1.00  0.00     0.004 C 
ENDBRANCH  18  19
ENDBRANCH  17  18
ENDBRANCH  16  17
ENDBRANCH  15  16
ENDBRANCH  14  15
ENDBRANCH  13  14
ENDBRANCH   2  13
TORSDOF 15
ENDMDL
MODEL 4
REMARK VINA RESULT:    -5.695      1.193      1.854
REMARK INTER + INTRA:         -11.606
REMARK INTER:                 -10.670
REMARK INTRA:                  -0.936
REMARK UNBOUND:                -0.918
REMARK SMILES CCCCCCCCC=CCCCCCCCC(=O)[O-]
REMARK SMILES IDX 10 1 9 2 11 3 12 4 13 5 14 6 15 7 16 8 17 9 18 10 19 11
REMARK SMILES IDX 20 12 8 13 7 14 6 15 5 16 4 17 3 18 2 19 1 20
REMARK H PARENT
REMARK Flexibility Score: inf
ROOT
ATOM      1  C   UNL     1      24.195 139.593 351.573  1.00  0.00    -0.031 C 
ATOM      2  C   UNL     1      24.038 140.481 352.574  1.00  0.00    -0.031 C 
ENDROOT
BRANCH   1   3
ATOM      3  C   UNL     1      23.071 138.828 350.917  1.00  0.00     0.027 C 
BRANCH   3   4
ATOM      4  C   UNL     1      23.274 137.311 351.019  1.00  0.00     0.004 C 
BRANCH   4   5
ATOM      5  C   UNL     1      24.738 136.903 350.793  1.00  0.00     0.000 C 
BRANCH   5   6
ATOM      6  C   UNL     1      25.109 135.684 351.647  1.00  0.00     0.000 C 
BRANCH   6   7
ATOM      7  C   UNL     1      25.997 136.096 352.831  1.00  0.00     0.000 C 
BRANCH   7   8
ATOM      8  C   UNL     1      27.173 135.129 353.050  1.00  0.00     0.006 C 
BRANCH   8   9
ATOM      9  C   UNL     1      28.073 135.560 354.215  1.00  0.00     0.053 C 
BRANCH   9  10
ATOM     10  C   UNL     1      29.501 135.215 353.929  1.00  0.00     0.041 C 
ATOM     11  O   UNL     1      30.050 134.250 354.522  1.00  0.00    -0.550 OA
ATOM     12  O   UNL     1      30.212 135.932 352.975  1.00  0.00    -0.550 OA
ENDBRANCH   9  10
ENDBRANCH   8   9
ENDBRANCH   7   8
ENDBRANCH   6   7
ENDBRANCH   5   6
ENDBRANCH   4   5
ENDBRANCH   3   4
ENDBRANCH   1   3
BRANCH   2  13
ATOM     13  C   UNL     1      22.706 140.925 353.126  1.00  0.00     0.027 C 
BRANCH  13  14
ATOM     14  C   UNL     1      22.548 142.453 353.084  1.00  0.00     0.004 C 
BRANCH  14  15
ATOM     15  C   UNL     1      21.083 142.878 352.882  1.00  0.00     0.000 C 
BRANCH  15  16
ATOM     16  C   UNL     1      20.336 143.107 354.208  1.00  0.00     0.000 C 
BRANCH  16  17
ATOM     17  C   UNL     1      18.835 142.764 354.177  1.00  0.00    -0.000 C 
BRANCH  17  18
ATOM     18  C   UNL     1      18.219 142.881 352.775  1.00  0.00    -0.000 C 
BRANCH  18  19
ATOM     19  C   UNL     1      17.768 144.319 352.492  1.00  0.00    -0.003 C 
ATOM     20  C   UNL     1      17.036 144.912 353.693  1.00  0.00     0.004 C 
ENDBRANCH  18  19
ENDBRANCH  17  18
ENDBRANCH  16  17
ENDBRANCH  15  16
ENDBRANCH  14  15
ENDBRANCH  13  14
ENDBRANCH   2  13
TORSDOF 15
ENDMDL
MODEL 5
REMARK VINA RESULT:    -5.680      3.702      8.015
REMARK INTER + INTRA:         -11.578
REMARK INTER:                  -9.640
REMARK INTRA:                  -1.938
REMARK UNBOUND:                -0.918
REMARK SMILES CCCCCCCCC=CCCCCCCCC(=O)[O-]
REMARK SMILES IDX 10 1 9 2 11 3 12 4 13 5 14 6 15 7 16 8 17 9 18 10 19 11
REMARK SMILES IDX 20 12 8 13 7 14 6 15 5 16 4 17 3 18 2 19 1 20
REMARK H PARENT
REMARK Flexibility Score: inf
ROOT
ATOM      1  C   UNL     1      23.401 140.412 352.561  1.00  0.00    -0.031 C 
ATOM      2  C   UNL     1      23.846 139.617 353.553  1.00  0.00    -0.031 C 
ENDROOT
BRANCH   1   3
ATOM      3  C   UNL     1      22.974 139.928 351.197  1.00  0.00     0.027 C 
BRANCH   3   4
ATOM      4  C   UNL     1      24.157 139.841 350.223  1.00  0.00     0.004 C 
BRANCH   4   5
ATOM      5  C   UNL     1      24.270 138.456 349.568  1.00  0.00     0.000 C 
BRANCH   5   6
ATOM      6  C   UNL     1      22.903 137.763 349.504  1.00  0.00     0.000 C 
BRANCH   6   7
ATOM      7  C   UNL     1      22.909 136.465 350.324  1.00  0.00     0.000 C 
BRANCH   7   8
ATOM      8  C   UNL     1      23.356 135.247 349.497  1.00  0.00     0.006 C 
BRANCH   8   9
ATOM      9  C   UNL     1      24.816 134.861 349.770  1.00  0.00     0.053 C 
BRANCH   9  10
ATOM     10  C   UNL     1      25.521 134.540 348.490  1.00  0.00     0.041 C 
ATOM     11  O   UNL     1      26.068 135.455 347.821  1.00  0.00    -0.550 OA
ATOM     12  O   UNL     1      25.614 133.223 348.058  1.00  0.00    -0.550 OA
ENDBRANCH   9  10
ENDBRANCH   8   9
ENDBRANCH   7   8
ENDBRANCH   6   7
ENDBRANCH   5   6
ENDBRANCH   4   5
ENDBRANCH   3   4
ENDBRANCH   1   3
BRANCH   2  13
ATOM     13  C   UNL     1      23.892 138.110 353.491  1.00  0.00     0.027 C 
BRANCH  13  14
ATOM     14  C   UNL     1      25.253 137.596 352.998  1.00  0.00     0.004 C 
BRANCH  14  15
ATOM     15  C   UNL     1      25.427 136.088 353.245  1.00  0.00     0.000 C 
BRANCH  15  16
ATOM     16  C   UNL     1      26.899 135.637 353.197  1.00  0.00     0.000 C 
BRANCH  16  17
ATOM     17  C   UNL     1      27.660 135.755 354.530  1.00  0.00    -0.000 C 
BRANCH  17  18
ATOM     18  C   UNL     1      29.018 135.037 354.513  1.00  0.00    -0.000 C 
BRANCH  18  19
ATOM     19  C   UNL     1      29.860 135.484 353.313  1.00  0.00    -0.003 C 
ATOM     20  C   UNL     1      30.413 134.283 352.550  1.00  0.00     0.004 C 
ENDBRANCH  18  19
ENDBRANCH  17  18
ENDBRANCH  16  17
ENDBRANCH  15  16
ENDBRANCH  14  15
ENDBRANCH  13  14
ENDBRANCH   2  13
TORSDOF 15
ENDMDL
MODEL 6
REMARK VINA RESULT:    -5.678      5.357      8.496
REMARK INTER + INTRA:         -11.575
REMARK INTER:                 -10.024
REMARK INTRA:                  -1.551
REMARK UNBOUND:                -0.918
REMARK SMILES CCCCCCCCC=CCCCCCCCC(=O)[O-]
REMARK SMILES IDX 10 1 9 2 11 3 12 4 13 5 14 6 15 7 16 8 17 9 18 10 19 11
REMARK SMILES IDX 20 12 8 13 7 14 6 15 5 16 4 17 3 18 2 19 1 20
REMARK H PARENT
REMARK Flexibility Score: inf
ROOT
ATOM      1  C   UNL     1      29.213 135.020 350.641  1.00  0.00    -0.031 C 
ATOM      2  C   UNL     1      29.691 134.606 351.830  1.00  0.00    -0.031 C 
ENDROOT
BRANCH   1   3
ATOM      3  C   UNL     1      27.750 135.085 350.277  1.00  0.00     0.027 C 
BRANCH   3   4
ATOM      4  C   UNL     1      27.434 134.254 349.026  1.00  0.00     0.004 C 
BRANCH   4   5
ATOM      5  C   UNL     1      26.287 134.859 348.202  1.00  0.00     0.000 C 
BRANCH   5   6
ATOM      6  C   UNL     1      24.996 134.048 348.375  1.00  0.00     0.000 C 
BRANCH   6   7
ATOM      7  C   UNL     1      23.940 134.858 349.141  1.00  0.00     0.000 C 
BRANCH   7   8
ATOM      8  C   UNL     1      23.095 135.750 348.215  1.00  0.00     0.006 C 
BRANCH   8   9
ATOM      9  C   UNL     1      22.442 134.956 347.076  1.00  0.00     0.053 C 
BRANCH   9  10
ATOM     10  C   UNL     1      21.392 135.779 346.399  1.00  0.00     0.041 C 
ATOM     11  O   UNL     1      21.658 136.392 345.333  1.00  0.00    -0.550 OA
ATOM     12  O   UNL     1      20.105 135.832 346.921  1.00  0.00    -0.550 OA
ENDBRANCH   9  10
ENDBRANCH   8   9
ENDBRANCH   7   8
ENDBRANCH   6   7
ENDBRANCH   5   6
ENDBRANCH   4   5
ENDBRANCH   3   4
ENDBRANCH   1   3
BRANCH   2  13
ATOM     13  C   UNL     1      28.837 134.238 353.018  1.00  0.00     0.027 C 
BRANCH  13  14
ATOM     14  C   UNL     1      29.078 135.174 354.212  1.00  0.00     0.004 C 
BRANCH  14  15
ATOM     15  C   UNL     1      27.799 135.919 354.631  1.00  0.00     0.000 C 
BRANCH  15  16
ATOM     16  C   UNL     1      26.611 135.650 353.689  1.00  0.00     0.000 C 
BRANCH  16  17
ATOM     17  C   UNL     1      25.730 136.875 353.386  1.00  0.00    -0.000 C 
BRANCH  17  18
ATOM     18  C   UNL     1      24.860 136.695 352.132  1.00  0.00    -0.000 C 
BRANCH  18  19
ATOM     19  C   UNL     1      23.645 137.630 352.169  1.00  0.00    -0.003 C 
ATOM     20  C   UNL     1      23.767 138.647 353.299  1.00  0.00     0.004 C 
ENDBRANCH  18  19
ENDBRANCH  17  18
ENDBRANCH  16  17
ENDBRANCH  15  16
ENDBRANCH  14  15
ENDBRANCH  13  14
ENDBRANCH   2  13
TORSDOF 15
ENDMDL
MODEL 7
REMARK VINA RESULT:    -5.603      4.665      7.586
REMARK INTER + INTRA:         -11.435
REMARK INTER:                  -9.103
REMARK INTRA:                  -2.331
REMARK UNBOUND:                -0.918
REMARK SMILES CCCCCCCCC=CCCCCCCCC(=O)[O-]
REMARK SMILES IDX 10 1 9 2 11 3 12 4 13 5 14 6 15 7 16 8 17 9 18 10 19 11
REMARK SMILES IDX 20 12 8 13 7 14 6 15 5 16 4 17 3 18 2 19 1 20
REMARK H PARENT
REMARK Flexibility Score: inf
ROOT
ATOM      1  C   UNL     1      28.727 135.210 350.405  1.00  0.00    -0.031 C 
ATOM      2  C   UNL     1      29.359 135.000 351.576  1.00  0.00    -0.031 C 
ENDROOT
BRANCH   1   3
ATOM      3  C   UNL     1      27.302 134.810 350.114  1.00  0.00     0.027 C 
BRANCH   3   4
ATOM      4  C   UNL     1      27.163 134.147 348.736  1.00  0.00     0.004 C 
BRANCH   4   5
ATOM      5  C   UNL     1      25.694 133.943 348.335  1.00  0.00     0.000 C 
BRANCH   5   6
ATOM      6  C   UNL     1      24.782 134.948 349.052  1.00  0.00     0.000 C 
BRANCH   6   7
ATOM      7  C   UNL     1      24.300 136.038 348.083  1.00  0.00     0.000 C 
BRANCH   7   8
ATOM      8  C   UNL     1      24.468 137.455 348.658  1.00  0.00     0.006 C 
BRANCH   8   9
ATOM      9  C   UNL     1      25.930 137.780 348.991  1.00  0.00     0.053 C 
BRANCH   9  10
ATOM     10  C   UNL     1      26.098 139.247 349.234  1.00  0.00     0.041 C 
ATOM     11  O   UNL     1      25.617 139.776 350.270  1.00  0.00    -0.550 OA
ATOM     12  O   UNL     1      26.824 140.022 348.339  1.00  0.00    -0.550 OA
ENDBRANCH   9  10
ENDBRANCH   8   9
ENDBRANCH   7   8
ENDBRANCH   6   7
ENDBRANCH   5   6
ENDBRANCH   4   5
ENDBRANCH   3   4
ENDBRANCH   1   3
BRANCH   2  13
ATOM     13  C   UNL     1      28.712 134.423 352.811  1.00  0.00     0.027 C 
BRANCH  13  14
ATOM     14  C   UNL     1      29.071 135.221 354.074  1.00  0.00     0.004 C 
BRANCH  14  15
ATOM     15  C   UNL     1      27.839 135.892 354.704  1.00  0.00     0.000 C 
BRANCH  15  16
ATOM     16  C   UNL     1      26.544 135.639 353.910  1.00  0.00     0.000 C 
BRANCH  16  17
ATOM     17  C   UNL     1      25.917 136.892 353.272  1.00  0.00    -0.000 C 
BRANCH  17  18
ATOM     18  C   UNL     1      24.818 136.561 352.250  1.00  0.00    -0.000 C 
BRANCH  18  19
ATOM     19  C   UNL     1      23.647 137.544 352.365  1.00  0.00    -0.003 C 
ATOM     20  C   UNL     1      24.014 138.736 353.244  1.00  0.00     0.004 C 
ENDBRANCH  18  19
ENDBRANCH  17  18
ENDBRANCH  16  17
ENDBRANCH  15  16
ENDBRANCH  14  15
ENDBRANCH  13  14
ENDBRANCH   2  13
TORSDOF 15
ENDMDL
MODEL 8
REMARK VINA RESULT:    -5.594      4.463      7.172
REMARK INTER + INTRA:         -11.417
REMARK INTER:                  -9.515
REMARK INTRA:                  -1.902
REMARK UNBOUND:                -0.918
REMARK SMILES CCCCCCCCC=CCCCCCCCC(=O)[O-]
REMARK SMILES IDX 10 1 9 2 11 3 12 4 13 5 14 6 15 7 16 8 17 9 18 10 19 11
REMARK SMILES IDX 20 12 8 13 7 14 6 15 5 16 4 17 3 18 2 19 1 20
REMARK H PARENT
REMARK Flexibility Score: inf
ROOT
ATOM      1  C   UNL     1      22.876 137.248 350.856  1.00  0.00    -0.031 C 
ATOM      2  C   UNL     1      22.834 136.992 349.534  1.00  0.00    -0.031 C 
ENDROOT
BRANCH   1   3
ATOM      3  C   UNL     1      24.127 137.592 351.626  1.00  0.00     0.027 C 
BRANCH   3   4
ATOM      4  C   UNL     1      24.633 136.405 352.458  1.00  0.00     0.004 C 
BRANCH   4   5
ATOM      5  C   UNL     1      25.870 136.767 353.293  1.00  0.00     0.000 C 
BRANCH   5   6
ATOM      6  C   UNL     1      26.753 135.536 353.533  1.00  0.00     0.000 C 
BRANCH   6   7
ATOM      7  C   UNL     1      27.791 135.812 354.630  1.00  0.00     0.000 C 
BRANCH   7   8
ATOM      8  C   UNL     1      29.107 135.048 354.403  1.00  0.00     0.006 C 
BRANCH   8   9
ATOM      9  C   UNL     1      29.540 135.057 352.931  1.00  0.00     0.053 C 
BRANCH   9  10
ATOM     10  C   UNL     1      30.632 134.060 352.700  1.00  0.00     0.041 C 
ATOM     11  O   UNL     1      31.085 133.384 353.660  1.00  0.00    -0.550 OA
ATOM     12  O   UNL     1      31.118 133.845 351.417  1.00  0.00    -0.550 OA
ENDBRANCH   9  10
ENDBRANCH   8   9
ENDBRANCH   7   8
ENDBRANCH   6   7
ENDBRANCH   5   6
ENDBRANCH   4   5
ENDBRANCH   3   4
ENDBRANCH   1   3
BRANCH   2  13
ATOM     13  C   UNL     1      24.013 137.108 348.599  1.00  0.00     0.027 C 
BRANCH  13  14
ATOM     14  C   UNL     1      23.819 136.274 347.324  1.00  0.00     0.004 C 
BRANCH  14  15
ATOM     15  C   UNL     1      23.750 134.766 347.622  1.00  0.00     0.000 C 
BRANCH  15  16
ATOM     16  C   UNL     1      24.679 134.339 348.773  1.00  0.00     0.000 C 
BRANCH  16  17
ATOM     17  C   UNL     1      25.893 133.492 348.351  1.00  0.00    -0.000 C 
BRANCH  17  18
ATOM     18  C   UNL     1      27.236 134.179 348.638  1.00  0.00    -0.000 C 
BRANCH  18  19
ATOM     19  C   UNL     1      27.212 134.883 349.999  1.00  0.00    -0.003 C 
ATOM     20  C   UNL     1      27.342 136.395 349.840  1.00  0.00     0.004 C 
ENDBRANCH  18  19
ENDBRANCH  17  18
ENDBRANCH  16  17
ENDBRANCH  15  16
ENDBRANCH  14  15
ENDBRANCH  13  14
ENDBRANCH   2  13
TORSDOF 15
ENDMDL
MODEL 9
REMARK VINA RESULT:    -5.551      8.846     11.167
REMARK INTER + INTRA:         -11.337
REMARK INTER:                  -9.163
REMARK INTRA:                  -2.174
REMARK UNBOUND:                -0.918
REMARK SMILES CCCCCCCCC=CCCCCCCCC(=O)[O-]
REMARK SMILES IDX 10 1 9 2 11 3 12 4 13 5 14 6 15 7 16 8 17 9 18 10 19 11
REMARK SMILES IDX 20 12 8 13 7 14 6 15 5 16 4 17 3 18 2 19 1 20
REMARK H PARENT
REMARK Flexibility Score: inf
ROOT
ATOM      1  C   UNL     1      17.296 140.198 344.491  1.00  0.00    -0.031 C 
ATOM      2  C   UNL     1      17.063 140.399 343.180  1.00  0.00    -0.031 C 
ENDROOT
BRANCH   1   3
ATOM      3  C   UNL     1      16.805 139.010 345.280  1.00  0.00     0.027 C 
BRANCH   3   4
ATOM      4  C   UNL     1      17.964 138.176 345.842  1.00  0.00     0.004 C 
BRANCH   4   5
ATOM      5  C   UNL     1      19.162 139.046 346.250  1.00  0.00     0.000 C 
BRANCH   5   6
ATOM      6  C   UNL     1      20.149 138.254 347.118  1.00  0.00     0.000 C 
BRANCH   6   7
ATOM      7  C   UNL     1      19.862 136.748 347.037  1.00  0.00     0.000 C 
BRANCH   7   8
ATOM      8  C   UNL     1      20.996 135.967 346.350  1.00  0.00     0.006 C 
BRANCH   8   9
ATOM      9  C   UNL     1      22.384 136.490 346.740  1.00  0.00     0.053 C 
BRANCH   9  10
ATOM     10  C   UNL     1      22.901 135.761 347.940  1.00  0.00     0.041 C 
ATOM     11  O   UNL     1      22.729 136.238 349.093  1.00  0.00    -0.550 OA
ATOM     12  O   UNL     1      23.532 134.533 347.790  1.00  0.00    -0.550 OA
ENDBRANCH   9  10
ENDBRANCH   8   9
ENDBRANCH   7   8
ENDBRANCH   6   7
ENDBRANCH   5   6
ENDBRANCH   4   5
ENDBRANCH   3   4
ENDBRANCH   1   3
BRANCH   2  13
ATOM     13  C   UNL     1      16.361 139.419 342.273  1.00  0.00     0.027 C 
BRANCH  13  14
ATOM     14  C   UNL     1      17.342 138.695 341.339  1.00  0.00     0.004 C 
BRANCH  14  15
ATOM     15  C   UNL     1      18.803 139.098 341.609  1.00  0.00     0.000 C 
BRANCH  15  16
ATOM     16  C   UNL     1      19.696 137.901 341.980  1.00  0.00     0.000 C 
BRANCH  16  17
ATOM     17  C   UNL     1      20.647 138.141 343.168  1.00  0.00    -0.000 C 
BRANCH  17  18
ATOM     18  C   UNL     1      21.936 137.310 343.084  1.00  0.00    -0.000 C 
BRANCH  18  19
ATOM     19  C   UNL     1      22.920 137.923 342.081  1.00  0.00    -0.003 C 
ATOM     20  C   UNL     1      23.477 139.248 342.595  1.00  0.00     0.004 C 
ENDBRANCH  18  19
ENDBRANCH  17  18
ENDBRANCH  16  17
ENDBRANCH  15  16
ENDBRANCH  14  15
ENDBRANCH  13  14
ENDBRANCH   2  13
TORSDOF 15
ENDMDL
