MODEL 1
REMARK VINA RESULT:     2.925      0.000      0.000
REMARK INTER + INTRA:           3.655
REMARK INTER:                   4.293
REMARK INTRA:                  -0.638
REMARK UNBOUND:                -0.638
REMARK SMILES Cc1cc2c(C(C)C)c(O)c(O)c(C=O)c2c(O)c1-c1c(C)cc2c(C(C)C)c(O)c(O)c(C=O)c2c1O
REMARK SMILES IDX 1 1 2 2 3 3 4 4 16 5 13 6 11 7 9 8 5 9 17 10 19 11 20 12
REMARK SMILES IDX 37 13 21 14 36 15 23 16 22 17 24 18 33 19 25 20 31 21 29 22
REMARK SMILES IDX 38 23 34 25 35 26 26 27 27 28 28 29 32 30 30 32 18 34 6 36
REMARK SMILES IDX 7 37 8 38 14 39 15 40 10 41 12 43
REMARK H PARENT 38 24 32 31 30 33 18 35 10 42 12 44
REMARK Flexibility Score: inf
ROOT
ATOM      1  C   UNL     1     155.528   4.542   4.820  1.00  0.00     0.045 C 
ATOM      2  C   UNL     1     154.905   3.328   5.468  1.00  0.00    -0.039 A 
ATOM      3  C   UNL     1     154.340   2.338   4.666  1.00  0.00     0.013 A 
ATOM      4  C   UNL     1     153.773   1.165   5.213  1.00  0.00    -0.006 A 
ATOM      5  C   UNL     1     153.706   1.034   6.634  1.00  0.00     0.039 A 
ATOM      6  C   UNL     1     153.105  -0.133   7.190  1.00  0.00     0.072 A 
ATOM      7  C   UNL     1     152.438  -1.046   6.354  1.00  0.00     0.169 A 
ATOM      8  C   UNL     1     152.431  -0.860   4.960  1.00  0.00     0.162 A 
ATOM      9  C   UNL     1     153.232   0.143   4.373  1.00  0.00     0.008 A 
ATOM     10  C   UNL     1     154.202   2.095   7.450  1.00  0.00     0.132 A 
ATOM     11  C   UNL     1     154.840   3.209   6.866  1.00  0.00     0.031 A 
ENDROOT
BRANCH  11  12
ATOM     12  C   UNL     1     155.416   4.276   7.726  1.00  0.00     0.031 A 
ATOM     13  C   UNL     1     154.570   5.192   8.386  1.00  0.00     0.132 A 
ATOM     14  C   UNL     1     156.810   4.396   7.842  1.00  0.00    -0.039 A 
ATOM     15  C   UNL     1     155.119   6.216   9.217  1.00  0.00     0.039 A 
ATOM     16  C   UNL     1     157.352   5.437   8.595  1.00  0.00     0.013 A 
ATOM     17  C   UNL     1     157.734   3.445   7.119  1.00  0.00     0.045 C 
ATOM     18  C   UNL     1     156.539   6.339   9.318  1.00  0.00    -0.006 A 
ATOM     19  C   UNL     1     154.297   7.155   9.907  1.00  0.00     0.072 A 
ATOM     20  C   UNL     1     157.115   7.383  10.107  1.00  0.00     0.008 A 
ATOM     21  C   UNL     1     154.881   8.281  10.518  1.00  0.00     0.169 A 
ATOM     22  C   UNL     1     156.272   8.412  10.580  1.00  0.00     0.162 A 
BRANCH  13  23
ATOM     23  O   UNL     1     153.187   5.112   8.184  1.00  0.00    -0.507 OA
ATOM     24  H   UNL     1     152.693   4.249   7.993  1.00  0.00     0.293 HD
ENDBRANCH  13  23
BRANCH  19  25
ATOM     25  C   UNL     1     152.836   6.979  10.042  1.00  0.00     0.264 C 
ATOM     26  O   UNL     1     152.043   7.702   9.383  1.00  0.00    -0.298 OA
ENDBRANCH  19  25
BRANCH  20  27
ATOM     27  C   UNL     1     158.625   7.437  10.407  1.00  0.00     0.017 C 
ATOM     28  C   UNL     1     159.086   6.153  11.104  1.00  0.00     0.012 C 
ATOM     29  C   UNL     1     159.499   7.747   9.175  1.00  0.00     0.012 C 
ENDBRANCH  20  27
BRANCH  21  30
ATOM     30  O   UNL     1     154.099   9.286  11.103  1.00  0.00    -0.504 OA
ATOM     31  H   UNL     1     153.214   9.604  10.730  1.00  0.00     0.293 HD
ENDBRANCH  21  30
BRANCH  22  32
ATOM     32  O   UNL     1     156.824   9.573  11.125  1.00  0.00    -0.504 OA
ATOM     33  H   UNL     1     156.878  10.450  10.619  1.00  0.00     0.293 HD
ENDBRANCH  22  32
ENDBRANCH  11  12
BRANCH  10  34
ATOM     34  O   UNL     1     154.019   2.064   8.838  1.00  0.00    -0.507 OA
ATOM     35  H   UNL     1     153.128   2.219   9.294  1.00  0.00     0.293 HD
ENDBRANCH  10  34
BRANCH   9  36
ATOM     36  C   UNL     1     153.459   0.140   2.849  1.00  0.00     0.017 C 
ATOM     37  C   UNL     1     154.935   0.368   2.514  1.00  0.00     0.012 C 
ATOM     38  C   UNL     1     152.551   1.122   2.083  1.00  0.00     0.012 C 
ENDBRANCH   9  36
BRANCH   6  39
ATOM     39  C   UNL     1     153.227  -0.474   8.628  1.00  0.00     0.264 C 
ATOM     40  O   UNL     1     152.240  -0.909   9.280  1.00  0.00    -0.298 OA
ENDBRANCH   6  39
BRANCH   8  41
ATOM     41  O   UNL     1     151.626  -1.656   4.141  1.00  0.00    -0.504 OA
ATOM     42  H   UNL     1     151.533  -2.657   4.239  1.00  0.00     0.293 HD
ENDBRANCH   8  41
BRANCH   7  43
ATOM     43  O   UNL     1     151.827  -2.167   6.930  1.00  0.00    -0.504 OA
ATOM     44  H   UNL     1     151.672  -2.280   7.921  1.00  0.00     0.293 HD
ENDBRANCH   7  43
TORSDOF 11
ENDMDL
MODEL 2
REMARK VINA RESULT:     3.010      1.779      3.206
REMARK INTER + INTRA:           3.779
REMARK INTER:                   4.412
REMARK INTRA:                  -0.632
REMARK UNBOUND:                -0.638
REMARK SMILES Cc1cc2c(C(C)C)c(O)c(O)c(C=O)c2c(O)c1-c1c(C)cc2c(C(C)C)c(O)c(O)c(C=O)c2c1O
REMARK SMILES IDX 1 1 2 2 3 3 4 4 16 5 13 6 11 7 9 8 5 9 17 10 19 11 20 12
REMARK SMILES IDX 37 13 21 14 36 15 23 16 22 17 24 18 33 19 25 20 31 21 29 22
REMARK SMILES IDX 38 23 34 25 35 26 26 27 27 28 28 29 32 30 30 32 18 34 6 36
REMARK SMILES IDX 7 37 8 38 14 39 15 40 10 41 12 43
REMARK H PARENT 38 24 32 31 30 33 18 35 10 42 12 44
REMARK Flexibility Score: inf
ROOT
ATOM      1  C   UNL     1     155.485   4.446   4.591  1.00  0.00     0.045 C 
ATOM      2  C   UNL     1     154.882   3.290   5.355  1.00  0.00    -0.039 A 
ATOM      3  C   UNL     1     154.281   2.246   4.654  1.00  0.00     0.013 A 
ATOM      4  C   UNL     1     153.730   1.123   5.311  1.00  0.00    -0.006 A 
ATOM      5  C   UNL     1     153.718   1.102   6.739  1.00  0.00     0.039 A 
ATOM      6  C   UNL     1     153.133  -0.014   7.407  1.00  0.00     0.072 A 
ATOM      7  C   UNL     1     152.429  -0.983   6.669  1.00  0.00     0.169 A 
ATOM      8  C   UNL     1     152.368  -0.904   5.267  1.00  0.00     0.162 A 
ATOM      9  C   UNL     1     153.151   0.044   4.573  1.00  0.00     0.008 A 
ATOM     10  C   UNL     1     154.251   2.218   7.452  1.00  0.00     0.132 A 
ATOM     11  C   UNL     1     154.872   3.279   6.759  1.00  0.00     0.031 A 
ENDROOT
BRANCH  11  12
ATOM     12  C   UNL     1     155.487   4.404   7.511  1.00  0.00     0.031 A 
ATOM     13  C   UNL     1     156.883   4.443   7.716  1.00  0.00     0.132 A 
ATOM     14  C   UNL     1     154.668   5.403   8.058  1.00  0.00    -0.039 A 
ATOM     15  C   UNL     1     157.480   5.524   8.434  1.00  0.00     0.039 A 
ATOM     16  C   UNL     1     155.240   6.422   8.820  1.00  0.00     0.013 A 
ATOM     17  C   UNL     1     153.169   5.364   7.877  1.00  0.00     0.045 C 
ATOM     18  C   UNL     1     156.636   6.530   8.999  1.00  0.00    -0.006 A 
ATOM     19  C   UNL     1     158.887   5.603   8.653  1.00  0.00     0.072 A 
ATOM     20  C   UNL     1     157.205   7.598   9.761  1.00  0.00     0.008 A 
ATOM     21  C   UNL     1     159.402   6.549   9.560  1.00  0.00     0.169 A 
ATOM     22  C   UNL     1     158.563   7.508  10.137  1.00  0.00     0.162 A 
BRANCH  13  23
ATOM     23  O   UNL     1     157.673   3.389   7.241  1.00  0.00    -0.507 OA
ATOM     24  H   UNL     1     158.599   3.507   6.851  1.00  0.00     0.293 HD
ENDBRANCH  13  23
BRANCH  19  25
ATOM     25  C   UNL     1     159.851   4.745   7.933  1.00  0.00     0.264 C 
ATOM     26  O   UNL     1     160.604   5.235   7.050  1.00  0.00    -0.298 OA
ENDBRANCH  19  25
BRANCH  20  27
ATOM     27  C   UNL     1     156.365   8.805  10.218  1.00  0.00     0.017 C 
ATOM     28  C   UNL     1     155.908   9.636   9.015  1.00  0.00     0.012 C 
ATOM     29  C   UNL     1     155.174   8.436  11.125  1.00  0.00     0.012 C 
ENDBRANCH  20  27
BRANCH  21  30
ATOM     30  O   UNL     1     160.763   6.582   9.892  1.00  0.00    -0.504 OA
ATOM     31  H   UNL     1     161.245   5.839  10.381  1.00  0.00     0.293 HD
ENDBRANCH  21  30
BRANCH  22  32
ATOM     32  O   UNL     1     159.084   8.387  11.089  1.00  0.00    -0.504 OA
ATOM     33  H   UNL     1     159.981   8.847  10.984  1.00  0.00     0.293 HD
ENDBRANCH  22  32
ENDBRANCH  11  12
BRANCH  10  34
ATOM     34  O   UNL     1     154.123   2.295   8.843  1.00  0.00    -0.507 OA
ATOM     35  H   UNL     1     154.786   2.766   9.447  1.00  0.00     0.293 HD
ENDBRANCH  10  34
BRANCH   9  36
ATOM     36  C   UNL     1     153.317  -0.077   3.047  1.00  0.00     0.017 C 
ATOM     37  C   UNL     1     154.791   0.028   2.646  1.00  0.00     0.012 C 
ATOM     38  C   UNL     1     152.446   0.909   2.246  1.00  0.00     0.012 C 
ENDBRANCH   9  36
BRANCH   6  39
ATOM     39  C   UNL     1     153.310  -0.245   8.861  1.00  0.00     0.264 C 
ATOM     40  O   UNL     1     152.360  -0.668   9.573  1.00  0.00    -0.298 OA
ENDBRANCH   6  39
BRANCH   8  41
ATOM     41  O   UNL     1     151.527  -1.754   4.543  1.00  0.00    -0.504 OA
ATOM     42  H   UNL     1     151.523  -1.821   3.535  1.00  0.00     0.293 HD
ENDBRANCH   8  41
BRANCH   7  43
ATOM     43  O   UNL     1     151.836  -2.051   7.353  1.00  0.00    -0.504 OA
ATOM     44  H   UNL     1     152.256  -2.522   8.141  1.00  0.00     0.293 HD
ENDBRANCH   7  43
TORSDOF 11
ENDMDL
MODEL 3
REMARK VINA RESULT:     3.414      2.588      4.496
REMARK INTER + INTRA:           4.373
REMARK INTER:                   3.849
REMARK INTRA:                   0.524
REMARK UNBOUND:                -0.638
REMARK SMILES Cc1cc2c(C(C)C)c(O)c(O)c(C=O)c2c(O)c1-c1c(C)cc2c(C(C)C)c(O)c(O)c(C=O)c2c1O
REMARK SMILES IDX 1 1 2 2 3 3 4 4 16 5 13 6 11 7 9 8 5 9 17 10 19 11 20 12
REMARK SMILES IDX 37 13 21 14 36 15 23 16 22 17 24 18 33 19 25 20 31 21 29 22
REMARK SMILES IDX 38 23 34 25 35 26 26 27 27 28 28 29 32 30 30 32 18 34 6 36
REMARK SMILES IDX 7 37 8 38 14 39 15 40 10 41 12 43
REMARK H PARENT 38 24 32 31 30 33 18 35 10 42 12 44
REMARK Flexibility Score: inf
ROOT
ATOM      1  C   UNL     1     157.253   3.668   7.757  1.00  0.00     0.045 C 
ATOM      2  C   UNL     1     156.467   2.939   6.693  1.00  0.00    -0.039 A 
ATOM      3  C   UNL     1     157.129   2.070   5.826  1.00  0.00     0.013 A 
ATOM      4  C   UNL     1     156.441   1.336   4.834  1.00  0.00    -0.006 A 
ATOM      5  C   UNL     1     155.041   1.558   4.664  1.00  0.00     0.039 A 
ATOM      6  C   UNL     1     154.350   0.843   3.641  1.00  0.00     0.072 A 
ATOM      7  C   UNL     1     155.072   0.073   2.712  1.00  0.00     0.169 A 
ATOM      8  C   UNL     1     156.466  -0.065   2.833  1.00  0.00     0.162 A 
ATOM      9  C   UNL     1     157.132   0.422   3.979  1.00  0.00     0.008 A 
ATOM     10  C   UNL     1     154.386   2.518   5.493  1.00  0.00     0.132 A 
ATOM     11  C   UNL     1     155.090   3.165   6.530  1.00  0.00     0.031 A 
ENDROOT
BRANCH  11  12
ATOM     12  C   UNL     1     154.385   4.111   7.434  1.00  0.00     0.031 A 
ATOM     13  C   UNL     1     154.575   5.503   7.295  1.00  0.00     0.132 A 
ATOM     14  C   UNL     1     153.565   3.613   8.457  1.00  0.00    -0.039 A 
ATOM     15  C   UNL     1     153.896   6.417   8.157  1.00  0.00     0.039 A 
ATOM     16  C   UNL     1     152.956   4.499   9.346  1.00  0.00     0.013 A 
ATOM     17  C   UNL     1     153.372   2.126   8.643  1.00  0.00     0.045 C 
ATOM     18  C   UNL     1     153.073   5.899   9.205  1.00  0.00    -0.006 A 
ATOM     19  C   UNL     1     154.054   7.829   8.042  1.00  0.00     0.072 A 
ATOM     20  C   UNL     1     152.418   6.791  10.111  1.00  0.00     0.008 A 
ATOM     21  C   UNL     1     153.559   8.674   9.053  1.00  0.00     0.169 A 
ATOM     22  C   UNL     1     152.785   8.154  10.096  1.00  0.00     0.162 A 
BRANCH  13  23
ATOM     23  O   UNL     1     155.468   5.977   6.326  1.00  0.00    -0.507 OA
ATOM     24  H   UNL     1     156.361   6.404   6.541  1.00  0.00     0.293 HD
ENDBRANCH  13  23
BRANCH  19  25
ATOM     25  C   UNL     1     154.698   8.461   6.871  1.00  0.00     0.264 C 
ATOM     26  O   UNL     1     154.248   9.541   6.403  1.00  0.00    -0.298 OA
ENDBRANCH  19  25
BRANCH  20  27
ATOM     27  C   UNL     1     151.371   6.295  11.125  1.00  0.00     0.017 C 
ATOM     28  C   UNL     1     150.092   7.133  11.038  1.00  0.00     0.012 C 
ATOM     29  C   UNL     1     151.059   4.789  11.020  1.00  0.00     0.012 C 
ENDBRANCH  20  27
BRANCH  21  30
ATOM     30  O   UNL     1     153.797  10.055   9.037  1.00  0.00    -0.504 OA
ATOM     31  H   UNL     1     153.614  10.652   8.240  1.00  0.00     0.293 HD
ENDBRANCH  21  30
BRANCH  22  32
ATOM     32  O   UNL     1     152.368   9.001  11.125  1.00  0.00    -0.504 OA
ATOM     33  H   UNL     1     151.435   9.393  11.175  1.00  0.00     0.293 HD
ENDBRANCH  22  32
ENDBRANCH  11  12
BRANCH  10  34
ATOM     34  O   UNL     1     153.051   2.864   5.255  1.00  0.00    -0.507 OA
ATOM     35  H   UNL     1     152.421   2.322   4.677  1.00  0.00     0.293 HD
ENDBRANCH  10  34
BRANCH   9  36
ATOM     36  C   UNL     1     158.588  -0.001   4.250  1.00  0.00     0.017 C 
ATOM     37  C   UNL     1     158.755  -0.507   5.686  1.00  0.00     0.012 C 
ATOM     38  C   UNL     1     159.624   1.088   3.915  1.00  0.00     0.012 C 
ENDBRANCH   9  36
BRANCH   6  39
ATOM     39  C   UNL     1     152.869   0.808   3.566  1.00  0.00     0.264 C 
ATOM     40  O   UNL     1     152.201  -0.021   4.241  1.00  0.00    -0.298 OA
ENDBRANCH   6  39
BRANCH   8  41
ATOM     41  O   UNL     1     157.211  -0.674   1.820  1.00  0.00    -0.504 OA
ATOM     42  H   UNL     1     158.210  -0.817   1.860  1.00  0.00     0.293 HD
ENDBRANCH   8  41
BRANCH   7  43
ATOM     43  O   UNL     1     154.372  -0.591   1.698  1.00  0.00    -0.504 OA
ATOM     44  H   UNL     1     154.418  -1.587   1.537  1.00  0.00     0.293 HD
ENDBRANCH   7  43
TORSDOF 11
ENDMDL
MODEL 4
REMARK VINA RESULT:     3.552      1.036      8.864
REMARK INTER + INTRA:           4.576
REMARK INTER:                   5.908
REMARK INTRA:                  -1.332
REMARK UNBOUND:                -0.638
REMARK SMILES Cc1cc2c(C(C)C)c(O)c(O)c(C=O)c2c(O)c1-c1c(C)cc2c(C(C)C)c(O)c(O)c(C=O)c2c1O
REMARK SMILES IDX 1 1 2 2 3 3 4 4 16 5 13 6 11 7 9 8 5 9 17 10 19 11 20 12
REMARK SMILES IDX 37 13 21 14 36 15 23 16 22 17 24 18 33 19 25 20 31 21 29 22
REMARK SMILES IDX 38 23 34 25 35 26 26 27 27 28 28 29 32 30 30 32 18 34 6 36
REMARK SMILES IDX 7 37 8 38 14 39 15 40 10 41 12 43
REMARK H PARENT 38 24 32 31 30 33 18 35 10 42 12 44
REMARK Flexibility Score: inf
ROOT
ATOM      1  C   UNL     1     157.981   2.265   6.678  1.00  0.00     0.045 C 
ATOM      2  C   UNL     1     157.414   3.494   7.348  1.00  0.00    -0.039 A 
ATOM      3  C   UNL     1     158.265   4.344   8.055  1.00  0.00     0.013 A 
ATOM      4  C   UNL     1     157.799   5.525   8.673  1.00  0.00    -0.006 A 
ATOM      5  C   UNL     1     156.399   5.809   8.642  1.00  0.00     0.039 A 
ATOM      6  C   UNL     1     155.920   6.984   9.293  1.00  0.00     0.072 A 
ATOM      7  C   UNL     1     156.788   7.744  10.096  1.00  0.00     0.169 A 
ATOM      8  C   UNL     1     158.149   7.403  10.195  1.00  0.00     0.162 A 
ATOM      9  C   UNL     1     158.693   6.403   9.361  1.00  0.00     0.008 A 
ATOM     10  C   UNL     1     155.520   4.887   7.997  1.00  0.00     0.132 A 
ATOM     11  C   UNL     1     156.036   3.765   7.316  1.00  0.00     0.031 A 
ENDROOT
BRANCH  11  12
ATOM     12  C   UNL     1     155.121   2.847   6.587  1.00  0.00     0.031 A 
ATOM     13  C   UNL     1     154.476   1.795   7.272  1.00  0.00     0.132 A 
ATOM     14  C   UNL     1     154.937   3.004   5.205  1.00  0.00    -0.039 A 
ATOM     15  C   UNL     1     153.591   0.915   6.578  1.00  0.00     0.039 A 
ATOM     16  C   UNL     1     154.130   2.103   4.510  1.00  0.00     0.013 A 
ATOM     17  C   UNL     1     155.642   4.104   4.448  1.00  0.00     0.045 C 
ATOM     18  C   UNL     1     153.421   1.074   5.168  1.00  0.00    -0.006 A 
ATOM     19  C   UNL     1     152.913  -0.154   7.236  1.00  0.00     0.072 A 
ATOM     20  C   UNL     1     152.577   0.176   4.441  1.00  0.00     0.008 A 
ATOM     21  C   UNL     1     152.245  -1.133   6.476  1.00  0.00     0.169 A 
ATOM     22  C   UNL     1     152.114  -0.988   5.091  1.00  0.00     0.162 A 
BRANCH  13  23
ATOM     23  O   UNL     1     154.743   1.601   8.632  1.00  0.00    -0.507 OA
ATOM     24  H   UNL     1     154.200   2.012   9.380  1.00  0.00     0.293 HD
ENDBRANCH  13  23
BRANCH  19  25
ATOM     25  C   UNL     1     152.851  -0.264   8.709  1.00  0.00     0.264 C 
ATOM     26  O   UNL     1     153.572  -1.100   9.316  1.00  0.00    -0.298 OA
ENDBRANCH  19  25
BRANCH  20  27
ATOM     27  C   UNL     1     152.206   0.425   2.967  1.00  0.00     0.017 C 
ATOM     28  C   UNL     1     151.156   1.534   2.850  1.00  0.00     0.012 C 
ATOM     29  C   UNL     1     153.416   0.704   2.053  1.00  0.00     0.012 C 
ENDBRANCH  20  27
BRANCH  21  30
ATOM     30  O   UNL     1     151.669  -2.260   7.077  1.00  0.00    -0.504 OA
ATOM     31  H   UNL     1     152.118  -2.810   7.797  1.00  0.00     0.293 HD
ENDBRANCH  21  30
BRANCH  22  32
ATOM     32  O   UNL     1     151.512  -2.009   4.352  1.00  0.00    -0.504 OA
ATOM     33  H   UNL     1     151.630  -2.109   3.351  1.00  0.00     0.293 HD
ENDBRANCH  22  32
ENDBRANCH  11  12
BRANCH  10  34
ATOM     34  O   UNL     1     154.134   5.060   8.075  1.00  0.00    -0.507 OA
ATOM     35  H   UNL     1     153.680   5.963   8.135  1.00  0.00     0.293 HD
ENDBRANCH  10  34
BRANCH   9  36
ATOM     36  C   UNL     1     160.222   6.252   9.253  1.00  0.00     0.017 C 
ATOM     37  C   UNL     1     160.809   5.670  10.543  1.00  0.00     0.012 C 
ATOM     38  C   UNL     1     160.947   7.547   8.842  1.00  0.00     0.012 C 
ENDBRANCH   9  36
BRANCH   6  39
ATOM     39  C   UNL     1     154.542   7.492   9.090  1.00  0.00     0.264 C 
ATOM     40  O   UNL     1     153.671   7.392   9.995  1.00  0.00    -0.298 OA
ENDBRANCH   6  39
BRANCH   8  41
ATOM     41  O   UNL     1     158.975   8.039  11.125  1.00  0.00    -0.504 OA
ATOM     42  H   UNL     1     159.633   8.769  10.891  1.00  0.00     0.293 HD
ENDBRANCH   8  41
BRANCH   7  43
ATOM     43  O   UNL     1     156.284   8.874  10.752  1.00  0.00    -0.504 OA
ATOM     44  H   UNL     1     156.354   9.029  11.748  1.00  0.00     0.293 HD
ENDBRANCH   7  43
TORSDOF 11
ENDMDL
MODEL 5
REMARK VINA RESULT:     4.436      2.212      9.251
REMARK INTER + INTRA:           5.873
REMARK INTER:                   5.328
REMARK INTRA:                   0.545
REMARK UNBOUND:                -0.638
REMARK SMILES Cc1cc2c(C(C)C)c(O)c(O)c(C=O)c2c(O)c1-c1c(C)cc2c(C(C)C)c(O)c(O)c(C=O)c2c1O
REMARK SMILES IDX 1 1 2 2 3 3 4 4 16 5 13 6 11 7 9 8 5 9 17 10 19 11 20 12
REMARK SMILES IDX 37 13 21 14 36 15 23 16 22 17 24 18 33 19 25 20 31 21 29 22
REMARK SMILES IDX 38 23 34 25 35 26 26 27 27 28 28 29 32 30 30 32 18 34 6 36
REMARK SMILES IDX 7 37 8 38 14 39 15 40 10 41 12 43
REMARK H PARENT 38 24 32 31 30 33 18 35 10 42 12 44
REMARK Flexibility Score: inf
ROOT
ATOM      1  C   UNL     1     157.910   1.830   6.956  1.00  0.00     0.045 C 
ATOM      2  C   UNL     1     157.498   3.206   7.425  1.00  0.00    -0.039 A 
ATOM      3  C   UNL     1     158.369   3.947   8.223  1.00  0.00     0.013 A 
ATOM      4  C   UNL     1     158.054   5.252   8.663  1.00  0.00    -0.006 A 
ATOM      5  C   UNL     1     156.769   5.790   8.349  1.00  0.00     0.039 A 
ATOM      6  C   UNL     1     156.434   7.093   8.820  1.00  0.00     0.072 A 
ATOM      7  C   UNL     1     157.287   7.754   9.722  1.00  0.00     0.169 A 
ATOM      8  C   UNL     1     158.511   7.174  10.099  1.00  0.00     0.162 A 
ATOM      9  C   UNL     1     158.976   6.010   9.450  1.00  0.00     0.008 A 
ATOM     10  C   UNL     1     155.845   4.989   7.611  1.00  0.00     0.132 A 
ATOM     11  C   UNL     1     156.232   3.726   7.114  1.00  0.00     0.031 A 
ENDROOT
BRANCH  11  12
ATOM     12  C   UNL     1     155.288   2.929   6.287  1.00  0.00     0.031 A 
ATOM     13  C   UNL     1     155.571   2.680   4.927  1.00  0.00     0.132 A 
ATOM     14  C   UNL     1     154.091   2.465   6.853  1.00  0.00    -0.039 A 
ATOM     15  C   UNL     1     154.670   1.910   4.129  1.00  0.00     0.039 A 
ATOM     16  C   UNL     1     153.176   1.774   6.059  1.00  0.00     0.013 A 
ATOM     17  C   UNL     1     153.755   2.747   8.298  1.00  0.00     0.045 C 
ATOM     18  C   UNL     1     153.447   1.453   4.711  1.00  0.00    -0.006 A 
ATOM     19  C   UNL     1     154.925   1.629   2.754  1.00  0.00     0.072 A 
ATOM     20  C   UNL     1     152.506   0.720   3.921  1.00  0.00     0.008 A 
ATOM     21  C   UNL     1     153.908   1.076   1.953  1.00  0.00     0.169 A 
ATOM     22  C   UNL     1     152.700   0.665   2.524  1.00  0.00     0.162 A 
BRANCH  13  23
ATOM     23  O   UNL     1     156.726   3.229   4.358  1.00  0.00    -0.507 OA
ATOM     24  H   UNL     1     157.212   2.828   3.565  1.00  0.00     0.293 HD
ENDBRANCH  13  23
BRANCH  19  25
ATOM     25  C   UNL     1     156.243   1.864   2.129  1.00  0.00     0.264 C 
ATOM     26  O   UNL     1     157.252   1.209   2.504  1.00  0.00    -0.298 OA
ENDBRANCH  19  25
BRANCH  20  27
ATOM     27  C   UNL     1     151.276   0.039   4.548  1.00  0.00     0.017 C 
ATOM     28  C   UNL     1     150.021   0.309   3.713  1.00  0.00     0.012 C 
ATOM     29  C   UNL     1     151.457  -1.470   4.809  1.00  0.00     0.012 C 
ENDBRANCH  20  27
BRANCH  21  30
ATOM     30  O   UNL     1     154.079   0.895   0.574  1.00  0.00    -0.504 OA
ATOM     31  H   UNL     1     154.606   0.135   0.163  1.00  0.00     0.293 HD
ENDBRANCH  21  30
BRANCH  22  32
ATOM     32  O   UNL     1     151.680   0.189   1.696  1.00  0.00    -0.504 OA
ATOM     33  H   UNL     1     151.856  -0.359   0.862  1.00  0.00     0.293 HD
ENDBRANCH  22  32
ENDBRANCH  11  12
BRANCH  10  34
ATOM     34  O   UNL     1     154.531   5.427   7.413  1.00  0.00    -0.507 OA
ATOM     35  H   UNL     1     154.152   5.687   6.511  1.00  0.00     0.293 HD
ENDBRANCH  10  34
BRANCH   9  36
ATOM     36  C   UNL     1     160.437   5.563   9.644  1.00  0.00     0.017 C 
ATOM     37  C   UNL     1     160.691   5.128  11.090  1.00  0.00     0.012 C 
ATOM     38  C   UNL     1     161.473   6.606   9.182  1.00  0.00     0.012 C 
ENDBRANCH   9  36
BRANCH   6  39
ATOM     39  C   UNL     1     155.245   7.829   8.326  1.00  0.00     0.264 C 
ATOM     40  O   UNL     1     154.286   8.108   9.095  1.00  0.00    -0.298 OA
ENDBRANCH   6  39
BRANCH   8  41
ATOM     41  O   UNL     1     159.277   7.734  11.125  1.00  0.00    -0.504 OA
ATOM     42  H   UNL     1     158.901   8.324  11.854  1.00  0.00     0.293 HD
ENDBRANCH   8  41
BRANCH   7  43
ATOM     43  O   UNL     1     156.918   9.019  10.195  1.00  0.00    -0.504 OA
ATOM     44  H   UNL     1     155.965   9.347  10.251  1.00  0.00     0.293 HD
ENDBRANCH   7  43
TORSDOF 11
ENDMDL
MODEL 6
REMARK VINA RESULT:     5.144      2.302      4.330
REMARK INTER + INTRA:           6.911
REMARK INTER:                   5.326
REMARK INTRA:                   1.585
REMARK UNBOUND:                -0.638
REMARK SMILES Cc1cc2c(C(C)C)c(O)c(O)c(C=O)c2c(O)c1-c1c(C)cc2c(C(C)C)c(O)c(O)c(C=O)c2c1O
REMARK SMILES IDX 1 1 2 2 3 3 4 4 16 5 13 6 11 7 9 8 5 9 17 10 19 11 20 12
REMARK SMILES IDX 37 13 21 14 36 15 23 16 22 17 24 18 33 19 25 20 31 21 29 22
REMARK SMILES IDX 38 23 34 25 35 26 26 27 27 28 28 29 32 30 30 32 18 34 6 36
REMARK SMILES IDX 7 37 8 38 14 39 15 40 10 41 12 43
REMARK H PARENT 38 24 32 31 30 33 18 35 10 42 12 44
REMARK Flexibility Score: inf
ROOT
ATOM      1  C   UNL     1     153.546   2.355   9.404  1.00  0.00     0.045 C 
ATOM      2  C   UNL     1     153.735   2.142   7.921  1.00  0.00    -0.039 A 
ATOM      3  C   UNL     1     153.163   1.027   7.310  1.00  0.00     0.013 A 
ATOM      4  C   UNL     1     153.276   0.793   5.921  1.00  0.00    -0.006 A 
ATOM      5  C   UNL     1     154.073   1.684   5.139  1.00  0.00     0.039 A 
ATOM      6  C   UNL     1     154.218   1.433   3.743  1.00  0.00     0.072 A 
ATOM      7  C   UNL     1     153.730   0.235   3.191  1.00  0.00     0.169 A 
ATOM      8  C   UNL     1     153.025  -0.682   3.991  1.00  0.00     0.162 A 
ATOM      9  C   UNL     1     152.651  -0.336   5.307  1.00  0.00     0.008 A 
ATOM     10  C   UNL     1     154.734   2.771   5.787  1.00  0.00     0.132 A 
ATOM     11  C   UNL     1     154.523   3.021   7.159  1.00  0.00     0.031 A 
ENDROOT
BRANCH  11  12
ATOM     12  C   UNL     1     155.159   4.196   7.811  1.00  0.00     0.031 A 
ATOM     13  C   UNL     1     156.565   4.293   7.886  1.00  0.00     0.132 A 
ATOM     14  C   UNL     1     154.353   5.187   8.393  1.00  0.00    -0.039 A 
ATOM     15  C   UNL     1     157.181   5.423   8.507  1.00  0.00     0.039 A 
ATOM     16  C   UNL     1     154.950   6.255   9.062  1.00  0.00     0.013 A 
ATOM     17  C   UNL     1     152.847   5.086   8.351  1.00  0.00     0.045 C 
ATOM     18  C   UNL     1     156.352   6.420   9.108  1.00  0.00    -0.006 A 
ATOM     19  C   UNL     1     158.598   5.562   8.594  1.00  0.00     0.072 A 
ATOM     20  C   UNL     1     156.944   7.538   9.776  1.00  0.00     0.008 A 
ATOM     21  C   UNL     1     159.154   6.561   9.415  1.00  0.00     0.169 A 
ATOM     22  C   UNL     1     158.333   7.512  10.030  1.00  0.00     0.162 A 
BRANCH  13  23
ATOM     23  O   UNL     1     157.349   3.250   7.380  1.00  0.00    -0.507 OA
ATOM     24  H   UNL     1     157.777   3.257   6.462  1.00  0.00     0.293 HD
ENDBRANCH  13  23
BRANCH  19  25
ATOM     25  C   UNL     1     159.526   4.710   7.821  1.00  0.00     0.264 C 
ATOM     26  O   UNL     1     160.290   5.220   6.959  1.00  0.00    -0.298 OA
ENDBRANCH  19  25
BRANCH  20  27
ATOM     27  C   UNL     1     156.102   8.731  10.263  1.00  0.00     0.017 C 
ATOM     28  C   UNL     1     155.680   9.615   9.085  1.00  0.00     0.012 C 
ATOM     29  C   UNL     1     154.887   8.334  11.125  1.00  0.00     0.012 C 
ENDBRANCH  20  27
BRANCH  21  30
ATOM     30  O   UNL     1     160.536   6.656   9.620  1.00  0.00    -0.504 OA
ATOM     31  H   UNL     1     160.989   6.507  10.513  1.00  0.00     0.293 HD
ENDBRANCH  21  30
BRANCH  22  32
ATOM     32  O   UNL     1     158.902   8.446  10.897  1.00  0.00    -0.504 OA
ATOM     33  H   UNL     1     159.895   8.483  11.096  1.00  0.00     0.293 HD
ENDBRANCH  22  32
ENDBRANCH  11  12
BRANCH  10  34
ATOM     34  O   UNL     1     155.636   3.573   5.078  1.00  0.00    -0.507 OA
ATOM     35  H   UNL     1     155.394   4.095   4.245  1.00  0.00     0.293 HD
ENDBRANCH  10  34
BRANCH   9  36
ATOM     36  C   UNL     1     151.625  -1.204   6.060  1.00  0.00     0.017 C 
ATOM     37  C   UNL     1     152.186  -1.676   7.404  1.00  0.00     0.012 C 
ATOM     38  C   UNL     1     151.085  -2.386   5.231  1.00  0.00     0.012 C 
ENDBRANCH   9  36
BRANCH   6  39
ATOM     39  C   UNL     1     154.797   2.435   2.817  1.00  0.00     0.264 C 
ATOM     40  O   UNL     1     155.963   2.299   2.356  1.00  0.00    -0.298 OA
ENDBRANCH   6  39
BRANCH   8  41
ATOM     41  O   UNL     1     152.695  -1.947   3.499  1.00  0.00    -0.504 OA
ATOM     42  H   UNL     1     153.231  -2.439   2.797  1.00  0.00     0.293 HD
ENDBRANCH   8  41
BRANCH   7  43
ATOM     43  O   UNL     1     153.915  -0.002   1.824  1.00  0.00    -0.504 OA
ATOM     44  H   UNL     1     153.408   0.475   1.093  1.00  0.00     0.293 HD
ENDBRANCH   7  43
TORSDOF 11
ENDMDL
