MODEL 1
REMARK VINA RESULT:    -4.673      0.000      0.000
REMARK INTER + INTRA:          -7.954
REMARK INTER:                  -7.132
REMARK INTRA:                  -0.822
REMARK UNBOUND:                -0.822
REMARK SMILES O=C([O-])CCCCCCCCC(=O)[O-]
REMARK SMILES IDX 7 1 6 2 5 3 4 4 2 5 1 6 3 7 8 8 9 9 10 10 11 11 12 12 13 13
REMARK SMILES IDX 14 14
REMARK H PARENT
REMARK Flexibility Score: inf
ROOT
ATOM      1  C   UNL     1      42.360  -9.320 -41.964  1.00  0.00     0.000 C 
ENDROOT
BRANCH   1   2
ATOM      2  C   UNL     1      43.520 -10.156 -41.394  1.00  0.00     0.000 C 
BRANCH   2   3
ATOM      3  C   UNL     1      43.041 -11.302 -40.488  1.00  0.00     0.006 C 
BRANCH   3   4
ATOM      4  C   UNL     1      43.528 -11.140 -39.042  1.00  0.00     0.053 C 
BRANCH   4   5
ATOM      5  C   UNL     1      42.566 -10.341 -38.218  1.00  0.00     0.041 C 
ATOM      6  O   UNL     1      42.676  -9.089 -38.153  1.00  0.00    -0.550 OA
ATOM      7  O   UNL     1      41.570 -10.982 -37.492  1.00  0.00    -0.550 OA
ENDBRANCH   4   5
ENDBRANCH   3   4
ENDBRANCH   2   3
ENDBRANCH   1   2
BRANCH   1   8
ATOM      8  C   UNL     1      40.966  -9.845 -41.560  1.00  0.00     0.000 C 
BRANCH   8   9
ATOM      9  C   UNL     1      40.180 -10.391 -42.765  1.00  0.00     0.000 C 
BRANCH   9  10
ATOM     10  C   UNL     1      41.000 -10.368 -44.065  1.00  0.00     0.006 C 
BRANCH  10  11
ATOM     11  C   UNL     1      41.143 -11.758 -44.699  1.00  0.00     0.053 C 
BRANCH  11  12
ATOM     12  C   UNL     1      42.555 -11.989 -45.139  1.00  0.00     0.041 C 
ATOM     13  O   UNL     1      42.863 -11.895 -46.357  1.00  0.00    -0.550 OA
ATOM     14  O   UNL     1      43.541 -12.257 -44.198  1.00  0.00    -0.550 OA
ENDBRANCH  11  12
ENDBRANCH  10  11
ENDBRANCH   9  10
ENDBRANCH   8   9
ENDBRANCH   1   8
TORSDOF 9
ENDMDL
MODEL 2
REMARK VINA RESULT:    -4.595      1.128      5.707
REMARK INTER + INTRA:          -7.835
REMARK INTER:                  -7.080
REMARK INTRA:                  -0.755
REMARK UNBOUND:                -0.822
REMARK SMILES O=C([O-])CCCCCCCCC(=O)[O-]
REMARK SMILES IDX 7 1 6 2 5 3 4 4 2 5 1 6 3 7 8 8 9 9 10 10 11 11 12 12 13 13
REMARK SMILES IDX 14 14
REMARK H PARENT
REMARK Flexibility Score: inf
ROOT
ATOM      1  C   UNL     1      41.010  -8.404 -43.501  1.00  0.00     0.000 C 
ENDROOT
BRANCH   1   2
ATOM      2  C   UNL     1      40.214  -9.447 -44.305  1.00  0.00     0.000 C 
BRANCH   2   3
ATOM      3  C   UNL     1      40.317 -10.862 -43.715  1.00  0.00     0.006 C 
BRANCH   3   4
ATOM      4  C   UNL     1      40.783 -11.891 -44.753  1.00  0.00     0.053 C 
BRANCH   4   5
ATOM      5  C   UNL     1      42.276 -11.934 -44.861  1.00  0.00     0.041 C 
ATOM      6  O   UNL     1      42.830 -11.917 -45.992  1.00  0.00    -0.550 OA
ATOM      7  O   UNL     1      43.055 -12.029 -43.715  1.00  0.00    -0.550 OA
ENDBRANCH   4   5
ENDBRANCH   3   4
ENDBRANCH   2   3
ENDBRANCH   1   2
BRANCH   1   8
ATOM      8  C   UNL     1      41.833  -9.014 -42.346  1.00  0.00     0.000 C 
BRANCH   8   9
ATOM      9  C   UNL     1      41.267  -8.633 -40.966  1.00  0.00     0.000 C 
BRANCH   9  10
ATOM     10  C   UNL     1      40.829  -9.858 -40.148  1.00  0.00     0.006 C 
BRANCH  10  11
ATOM     11  C   UNL     1      42.001 -10.780 -39.790  1.00  0.00     0.053 C 
BRANCH  11  12
ATOM     12  C   UNL     1      42.765 -10.228 -38.628  1.00  0.00     0.041 C 
ATOM     13  O   UNL     1      42.257 -10.233 -37.475  1.00  0.00    -0.550 OA
ATOM     14  O   UNL     1      44.058  -9.754 -38.808  1.00  0.00    -0.550 OA
ENDBRANCH  11  12
ENDBRANCH  10  11
ENDBRANCH   9  10
ENDBRANCH   8   9
ENDBRANCH   1   8
TORSDOF 9
ENDMDL
MODEL 3
REMARK VINA RESULT:    -4.520      2.073      5.632
REMARK INTER + INTRA:          -7.720
REMARK INTER:                  -7.061
REMARK INTRA:                  -0.660
REMARK UNBOUND:                -0.822
REMARK SMILES O=C([O-])CCCCCCCCC(=O)[O-]
REMARK SMILES IDX 7 1 6 2 5 3 4 4 2 5 1 6 3 7 8 8 9 9 10 10 11 11 12 12 13 13
REMARK SMILES IDX 14 14
REMARK H PARENT
REMARK Flexibility Score: inf
ROOT
ATOM      1  C   UNL     1      40.493 -10.187 -42.051  1.00  0.00     0.000 C 
ENDROOT
BRANCH   1   2
ATOM      2  C   UNL     1      41.096  -9.279 -43.137  1.00  0.00     0.000 C 
BRANCH   2   3
ATOM      3  C   UNL     1      40.937  -9.854 -44.553  1.00  0.00     0.006 C 
BRANCH   3   4
ATOM      4  C   UNL     1      40.977 -11.388 -44.564  1.00  0.00     0.053 C 
BRANCH   4   5
ATOM      5  C   UNL     1      42.354 -11.906 -44.847  1.00  0.00     0.041 C 
ATOM      6  O   UNL     1      42.758 -12.012 -46.034  1.00  0.00    -0.550 OA
ATOM      7  O   UNL     1      43.177 -12.304 -43.802  1.00  0.00    -0.550 OA
ENDBRANCH   4   5
ENDBRANCH   3   4
ENDBRANCH   2   3
ENDBRANCH   1   2
BRANCH   1   8
ATOM      8  C   UNL     1      41.423 -10.394 -40.836  1.00  0.00     0.000 C 
BRANCH   8   9
ATOM      9  C   UNL     1      42.876  -9.992 -41.142  1.00  0.00     0.000 C 
BRANCH   9  10
ATOM     10  C   UNL     1      43.865 -10.489 -40.076  1.00  0.00     0.006 C 
BRANCH  10  11
ATOM     11  C   UNL     1      44.606 -11.762 -40.502  1.00  0.00     0.053 C 
BRANCH  11  12
ATOM     12  C   UNL     1      45.497 -12.242 -39.401  1.00  0.00     0.041 C 
ATOM     13  O   UNL     1      45.091 -12.237 -38.209  1.00  0.00    -0.550 OA
ATOM     14  O   UNL     1      46.758 -12.744 -39.696  1.00  0.00    -0.550 OA
ENDBRANCH  11  12
ENDBRANCH  10  11
ENDBRANCH   9  10
ENDBRANCH   8   9
ENDBRANCH   1   8
TORSDOF 9
ENDMDL
MODEL 4
REMARK VINA RESULT:    -4.498      5.594      9.166
REMARK INTER + INTRA:          -7.686
REMARK INTER:                  -6.910
REMARK INTRA:                  -0.776
REMARK UNBOUND:                -0.822
REMARK SMILES O=C([O-])CCCCCCCCC(=O)[O-]
REMARK SMILES IDX 7 1 6 2 5 3 4 4 2 5 1 6 3 7 8 8 9 9 10 10 11 11 12 12 13 13
REMARK SMILES IDX 14 14
REMARK H PARENT
REMARK Flexibility Score: inf
ROOT
ATOM      1  C   UNL     1      43.874 -12.530 -32.744  1.00  0.00     0.000 C 
ENDROOT
BRANCH   1   2
ATOM      2  C   UNL     1      43.186 -12.454 -34.118  1.00  0.00     0.000 C 
BRANCH   2   3
ATOM      3  C   UNL     1      43.987 -11.636 -35.143  1.00  0.00     0.006 C 
BRANCH   3   4
ATOM      4  C   UNL     1      43.615 -11.991 -36.588  1.00  0.00     0.053 C 
BRANCH   4   5
ATOM      5  C   UNL     1      42.543 -11.092 -37.123  1.00  0.00     0.041 C 
ATOM      6  O   UNL     1      42.821  -9.914 -37.472  1.00  0.00    -0.550 OA
ATOM      7  O   UNL     1      41.231 -11.542 -37.204  1.00  0.00    -0.550 OA
ENDBRANCH   4   5
ENDBRANCH   3   4
ENDBRANCH   2   3
ENDBRANCH   1   2
BRANCH   1   8
ATOM      8  C   UNL     1      44.103 -13.974 -32.249  1.00  0.00     0.000 C 
BRANCH   8   9
ATOM      9  C   UNL     1      44.685 -14.879 -33.349  1.00  0.00     0.000 C 
BRANCH   9  10
ATOM     10  C   UNL     1      46.215 -14.775 -33.454  1.00  0.00     0.006 C 
BRANCH  10  11
ATOM     11  C   UNL     1      46.675 -14.090 -34.747  1.00  0.00     0.053 C 
BRANCH  11  12
ATOM     12  C   UNL     1      47.834 -13.184 -34.475  1.00  0.00     0.041 C 
ATOM     13  O   UNL     1      48.075 -12.798 -33.301  1.00  0.00    -0.550 OA
ATOM     14  O   UNL     1      48.679 -12.807 -35.511  1.00  0.00    -0.550 OA
ENDBRANCH  11  12
ENDBRANCH  10  11
ENDBRANCH   9  10
ENDBRANCH   8   9
ENDBRANCH   1   8
TORSDOF 9
ENDMDL
MODEL 5
REMARK VINA RESULT:    -4.481      3.983      6.689
REMARK INTER + INTRA:          -7.660
REMARK INTER:                  -6.852
REMARK INTRA:                  -0.808
REMARK UNBOUND:                -0.822
REMARK SMILES O=C([O-])CCCCCCCCC(=O)[O-]
REMARK SMILES IDX 7 1 6 2 5 3 4 4 2 5 1 6 3 7 8 8 9 9 10 10 11 11 12 12 13 13
REMARK SMILES IDX 14 14
REMARK H PARENT
REMARK Flexibility Score: inf
ROOT
ATOM      1  C   UNL     1      41.980 -10.910 -39.966  1.00  0.00     0.000 C 
ENDROOT
BRANCH   1   2
ATOM      2  C   UNL     1      43.291 -10.646 -40.726  1.00  0.00     0.000 C 
BRANCH   2   3
ATOM      3  C   UNL     1      44.342 -11.745 -40.505  1.00  0.00     0.006 C 
BRANCH   3   4
ATOM      4  C   UNL     1      45.407 -11.332 -39.481  1.00  0.00     0.053 C 
BRANCH   4   5
ATOM      5  C   UNL     1      46.448 -12.394 -39.302  1.00  0.00     0.041 C 
ATOM      6  O   UNL     1      47.487 -12.388 -40.012  1.00  0.00    -0.550 OA
ATOM      7  O   UNL     1      46.254 -13.411 -38.376  1.00  0.00    -0.550 OA
ENDBRANCH   4   5
ENDBRANCH   3   4
ENDBRANCH   2   3
ENDBRANCH   1   2
BRANCH   1   8
ATOM      8  C   UNL     1      41.922 -10.228 -38.582  1.00  0.00     0.000 C 
BRANCH   8   9
ATOM      9  C   UNL     1      41.562 -11.221 -37.462  1.00  0.00     0.000 C 
BRANCH   9  10
ATOM     10  C   UNL     1      42.763 -12.070 -37.016  1.00  0.00     0.006 C 
BRANCH  10  11
ATOM     11  C   UNL     1      43.804 -11.259 -36.235  1.00  0.00     0.053 C 
BRANCH  11  12
ATOM     12  C   UNL     1      44.127 -11.933 -34.939  1.00  0.00     0.041 C 
ATOM     13  O   UNL     1      43.367 -11.793 -33.944  1.00  0.00    -0.550 OA
ATOM     14  O   UNL     1      45.240 -12.759 -34.843  1.00  0.00    -0.550 OA
ENDBRANCH  11  12
ENDBRANCH  10  11
ENDBRANCH   9  10
ENDBRANCH   8   9
ENDBRANCH   1   8
TORSDOF 9
ENDMDL
MODEL 6
REMARK VINA RESULT:    -4.472      2.372      2.555
REMARK INTER + INTRA:          -7.647
REMARK INTER:                  -7.201
REMARK INTRA:                  -0.445
REMARK UNBOUND:                -0.822
REMARK SMILES O=C([O-])CCCCCCCCC(=O)[O-]
REMARK SMILES IDX 7 1 6 2 5 3 4 4 2 5 1 6 3 7 8 8 9 9 10 10 11 11 12 12 13 13
REMARK SMILES IDX 14 14
REMARK H PARENT
REMARK Flexibility Score: inf
ROOT
ATOM      1  C   UNL     1      42.247  -9.703 -40.863  1.00  0.00     0.000 C 
ENDROOT
BRANCH   1   2
ATOM      2  C   UNL     1      43.604 -10.369 -41.152  1.00  0.00     0.000 C 
BRANCH   2   3
ATOM      3  C   UNL     1      44.153 -11.153 -39.949  1.00  0.00     0.006 C 
BRANCH   3   4
ATOM      4  C   UNL     1      44.735 -12.512 -40.360  1.00  0.00     0.053 C 
BRANCH   4   5
ATOM      5  C   UNL     1      46.009 -12.814 -39.632  1.00  0.00     0.041 C 
ATOM      6  O   UNL     1      47.046 -12.141 -39.865  1.00  0.00    -0.550 OA
ATOM      7  O   UNL     1      46.059 -13.862 -38.722  1.00  0.00    -0.550 OA
ENDBRANCH   4   5
ENDBRANCH   3   4
ENDBRANCH   2   3
ENDBRANCH   1   2
BRANCH   1   8
ATOM      8  C   UNL     1      41.594  -9.071 -42.110  1.00  0.00     0.000 C 
BRANCH   8   9
ATOM      9  C   UNL     1      40.553 -10.003 -42.755  1.00  0.00     0.000 C 
BRANCH   9  10
ATOM     10  C   UNL     1      40.783 -10.193 -44.263  1.00  0.00     0.006 C 
BRANCH  10  11
ATOM     11  C   UNL     1      40.955 -11.666 -44.654  1.00  0.00     0.053 C 
BRANCH  11  12
ATOM     12  C   UNL     1      42.390 -11.963 -44.956  1.00  0.00     0.041 C 
ATOM     13  O   UNL     1      42.818 -11.887 -46.138  1.00  0.00    -0.550 OA
ATOM     14  O   UNL     1      43.267 -12.275 -43.925  1.00  0.00    -0.550 OA
ENDBRANCH  11  12
ENDBRANCH  10  11
ENDBRANCH   9  10
ENDBRANCH   8   9
ENDBRANCH   1   8
TORSDOF 9
ENDMDL
MODEL 7
REMARK VINA RESULT:    -4.469      2.527      6.635
REMARK INTER + INTRA:          -7.642
REMARK INTER:                  -6.800
REMARK INTRA:                  -0.842
REMARK UNBOUND:                -0.822
REMARK SMILES O=C([O-])CCCCCCCCC(=O)[O-]
REMARK SMILES IDX 7 1 6 2 5 3 4 4 2 5 1 6 3 7 8 8 9 9 10 10 11 11 12 12 13 13
REMARK SMILES IDX 14 14
REMARK H PARENT
REMARK Flexibility Score: inf
ROOT
ATOM      1  C   UNL     1      46.379 -13.147 -38.432  1.00  0.00     0.000 C 
ENDROOT
BRANCH   1   2
ATOM      2  C   UNL     1      45.589 -13.041 -39.749  1.00  0.00     0.000 C 
BRANCH   2   3
ATOM      3  C   UNL     1      45.023 -11.633 -39.994  1.00  0.00     0.006 C 
BRANCH   3   4
ATOM      4  C   UNL     1      43.582 -11.671 -40.518  1.00  0.00     0.053 C 
BRANCH   4   5
ATOM      5  C   UNL     1      43.463 -11.026 -41.865  1.00  0.00     0.041 C 
ATOM      6  O   UNL     1      43.138  -9.813 -41.959  1.00  0.00    -0.550 OA
ATOM      7  O   UNL     1      43.676 -11.773 -43.017  1.00  0.00    -0.550 OA
ENDBRANCH   4   5
ENDBRANCH   3   4
ENDBRANCH   2   3
ENDBRANCH   1   2
BRANCH   1   8
ATOM      8  C   UNL     1      45.759 -14.133 -37.420  1.00  0.00     0.000 C 
BRANCH   8   9
ATOM      9  C   UNL     1      45.224 -13.417 -36.166  1.00  0.00     0.000 C 
BRANCH   9  10
ATOM     10  C   UNL     1      43.829 -12.809 -36.382  1.00  0.00     0.006 C 
BRANCH  10  11
ATOM     11  C   UNL     1      43.850 -11.276 -36.418  1.00  0.00     0.053 C 
BRANCH  11  12
ATOM     12  C   UNL     1      42.640 -10.753 -37.125  1.00  0.00     0.041 C 
ATOM     13  O   UNL     1      42.640  -9.588 -37.604  1.00  0.00    -0.550 OA
ATOM     14  O   UNL     1      41.530 -11.569 -37.301  1.00  0.00    -0.550 OA
ENDBRANCH  11  12
ENDBRANCH  10  11
ENDBRANCH   9  10
ENDBRANCH   8   9
ENDBRANCH   1   8
TORSDOF 9
ENDMDL
MODEL 8
REMARK VINA RESULT:    -4.459      3.922      5.189
REMARK INTER + INTRA:          -7.627
REMARK INTER:                  -6.914
REMARK INTRA:                  -0.713
REMARK UNBOUND:                -0.822
REMARK SMILES O=C([O-])CCCCCCCCC(=O)[O-]
REMARK SMILES IDX 7 1 6 2 5 3 4 4 2 5 1 6 3 7 8 8 9 9 10 10 11 11 12 12 13 13
REMARK SMILES IDX 14 14
REMARK H PARENT
REMARK Flexibility Score: inf
ROOT
ATOM      1  C   UNL     1      42.271 -11.378 -37.349  1.00  0.00     0.000 C 
ENDROOT
BRANCH   1   2
ATOM      2  C   UNL     1      43.667 -11.258 -36.715  1.00  0.00     0.000 C 
BRANCH   2   3
ATOM      3  C   UNL     1      44.148 -12.571 -36.077  1.00  0.00     0.006 C 
BRANCH   3   4
ATOM      4  C   UNL     1      43.122 -13.147 -35.093  1.00  0.00     0.053 C 
BRANCH   4   5
ATOM      5  C   UNL     1      43.467 -12.817 -33.673  1.00  0.00     0.041 C 
ATOM      6  O   UNL     1      43.977 -13.691 -32.925  1.00  0.00    -0.550 OA
ATOM      7  O   UNL     1      43.192 -11.553 -33.166  1.00  0.00    -0.550 OA
ENDBRANCH   4   5
ENDBRANCH   3   4
ENDBRANCH   2   3
ENDBRANCH   1   2
BRANCH   1   8
ATOM      8  C   UNL     1      41.995 -10.318 -38.437  1.00  0.00     0.000 C 
BRANCH   8   9
ATOM      9  C   UNL     1      42.117 -10.899 -39.857  1.00  0.00     0.000 C 
BRANCH   9  10
ATOM     10  C   UNL     1      43.520 -10.711 -40.456  1.00  0.00     0.006 C 
BRANCH  10  11
ATOM     11  C   UNL     1      44.172 -12.037 -40.865  1.00  0.00     0.053 C 
BRANCH  11  12
ATOM     12  C   UNL     1      45.304 -12.370 -39.946  1.00  0.00     0.041 C 
ATOM     13  O   UNL     1      46.012 -11.451 -39.454  1.00  0.00    -0.550 OA
ATOM     14  O   UNL     1      45.546 -13.690 -39.590  1.00  0.00    -0.550 OA
ENDBRANCH  11  12
ENDBRANCH  10  11
ENDBRANCH   9  10
ENDBRANCH   8   9
ENDBRANCH   1   8
TORSDOF 9
ENDMDL
MODEL 9
REMARK VINA RESULT:    -4.450      1.400      2.274
REMARK INTER + INTRA:          -7.613
REMARK INTER:                  -6.843
REMARK INTRA:                  -0.770
REMARK UNBOUND:                -0.822
REMARK SMILES O=C([O-])CCCCCCCCC(=O)[O-]
REMARK SMILES IDX 7 1 6 2 5 3 4 4 2 5 1 6 3 7 8 8 9 9 10 10 11 11 12 12 13 13
REMARK SMILES IDX 14 14
REMARK H PARENT
REMARK Flexibility Score: inf
ROOT
ATOM      1  C   UNL     1      43.827 -11.477 -40.930  1.00  0.00     0.000 C 
ENDROOT
BRANCH   1   2
ATOM      2  C   UNL     1      44.763 -11.211 -39.738  1.00  0.00     0.000 C 
BRANCH   2   3
ATOM      3  C   UNL     1      44.263 -11.847 -38.432  1.00  0.00     0.006 C 
BRANCH   3   4
ATOM      4  C   UNL     1      43.913 -10.795 -37.372  1.00  0.00     0.053 C 
BRANCH   4   5
ATOM      5  C   UNL     1      42.547 -10.218 -37.590  1.00  0.00     0.041 C 
ATOM      6  O   UNL     1      41.533 -10.963 -37.554  1.00  0.00    -0.550 OA
ATOM      7  O   UNL     1      42.399  -8.866 -37.869  1.00  0.00    -0.550 OA
ENDBRANCH   4   5
ENDBRANCH   3   4
ENDBRANCH   2   3
ENDBRANCH   1   2
BRANCH   1   8
ATOM      8  C   UNL     1      42.980 -10.251 -41.334  1.00  0.00     0.000 C 
BRANCH   8   9
ATOM      9  C   UNL     1      41.475 -10.490 -41.115  1.00  0.00     0.000 C 
BRANCH   9  10
ATOM     10  C   UNL     1      40.604  -9.767 -42.155  1.00  0.00     0.006 C 
BRANCH  10  11
ATOM     11  C   UNL     1      41.189  -9.842 -43.571  1.00  0.00     0.053 C 
BRANCH  11  12
ATOM     12  C   UNL     1      40.866 -11.160 -44.201  1.00  0.00     0.041 C 
ATOM     13  O   UNL     1      39.670 -11.469 -44.447  1.00  0.00    -0.550 OA
ATOM     14  O   UNL     1      41.889 -12.027 -44.562  1.00  0.00    -0.550 OA
ENDBRANCH  11  12
ENDBRANCH  10  11
ENDBRANCH   9  10
ENDBRANCH   8   9
ENDBRANCH   1   8
TORSDOF 9
ENDMDL
