MODEL 1
REMARK VINA RESULT:    -3.882      0.000      0.000
REMARK INTER + INTRA:          -4.403
REMARK INTER:                  -4.223
REMARK INTRA:                  -0.180
REMARK UNBOUND:                -0.180
REMARK SMILES Cc1ccc(C(C)C)c(O)c1
REMARK SMILES IDX 1 1 2 2 11 3 9 4 5 5 4 6 3 7 10 8 6 10 7 11 8 12
REMARK H PARENT 10 9
REMARK Flexibility Score: inf
ROOT
ATOM      1  C   UNL     1      37.125  -2.634  54.595  1.00  0.00     0.044 C 
ATOM      2  C   UNL     1      36.508  -2.547  55.960  1.00  0.00    -0.047 A 
ATOM      3  C   UNL     1      36.817  -3.501  56.937  1.00  0.00     0.049 A 
ATOM      4  C   UNL     1      36.230  -3.446  58.207  1.00  0.00     0.119 A 
ATOM      5  C   UNL     1      35.253  -2.455  58.496  1.00  0.00    -0.004 A 
ATOM      6  C   UNL     1      34.977  -1.484  57.509  1.00  0.00     0.008 A 
ATOM      7  C   UNL     1      35.583  -1.541  56.253  1.00  0.00     0.004 A 
ENDROOT
BRANCH   4   8
ATOM      8  O   UNL     1      36.659  -4.385  59.151  1.00  0.00    -0.508 OA
ATOM      9  H   UNL     1      36.619  -4.242  60.150  1.00  0.00     0.293 HD
ENDBRANCH   4   8
BRANCH   5  10
ATOM     10  C   UNL     1      34.564  -2.385  59.856  1.00  0.00     0.017 C 
ATOM     11  C   UNL     1      34.064  -0.962  60.124  1.00  0.00     0.012 C 
ATOM     12  C   UNL     1      33.420  -3.401  60.014  1.00  0.00     0.012 C 
ENDBRANCH   5  10
TORSDOF 2
ENDMDL
MODEL 2
REMARK VINA RESULT:    -3.710      1.133      4.187
REMARK INTER + INTRA:          -4.216
REMARK INTER:                  -4.039
REMARK INTRA:                  -0.177
REMARK UNBOUND:                -0.180
REMARK SMILES Cc1ccc(C(C)C)c(O)c1
REMARK SMILES IDX 1 1 2 2 11 3 9 4 5 5 4 6 3 7 10 8 6 10 7 11 8 12
REMARK H PARENT 10 9
REMARK Flexibility Score: inf
ROOT
ATOM      1  C   UNL     1      33.039  -1.641  60.124  1.00  0.00     0.044 C 
ATOM      2  C   UNL     1      33.923  -1.864  58.932  1.00  0.00    -0.047 A 
ATOM      3  C   UNL     1      34.809  -2.947  58.903  1.00  0.00     0.049 A 
ATOM      4  C   UNL     1      35.658  -3.153  57.808  1.00  0.00     0.119 A 
ATOM      5  C   UNL     1      35.677  -2.216  56.740  1.00  0.00    -0.004 A 
ATOM      6  C   UNL     1      34.756  -1.147  56.772  1.00  0.00     0.008 A 
ATOM      7  C   UNL     1      33.904  -0.965  57.863  1.00  0.00     0.004 A 
ENDROOT
BRANCH   4   8
ATOM      8  O   UNL     1      36.448  -4.306  57.820  1.00  0.00    -0.508 OA
ATOM      9  H   UNL     1      37.210  -4.477  57.179  1.00  0.00     0.293 HD
ENDBRANCH   4   8
BRANCH   5  10
ATOM     10  C   UNL     1      36.614  -2.386  55.546  1.00  0.00     0.017 C 
ATOM     11  C   UNL     1      35.990  -3.329  54.514  1.00  0.00     0.012 C 
ATOM     12  C   UNL     1      37.017  -1.054  54.891  1.00  0.00     0.012 C 
ENDBRANCH   5  10
TORSDOF 2
ENDMDL
MODEL 3
REMARK VINA RESULT:    -3.575      6.149      7.451
REMARK INTER + INTRA:          -4.068
REMARK INTER:                  -4.041
REMARK INTRA:                  -0.027
REMARK UNBOUND:                -0.180
REMARK SMILES Cc1ccc(C(C)C)c(O)c1
REMARK SMILES IDX 1 1 2 2 11 3 9 4 5 5 4 6 3 7 10 8 6 10 7 11 8 12
REMARK H PARENT 10 9
REMARK Flexibility Score: inf
ROOT
ATOM      1  C   UNL     1      36.273  -4.924  51.958  1.00  0.00     0.044 C 
ATOM      2  C   UNL     1      36.512  -6.183  52.739  1.00  0.00    -0.047 A 
ATOM      3  C   UNL     1      36.656  -7.408  52.077  1.00  0.00     0.049 A 
ATOM      4  C   UNL     1      36.854  -8.594  52.793  1.00  0.00     0.119 A 
ATOM      5  C   UNL     1      36.842  -8.575  54.214  1.00  0.00    -0.004 A 
ATOM      6  C   UNL     1      36.725  -7.328  54.864  1.00  0.00     0.008 A 
ATOM      7  C   UNL     1      36.545  -6.151  54.135  1.00  0.00     0.004 A 
ENDROOT
BRANCH   4   8
ATOM      8  O   UNL     1      37.076  -9.759  52.052  1.00  0.00    -0.508 OA
ATOM      9  H   UNL     1      36.959  -9.825  51.051  1.00  0.00     0.293 HD
ENDBRANCH   4   8
BRANCH   5  10
ATOM     10  C   UNL     1      37.019  -9.853  55.031  1.00  0.00     0.017 C 
ATOM     11  C   UNL     1      37.121  -9.518  56.522  1.00  0.00     0.012 C 
ATOM     12  C   UNL     1      35.914 -10.894  54.783  1.00  0.00     0.012 C 
ENDBRANCH   5  10
TORSDOF 2
ENDMDL
MODEL 4
REMARK VINA RESULT:    -3.545      5.712      7.775
REMARK INTER + INTRA:          -4.036
REMARK INTER:                  -3.867
REMARK INTRA:                  -0.169
REMARK UNBOUND:                -0.180
REMARK SMILES Cc1ccc(C(C)C)c(O)c1
REMARK SMILES IDX 1 1 2 2 11 3 9 4 5 5 4 6 3 7 10 8 6 10 7 11 8 12
REMARK H PARENT 10 9
REMARK Flexibility Score: inf
ROOT
ATOM      1  C   UNL     1      35.999 -11.399  54.390  1.00  0.00     0.044 C 
ATOM      2  C   UNL     1      36.236  -9.981  53.960  1.00  0.00    -0.047 A 
ATOM      3  C   UNL     1      36.540  -8.997  54.909  1.00  0.00     0.049 A 
ATOM      4  C   UNL     1      36.739  -7.665  54.525  1.00  0.00     0.119 A 
ATOM      5  C   UNL     1      36.564  -7.284  53.168  1.00  0.00    -0.004 A 
ATOM      6  C   UNL     1      36.287  -8.294  52.221  1.00  0.00     0.008 A 
ATOM      7  C   UNL     1      36.108  -9.621  52.616  1.00  0.00     0.004 A 
ENDROOT
BRANCH   4   8
ATOM      8  O   UNL     1      37.124  -6.763  55.522  1.00  0.00    -0.508 OA
ATOM      9  H   UNL     1      37.249  -7.012  56.494  1.00  0.00     0.293 HD
ENDBRANCH   4   8
BRANCH   5  10
ATOM     10  C   UNL     1      36.736  -5.835  52.716  1.00  0.00     0.017 C 
ATOM     11  C   UNL     1      37.033  -5.780  51.215  1.00  0.00     0.012 C 
ATOM     12  C   UNL     1      35.536  -4.940  53.066  1.00  0.00     0.012 C 
ENDBRANCH   5  10
TORSDOF 2
ENDMDL
MODEL 5
REMARK VINA RESULT:    -3.522      6.400      7.938
REMARK INTER + INTRA:          -4.011
REMARK INTER:                  -4.206
REMARK INTRA:                   0.195
REMARK UNBOUND:                -0.180
REMARK SMILES Cc1ccc(C(C)C)c(O)c1
REMARK SMILES IDX 1 1 2 2 11 3 9 4 5 5 4 6 3 7 10 8 6 10 7 11 8 12
REMARK H PARENT 10 9
REMARK Flexibility Score: inf
ROOT
ATOM      1  C   UNL     1      35.635 -12.125  53.699  1.00  0.00     0.044 C 
ATOM      2  C   UNL     1      35.937 -10.662  53.835  1.00  0.00    -0.047 A 
ATOM      3  C   UNL     1      36.124  -9.870  52.695  1.00  0.00     0.049 A 
ATOM      4  C   UNL     1      36.431  -8.509  52.808  1.00  0.00     0.119 A 
ATOM      5  C   UNL     1      36.626  -7.929  54.090  1.00  0.00    -0.004 A 
ATOM      6  C   UNL     1      36.404  -8.734  55.228  1.00  0.00     0.008 A 
ATOM      7  C   UNL     1      36.082 -10.086  55.100  1.00  0.00     0.004 A 
ENDROOT
BRANCH   4   8
ATOM      8  O   UNL     1      36.515  -7.772  51.622  1.00  0.00    -0.508 OA
ATOM      9  H   UNL     1      35.715  -7.481  51.078  1.00  0.00     0.293 HD
ENDBRANCH   4   8
BRANCH   5  10
ATOM     10  C   UNL     1      36.998  -6.456  54.252  1.00  0.00     0.017 C 
ATOM     11  C   UNL     1      35.993  -5.572  53.508  1.00  0.00     0.012 C 
ATOM     12  C   UNL     1      37.125  -6.017  55.721  1.00  0.00     0.012 C 
ENDBRANCH   5  10
TORSDOF 2
ENDMDL
MODEL 6
REMARK VINA RESULT:    -3.463      8.699     11.053
REMARK INTER + INTRA:          -3.947
REMARK INTER:                  -3.760
REMARK INTRA:                  -0.187
REMARK UNBOUND:                -0.180
REMARK SMILES Cc1ccc(C(C)C)c(O)c1
REMARK SMILES IDX 1 1 2 2 11 3 9 4 5 5 4 6 3 7 10 8 6 10 7 11 8 12
REMARK H PARENT 10 9
REMARK Flexibility Score: inf
ROOT
ATOM      1  C   UNL     1      34.084  -0.893  44.089  1.00  0.00     0.044 C 
ATOM      2  C   UNL     1      34.487  -1.629  45.334  1.00  0.00    -0.047 A 
ATOM      3  C   UNL     1      34.824  -2.986  45.275  1.00  0.00     0.049 A 
ATOM      4  C   UNL     1      35.178  -3.691  46.431  1.00  0.00     0.119 A 
ATOM      5  C   UNL     1      35.129  -3.048  47.697  1.00  0.00    -0.004 A 
ATOM      6  C   UNL     1      34.816  -1.672  47.735  1.00  0.00     0.008 A 
ATOM      7  C   UNL     1      34.482  -0.978  46.570  1.00  0.00     0.004 A 
ENDROOT
BRANCH   4   8
ATOM      8  O   UNL     1      35.585  -5.020  46.271  1.00  0.00    -0.508 OA
ATOM      9  H   UNL     1      35.206  -5.649  45.577  1.00  0.00     0.293 HD
ENDBRANCH   4   8
BRANCH   5  10
ATOM     10  C   UNL     1      35.472  -3.793  48.985  1.00  0.00     0.017 C 
ATOM     11  C   UNL     1      36.881  -3.419  49.453  1.00  0.00     0.012 C 
ATOM     12  C   UNL     1      34.448  -3.569  50.111  1.00  0.00     0.012 C 
ENDBRANCH   5  10
TORSDOF 2
ENDMDL
MODEL 7
REMARK VINA RESULT:    -3.390     14.813     16.521
REMARK INTER + INTRA:          -3.867
REMARK INTER:                  -3.677
REMARK INTRA:                  -0.190
REMARK UNBOUND:                -0.180
REMARK SMILES Cc1ccc(C(C)C)c(O)c1
REMARK SMILES IDX 1 1 2 2 11 3 9 4 5 5 4 6 3 7 10 8 6 10 7 11 8 12
REMARK H PARENT 10 9
REMARK Flexibility Score: inf
ROOT
ATOM      1  C   UNL     1      17.617  -4.623  55.042  1.00  0.00     0.044 C 
ATOM      2  C   UNL     1      18.362  -4.111  56.240  1.00  0.00    -0.047 A 
ATOM      3  C   UNL     1      17.821  -4.256  57.523  1.00  0.00     0.049 A 
ATOM      4  C   UNL     1      18.492  -3.761  58.647  1.00  0.00     0.119 A 
ATOM      5  C   UNL     1      19.705  -3.038  58.488  1.00  0.00    -0.004 A 
ATOM      6  C   UNL     1      20.250  -2.927  57.190  1.00  0.00     0.008 A 
ATOM      7  C   UNL     1      19.578  -3.441  56.081  1.00  0.00     0.004 A 
ENDROOT
BRANCH   4   8
ATOM      8  O   UNL     1      17.926  -4.026  59.898  1.00  0.00    -0.508 OA
ATOM      9  H   UNL     1      17.043  -3.647  60.212  1.00  0.00     0.293 HD
ENDBRANCH   4   8
BRANCH   5  10
ATOM     10  C   UNL     1      20.448  -2.451  59.686  1.00  0.00     0.017 C 
ATOM     11  C   UNL     1      21.949  -2.375  59.392  1.00  0.00     0.012 C 
ATOM     12  C   UNL     1      19.910  -1.079  60.125  1.00  0.00     0.012 C 
ENDBRANCH   5  10
TORSDOF 2
ENDMDL
MODEL 8
REMARK VINA RESULT:    -2.231      1.913      3.324
REMARK INTER + INTRA:          -2.607
REMARK INTER:                  -2.459
REMARK INTRA:                  -0.148
REMARK UNBOUND:                -0.180
REMARK SMILES Cc1ccc(C(C)C)c(O)c1
REMARK SMILES IDX 1 1 2 2 11 3 9 4 5 5 4 6 3 7 10 8 6 10 7 11 8 12
REMARK H PARENT 10 9
REMARK Flexibility Score: inf
ROOT
ATOM      1  C   UNL     1      37.125  -6.792  59.275  1.00  0.00     0.044 C 
ATOM      2  C   UNL     1      36.495  -5.442  59.097  1.00  0.00    -0.047 A 
ATOM      3  C   UNL     1      36.885  -4.615  58.037  1.00  0.00     0.049 A 
ATOM      4  C   UNL     1      36.325  -3.343  57.873  1.00  0.00     0.119 A 
ATOM      5  C   UNL     1      35.398  -2.847  58.830  1.00  0.00    -0.004 A 
ATOM      6  C   UNL     1      34.994  -3.705  59.875  1.00  0.00     0.008 A 
ATOM      7  C   UNL     1      35.550  -4.978  60.016  1.00  0.00     0.004 A 
ENDROOT
BRANCH   4   8
ATOM      8  O   UNL     1      36.705  -2.617  56.740  1.00  0.00    -0.508 OA
ATOM      9  H   UNL     1      36.098  -1.980  56.244  1.00  0.00     0.293 HD
ENDBRANCH   4   8
BRANCH   5  10
ATOM     10  C   UNL     1      34.793  -1.450  58.706  1.00  0.00     0.017 C 
ATOM     11  C   UNL     1      33.661  -1.455  57.674  1.00  0.00     0.012 C 
ATOM     12  C   UNL     1      34.304  -0.875  60.046  1.00  0.00     0.012 C 
ENDBRANCH   5  10
TORSDOF 2
ENDMDL
