MODEL 1
REMARK VINA RESULT:    -4.158      0.000      0.000
REMARK INTER + INTRA:          -6.130
REMARK INTER:                  -5.859
REMARK INTRA:                  -0.271
REMARK UNBOUND:                -0.271
REMARK SMILES CCCCCCCCC(=O)[O-]
REMARK SMILES IDX 6 1 7 2 8 3 9 4 10 5 11 6 5 7 4 8 3 9 2 10 1 11
REMARK H PARENT
REMARK Flexibility Score: inf
ROOT
ATOM      1  C   UNL     1     -42.630 -35.543  36.951  1.00  0.00     0.000 C 
ENDROOT
BRANCH   1   2
ATOM      2  C   UNL     1     -43.887 -35.534  36.068  1.00  0.00     0.006 C 
BRANCH   2   3
ATOM      3  C   UNL     1     -45.152 -35.693  36.918  1.00  0.00     0.053 C 
BRANCH   3   4
ATOM      4  C   UNL     1     -45.535 -37.136  37.023  1.00  0.00     0.041 C 
ATOM      5  O   UNL     1     -44.917 -38.006  36.355  1.00  0.00    -0.550 OA
ATOM      6  O   UNL     1     -46.542 -37.526  37.897  1.00  0.00    -0.550 OA
ENDBRANCH   3   4
ENDBRANCH   2   3
ENDBRANCH   1   2
BRANCH   1   7
ATOM      7  C   UNL     1     -41.337 -35.717  36.137  1.00  0.00     0.000 C 
BRANCH   7   8
ATOM      8  C   UNL     1     -40.075 -35.636  37.007  1.00  0.00    -0.000 C 
BRANCH   8   9
ATOM      9  C   UNL     1     -40.407 -35.110  38.410  1.00  0.00    -0.000 C 
BRANCH   9  10
ATOM     10  C   UNL     1     -39.175 -35.155  39.320  1.00  0.00    -0.003 C 
ATOM     11  C   UNL     1     -39.202 -36.385  40.224  1.00  0.00     0.004 C 
ENDBRANCH   9  10
ENDBRANCH   8   9
ENDBRANCH   7   8
ENDBRANCH   1   7
TORSDOF 7
ENDMDL
MODEL 2
REMARK VINA RESULT:    -4.121      1.282      2.375
REMARK INTER + INTRA:          -6.078
REMARK INTER:                  -5.497
REMARK INTRA:                  -0.582
REMARK UNBOUND:                -0.271
REMARK SMILES CCCCCCCCC(=O)[O-]
REMARK SMILES IDX 6 1 7 2 8 3 9 4 10 5 11 6 5 7 4 8 3 9 2 10 1 11
REMARK H PARENT
REMARK Flexibility Score: inf
ROOT
ATOM      1  C   UNL     1     -43.068 -34.808  38.687  1.00  0.00     0.000 C 
ENDROOT
BRANCH   1   2
ATOM      2  C   UNL     1     -44.145 -34.599  37.612  1.00  0.00     0.006 C 
BRANCH   2   3
ATOM      3  C   UNL     1     -44.050 -35.677  36.528  1.00  0.00     0.053 C 
BRANCH   3   4
ATOM      4  C   UNL     1     -45.043 -36.767  36.784  1.00  0.00     0.041 C 
ATOM      5  O   UNL     1     -46.171 -36.495  37.271  1.00  0.00    -0.550 OA
ATOM      6  O   UNL     1     -44.739 -38.079  36.438  1.00  0.00    -0.550 OA
ENDBRANCH   3   4
ENDBRANCH   2   3
ENDBRANCH   1   2
BRANCH   1   7
ATOM      7  C   UNL     1     -42.232 -33.543  38.940  1.00  0.00     0.000 C 
BRANCH   7   8
ATOM      8  C   UNL     1     -40.789 -33.675  38.433  1.00  0.00    -0.000 C 
BRANCH   8   9
ATOM      9  C   UNL     1     -40.293 -35.121  38.559  1.00  0.00    -0.000 C 
BRANCH   9  10
ATOM     10  C   UNL     1     -39.561 -35.565  37.288  1.00  0.00    -0.003 C 
ATOM     11  C   UNL     1     -40.545 -35.874  36.164  1.00  0.00     0.004 C 
ENDBRANCH   9  10
ENDBRANCH   8   9
ENDBRANCH   7   8
ENDBRANCH   1   7
TORSDOF 7
ENDMDL
MODEL 3
REMARK VINA RESULT:    -4.069      2.677      3.074
REMARK INTER + INTRA:          -6.005
REMARK INTER:                  -5.675
REMARK INTRA:                  -0.330
REMARK UNBOUND:                -0.271
REMARK SMILES CCCCCCCCC(=O)[O-]
REMARK SMILES IDX 6 1 7 2 8 3 9 4 10 5 11 6 5 7 4 8 3 9 2 10 1 11
REMARK H PARENT
REMARK Flexibility Score: inf
ROOT
ATOM      1  C   UNL     1     -43.564 -36.012  36.529  1.00  0.00     0.000 C 
ENDROOT
BRANCH   1   2
ATOM      2  C   UNL     1     -44.733 -35.016  36.470  1.00  0.00     0.006 C 
BRANCH   2   3
ATOM      3  C   UNL     1     -44.917 -34.310  37.817  1.00  0.00     0.053 C 
BRANCH   3   4
ATOM      4  C   UNL     1     -45.035 -32.832  37.622  1.00  0.00     0.041 C 
ATOM      5  O   UNL     1     -45.963 -32.357  36.917  1.00  0.00    -0.550 OA
ATOM      6  O   UNL     1     -44.146 -31.974  38.258  1.00  0.00    -0.550 OA
ENDBRANCH   3   4
ENDBRANCH   2   3
ENDBRANCH   1   2
BRANCH   1   7
ATOM      7  C   UNL     1     -42.230 -35.338  36.890  1.00  0.00     0.000 C 
BRANCH   7   8
ATOM      8  C   UNL     1     -41.048 -35.896  36.086  1.00  0.00    -0.000 C 
BRANCH   8   9
ATOM      9  C   UNL     1     -39.722 -35.655  36.820  1.00  0.00    -0.000 C 
BRANCH   9  10
ATOM     10  C   UNL     1     -39.965 -35.091  38.224  1.00  0.00    -0.003 C 
ATOM     11  C   UNL     1     -39.226 -35.907  39.281  1.00  0.00     0.004 C 
ENDBRANCH   9  10
ENDBRANCH   8   9
ENDBRANCH   7   8
ENDBRANCH   1   7
TORSDOF 7
ENDMDL
MODEL 4
REMARK VINA RESULT:    -4.010      1.882      2.820
REMARK INTER + INTRA:          -5.922
REMARK INTER:                  -5.719
REMARK INTRA:                  -0.202
REMARK UNBOUND:                -0.271
REMARK SMILES CCCCCCCCC(=O)[O-]
REMARK SMILES IDX 6 1 7 2 8 3 9 4 10 5 11 6 5 7 4 8 3 9 2 10 1 11
REMARK H PARENT
REMARK Flexibility Score: inf
ROOT
ATOM      1  C   UNL     1     -44.526 -37.034  36.630  1.00  0.00     0.000 C 
ENDROOT
BRANCH   1   2
ATOM      2  C   UNL     1     -46.000 -36.794  36.990  1.00  0.00     0.006 C 
BRANCH   2   3
ATOM      3  C   UNL     1     -46.403 -37.617  38.217  1.00  0.00     0.053 C 
BRANCH   3   4
ATOM      4  C   UNL     1     -47.549 -36.969  38.928  1.00  0.00     0.041 C 
ATOM      5  O   UNL     1     -47.530 -35.734  39.168  1.00  0.00    -0.550 OA
ATOM      6  O   UNL     1     -48.662 -37.723  39.283  1.00  0.00    -0.550 OA
ENDBRANCH   3   4
ENDBRANCH   2   3
ENDBRANCH   1   2
BRANCH   1   7
ATOM      7  C   UNL     1     -43.789 -35.737  36.256  1.00  0.00     0.000 C 
BRANCH   7   8
ATOM      8  C   UNL     1     -42.458 -35.576  37.003  1.00  0.00    -0.000 C 
BRANCH   8   9
ATOM      9  C   UNL     1     -41.270 -35.685  36.038  1.00  0.00    -0.000 C 
BRANCH   9  10
ATOM     10  C   UNL     1     -39.944 -35.758  36.803  1.00  0.00    -0.003 C 
ATOM     11  C   UNL     1     -39.951 -34.822  38.009  1.00  0.00     0.004 C 
ENDBRANCH   9  10
ENDBRANCH   8   9
ENDBRANCH   7   8
ENDBRANCH   1   7
TORSDOF 7
ENDMDL
MODEL 5
REMARK VINA RESULT:    -3.909      3.340      5.563
REMARK INTER + INTRA:          -5.779
REMARK INTER:                  -5.362
REMARK INTRA:                  -0.417
REMARK UNBOUND:                -0.271
REMARK SMILES CCCCCCCCC(=O)[O-]
REMARK SMILES IDX 6 1 7 2 8 3 9 4 10 5 11 6 5 7 4 8 3 9 2 10 1 11
REMARK H PARENT
REMARK Flexibility Score: inf
ROOT
ATOM      1  C   UNL     1     -41.413 -35.854  36.060  1.00  0.00     0.000 C 
ENDROOT
BRANCH   1   2
ATOM      2  C   UNL     1     -40.431 -34.973  36.847  1.00  0.00     0.006 C 
BRANCH   2   3
ATOM      3  C   UNL     1     -39.346 -35.824  37.514  1.00  0.00     0.053 C 
BRANCH   3   4
ATOM      4  C   UNL     1     -39.370 -35.635  38.998  1.00  0.00     0.041 C 
ATOM      5  O   UNL     1     -39.080 -36.592  39.763  1.00  0.00    -0.550 OA
ATOM      6  O   UNL     1     -39.665 -34.388  39.535  1.00  0.00    -0.550 OA
ENDBRANCH   3   4
ENDBRANCH   2   3
ENDBRANCH   1   2
BRANCH   1   7
ATOM      7  C   UNL     1     -42.877 -35.612  36.461  1.00  0.00     0.000 C 
BRANCH   7   8
ATOM      8  C   UNL     1     -43.019 -35.089  37.897  1.00  0.00    -0.000 C 
BRANCH   8   9
ATOM      9  C   UNL     1     -44.475 -34.715  38.203  1.00  0.00    -0.000 C 
BRANCH   9  10
ATOM     10  C   UNL     1     -45.258 -34.446  36.913  1.00  0.00    -0.003 C 
ATOM     11  C   UNL     1     -45.964 -33.094  36.968  1.00  0.00     0.004 C 
ENDBRANCH   9  10
ENDBRANCH   8   9
ENDBRANCH   7   8
ENDBRANCH   1   7
TORSDOF 7
ENDMDL
MODEL 6
REMARK VINA RESULT:    -3.883      2.710      5.378
REMARK INTER + INTRA:          -5.743
REMARK INTER:                  -5.284
REMARK INTRA:                  -0.459
REMARK UNBOUND:                -0.271
REMARK SMILES CCCCCCCCC(=O)[O-]
REMARK SMILES IDX 6 1 7 2 8 3 9 4 10 5 11 6 5 7 4 8 3 9 2 10 1 11
REMARK H PARENT
REMARK Flexibility Score: inf
ROOT
ATOM      1  C   UNL     1     -43.406 -33.707  38.279  1.00  0.00     0.000 C 
ENDROOT
BRANCH   1   2
ATOM      2  C   UNL     1     -42.612 -34.992  38.000  1.00  0.00     0.006 C 
BRANCH   2   3
ATOM      3  C   UNL     1     -41.111 -34.699  37.914  1.00  0.00     0.053 C 
BRANCH   3   4
ATOM      4  C   UNL     1     -40.489 -35.474  36.795  1.00  0.00     0.041 C 
ATOM      5  O   UNL     1     -41.166 -35.768  35.775  1.00  0.00    -0.550 OA
ATOM      6  O   UNL     1     -39.147 -35.829  36.858  1.00  0.00    -0.550 OA
ENDBRANCH   3   4
ENDBRANCH   2   3
ENDBRANCH   1   2
BRANCH   1   7
ATOM      7  C   UNL     1     -44.852 -33.781  37.763  1.00  0.00     0.000 C 
BRANCH   7   8
ATOM      8  C   UNL     1     -45.130 -35.060  36.961  1.00  0.00    -0.000 C 
BRANCH   8   9
ATOM      9  C   UNL     1     -46.115 -35.972  37.705  1.00  0.00    -0.000 C 
BRANCH   9  10
ATOM     10  C   UNL     1     -46.106 -37.387  37.117  1.00  0.00    -0.003 C 
ATOM     11  C   UNL     1     -44.729 -37.747  36.564  1.00  0.00     0.004 C 
ENDBRANCH   9  10
ENDBRANCH   8   9
ENDBRANCH   7   8
ENDBRANCH   1   7
TORSDOF 7
ENDMDL
MODEL 7
REMARK VINA RESULT:    -3.869      3.336      5.593
REMARK INTER + INTRA:          -5.723
REMARK INTER:                  -5.015
REMARK INTRA:                  -0.708
REMARK UNBOUND:                -0.271
REMARK SMILES CCCCCCCCC(=O)[O-]
REMARK SMILES IDX 6 1 7 2 8 3 9 4 10 5 11 6 5 7 4 8 3 9 2 10 1 11
REMARK H PARENT
REMARK Flexibility Score: inf
ROOT
ATOM      1  C   UNL     1     -44.979 -35.076  36.638  1.00  0.00     0.000 C 
ENDROOT
BRANCH   1   2
ATOM      2  C   UNL     1     -44.344 -34.217  37.742  1.00  0.00     0.006 C 
BRANCH   2   3
ATOM      3  C   UNL     1     -43.409 -35.057  38.618  1.00  0.00     0.053 C 
BRANCH   3   4
ATOM      4  C   UNL     1     -42.108 -34.347  38.826  1.00  0.00     0.041 C 
ATOM      5  O   UNL     1     -42.078 -33.092  38.913  1.00  0.00    -0.550 OA
ATOM      6  O   UNL     1     -40.934 -35.077  38.974  1.00  0.00    -0.550 OA
ENDBRANCH   3   4
ENDBRANCH   2   3
ENDBRANCH   1   2
BRANCH   1   7
ATOM      7  C   UNL     1     -44.458 -36.522  36.641  1.00  0.00     0.000 C 
BRANCH   7   8
ATOM      8  C   UNL     1     -45.586 -37.558  36.743  1.00  0.00    -0.000 C 
BRANCH   8   9
ATOM      9  C   UNL     1     -46.032 -37.742  38.199  1.00  0.00    -0.000 C 
BRANCH   9  10
ATOM     10  C   UNL     1     -47.465 -37.238  38.404  1.00  0.00    -0.003 C 
ATOM     11  C   UNL     1     -47.492 -36.001  39.297  1.00  0.00     0.004 C 
ENDBRANCH   9  10
ENDBRANCH   8   9
ENDBRANCH   7   8
ENDBRANCH   1   7
TORSDOF 7
ENDMDL
MODEL 8
REMARK VINA RESULT:    -3.859      3.140      5.755
REMARK INTER + INTRA:          -5.709
REMARK INTER:                  -5.443
REMARK INTRA:                  -0.266
REMARK UNBOUND:                -0.271
REMARK SMILES CCCCCCCCC(=O)[O-]
REMARK SMILES IDX 6 1 7 2 8 3 9 4 10 5 11 6 5 7 4 8 3 9 2 10 1 11
REMARK H PARENT
REMARK Flexibility Score: inf
ROOT
ATOM      1  C   UNL     1     -42.869 -35.513  37.231  1.00  0.00     0.000 C 
ENDROOT
BRANCH   1   2
ATOM      2  C   UNL     1     -41.912 -35.473  36.030  1.00  0.00     0.006 C 
BRANCH   2   3
ATOM      3  C   UNL     1     -40.481 -35.812  36.461  1.00  0.00     0.053 C 
BRANCH   3   4
ATOM      4  C   UNL     1     -40.063 -34.952  37.612  1.00  0.00     0.041 C 
ATOM      5  O   UNL     1     -40.083 -33.698  37.506  1.00  0.00    -0.550 OA
ATOM      6  O   UNL     1     -39.698 -35.535  38.819  1.00  0.00    -0.550 OA
ENDBRANCH   3   4
ENDBRANCH   2   3
ENDBRANCH   1   2
BRANCH   1   7
ATOM      7  C   UNL     1     -44.323 -35.794  36.819  1.00  0.00     0.000 C 
BRANCH   7   8
ATOM      8  C   UNL     1     -44.569 -37.272  36.486  1.00  0.00    -0.000 C 
BRANCH   8   9
ATOM      9  C   UNL     1     -45.653 -37.867  37.394  1.00  0.00    -0.000 C 
BRANCH   9  10
ATOM     10  C   UNL     1     -46.759 -36.844  37.674  1.00  0.00    -0.003 C 
ATOM     11  C   UNL     1     -47.759 -37.378  38.697  1.00  0.00     0.004 C 
ENDBRANCH   9  10
ENDBRANCH   8   9
ENDBRANCH   7   8
ENDBRANCH   1   7
TORSDOF 7
ENDMDL
MODEL 9
REMARK VINA RESULT:    -3.825      1.834      2.905
REMARK INTER + INTRA:          -5.661
REMARK INTER:                  -5.075
REMARK INTRA:                  -0.586
REMARK UNBOUND:                -0.271
REMARK SMILES CCCCCCCCC(=O)[O-]
REMARK SMILES IDX 6 1 7 2 8 3 9 4 10 5 11 6 5 7 4 8 3 9 2 10 1 11
REMARK H PARENT
REMARK Flexibility Score: inf
ROOT
ATOM      1  C   UNL     1     -41.958 -33.524  39.428  1.00  0.00     0.000 C 
ENDROOT
BRANCH   1   2
ATOM      2  C   UNL     1     -42.938 -34.534  38.811  1.00  0.00     0.006 C 
BRANCH   2   3
ATOM      3  C   UNL     1     -44.037 -33.816  38.021  1.00  0.00     0.053 C 
BRANCH   3   4
ATOM      4  C   UNL     1     -44.732 -34.771  37.104  1.00  0.00     0.041 C 
ATOM      5  O   UNL     1     -44.174 -35.150  36.041  1.00  0.00    -0.550 OA
ATOM      6  O   UNL     1     -45.978 -35.282  37.447  1.00  0.00    -0.550 OA
ENDBRANCH   3   4
ENDBRANCH   2   3
ENDBRANCH   1   2
BRANCH   1   7
ATOM      7  C   UNL     1     -40.549 -33.621  38.820  1.00  0.00     0.000 C 
BRANCH   7   8
ATOM      8  C   UNL     1     -39.769 -34.842  39.328  1.00  0.00    -0.000 C 
BRANCH   8   9
ATOM      9  C   UNL     1     -39.401 -35.779  38.170  1.00  0.00    -0.000 C 
BRANCH   9  10
ATOM     10  C   UNL     1     -39.809 -35.174  36.822  1.00  0.00    -0.003 C 
ATOM     11  C   UNL     1     -40.830 -36.055  36.108  1.00  0.00     0.004 C 
ENDBRANCH   9  10
ENDBRANCH   8   9
ENDBRANCH   7   8
ENDBRANCH   1   7
TORSDOF 7
ENDMDL
