MODEL 1
REMARK VINA RESULT:    -4.396      0.000      0.000
REMARK INTER + INTRA:          -4.524
REMARK INTER:                  -4.524
REMARK INTRA:                   0.000
REMARK UNBOUND:                 0.000
REMARK SMILES Oc1ccc2[nH]ccc2c1
REMARK SMILES IDX 3 1 4 2 5 3 9 4 8 5 7 6 6 7 10 8 2 9 1 11
REMARK H PARENT 6 10 1 12
REMARK Flexibility Score: inf
ROOT
ATOM      1  C   UNL     1      18.100  -9.472 -22.986  1.00  0.00     0.048 A 
ATOM      2  C   UNL     1      17.070  -8.875 -22.235  1.00  0.00     0.030 A 
ATOM      3  C   UNL     1      16.807  -9.390 -20.968  1.00  0.00     0.046 A 
ATOM      4  C   UNL     1      17.519 -10.442 -20.455  1.00  0.00     0.003 A 
ATOM      5  C   UNL     1      17.019 -10.706 -19.199  1.00  0.00     0.028 A 
ATOM      6  C   UNL     1      16.003  -9.775 -19.010  1.00  0.00     0.083 A 
ATOM      7  N   UNL     1      15.877  -8.973 -20.093  1.00  0.00    -0.361 N 
ATOM      8  C   UNL     1      18.545 -11.056 -21.172  1.00  0.00     0.056 A 
ATOM      9  C   UNL     1      18.838 -10.561 -22.457  1.00  0.00     0.116 A 
ATOM     10  H   UNL     1      15.195  -8.192 -20.219  1.00  0.00     0.166 HD
ENDROOT
BRANCH   9  11
ATOM     11  O   UNL     1      19.857 -11.151 -23.201  1.00  0.00    -0.508 OA
ATOM     12  H   UNL     1      19.897 -12.155 -23.338  1.00  0.00     0.293 HD
ENDBRANCH   9  11
TORSDOF 1
ENDMDL
MODEL 2
REMARK VINA RESULT:    -4.282      2.208      3.481
REMARK INTER + INTRA:          -4.407
REMARK INTER:                  -4.407
REMARK INTRA:                   0.000
REMARK UNBOUND:                 0.000
REMARK SMILES Oc1ccc2[nH]ccc2c1
REMARK SMILES IDX 3 1 4 2 5 3 9 4 8 5 7 6 6 7 10 8 2 9 1 11
REMARK H PARENT 6 10 1 12
REMARK Flexibility Score: inf
ROOT
ATOM      1  C   UNL     1      16.171 -10.329 -18.978  1.00  0.00     0.048 A 
ATOM      2  C   UNL     1      16.039  -9.556 -20.146  1.00  0.00     0.030 A 
ATOM      3  C   UNL     1      17.064  -9.620 -21.088  1.00  0.00     0.046 A 
ATOM      4  C   UNL     1      18.170 -10.403 -20.896  1.00  0.00     0.003 A 
ATOM      5  C   UNL     1      18.984 -10.245 -21.997  1.00  0.00     0.028 A 
ATOM      6  C   UNL     1      18.310  -9.349 -22.820  1.00  0.00     0.083 A 
ATOM      7  N   UNL     1      17.137  -8.970 -22.261  1.00  0.00    -0.361 N 
ATOM      8  C   UNL     1      18.333 -11.181 -19.751  1.00  0.00     0.056 A 
ATOM      9  C   UNL     1      17.316 -11.141 -18.778  1.00  0.00     0.116 A 
ATOM     10  H   UNL     1      16.437  -8.307 -22.662  1.00  0.00     0.166 HD
ENDROOT
BRANCH   9  11
ATOM     11  O   UNL     1      17.447 -11.905 -17.621  1.00  0.00    -0.508 OA
ATOM     12  H   UNL     1      18.356 -12.196 -17.280  1.00  0.00     0.293 HD
ENDBRANCH   9  11
TORSDOF 1
ENDMDL
MODEL 3
REMARK VINA RESULT:    -3.994      1.995      2.557
REMARK INTER + INTRA:          -4.111
REMARK INTER:                  -4.111
REMARK INTRA:                   0.000
REMARK UNBOUND:                 0.000
REMARK SMILES Oc1ccc2[nH]ccc2c1
REMARK SMILES IDX 3 1 4 2 5 3 9 4 8 5 7 6 6 7 10 8 2 9 1 11
REMARK H PARENT 6 10 1 12
REMARK Flexibility Score: inf
ROOT
ATOM      1  C   UNL     1      18.046  -9.802 -22.942  1.00  0.00     0.048 A 
ATOM      2  C   UNL     1      18.894 -10.385 -21.982  1.00  0.00     0.030 A 
ATOM      3  C   UNL     1      18.378 -10.602 -20.706  1.00  0.00     0.046 A 
ATOM      4  C   UNL     1      17.091 -10.265 -20.381  1.00  0.00     0.003 A 
ATOM      5  C   UNL     1      16.895 -10.604 -19.061  1.00  0.00     0.028 A 
ATOM      6  C   UNL     1      18.107 -11.144 -18.642  1.00  0.00     0.083 A 
ATOM      7  N   UNL     1      19.010 -11.141 -19.650  1.00  0.00    -0.361 N 
ATOM      8  C   UNL     1      16.226  -9.686 -21.308  1.00  0.00     0.056 A 
ATOM      9  C   UNL     1      16.713  -9.452 -22.608  1.00  0.00     0.116 A 
ATOM     10  H   UNL     1      19.995 -11.487 -19.611  1.00  0.00     0.166 HD
ENDROOT
BRANCH   9  11
ATOM     11  O   UNL     1      15.875  -8.875 -23.559  1.00  0.00    -0.508 OA
ATOM     12  H   UNL     1      15.490  -7.947 -23.430  1.00  0.00     0.293 HD
ENDBRANCH   9  11
TORSDOF 1
ENDMDL
MODEL 4
REMARK VINA RESULT:    -3.954      2.476      3.621
REMARK INTER + INTRA:          -4.069
REMARK INTER:                  -4.069
REMARK INTRA:                   0.000
REMARK UNBOUND:                 0.000
REMARK SMILES Oc1ccc2[nH]ccc2c1
REMARK SMILES IDX 3 1 4 2 5 3 9 4 8 5 7 6 6 7 10 8 2 9 1 11
REMARK H PARENT 6 10 1 12
REMARK Flexibility Score: inf
ROOT
ATOM      1  C   UNL     1      18.640 -11.479 -19.132  1.00  0.00     0.048 A 
ATOM      2  C   UNL     1      18.900 -10.866 -20.372  1.00  0.00     0.030 A 
ATOM      3  C   UNL     1      17.879 -10.114 -20.951  1.00  0.00     0.046 A 
ATOM      4  C   UNL     1      16.659  -9.968 -20.347  1.00  0.00     0.003 A 
ATOM      5  C   UNL     1      15.884  -9.177 -21.166  1.00  0.00     0.028 A 
ATOM      6  C   UNL     1      16.698  -8.877 -22.254  1.00  0.00     0.083 A 
ATOM      7  N   UNL     1      17.916  -9.451 -22.118  1.00  0.00    -0.361 N 
ATOM      8  C   UNL     1      16.370 -10.562 -19.120  1.00  0.00     0.056 A 
ATOM      9  C   UNL     1      17.378 -11.330 -18.505  1.00  0.00     0.116 A 
ATOM     10  H   UNL     1      18.716  -9.389 -22.787  1.00  0.00     0.166 HD
ENDROOT
BRANCH   9  11
ATOM     11  O   UNL     1      17.122 -11.937 -17.278  1.00  0.00    -0.508 OA
ATOM     12  H   UNL     1      16.433 -12.675 -17.188  1.00  0.00     0.293 HD
ENDBRANCH   9  11
TORSDOF 1
ENDMDL
MODEL 5
REMARK VINA RESULT:    -3.949      3.265      4.928
REMARK INTER + INTRA:          -4.064
REMARK INTER:                  -4.064
REMARK INTRA:                   0.000
REMARK UNBOUND:                 0.000
REMARK SMILES Oc1ccc2[nH]ccc2c1
REMARK SMILES IDX 3 1 4 2 5 3 9 4 8 5 7 6 6 7 10 8 2 9 1 11
REMARK H PARENT 6 10 1 12
REMARK Flexibility Score: inf
ROOT
ATOM      1  C   UNL     1      17.401 -11.034 -22.637  1.00  0.00     0.048 A 
ATOM      2  C   UNL     1      17.813 -11.873 -23.689  1.00  0.00     0.030 A 
ATOM      3  C   UNL     1      18.950 -11.505 -24.406  1.00  0.00     0.046 A 
ATOM      4  C   UNL     1      19.652 -10.368 -24.110  1.00  0.00     0.003 A 
ATOM      5  C   UNL     1      20.708 -10.292 -24.992  1.00  0.00     0.028 A 
ATOM      6  C   UNL     1      20.586 -11.419 -25.800  1.00  0.00     0.083 A 
ATOM      7  N   UNL     1      19.511 -12.157 -25.438  1.00  0.00    -0.361 N 
ATOM      8  C   UNL     1      19.271  -9.516 -23.075  1.00  0.00     0.056 A 
ATOM      9  C   UNL     1      18.127  -9.856 -22.329  1.00  0.00     0.116 A 
ATOM     10  H   UNL     1      19.187 -13.049 -25.875  1.00  0.00     0.166 HD
ENDROOT
BRANCH   9  11
ATOM     11  O   UNL     1      17.718  -9.026 -21.288  1.00  0.00    -0.508 OA
ATOM     12  H   UNL     1      17.655  -8.022 -21.407  1.00  0.00     0.293 HD
ENDBRANCH   9  11
TORSDOF 1
ENDMDL
MODEL 6
REMARK VINA RESULT:    -3.921      2.059      2.848
REMARK INTER + INTRA:          -4.035
REMARK INTER:                  -4.035
REMARK INTRA:                   0.000
REMARK UNBOUND:                 0.000
REMARK SMILES Oc1ccc2[nH]ccc2c1
REMARK SMILES IDX 3 1 4 2 5 3 9 4 8 5 7 6 6 7 10 8 2 9 1 11
REMARK H PARENT 6 10 1 12
REMARK Flexibility Score: inf
ROOT
ATOM      1  C   UNL     1      18.993 -11.492 -25.056  1.00  0.00     0.048 A 
ATOM      2  C   UNL     1      17.890 -11.841 -24.255  1.00  0.00     0.030 A 
ATOM      3  C   UNL     1      17.850 -11.348 -22.952  1.00  0.00     0.046 A 
ATOM      4  C   UNL     1      18.843 -10.549 -22.453  1.00  0.00     0.003 A 
ATOM      5  C   UNL     1      18.508 -10.236 -21.154  1.00  0.00     0.028 A 
ATOM      6  C   UNL     1      17.296 -10.879 -20.927  1.00  0.00     0.083 A 
ATOM      7  N   UNL     1      16.897 -11.557 -22.029  1.00  0.00    -0.361 N 
ATOM      8  C   UNL     1      19.949 -10.184 -23.219  1.00  0.00     0.056 A 
ATOM      9  C   UNL     1      20.022 -10.665 -24.541  1.00  0.00     0.116 A 
ATOM     10  H   UNL     1      16.027 -12.126 -22.134  1.00  0.00     0.166 HD
ENDROOT
BRANCH   9  11
ATOM     11  O   UNL     1      21.114 -10.319 -25.334  1.00  0.00    -0.508 OA
ATOM     12  H   UNL     1      22.045 -10.232 -24.943  1.00  0.00     0.293 HD
ENDBRANCH   9  11
TORSDOF 1
ENDMDL
MODEL 7
REMARK VINA RESULT:    -3.882      3.070      4.618
REMARK INTER + INTRA:          -3.996
REMARK INTER:                  -3.996
REMARK INTRA:                   0.000
REMARK UNBOUND:                 0.000
REMARK SMILES Oc1ccc2[nH]ccc2c1
REMARK SMILES IDX 3 1 4 2 5 3 9 4 8 5 7 6 6 7 10 8 2 9 1 11
REMARK H PARENT 6 10 1 12
REMARK Flexibility Score: inf
ROOT
ATOM      1  C   UNL     1      18.694  -9.767 -21.707  1.00  0.00     0.048 A 
ATOM      2  C   UNL     1      19.545  -9.276 -22.714  1.00  0.00     0.030 A 
ATOM      3  C   UNL     1      19.655 -10.015 -23.891  1.00  0.00     0.046 A 
ATOM      4  C   UNL     1      18.964 -11.182 -24.075  1.00  0.00     0.003 A 
ATOM      5  C   UNL     1      19.288 -11.660 -25.326  1.00  0.00     0.028 A 
ATOM      6  C   UNL     1      20.183 -10.732 -25.848  1.00  0.00     0.083 A 
ATOM      7  N   UNL     1      20.404  -9.728 -24.968  1.00  0.00    -0.361 N 
ATOM      8  C   UNL     1      18.113 -11.696 -23.099  1.00  0.00     0.056 A 
ATOM      9  C   UNL     1      17.978 -10.976 -21.897  1.00  0.00     0.116 A 
ATOM     10  H   UNL     1      21.030  -8.903 -25.102  1.00  0.00     0.166 HD
ENDROOT
BRANCH   9  11
ATOM     11  O   UNL     1      17.136 -11.462 -20.900  1.00  0.00    -0.508 OA
ATOM     12  H   UNL     1      17.234 -12.404 -20.539  1.00  0.00     0.293 HD
ENDBRANCH   9  11
TORSDOF 1
ENDMDL
MODEL 8
REMARK VINA RESULT:    -3.812      2.896      3.684
REMARK INTER + INTRA:          -3.923
REMARK INTER:                  -3.923
REMARK INTRA:                   0.000
REMARK UNBOUND:                 0.000
REMARK SMILES Oc1ccc2[nH]ccc2c1
REMARK SMILES IDX 3 1 4 2 5 3 9 4 8 5 7 6 6 7 10 8 2 9 1 11
REMARK H PARENT 6 10 1 12
REMARK Flexibility Score: inf
ROOT
ATOM      1  C   UNL     1      18.819 -11.860 -25.540  1.00  0.00     0.048 A 
ATOM      2  C   UNL     1      19.597 -11.149 -24.608  1.00  0.00     0.030 A 
ATOM      3  C   UNL     1      19.067 -10.951 -23.334  1.00  0.00     0.046 A 
ATOM      4  C   UNL     1      17.831 -11.427 -22.987  1.00  0.00     0.003 A 
ATOM      5  C   UNL     1      17.604 -11.069 -21.675  1.00  0.00     0.028 A 
ATOM      6  C   UNL     1      18.746 -10.376 -21.287  1.00  0.00     0.083 A 
ATOM      7  N   UNL     1      19.637 -10.307 -22.303  1.00  0.00    -0.361 N 
ATOM      8  C   UNL     1      17.035 -12.135 -23.885  1.00  0.00     0.056 A 
ATOM      9  C   UNL     1      17.539 -12.353 -25.182  1.00  0.00     0.116 A 
ATOM     10  H   UNL     1      20.574  -9.845 -22.285  1.00  0.00     0.166 HD
ENDROOT
BRANCH   9  11
ATOM     11  O   UNL     1      16.769 -13.056 -26.105  1.00  0.00    -0.508 OA
ATOM     12  H   UNL     1      16.837 -12.871 -27.099  1.00  0.00     0.293 HD
ENDBRANCH   9  11
TORSDOF 1
ENDMDL
MODEL 9
REMARK VINA RESULT:    -3.797      2.573      4.192
REMARK INTER + INTRA:          -3.908
REMARK INTER:                  -3.908
REMARK INTRA:                   0.000
REMARK UNBOUND:                 0.000
REMARK SMILES Oc1ccc2[nH]ccc2c1
REMARK SMILES IDX 3 1 4 2 5 3 9 4 8 5 7 6 6 7 10 8 2 9 1 11
REMARK H PARENT 6 10 1 12
REMARK Flexibility Score: inf
ROOT
ATOM      1  C   UNL     1      17.648 -10.522 -20.215  1.00  0.00     0.048 A 
ATOM      2  C   UNL     1      18.619 -11.127 -21.035  1.00  0.00     0.030 A 
ATOM      3  C   UNL     1      18.748 -10.660 -22.341  1.00  0.00     0.046 A 
ATOM      4  C   UNL     1      17.964  -9.648 -22.826  1.00  0.00     0.003 A 
ATOM      5  C   UNL     1      18.337  -9.426 -24.134  1.00  0.00     0.028 A 
ATOM      6  C   UNL     1      19.356 -10.341 -24.380  1.00  0.00     0.083 A 
ATOM      7  N   UNL     1      19.604 -11.093 -23.282  1.00  0.00    -0.361 N 
ATOM      8  C   UNL     1      16.994  -9.027 -22.041  1.00  0.00     0.056 A 
ATOM      9  C   UNL     1      16.836  -9.474 -20.715  1.00  0.00     0.116 A 
ATOM     10  H   UNL     1      20.315 -11.853 -23.190  1.00  0.00     0.166 HD
ENDROOT
BRANCH   9  11
ATOM     11  O   UNL     1      15.875  -8.876 -19.903  1.00  0.00    -0.508 OA
ATOM     12  H   UNL     1      16.135  -8.236 -19.161  1.00  0.00     0.293 HD
ENDBRANCH   9  11
TORSDOF 1
ENDMDL
