MODEL 1
REMARK VINA RESULT:    -6.011      0.000      0.000
REMARK INTER + INTRA:         -10.593
REMARK INTER:                  -9.174
REMARK INTRA:                  -1.419
REMARK UNBOUND:                -1.419
REMARK SMILES CC(=O)CCC=C(C)CCC=C(C)CCC=C(C)C
REMARK SMILES IDX 10 1 11 2 12 3 13 4 14 5 15 6 16 7 18 8 17 9 19 10 9 11 7 12
REMARK SMILES IDX 6 13 8 14 5 15 4 16 2 17 3 18 1 19
REMARK H PARENT
REMARK Flexibility Score: inf
ROOT
ATOM      1  C   UNL     1       1.735  28.566  29.004  1.00  0.00     0.032 C 
ENDROOT
BRANCH   1   2
ATOM      2  C   UNL     1       2.499  27.718  29.991  1.00  0.00    -0.028 C 
ATOM      3  C   UNL     1       3.809  27.419  29.847  1.00  0.00    -0.077 C 
ATOM      4  C   UNL     1       4.609  27.931  28.672  1.00  0.00     0.039 C 
BRANCH   3   5
ATOM      5  C   UNL     1       4.492  26.551  30.885  1.00  0.00     0.034 C 
BRANCH   5   6
ATOM      6  C   UNL     1       5.757  25.881  30.329  1.00  0.00     0.032 C 
BRANCH   6   7
ATOM      7  C   UNL     1       5.586  24.386  30.196  1.00  0.00    -0.028 C 
ATOM      8  C   UNL     1       7.037  24.228  28.160  1.00  0.00     0.039 C 
ATOM      9  C   UNL     1       6.129  23.636  29.213  1.00  0.00    -0.080 C 
ATOM     10  C   UNL     1       5.827  22.160  29.187  1.00  0.00     0.039 C 
ENDBRANCH   6   7
ENDBRANCH   5   6
ENDBRANCH   3   5
ENDBRANCH   1   2
BRANCH   1  11
ATOM     11  C   UNL     1       1.783  30.048  29.392  1.00  0.00     0.034 C 
BRANCH  11  12
ATOM     12  C   UNL     1       1.307  30.248  30.816  1.00  0.00    -0.077 C 
ATOM     13  C   UNL     1       2.174  30.727  31.737  1.00  0.00    -0.028 C 
ATOM     14  C   UNL     1      -0.126  29.915  31.165  1.00  0.00     0.039 C 
BRANCH  13  15
ATOM     15  C   UNL     1       1.842  30.937  33.194  1.00  0.00     0.035 C 
BRANCH  15  16
ATOM     16  C   UNL     1       2.586  29.926  34.070  1.00  0.00     0.079 C 
BRANCH  16  17
ATOM     17  C   UNL     1       1.871  28.600  34.076  1.00  0.00     0.130 C 
ATOM     18  O   UNL     1       2.395  27.633  33.544  1.00  0.00    -0.300 OA
ATOM     19  C   UNL     1       0.523  28.442  34.715  1.00  0.00     0.087 C 
ENDBRANCH  16  17
ENDBRANCH  15  16
ENDBRANCH  13  15
ENDBRANCH  11  12
ENDBRANCH   1  11
TORSDOF 9
ENDMDL
MODEL 2
REMARK VINA RESULT:    -5.993      4.541      6.826
REMARK INTER + INTRA:         -10.565
REMARK INTER:                  -9.403
REMARK INTRA:                  -1.162
REMARK UNBOUND:                -1.419
REMARK SMILES CC(=O)CCC=C(C)CCC=C(C)CCC=C(C)C
REMARK SMILES IDX 10 1 11 2 12 3 13 4 14 5 15 6 16 7 18 8 17 9 19 10 9 11 7 12
REMARK SMILES IDX 6 13 8 14 5 15 4 16 2 17 3 18 1 19
REMARK H PARENT
REMARK Flexibility Score: inf
ROOT
ATOM      1  C   UNL     1      -1.021  27.650  32.058  1.00  0.00     0.032 C 
ENDROOT
BRANCH   1   2
ATOM      2  C   UNL     1      -0.328  28.974  32.276  1.00  0.00    -0.028 C 
ATOM      3  C   UNL     1       0.145  29.368  33.478  1.00  0.00    -0.077 C 
ATOM      4  C   UNL     1       0.016  28.492  34.702  1.00  0.00     0.039 C 
BRANCH   3   5
ATOM      5  C   UNL     1       0.818  30.720  33.604  1.00  0.00     0.034 C 
BRANCH   5   6
ATOM      6  C   UNL     1       2.204  30.734  32.941  1.00  0.00     0.032 C 
BRANCH   6   7
ATOM      7  C   UNL     1       3.035  29.543  33.355  1.00  0.00    -0.028 C 
ATOM      8  C   UNL     1       2.967  28.488  31.085  1.00  0.00     0.039 C 
ATOM      9  C   UNL     1       3.361  28.515  32.543  1.00  0.00    -0.080 C 
ATOM     10  C   UNL     1       4.158  27.372  33.117  1.00  0.00     0.039 C 
ENDBRANCH   6   7
ENDBRANCH   5   6
ENDBRANCH   3   5
ENDBRANCH   1   2
BRANCH   1  11
ATOM     11  C   UNL     1      -1.007  27.253  30.578  1.00  0.00     0.034 C 
BRANCH  11  12
ATOM     12  C   UNL     1      -2.222  26.418  30.233  1.00  0.00    -0.077 C 
ATOM     13  C   UNL     1      -3.353  26.574  30.956  1.00  0.00    -0.028 C 
ATOM     14  C   UNL     1      -2.138  25.440  29.082  1.00  0.00     0.039 C 
BRANCH  13  15
ATOM     15  C   UNL     1      -4.620  25.782  30.744  1.00  0.00     0.035 C 
BRANCH  15  16
ATOM     16  C   UNL     1      -4.620  24.517  31.607  1.00  0.00     0.079 C 
BRANCH  16  17
ATOM     17  C   UNL     1      -5.742  24.560  32.612  1.00  0.00     0.130 C 
ATOM     18  O   UNL     1      -5.639  23.929  33.654  1.00  0.00    -0.300 OA
ATOM     19  C   UNL     1      -6.988  25.354  32.359  1.00  0.00     0.087 C 
ENDBRANCH  16  17
ENDBRANCH  15  16
ENDBRANCH  13  15
ENDBRANCH  11  12
ENDBRANCH   1  11
TORSDOF 9
ENDMDL
MODEL 3
REMARK VINA RESULT:    -5.887      2.693      6.308
REMARK INTER + INTRA:         -10.403
REMARK INTER:                  -8.328
REMARK INTRA:                  -2.075
REMARK UNBOUND:                -1.419
REMARK SMILES CC(=O)CCC=C(C)CCC=C(C)CCC=C(C)C
REMARK SMILES IDX 10 1 11 2 12 3 13 4 14 5 15 6 16 7 18 8 17 9 19 10 9 11 7 12
REMARK SMILES IDX 6 13 8 14 5 15 4 16 2 17 3 18 1 19
REMARK H PARENT
REMARK Flexibility Score: inf
ROOT
ATOM      1  C   UNL     1       4.258  27.710  32.641  1.00  0.00     0.032 C 
ENDROOT
BRANCH   1   2
ATOM      2  C   UNL     1       3.033  27.508  33.499  1.00  0.00    -0.028 C 
ATOM      3  C   UNL     1       2.287  28.531  33.970  1.00  0.00    -0.077 C 
ATOM      4  C   UNL     1       2.632  29.968  33.657  1.00  0.00     0.039 C 
BRANCH   3   5
ATOM      5  C   UNL     1       1.077  28.232  34.834  1.00  0.00     0.034 C 
BRANCH   5   6
ATOM      6  C   UNL     1      -0.231  28.672  34.159  1.00  0.00     0.032 C 
BRANCH   6   7
ATOM      7  C   UNL     1      -0.462  27.944  32.856  1.00  0.00    -0.028 C 
ATOM      8  C   UNL     1      -0.227  30.010  31.461  1.00  0.00     0.039 C 
ATOM      9  C   UNL     1      -0.493  28.535  31.642  1.00  0.00    -0.080 C 
ATOM     10  C   UNL     1      -0.784  27.680  30.436  1.00  0.00     0.039 C 
ENDBRANCH   6   7
ENDBRANCH   5   6
ENDBRANCH   3   5
ENDBRANCH   1   2
BRANCH   1  11
ATOM     11  C   UNL     1       4.172  26.890  31.349  1.00  0.00     0.034 C 
BRANCH  11  12
ATOM     12  C   UNL     1       3.923  27.789  30.156  1.00  0.00    -0.077 C 
ATOM     13  C   UNL     1       2.969  28.744  30.241  1.00  0.00    -0.028 C 
ATOM     14  C   UNL     1       4.754  27.600  28.907  1.00  0.00     0.039 C 
BRANCH  13  15
ATOM     15  C   UNL     1       2.594  29.679  29.118  1.00  0.00     0.035 C 
BRANCH  15  16
ATOM     16  C   UNL     1       2.700  31.139  29.570  1.00  0.00     0.079 C 
BRANCH  16  17
ATOM     17  C   UNL     1       3.723  31.877  28.746  1.00  0.00     0.130 C 
ATOM     18  O   UNL     1       4.896  31.860  29.087  1.00  0.00    -0.300 OA
ATOM     19  C   UNL     1       3.331  32.643  27.517  1.00  0.00     0.087 C 
ENDBRANCH  16  17
ENDBRANCH  15  16
ENDBRANCH  13  15
ENDBRANCH  11  12
ENDBRANCH   1  11
TORSDOF 9
ENDMDL
MODEL 4
REMARK VINA RESULT:    -5.825      2.565      3.887
REMARK INTER + INTRA:         -10.309
REMARK INTER:                  -9.268
REMARK INTRA:                  -1.042
REMARK UNBOUND:                -1.419
REMARK SMILES CC(=O)CCC=C(C)CCC=C(C)CCC=C(C)C
REMARK SMILES IDX 10 1 11 2 12 3 13 4 14 5 15 6 16 7 18 8 17 9 19 10 9 11 7 12
REMARK SMILES IDX 6 13 8 14 5 15 4 16 2 17 3 18 1 19
REMARK H PARENT
REMARK Flexibility Score: inf
ROOT
ATOM      1  C   UNL     1       2.309  30.481  32.741  1.00  0.00     0.032 C 
ENDROOT
BRANCH   1   2
ATOM      2  C   UNL     1       3.104  29.197  32.755  1.00  0.00    -0.028 C 
ATOM      3  C   UNL     1       3.249  28.409  31.668  1.00  0.00    -0.077 C 
ATOM      4  C   UNL     1       2.619  28.771  30.343  1.00  0.00     0.039 C 
BRANCH   3   5
ATOM      5  C   UNL     1       4.058  27.132  31.777  1.00  0.00     0.034 C 
BRANCH   5   6
ATOM      6  C   UNL     1       4.471  26.595  30.399  1.00  0.00     0.032 C 
BRANCH   6   7
ATOM      7  C   UNL     1       5.040  25.199  30.489  1.00  0.00    -0.028 C 
ATOM      8  C   UNL     1       7.178  25.810  29.337  1.00  0.00     0.039 C 
ATOM      9  C   UNL     1       6.239  24.825  29.992  1.00  0.00    -0.080 C 
ATOM     10  C   UNL     1       6.648  23.380  30.117  1.00  0.00     0.039 C 
ENDBRANCH   6   7
ENDBRANCH   5   6
ENDBRANCH   3   5
ENDBRANCH   1   2
BRANCH   1  11
ATOM     11  C   UNL     1       1.147  30.424  33.738  1.00  0.00     0.034 C 
BRANCH  11  12
ATOM     12  C   UNL     1       0.392  29.118  33.611  1.00  0.00    -0.077 C 
ATOM     13  C   UNL     1      -0.286  28.858  32.470  1.00  0.00    -0.028 C 
ATOM     14  C   UNL     1       0.425  28.135  34.760  1.00  0.00     0.039 C 
BRANCH  13  15
ATOM     15  C   UNL     1      -1.107  27.616  32.227  1.00  0.00     0.035 C 
BRANCH  15  16
ATOM     16  C   UNL     1      -1.195  27.309  30.730  1.00  0.00     0.079 C 
BRANCH  16  17
ATOM     17  C   UNL     1      -2.482  26.594  30.408  1.00  0.00     0.130 C 
ATOM     18  O   UNL     1      -3.531  27.004  30.882  1.00  0.00    -0.300 OA
ATOM     19  C   UNL     1      -2.504  25.383  29.525  1.00  0.00     0.087 C 
ENDBRANCH  16  17
ENDBRANCH  15  16
ENDBRANCH  13  15
ENDBRANCH  11  12
ENDBRANCH   1  11
TORSDOF 9
ENDMDL
MODEL 5
REMARK VINA RESULT:    -5.796      2.288      6.080
REMARK INTER + INTRA:         -10.265
REMARK INTER:                  -8.083
REMARK INTRA:                  -2.182
REMARK UNBOUND:                -1.419
REMARK SMILES CC(=O)CCC=C(C)CCC=C(C)CCC=C(C)C
REMARK SMILES IDX 10 1 11 2 12 3 13 4 14 5 15 6 16 7 18 8 17 9 19 10 9 11 7 12
REMARK SMILES IDX 6 13 8 14 5 15 4 16 2 17 3 18 1 19
REMARK H PARENT
REMARK Flexibility Score: inf
ROOT
ATOM      1  C   UNL     1      -0.989  27.475  32.139  1.00  0.00     0.032 C 
ENDROOT
BRANCH   1   2
ATOM      2  C   UNL     1      -0.419  28.840  32.440  1.00  0.00    -0.028 C 
ATOM      3  C   UNL     1       0.311  29.106  33.545  1.00  0.00    -0.077 C 
ATOM      4  C   UNL     1       0.617  28.034  34.564  1.00  0.00     0.039 C 
BRANCH   3   5
ATOM      5  C   UNL     1       0.835  30.510  33.769  1.00  0.00     0.034 C 
BRANCH   5   6
ATOM      6  C   UNL     1       2.249  30.693  33.198  1.00  0.00     0.032 C 
BRANCH   6   7
ATOM      7  C   UNL     1       2.227  30.898  31.701  1.00  0.00    -0.028 C 
ATOM      8  C   UNL     1       3.039  28.583  31.199  1.00  0.00     0.039 C 
ATOM      9  C   UNL     1       2.606  29.972  30.794  1.00  0.00    -0.080 C 
ATOM     10  C   UNL     1       2.573  30.343  29.334  1.00  0.00     0.039 C 
ENDBRANCH   6   7
ENDBRANCH   5   6
ENDBRANCH   3   5
ENDBRANCH   1   2
BRANCH   1  11
ATOM     11  C   UNL     1      -1.667  27.447  30.765  1.00  0.00     0.034 C 
BRANCH  11  12
ATOM     12  C   UNL     1      -0.646  27.600  29.657  1.00  0.00    -0.077 C 
ATOM     13  C   UNL     1       0.328  26.671  29.528  1.00  0.00    -0.028 C 
ATOM     14  C   UNL     1      -0.750  28.782  28.720  1.00  0.00     0.039 C 
BRANCH  13  15
ATOM     15  C   UNL     1       1.427  26.722  28.495  1.00  0.00     0.035 C 
BRANCH  15  16
ATOM     16  C   UNL     1       2.143  25.372  28.397  1.00  0.00     0.079 C 
BRANCH  16  17
ATOM     17  C   UNL     1       3.519  25.454  29.005  1.00  0.00     0.130 C 
ATOM     18  O   UNL     1       4.308  26.291  28.594  1.00  0.00    -0.300 OA
ATOM     19  C   UNL     1       3.945  24.524  30.101  1.00  0.00     0.087 C 
ENDBRANCH  16  17
ENDBRANCH  15  16
ENDBRANCH  13  15
ENDBRANCH  11  12
ENDBRANCH   1  11
TORSDOF 9
ENDMDL
MODEL 6
REMARK VINA RESULT:    -5.745      1.581      2.949
REMARK INTER + INTRA:         -10.187
REMARK INTER:                  -8.670
REMARK INTRA:                  -1.517
REMARK UNBOUND:                -1.419
REMARK SMILES CC(=O)CCC=C(C)CCC=C(C)CCC=C(C)C
REMARK SMILES IDX 10 1 11 2 12 3 13 4 14 5 15 6 16 7 18 8 17 9 19 10 9 11 7 12
REMARK SMILES IDX 6 13 8 14 5 15 4 16 2 17 3 18 1 19
REMARK H PARENT
REMARK Flexibility Score: inf
ROOT
ATOM      1  C   UNL     1       4.320  26.214  31.185  1.00  0.00     0.032 C 
ENDROOT
BRANCH   1   2
ATOM      2  C   UNL     1       5.681  26.147  30.535  1.00  0.00    -0.028 C 
ATOM      3  C   UNL     1       5.864  26.248  29.200  1.00  0.00    -0.077 C 
ATOM      4  C   UNL     1       4.700  26.445  28.257  1.00  0.00     0.039 C 
BRANCH   3   5
ATOM      5  C   UNL     1       7.268  26.160  28.635  1.00  0.00     0.034 C 
BRANCH   5   6
ATOM      6  C   UNL     1       7.538  24.796  27.981  1.00  0.00     0.032 C 
BRANCH   6   7
ATOM      7  C   UNL     1       8.138  23.814  28.959  1.00  0.00    -0.028 C 
ATOM      8  C   UNL     1       6.006  22.531  29.245  1.00  0.00     0.039 C 
ATOM      9  C   UNL     1       7.457  22.812  29.556  1.00  0.00    -0.080 C 
ATOM     10  C   UNL     1       8.185  21.944  30.550  1.00  0.00     0.039 C 
ENDBRANCH   6   7
ENDBRANCH   5   6
ENDBRANCH   3   5
ENDBRANCH   1   2
BRANCH   1  11
ATOM     11  C   UNL     1       4.353  27.072  32.455  1.00  0.00     0.034 C 
BRANCH  11  12
ATOM     12  C   UNL     1       3.440  28.271  32.319  1.00  0.00    -0.077 C 
ATOM     13  C   UNL     1       3.029  28.914  33.435  1.00  0.00    -0.028 C 
ATOM     14  C   UNL     1       3.022  28.723  30.937  1.00  0.00     0.039 C 
BRANCH  13  15
ATOM     15  C   UNL     1       2.091  30.096  33.444  1.00  0.00     0.035 C 
BRANCH  15  16
ATOM     16  C   UNL     1       0.744  29.715  34.064  1.00  0.00     0.079 C 
BRANCH  16  17
ATOM     17  C   UNL     1      -0.028  28.807  33.142  1.00  0.00     0.130 C 
ATOM     18  O   UNL     1      -0.388  27.710  33.543  1.00  0.00    -0.300 OA
ATOM     19  C   UNL     1      -0.357  29.216  31.738  1.00  0.00     0.087 C 
ENDBRANCH  16  17
ENDBRANCH  15  16
ENDBRANCH  13  15
ENDBRANCH  11  12
ENDBRANCH   1  11
TORSDOF 9
ENDMDL
MODEL 7
REMARK VINA RESULT:    -5.703      4.677      7.189
REMARK INTER + INTRA:         -10.123
REMARK INTER:                  -8.910
REMARK INTRA:                  -1.213
REMARK UNBOUND:                -1.419
REMARK SMILES CC(=O)CCC=C(C)CCC=C(C)CCC=C(C)C
REMARK SMILES IDX 10 1 11 2 12 3 13 4 14 5 15 6 16 7 18 8 17 9 19 10 9 11 7 12
REMARK SMILES IDX 6 13 8 14 5 15 4 16 2 17 3 18 1 19
REMARK H PARENT
REMARK Flexibility Score: inf
ROOT
ATOM      1  C   UNL     1      -1.001  27.476  32.128  1.00  0.00     0.032 C 
ENDROOT
BRANCH   1   2
ATOM      2  C   UNL     1      -0.380  28.813  32.451  1.00  0.00    -0.028 C 
ATOM      3  C   UNL     1       0.316  29.048  33.585  1.00  0.00    -0.077 C 
ATOM      4  C   UNL     1       0.528  27.965  34.617  1.00  0.00     0.039 C 
BRANCH   3   5
ATOM      5  C   UNL     1       0.896  30.426  33.829  1.00  0.00     0.034 C 
BRANCH   5   6
ATOM      6  C   UNL     1       2.298  30.574  33.220  1.00  0.00     0.032 C 
BRANCH   6   7
ATOM      7  C   UNL     1       2.242  31.103  31.806  1.00  0.00    -0.028 C 
ATOM      8  C   UNL     1       2.831  28.899  30.775  1.00  0.00     0.039 C 
ATOM      9  C   UNL     1       2.507  30.372  30.702  1.00  0.00    -0.080 C 
ATOM     10  C   UNL     1       2.457  31.056  29.360  1.00  0.00     0.039 C 
ENDBRANCH   6   7
ENDBRANCH   5   6
ENDBRANCH   3   5
ENDBRANCH   1   2
BRANCH   1  11
ATOM     11  C   UNL     1      -1.241  27.324  30.622  1.00  0.00     0.034 C 
BRANCH  11  12
ATOM     12  C   UNL     1      -2.558  26.627  30.354  1.00  0.00    -0.077 C 
ATOM     13  C   UNL     1      -3.106  25.863  31.326  1.00  0.00    -0.028 C 
ATOM     14  C   UNL     1      -3.229  26.813  29.012  1.00  0.00     0.039 C 
BRANCH  13  15
ATOM     15  C   UNL     1      -4.391  25.085  31.179  1.00  0.00     0.035 C 
BRANCH  15  16
ATOM     16  C   UNL     1      -4.163  23.600  31.474  1.00  0.00     0.079 C 
BRANCH  16  17
ATOM     17  C   UNL     1      -5.179  23.092  32.464  1.00  0.00     0.130 C 
ATOM     18  O   UNL     1      -5.465  21.904  32.475  1.00  0.00    -0.300 OA
ATOM     19  C   UNL     1      -5.855  24.016  33.433  1.00  0.00     0.087 C 
ENDBRANCH  16  17
ENDBRANCH  15  16
ENDBRANCH  13  15
ENDBRANCH  11  12
ENDBRANCH   1  11
TORSDOF 9
ENDMDL
MODEL 8
REMARK VINA RESULT:    -5.668      1.937      2.910
REMARK INTER + INTRA:         -10.069
REMARK INTER:                  -9.203
REMARK INTRA:                  -0.866
REMARK UNBOUND:                -1.419
REMARK SMILES CC(=O)CCC=C(C)CCC=C(C)CCC=C(C)C
REMARK SMILES IDX 10 1 11 2 12 3 13 4 14 5 15 6 16 7 18 8 17 9 19 10 9 11 7 12
REMARK SMILES IDX 6 13 8 14 5 15 4 16 2 17 3 18 1 19
REMARK H PARENT
REMARK Flexibility Score: inf
ROOT
ATOM      1  C   UNL     1       4.300  26.643  31.060  1.00  0.00     0.032 C 
ENDROOT
BRANCH   1   2
ATOM      2  C   UNL     1       4.574  25.221  30.634  1.00  0.00    -0.028 C 
ATOM      3  C   UNL     1       5.728  24.838  30.047  1.00  0.00    -0.077 C 
ATOM      4  C   UNL     1       6.842  25.824  29.782  1.00  0.00     0.039 C 
BRANCH   3   5
ATOM      5  C   UNL     1       5.912  23.389  29.644  1.00  0.00     0.034 C 
BRANCH   5   6
ATOM      6  C   UNL     1       7.384  23.056  29.356  1.00  0.00     0.032 C 
BRANCH   6   7
ATOM      7  C   UNL     1       7.923  22.024  30.318  1.00  0.00    -0.028 C 
ATOM      8  C   UNL     1      10.287  22.274  29.530  1.00  0.00     0.039 C 
ATOM      9  C   UNL     1       9.217  21.642  30.388  1.00  0.00    -0.080 C 
ATOM     10  C   UNL     1       9.593  20.562  31.369  1.00  0.00     0.039 C 
ENDBRANCH   6   7
ENDBRANCH   5   6
ENDBRANCH   3   5
ENDBRANCH   1   2
BRANCH   1  11
ATOM     11  C   UNL     1       3.426  27.372  30.033  1.00  0.00     0.034 C 
BRANCH  11  12
ATOM     12  C   UNL     1       2.518  28.374  30.713  1.00  0.00    -0.077 C 
ATOM     13  C   UNL     1       3.032  29.189  31.662  1.00  0.00    -0.028 C 
ATOM     14  C   UNL     1       1.063  28.444  30.305  1.00  0.00     0.039 C 
BRANCH  13  15
ATOM     15  C   UNL     1       2.234  30.204  32.442  1.00  0.00     0.035 C 
BRANCH  15  16
ATOM     16  C   UNL     1       2.253  29.875  33.938  1.00  0.00     0.079 C 
BRANCH  16  17
ATOM     17  C   UNL     1       1.385  28.679  34.231  1.00  0.00     0.130 C 
ATOM     18  O   UNL     1       1.874  27.560  34.198  1.00  0.00    -0.300 OA
ATOM     19  C   UNL     1      -0.071  28.831  34.554  1.00  0.00     0.087 C 
ENDBRANCH  16  17
ENDBRANCH  15  16
ENDBRANCH  13  15
ENDBRANCH  11  12
ENDBRANCH   1  11
TORSDOF 9
ENDMDL
MODEL 9
REMARK VINA RESULT:    -5.656      2.345      7.395
REMARK INTER + INTRA:         -10.050
REMARK INTER:                  -8.487
REMARK INTRA:                  -1.563
REMARK UNBOUND:                -1.419
REMARK SMILES CC(=O)CCC=C(C)CCC=C(C)CCC=C(C)C
REMARK SMILES IDX 10 1 11 2 12 3 13 4 14 5 15 6 16 7 18 8 17 9 19 10 9 11 7 12
REMARK SMILES IDX 6 13 8 14 5 15 4 16 2 17 3 18 1 19
REMARK H PARENT
REMARK Flexibility Score: inf
ROOT
ATOM      1  C   UNL     1       3.540  27.085  29.961  1.00  0.00     0.032 C 
ENDROOT
BRANCH   1   2
ATOM      2  C   UNL     1       3.175  28.524  30.231  1.00  0.00    -0.028 C 
ATOM      3  C   UNL     1       1.900  28.971  30.241  1.00  0.00    -0.077 C 
ATOM      4  C   UNL     1       0.737  28.041  29.987  1.00  0.00     0.039 C 
BRANCH   3   5
ATOM      5  C   UNL     1       1.629  30.437  30.512  1.00  0.00     0.034 C 
BRANCH   5   6
ATOM      6  C   UNL     1       1.961  30.824  31.962  1.00  0.00     0.032 C 
BRANCH   6   7
ATOM      7  C   UNL     1       0.955  30.259  32.936  1.00  0.00    -0.028 C 
ATOM      8  C   UNL     1       2.547  28.561  33.862  1.00  0.00     0.039 C 
ATOM      9  C   UNL     1       1.193  29.226  33.773  1.00  0.00    -0.080 C 
ATOM     10  C   UNL     1       0.070  28.743  34.655  1.00  0.00     0.039 C 
ENDBRANCH   6   7
ENDBRANCH   5   6
ENDBRANCH   3   5
ENDBRANCH   1   2
BRANCH   1  11
ATOM     11  C   UNL     1       4.596  26.585  30.953  1.00  0.00     0.034 C 
BRANCH  11  12
ATOM     12  C   UNL     1       5.584  25.664  30.269  1.00  0.00    -0.077 C 
ATOM     13  C   UNL     1       5.457  24.327  30.431  1.00  0.00    -0.028 C 
ATOM     14  C   UNL     1       6.679  26.265  29.416  1.00  0.00     0.039 C 
BRANCH  13  15
ATOM     15  C   UNL     1       6.393  23.302  29.838  1.00  0.00     0.035 C 
BRANCH  15  16
ATOM     16  C   UNL     1       5.646  22.386  28.864  1.00  0.00     0.079 C 
BRANCH  16  17
ATOM     17  C   UNL     1       5.482  23.055  27.525  1.00  0.00     0.130 C 
ATOM     18  O   UNL     1       6.468  23.278  26.839  1.00  0.00    -0.300 OA
ATOM     19  C   UNL     1       4.131  23.463  27.015  1.00  0.00     0.087 C 
ENDBRANCH  16  17
ENDBRANCH  15  16
ENDBRANCH  13  15
ENDBRANCH  11  12
ENDBRANCH   1  11
TORSDOF 9
ENDMDL
