MODEL 1
REMARK VINA RESULT:    -3.045      0.000      0.000
REMARK INTER + INTRA:          -3.838
REMARK INTER:                  -3.758
REMARK INTRA:                  -0.080
REMARK UNBOUND:                -0.080
REMARK SMILES CCCCCC(=O)[O-]
REMARK SMILES IDX 4 1 5 2 6 3 7 4 8 5 3 6 2 7 1 8
REMARK H PARENT
REMARK Flexibility Score: inf
ROOT
ATOM      1  C   UNL     1      87.307  82.176  19.225  1.00  0.00     0.006 C 
ENDROOT
BRANCH   1   2
ATOM      2  C   UNL     1      86.054  81.909  20.069  1.00  0.00     0.053 C 
BRANCH   2   3
ATOM      3  C   UNL     1      84.829  81.778  19.216  1.00  0.00     0.041 C 
ATOM      4  O   UNL     1      84.767  80.889  18.326  1.00  0.00    -0.550 OA
ATOM      5  O   UNL     1      83.767  82.658  19.383  1.00  0.00    -0.550 OA
ENDBRANCH   2   3
ENDBRANCH   1   2
BRANCH   1   6
ATOM      6  C   UNL     1      88.597  82.068  20.052  1.00  0.00     0.000 C 
BRANCH   6   7
ATOM      7  C   UNL     1      89.827  81.982  19.140  1.00  0.00    -0.003 C 
ATOM      8  C   UNL     1      89.668  80.876  18.101  1.00  0.00     0.004 C 
ENDBRANCH   6   7
ENDBRANCH   1   6
TORSDOF 4
ENDMDL
MODEL 2
REMARK VINA RESULT:    -2.754      2.882      4.591
REMARK INTER + INTRA:          -3.479
REMARK INTER:                  -3.350
REMARK INTRA:                  -0.128
REMARK UNBOUND:                -0.080
REMARK SMILES CCCCCC(=O)[O-]
REMARK SMILES IDX 4 1 5 2 6 3 7 4 8 5 3 6 2 7 1 8
REMARK H PARENT
REMARK Flexibility Score: inf
ROOT
ATOM      1  C   UNL     1      86.923  81.976  18.808  1.00  0.00     0.006 C 
ENDROOT
BRANCH   1   2
ATOM      2  C   UNL     1      88.000  80.906  18.585  1.00  0.00     0.053 C 
BRANCH   2   3
ATOM      3  C   UNL     1      89.380  81.468  18.734  1.00  0.00     0.041 C 
ATOM      4  O   UNL     1      89.604  82.392  19.560  1.00  0.00    -0.550 OA
ATOM      5  O   UNL     1      90.415  80.993  17.937  1.00  0.00    -0.550 OA
ENDBRANCH   2   3
ENDBRANCH   1   2
BRANCH   1   6
ATOM      6  C   UNL     1      86.162  81.770  20.125  1.00  0.00     0.000 C 
BRANCH   6   7
ATOM      7  C   UNL     1      84.649  81.899  19.911  1.00  0.00    -0.003 C 
ATOM      8  C   UNL     1      84.181  81.032  18.745  1.00  0.00     0.004 C 
ENDBRANCH   6   7
ENDBRANCH   1   6
TORSDOF 4
ENDMDL
MODEL 3
REMARK VINA RESULT:    -1.903     20.667     21.732
REMARK INTER + INTRA:          -2.429
REMARK INTER:                  -2.325
REMARK INTRA:                  -0.104
REMARK UNBOUND:                -0.080
REMARK SMILES CCCCCC(=O)[O-]
REMARK SMILES IDX 4 1 5 2 6 3 7 4 8 5 3 6 2 7 1 8
REMARK H PARENT
REMARK Flexibility Score: inf
ROOT
ATOM      1  C   UNL     1     101.055  96.189  10.455  1.00  0.00     0.006 C 
ENDROOT
BRANCH   1   2
ATOM      2  C   UNL     1      99.565  96.348  10.785  1.00  0.00     0.053 C 
BRANCH   2   3
ATOM      3  C   UNL     1      99.026  95.151  11.508  1.00  0.00     0.041 C 
ATOM      4  O   UNL     1      99.182  93.997  11.029  1.00  0.00    -0.550 OA
ATOM      5  O   UNL     1      98.325  95.314  12.696  1.00  0.00    -0.550 OA
ENDBRANCH   2   3
ENDBRANCH   1   2
BRANCH   1   6
ATOM      6  C   UNL     1     101.796  97.534  10.452  1.00  0.00     0.000 C 
BRANCH   6   7
ATOM      7  C   UNL     1     100.807  98.705  10.462  1.00  0.00    -0.003 C 
ATOM      8  C   UNL     1     101.533 100.042  10.347  1.00  0.00     0.004 C 
ENDBRANCH   6   7
ENDBRANCH   1   6
TORSDOF 4
ENDMDL
MODEL 4
REMARK VINA RESULT:    -1.836     21.620     22.702
REMARK INTER + INTRA:          -2.346
REMARK INTER:                  -2.301
REMARK INTRA:                  -0.045
REMARK UNBOUND:                -0.080
REMARK SMILES CCCCCC(=O)[O-]
REMARK SMILES IDX 4 1 5 2 6 3 7 4 8 5 3 6 2 7 1 8
REMARK H PARENT
REMARK Flexibility Score: inf
ROOT
ATOM      1  C   UNL     1     100.619  97.526  10.405  1.00  0.00     0.006 C 
ENDROOT
BRANCH   1   2
ATOM      2  C   UNL     1     101.177  96.100  10.495  1.00  0.00     0.053 C 
BRANCH   2   3
ATOM      3  C   UNL     1     100.098  95.098  10.768  1.00  0.00     0.041 C 
ATOM      4  O   UNL     1     100.379  93.874  10.870  1.00  0.00    -0.550 OA
ATOM      5  O   UNL     1      98.776  95.511  10.879  1.00  0.00    -0.550 OA
ENDBRANCH   2   3
ENDBRANCH   1   2
BRANCH   1   6
ATOM      6  C   UNL     1     101.732  98.583  10.355  1.00  0.00     0.000 C 
BRANCH   6   7
ATOM      7  C   UNL     1     101.145  99.999  10.382  1.00  0.00    -0.003 C 
ATOM      8  C   UNL     1     102.182 101.034   9.957  1.00  0.00     0.004 C 
ENDBRANCH   6   7
ENDBRANCH   1   6
TORSDOF 4
ENDMDL
MODEL 5
REMARK VINA RESULT:    -1.662     22.171     23.297
REMARK INTER + INTRA:          -2.131
REMARK INTER:                  -2.042
REMARK INTRA:                  -0.089
REMARK UNBOUND:                -0.080
REMARK SMILES CCCCCC(=O)[O-]
REMARK SMILES IDX 4 1 5 2 6 3 7 4 8 5 3 6 2 7 1 8
REMARK H PARENT
REMARK Flexibility Score: inf
ROOT
ATOM      1  C   UNL     1     100.816  97.307  10.379  1.00  0.00     0.006 C 
ENDROOT
BRANCH   1   2
ATOM      2  C   UNL     1     101.935  98.356  10.362  1.00  0.00     0.053 C 
BRANCH   2   3
ATOM      3  C   UNL     1     101.389  99.750  10.406  1.00  0.00     0.041 C 
ATOM      4  O   UNL     1     100.184  99.951  10.712  1.00  0.00    -0.550 OA
ATOM      5  O   UNL     1     102.204 100.828  10.080  1.00  0.00    -0.550 OA
ENDBRANCH   2   3
ENDBRANCH   1   2
BRANCH   1   6
ATOM      6  C   UNL     1     101.365  95.873  10.392  1.00  0.00     0.000 C 
BRANCH   6   7
ATOM      7  C   UNL     1     100.254  94.863  10.703  1.00  0.00    -0.003 C 
ATOM      8  C   UNL     1      98.935  95.569  11.001  1.00  0.00     0.004 C 
ENDBRANCH   6   7
ENDBRANCH   1   6
TORSDOF 4
ENDMDL
MODEL 6
REMARK VINA RESULT:    -1.571     22.055     23.177
REMARK INTER + INTRA:          -2.019
REMARK INTER:                  -1.932
REMARK INTRA:                  -0.087
REMARK UNBOUND:                -0.080
REMARK SMILES CCCCCC(=O)[O-]
REMARK SMILES IDX 4 1 5 2 6 3 7 4 8 5 3 6 2 7 1 8
REMARK H PARENT
REMARK Flexibility Score: inf
ROOT
ATOM      1  C   UNL     1     100.748  97.236  10.401  1.00  0.00     0.006 C 
ENDROOT
BRANCH   1   2
ATOM      2  C   UNL     1     101.887  98.263  10.339  1.00  0.00     0.053 C 
BRANCH   2   3
ATOM      3  C   UNL     1     101.370  99.668  10.388  1.00  0.00     0.041 C 
ATOM      4  O   UNL     1     102.137 100.636  10.139  1.00  0.00    -0.550 OA
ATOM      5  O   UNL     1     100.048  99.911  10.739  1.00  0.00    -0.550 OA
ENDBRANCH   2   3
ENDBRANCH   1   2
BRANCH   1   6
ATOM      6  C   UNL     1     101.269  95.792  10.415  1.00  0.00     0.000 C 
BRANCH   6   7
ATOM      7  C   UNL     1     100.147  94.807  10.764  1.00  0.00    -0.003 C 
ATOM      8  C   UNL     1      98.850  95.542  11.090  1.00  0.00     0.004 C 
ENDBRANCH   6   7
ENDBRANCH   1   6
TORSDOF 4
ENDMDL
MODEL 7
REMARK VINA RESULT:    -1.144      2.297      4.564
REMARK INTER + INTRA:          -1.492
REMARK INTER:                  -1.298
REMARK INTRA:                  -0.194
REMARK UNBOUND:                -0.080
REMARK SMILES CCCCCC(=O)[O-]
REMARK SMILES IDX 4 1 5 2 6 3 7 4 8 5 3 6 2 7 1 8
REMARK H PARENT
REMARK Flexibility Score: inf
ROOT
ATOM      1  C   UNL     1      85.476  80.878  18.485  1.00  0.00     0.006 C 
ENDROOT
BRANCH   1   2
ATOM      2  C   UNL     1      86.861  81.401  18.080  1.00  0.00     0.053 C 
BRANCH   2   3
ATOM      3  C   UNL     1      87.546  82.095  19.217  1.00  0.00     0.041 C 
ATOM      4  O   UNL     1      86.869  82.653  20.121  1.00  0.00    -0.550 OA
ATOM      5  O   UNL     1      88.933  82.153  19.262  1.00  0.00    -0.550 OA
ENDBRANCH   2   3
ENDBRANCH   1   2
BRANCH   1   6
ATOM      6  C   UNL     1      84.346  81.557  17.698  1.00  0.00     0.000 C 
BRANCH   6   7
ATOM      7  C   UNL     1      83.165  81.896  18.615  1.00  0.00    -0.003 C 
ATOM      8  C   UNL     1      83.496  81.595  20.074  1.00  0.00     0.004 C 
ENDBRANCH   6   7
ENDBRANCH   1   6
TORSDOF 4
ENDMDL
