MODEL 1
REMARK VINA RESULT:    -3.463      0.000      0.000
REMARK INTER + INTRA:          -8.202
REMARK INTER:                  -6.298
REMARK INTRA:                  -1.904
REMARK UNBOUND:                -1.904
REMARK SMILES CCCCCCCCCCCCCCCC(=O)[O-]
REMARK SMILES IDX 9 1 10 2 11 3 12 4 13 5 14 6 15 7 16 8 17 9 18 10 8 11 7 12
REMARK SMILES IDX 6 13 5 14 4 15 3 16 2 17 1 18
REMARK H PARENT
REMARK Flexibility Score: inf
ROOT
ATOM      1  C   UNL     1     -24.429   3.714 -23.327  1.00  0.00     0.000 C 
ENDROOT
BRANCH   1   2
ATOM      2  C   UNL     1     -23.857   4.124 -24.694  1.00  0.00     0.000 C 
BRANCH   2   3
ATOM      3  C   UNL     1     -23.346   2.922 -25.509  1.00  0.00     0.000 C 
BRANCH   3   4
ATOM      4  C   UNL     1     -22.640   3.346 -26.807  1.00  0.00     0.000 C 
BRANCH   4   5
ATOM      5  C   UNL     1     -21.579   2.329 -27.262  1.00  0.00     0.000 C 
BRANCH   5   6
ATOM      6  C   UNL     1     -21.427   1.155 -26.273  1.00  0.00     0.006 C 
BRANCH   6   7
ATOM      7  C   UNL     1     -20.623  -0.025 -26.841  1.00  0.00     0.053 C 
BRANCH   7   8
ATOM      8  C   UNL     1     -19.494  -0.427 -25.945  1.00  0.00     0.041 C 
ATOM      9  O   UNL     1     -18.459  -0.959 -26.429  1.00  0.00    -0.550 OA
ATOM     10  O   UNL     1     -19.572  -0.192 -24.579  1.00  0.00    -0.550 OA
ENDBRANCH   7   8
ENDBRANCH   6   7
ENDBRANCH   5   6
ENDBRANCH   4   5
ENDBRANCH   3   4
ENDBRANCH   2   3
ENDBRANCH   1   2
BRANCH   1  11
ATOM     11  C   UNL     1     -23.790   4.491 -22.163  1.00  0.00     0.000 C 
BRANCH  11  12
ATOM     12  C   UNL     1     -22.306   4.820 -22.404  1.00  0.00    -0.000 C 
BRANCH  12  13
ATOM     13  C   UNL     1     -21.312   3.740 -21.939  1.00  0.00    -0.000 C 
BRANCH  13  14
ATOM     14  C   UNL     1     -20.560   3.074 -23.101  1.00  0.00    -0.000 C 
BRANCH  14  15
ATOM     15  C   UNL     1     -19.894   4.128 -23.999  1.00  0.00    -0.000 C 
BRANCH  15  16
ATOM     16  C   UNL     1     -18.937   3.509 -25.029  1.00  0.00    -0.000 C 
BRANCH  16  17
ATOM     17  C   UNL     1     -17.921   4.524 -25.576  1.00  0.00    -0.003 C 
ATOM     18  C   UNL     1     -16.560   3.872 -25.802  1.00  0.00     0.004 C 
ENDBRANCH  16  17
ENDBRANCH  15  16
ENDBRANCH  14  15
ENDBRANCH  13  14
ENDBRANCH  12  13
ENDBRANCH  11  12
ENDBRANCH   1  11
TORSDOF 14
ENDMDL
MODEL 2
REMARK VINA RESULT:    -3.403     12.631     14.773
REMARK INTER + INTRA:          -8.092
REMARK INTER:                  -5.457
REMARK INTRA:                  -2.635
REMARK UNBOUND:                -1.904
REMARK SMILES CCCCCCCCCCCCCCCC(=O)[O-]
REMARK SMILES IDX 9 1 10 2 11 3 12 4 13 5 14 6 15 7 16 8 17 9 18 10 8 11 7 12
REMARK SMILES IDX 6 13 5 14 4 15 3 16 2 17 1 18
REMARK H PARENT
REMARK Flexibility Score: inf
ROOT
ATOM      1  C   UNL     1      -7.192  -1.131 -22.873  1.00  0.00     0.000 C 
ENDROOT
BRANCH   1   2
ATOM      2  C   UNL     1      -5.778  -1.567 -23.285  1.00  0.00     0.000 C 
BRANCH   2   3
ATOM      3  C   UNL     1      -5.699  -3.060 -23.651  1.00  0.00     0.000 C 
BRANCH   3   4
ATOM      4  C   UNL     1      -5.076  -3.297 -25.036  1.00  0.00     0.000 C 
BRANCH   4   5
ATOM      5  C   UNL     1      -5.308  -2.119 -25.998  1.00  0.00     0.000 C 
BRANCH   5   6
ATOM      6  C   UNL     1      -6.480  -2.373 -26.968  1.00  0.00     0.006 C 
BRANCH   6   7
ATOM      7  C   UNL     1      -6.920  -3.844 -27.027  1.00  0.00     0.053 C 
BRANCH   7   8
ATOM      8  C   UNL     1      -8.340  -4.030 -26.594  1.00  0.00     0.041 C 
ATOM      9  O   UNL     1      -8.602  -4.638 -25.522  1.00  0.00    -0.550 OA
ATOM     10  O   UNL     1      -9.375  -3.510 -27.361  1.00  0.00    -0.550 OA
ENDBRANCH   7   8
ENDBRANCH   6   7
ENDBRANCH   5   6
ENDBRANCH   4   5
ENDBRANCH   3   4
ENDBRANCH   2   3
ENDBRANCH   1   2
BRANCH   1  11
ATOM     11  C   UNL     1      -8.260  -1.541 -23.901  1.00  0.00     0.000 C 
BRANCH  11  12
ATOM     12  C   UNL     1      -9.144  -0.364 -24.352  1.00  0.00    -0.000 C 
BRANCH  12  13
ATOM     13  C   UNL     1      -8.856   0.166 -25.768  1.00  0.00    -0.000 C 
BRANCH  13  14
ATOM     14  C   UNL     1      -8.192   1.550 -25.769  1.00  0.00    -0.000 C 
BRANCH  14  15
ATOM     15  C   UNL     1      -6.670   1.429 -25.946  1.00  0.00    -0.000 C 
BRANCH  15  16
ATOM     16  C   UNL     1      -5.890   1.870 -24.698  1.00  0.00    -0.000 C 
BRANCH  16  17
ATOM     17  C   UNL     1      -6.780   2.573 -23.663  1.00  0.00    -0.003 C 
ATOM     18  C   UNL     1      -6.122   2.581 -22.287  1.00  0.00     0.004 C 
ENDBRANCH  16  17
ENDBRANCH  15  16
ENDBRANCH  14  15
ENDBRANCH  13  14
ENDBRANCH  12  13
ENDBRANCH  11  12
ENDBRANCH   1  11
TORSDOF 14
ENDMDL
MODEL 3
REMARK VINA RESULT:    -3.351     14.444     17.097
REMARK INTER + INTRA:          -7.998
REMARK INTER:                  -7.301
REMARK INTRA:                  -0.697
REMARK UNBOUND:                -1.904
REMARK SMILES CCCCCCCCCCCCCCCC(=O)[O-]
REMARK SMILES IDX 9 1 10 2 11 3 12 4 13 5 14 6 15 7 16 8 17 9 18 10 8 11 7 12
REMARK SMILES IDX 6 13 5 14 4 15 3 16 2 17 1 18
REMARK H PARENT
REMARK Flexibility Score: inf
ROOT
ATOM      1  C   UNL     1      -8.568  -6.708 -25.921  1.00  0.00     0.000 C 
ENDROOT
BRANCH   1   2
ATOM      2  C   UNL     1      -7.086  -6.632 -26.318  1.00  0.00     0.000 C 
BRANCH   2   3
ATOM      3  C   UNL     1      -6.658  -5.217 -26.749  1.00  0.00     0.000 C 
BRANCH   3   4
ATOM      4  C   UNL     1      -6.561  -4.243 -25.564  1.00  0.00     0.000 C 
BRANCH   4   5
ATOM      5  C   UNL     1      -7.475  -3.017 -25.730  1.00  0.00     0.000 C 
BRANCH   5   6
ATOM      6  C   UNL     1      -8.007  -2.492 -24.381  1.00  0.00     0.006 C 
BRANCH   6   7
ATOM      7  C   UNL     1      -7.472  -1.101 -24.008  1.00  0.00     0.053 C 
BRANCH   7   8
ATOM      8  C   UNL     1      -6.504  -1.150 -22.868  1.00  0.00     0.041 C 
ATOM      9  O   UNL     1      -5.888  -2.217 -22.604  1.00  0.00    -0.550 OA
ATOM     10  O   UNL     1      -6.262  -0.010 -22.112  1.00  0.00    -0.550 OA
ENDBRANCH   7   8
ENDBRANCH   6   7
ENDBRANCH   5   6
ENDBRANCH   4   5
ENDBRANCH   3   4
ENDBRANCH   2   3
ENDBRANCH   1   2
BRANCH   1  11
ATOM     11  C   UNL     1      -9.304  -7.872 -26.605  1.00  0.00     0.000 C 
BRANCH  11  12
ATOM     12  C   UNL     1      -9.245  -9.180 -25.795  1.00  0.00    -0.000 C 
BRANCH  12  13
ATOM     13  C   UNL     1     -10.371 -10.186 -26.091  1.00  0.00    -0.000 C 
BRANCH  13  14
ATOM     14  C   UNL     1     -11.038  -9.958 -27.456  1.00  0.00    -0.000 C 
BRANCH  14  15
ATOM     15  C   UNL     1     -12.147 -10.992 -27.705  1.00  0.00    -0.000 C 
BRANCH  15  16
ATOM     16  C   UNL     1     -12.198 -12.079 -26.621  1.00  0.00    -0.000 C 
BRANCH  16  17
ATOM     17  C   UNL     1     -11.695 -13.440 -27.125  1.00  0.00    -0.003 C 
ATOM     18  C   UNL     1     -12.488 -14.585 -26.501  1.00  0.00     0.004 C 
ENDBRANCH  16  17
ENDBRANCH  15  16
ENDBRANCH  14  15
ENDBRANCH  13  14
ENDBRANCH  12  13
ENDBRANCH  11  12
ENDBRANCH   1  11
TORSDOF 14
ENDMDL
MODEL 4
REMARK VINA RESULT:    -3.283     11.768     14.274
REMARK INTER + INTRA:          -7.873
REMARK INTER:                  -5.944
REMARK INTRA:                  -1.930
REMARK UNBOUND:                -1.904
REMARK SMILES CCCCCCCCCCCCCCCC(=O)[O-]
REMARK SMILES IDX 9 1 10 2 11 3 12 4 13 5 14 6 15 7 16 8 17 9 18 10 8 11 7 12
REMARK SMILES IDX 6 13 5 14 4 15 3 16 2 17 1 18
REMARK H PARENT
REMARK Flexibility Score: inf
ROOT
ATOM      1  C   UNL     1     -10.408   1.035 -27.348  1.00  0.00     0.000 C 
ENDROOT
BRANCH   1   2
ATOM      2  C   UNL     1      -8.986   1.572 -27.567  1.00  0.00     0.000 C 
BRANCH   2   3
ATOM      3  C   UNL     1      -8.710   2.865 -26.777  1.00  0.00     0.000 C 
BRANCH   3   4
ATOM      4  C   UNL     1      -7.728   2.648 -25.615  1.00  0.00     0.000 C 
BRANCH   4   5
ATOM      5  C   UNL     1      -6.514   1.794 -26.018  1.00  0.00     0.000 C 
BRANCH   5   6
ATOM      6  C   UNL     1      -5.395   1.823 -24.957  1.00  0.00     0.006 C 
BRANCH   6   7
ATOM      7  C   UNL     1      -5.350   0.566 -24.076  1.00  0.00     0.053 C 
BRANCH   7   8
ATOM      8  C   UNL     1      -6.016   0.774 -22.752  1.00  0.00     0.041 C 
ATOM      9  O   UNL     1      -6.412  -0.214 -22.078  1.00  0.00    -0.550 OA
ATOM     10  O   UNL     1      -6.178   2.059 -22.250  1.00  0.00    -0.550 OA
ENDBRANCH   7   8
ENDBRANCH   6   7
ENDBRANCH   5   6
ENDBRANCH   4   5
ENDBRANCH   3   4
ENDBRANCH   2   3
ENDBRANCH   1   2
BRANCH   1  11
ATOM     11  C   UNL     1     -10.430  -0.258 -26.514  1.00  0.00     0.000 C 
BRANCH  11  12
ATOM     12  C   UNL     1     -10.242  -0.003 -25.008  1.00  0.00    -0.000 C 
BRANCH  12  13
ATOM     13  C   UNL     1      -9.032  -0.709 -24.369  1.00  0.00    -0.000 C 
BRANCH  13  14
ATOM     14  C   UNL     1      -8.157  -1.445 -25.393  1.00  0.00    -0.000 C 
BRANCH  14  15
ATOM     15  C   UNL     1      -7.503  -2.686 -24.765  1.00  0.00    -0.000 C 
BRANCH  15  16
ATOM     16  C   UNL     1      -8.272  -3.980 -25.072  1.00  0.00    -0.000 C 
BRANCH  16  17
ATOM     17  C   UNL     1      -7.417  -5.014 -25.820  1.00  0.00    -0.003 C 
ATOM     18  C   UNL     1      -8.248  -6.228 -26.222  1.00  0.00     0.004 C 
ENDBRANCH  16  17
ENDBRANCH  15  16
ENDBRANCH  14  15
ENDBRANCH  13  14
ENDBRANCH  12  13
ENDBRANCH  11  12
ENDBRANCH   1  11
TORSDOF 14
ENDMDL
MODEL 5
REMARK VINA RESULT:    -3.255     12.346     14.452
REMARK INTER + INTRA:          -7.823
REMARK INTER:                  -5.653
REMARK INTRA:                  -2.170
REMARK UNBOUND:                -1.904
REMARK SMILES CCCCCCCCCCCCCCCC(=O)[O-]
REMARK SMILES IDX 9 1 10 2 11 3 12 4 13 5 14 6 15 7 16 8 17 9 18 10 8 11 7 12
REMARK SMILES IDX 6 13 5 14 4 15 3 16 2 17 1 18
REMARK H PARENT
REMARK Flexibility Score: inf
ROOT
ATOM      1  C   UNL     1      -9.468  -0.152 -25.085  1.00  0.00     0.000 C 
ENDROOT
BRANCH   1   2
ATOM      2  C   UNL     1      -8.766  -0.941 -23.969  1.00  0.00     0.000 C 
BRANCH   2   3
ATOM      3  C   UNL     1      -7.316  -0.481 -23.737  1.00  0.00     0.000 C 
BRANCH   3   4
ATOM      4  C   UNL     1      -6.309  -1.640 -23.811  1.00  0.00     0.000 C 
BRANCH   4   5
ATOM      5  C   UNL     1      -5.596  -1.718 -25.172  1.00  0.00     0.000 C 
BRANCH   5   6
ATOM      6  C   UNL     1      -6.253  -2.739 -26.123  1.00  0.00     0.006 C 
BRANCH   6   7
ATOM      7  C   UNL     1      -6.824  -3.970 -25.403  1.00  0.00     0.053 C 
BRANCH   7   8
ATOM      8  C   UNL     1      -8.235  -4.262 -25.808  1.00  0.00     0.041 C 
ATOM      9  O   UNL     1      -8.877  -3.437 -26.511  1.00  0.00    -0.550 OA
ATOM     10  O   UNL     1      -8.833  -5.458 -25.431  1.00  0.00    -0.550 OA
ENDBRANCH   7   8
ENDBRANCH   6   7
ENDBRANCH   5   6
ENDBRANCH   4   5
ENDBRANCH   3   4
ENDBRANCH   2   3
ENDBRANCH   1   2
BRANCH   1  11
ATOM     11  C   UNL     1      -8.492   0.327 -26.173  1.00  0.00     0.000 C 
BRANCH  11  12
ATOM     12  C   UNL     1      -8.675   1.813 -26.532  1.00  0.00    -0.000 C 
BRANCH  12  13
ATOM     13  C   UNL     1      -7.742   2.786 -25.788  1.00  0.00    -0.000 C 
BRANCH  13  14
ATOM     14  C   UNL     1      -6.262   2.387 -25.877  1.00  0.00    -0.000 C 
BRANCH  14  15
ATOM     15  C   UNL     1      -5.508   2.787 -24.599  1.00  0.00    -0.000 C 
BRANCH  15  16
ATOM     16  C   UNL     1      -6.421   2.843 -23.365  1.00  0.00    -0.000 C 
BRANCH  16  17
ATOM     17  C   UNL     1      -5.638   3.050 -22.060  1.00  0.00    -0.003 C 
ATOM     18  C   UNL     1      -5.201   1.716 -21.463  1.00  0.00     0.004 C 
ENDBRANCH  16  17
ENDBRANCH  15  16
ENDBRANCH  14  15
ENDBRANCH  13  14
ENDBRANCH  12  13
ENDBRANCH  11  12
ENDBRANCH   1  11
TORSDOF 14
ENDMDL
MODEL 6
REMARK VINA RESULT:    -3.248     11.853     14.748
REMARK INTER + INTRA:          -7.810
REMARK INTER:                  -6.411
REMARK INTRA:                  -1.399
REMARK UNBOUND:                -1.904
REMARK SMILES CCCCCCCCCCCCCCCC(=O)[O-]
REMARK SMILES IDX 9 1 10 2 11 3 12 4 13 5 14 6 15 7 16 8 17 9 18 10 8 11 7 12
REMARK SMILES IDX 6 13 5 14 4 15 3 16 2 17 1 18
REMARK H PARENT
REMARK Flexibility Score: inf
ROOT
ATOM      1  C   UNL     1      -7.176  -2.788 -23.947  1.00  0.00     0.000 C 
ENDROOT
BRANCH   1   2
ATOM      2  C   UNL     1      -7.070  -2.754 -25.479  1.00  0.00     0.000 C 
BRANCH   2   3
ATOM      3  C   UNL     1      -8.140  -3.620 -26.169  1.00  0.00     0.000 C 
BRANCH   3   4
ATOM      4  C   UNL     1      -8.300  -4.999 -25.508  1.00  0.00     0.000 C 
BRANCH   4   5
ATOM      5  C   UNL     1      -8.014  -6.157 -26.479  1.00  0.00     0.000 C 
BRANCH   5   6
ATOM      6  C   UNL     1      -8.426  -7.526 -25.899  1.00  0.00     0.006 C 
BRANCH   6   7
ATOM      7  C   UNL     1      -9.632  -8.157 -26.613  1.00  0.00     0.053 C 
BRANCH   7   8
ATOM      8  C   UNL     1     -10.066  -9.438 -25.973  1.00  0.00     0.041 C 
ATOM      9  O   UNL     1     -10.407 -10.419 -26.685  1.00  0.00    -0.550 OA
ATOM     10  O   UNL     1     -10.070  -9.557 -24.589  1.00  0.00    -0.550 OA
ENDBRANCH   7   8
ENDBRANCH   6   7
ENDBRANCH   5   6
ENDBRANCH   4   5
ENDBRANCH   3   4
ENDBRANCH   2   3
ENDBRANCH   1   2
BRANCH   1  11
ATOM     11  C   UNL     1      -6.150  -1.869 -23.263  1.00  0.00     0.000 C 
BRANCH  11  12
ATOM     12  C   UNL     1      -6.792  -0.632 -22.611  1.00  0.00    -0.000 C 
BRANCH  12  13
ATOM     13  C   UNL     1      -6.045   0.694 -22.844  1.00  0.00    -0.000 C 
BRANCH  13  14
ATOM     14  C   UNL     1      -6.172   1.209 -24.285  1.00  0.00    -0.000 C 
BRANCH  14  15
ATOM     15  C   UNL     1      -7.613   1.649 -24.587  1.00  0.00    -0.000 C 
BRANCH  15  16
ATOM     16  C   UNL     1      -8.282   0.788 -25.669  1.00  0.00    -0.000 C 
BRANCH  16  17
ATOM     17  C   UNL     1      -9.506   0.024 -25.144  1.00  0.00    -0.003 C 
ATOM     18  C   UNL     1     -10.481  -0.295 -26.273  1.00  0.00     0.004 C 
ENDBRANCH  16  17
ENDBRANCH  15  16
ENDBRANCH  14  15
ENDBRANCH  13  14
ENDBRANCH  12  13
ENDBRANCH  11  12
ENDBRANCH   1  11
TORSDOF 14
ENDMDL
MODEL 7
REMARK VINA RESULT:    -3.234     14.683     17.266
REMARK INTER + INTRA:          -7.785
REMARK INTER:                  -6.969
REMARK INTRA:                  -0.816
REMARK UNBOUND:                -1.904
REMARK SMILES CCCCCCCCCCCCCCCC(=O)[O-]
REMARK SMILES IDX 9 1 10 2 11 3 12 4 13 5 14 6 15 7 16 8 17 9 18 10 8 11 7 12
REMARK SMILES IDX 6 13 5 14 4 15 3 16 2 17 1 18
REMARK H PARENT
REMARK Flexibility Score: inf
ROOT
ATOM      1  C   UNL     1      -9.759  -8.088 -26.072  1.00  0.00     0.000 C 
ENDROOT
BRANCH   1   2
ATOM      2  C   UNL     1      -8.353  -7.507 -25.861  1.00  0.00     0.000 C 
BRANCH   2   3
ATOM      3  C   UNL     1      -8.147  -6.167 -26.590  1.00  0.00     0.000 C 
BRANCH   3   4
ATOM      4  C   UNL     1      -7.371  -5.146 -25.743  1.00  0.00     0.000 C 
BRANCH   4   5
ATOM      5  C   UNL     1      -8.085  -3.786 -25.656  1.00  0.00     0.000 C 
BRANCH   5   6
ATOM      6  C   UNL     1      -7.969  -3.149 -24.256  1.00  0.00     0.006 C 
BRANCH   6   7
ATOM      7  C   UNL     1      -7.253  -1.789 -24.257  1.00  0.00     0.053 C 
BRANCH   7   8
ATOM      8  C   UNL     1      -6.450  -1.568 -23.014  1.00  0.00     0.041 C 
ATOM      9  O   UNL     1      -6.702  -0.588 -22.262  1.00  0.00    -0.550 OA
ATOM     10  O   UNL     1      -5.440  -2.457 -22.671  1.00  0.00    -0.550 OA
ENDBRANCH   7   8
ENDBRANCH   6   7
ENDBRANCH   5   6
ENDBRANCH   4   5
ENDBRANCH   3   4
ENDBRANCH   2   3
ENDBRANCH   1   2
BRANCH   1  11
ATOM     11  C   UNL     1      -9.798  -9.155 -27.179  1.00  0.00     0.000 C 
BRANCH  11  12
ATOM     12  C   UNL     1     -11.089  -9.107 -28.016  1.00  0.00    -0.000 C 
BRANCH  12  13
ATOM     13  C   UNL     1     -12.053 -10.287 -27.801  1.00  0.00    -0.000 C 
BRANCH  13  14
ATOM     14  C   UNL     1     -11.612 -11.226 -26.669  1.00  0.00    -0.000 C 
BRANCH  14  15
ATOM     15  C   UNL     1     -11.437 -12.663 -27.184  1.00  0.00    -0.000 C 
BRANCH  15  16
ATOM     16  C   UNL     1     -10.220 -12.816 -28.109  1.00  0.00    -0.000 C 
BRANCH  16  17
ATOM     17  C   UNL     1      -9.094 -13.646 -27.474  1.00  0.00    -0.003 C 
ATOM     18  C   UNL     1      -8.493 -12.926 -26.270  1.00  0.00     0.004 C 
ENDBRANCH  16  17
ENDBRANCH  15  16
ENDBRANCH  14  15
ENDBRANCH  13  14
ENDBRANCH  12  13
ENDBRANCH  11  12
ENDBRANCH   1  11
TORSDOF 14
ENDMDL
MODEL 8
REMARK VINA RESULT:    -3.211      0.975      3.764
REMARK INTER + INTRA:          -7.743
REMARK INTER:                  -5.925
REMARK INTRA:                  -1.818
REMARK UNBOUND:                -1.904
REMARK SMILES CCCCCCCCCCCCCCCC(=O)[O-]
REMARK SMILES IDX 9 1 10 2 11 3 12 4 13 5 14 6 15 7 16 8 17 9 18 10 8 11 7 12
REMARK SMILES IDX 6 13 5 14 4 15 3 16 2 17 1 18
REMARK H PARENT
REMARK Flexibility Score: inf
ROOT
ATOM      1  C   UNL     1     -20.600   2.870 -23.011  1.00  0.00     0.000 C 
ENDROOT
BRANCH   1   2
ATOM      2  C   UNL     1     -19.596   3.701 -23.826  1.00  0.00     0.000 C 
BRANCH   2   3
ATOM      3  C   UNL     1     -19.949   3.759 -25.323  1.00  0.00     0.000 C 
BRANCH   3   4
ATOM      4  C   UNL     1     -18.772   3.350 -26.223  1.00  0.00     0.000 C 
BRANCH   4   5
ATOM      5  C   UNL     1     -19.206   2.445 -27.389  1.00  0.00     0.000 C 
BRANCH   5   6
ATOM      6  C   UNL     1     -20.514   1.684 -27.088  1.00  0.00     0.006 C 
BRANCH   6   7
ATOM      7  C   UNL     1     -20.375   0.158 -27.198  1.00  0.00     0.053 C 
BRANCH   7   8
ATOM      8  C   UNL     1     -19.421  -0.401 -26.190  1.00  0.00     0.041 C 
ATOM      9  O   UNL     1     -19.524  -0.083 -24.975  1.00  0.00    -0.550 OA
ATOM     10  O   UNL     1     -18.434  -1.294 -26.587  1.00  0.00    -0.550 OA
ENDBRANCH   7   8
ENDBRANCH   6   7
ENDBRANCH   5   6
ENDBRANCH   4   5
ENDBRANCH   3   4
ENDBRANCH   2   3
ENDBRANCH   1   2
BRANCH   1  11
ATOM     11  C   UNL     1     -20.654   3.292 -21.533  1.00  0.00     0.000 C 
BRANCH  11  12
ATOM     12  C   UNL     1     -21.379   4.633 -21.317  1.00  0.00    -0.000 C 
BRANCH  12  13
ATOM     13  C   UNL     1     -22.438   4.983 -22.379  1.00  0.00    -0.000 C 
BRANCH  13  14
ATOM     14  C   UNL     1     -23.825   4.408 -22.058  1.00  0.00    -0.000 C 
BRANCH  14  15
ATOM     15  C   UNL     1     -24.491   3.843 -23.322  1.00  0.00    -0.000 C 
BRANCH  15  16
ATOM     16  C   UNL     1     -23.675   4.116 -24.595  1.00  0.00    -0.000 C 
BRANCH  16  17
ATOM     17  C   UNL     1     -23.575   2.885 -25.508  1.00  0.00    -0.003 C 
ATOM     18  C   UNL     1     -24.521   3.005 -26.699  1.00  0.00     0.004 C 
ENDBRANCH  16  17
ENDBRANCH  15  16
ENDBRANCH  14  15
ENDBRANCH  13  14
ENDBRANCH  12  13
ENDBRANCH  11  12
ENDBRANCH   1  11
TORSDOF 14
ENDMDL
MODEL 9
REMARK VINA RESULT:    -3.129     12.014     14.840
REMARK INTER + INTRA:          -7.595
REMARK INTER:                  -5.412
REMARK INTRA:                  -2.183
REMARK UNBOUND:                -1.904
REMARK SMILES CCCCCCCCCCCCCCCC(=O)[O-]
REMARK SMILES IDX 9 1 10 2 11 3 12 4 13 5 14 6 15 7 16 8 17 9 18 10 8 11 7 12
REMARK SMILES IDX 6 13 5 14 4 15 3 16 2 17 1 18
REMARK H PARENT
REMARK Flexibility Score: inf
ROOT
ATOM      1  C   UNL     1      -6.768  -0.482 -22.768  1.00  0.00     0.000 C 
ENDROOT
BRANCH   1   2
ATOM      2  C   UNL     1      -6.641  -1.940 -23.235  1.00  0.00     0.000 C 
BRANCH   2   3
ATOM      3  C   UNL     1      -5.637  -2.109 -24.390  1.00  0.00     0.000 C 
BRANCH   3   4
ATOM      4  C   UNL     1      -5.811  -3.443 -25.133  1.00  0.00     0.000 C 
BRANCH   4   5
ATOM      5  C   UNL     1      -6.384  -3.260 -26.549  1.00  0.00     0.000 C 
BRANCH   5   6
ATOM      6  C   UNL     1      -7.805  -3.845 -26.689  1.00  0.00     0.006 C 
BRANCH   6   7
ATOM      7  C   UNL     1      -8.254  -4.665 -25.470  1.00  0.00     0.053 C 
BRANCH   7   8
ATOM      8  C   UNL     1      -8.266  -6.135 -25.745  1.00  0.00     0.041 C 
ATOM      9  O   UNL     1      -9.359  -6.751 -25.858  1.00  0.00    -0.550 OA
ATOM     10  O   UNL     1      -7.069  -6.822 -25.902  1.00  0.00    -0.550 OA
ENDBRANCH   7   8
ENDBRANCH   6   7
ENDBRANCH   5   6
ENDBRANCH   4   5
ENDBRANCH   3   4
ENDBRANCH   2   3
ENDBRANCH   1   2
BRANCH   1  11
ATOM     11  C   UNL     1      -5.439   0.286 -22.860  1.00  0.00     0.000 C 
BRANCH  11  12
ATOM     12  C   UNL     1      -5.514   1.507 -23.795  1.00  0.00    -0.000 C 
BRANCH  12  13
ATOM     13  C   UNL     1      -6.803   2.341 -23.680  1.00  0.00    -0.000 C 
BRANCH  13  14
ATOM     14  C   UNL     1      -7.532   2.510 -25.021  1.00  0.00    -0.000 C 
BRANCH  14  15
ATOM     15  C   UNL     1      -7.195   1.355 -25.978  1.00  0.00    -0.000 C 
BRANCH  15  16
ATOM     16  C   UNL     1      -8.448   0.707 -26.587  1.00  0.00    -0.000 C 
BRANCH  16  17
ATOM     17  C   UNL     1      -8.919  -0.525 -25.800  1.00  0.00    -0.003 C 
ATOM     18  C   UNL     1      -9.967  -0.144 -24.759  1.00  0.00     0.004 C 
ENDBRANCH  16  17
ENDBRANCH  15  16
ENDBRANCH  14  15
ENDBRANCH  13  14
ENDBRANCH  12  13
ENDBRANCH  11  12
ENDBRANCH   1  11
TORSDOF 14
ENDMDL
