MODEL 1
REMARK VINA RESULT:    -4.703      0.000      0.000
REMARK INTER + INTRA:          -5.347
REMARK INTER:                  -5.253
REMARK INTRA:                  -0.094
REMARK UNBOUND:                -0.094
REMARK SMILES COc1cc2ccc(=O)oc2cc1OC
REMARK SMILES IDX 3 1 13 2 12 3 11 4 5 5 4 6 6 7 7 8 8 9 9 10 10 11 2 12 1 13
REMARK SMILES IDX 14 14 15 15
REMARK H PARENT
REMARK Flexibility Score: inf
ROOT
ATOM      1  C   UNL     1     113.860 109.070  93.623  1.00  0.00     0.161 A 
ATOM      2  C   UNL     1     113.780 109.201  92.227  1.00  0.00     0.164 A 
ATOM      3  C   UNL     1     114.178 110.405  91.613  1.00  0.00     0.098 A 
ATOM      4  C   UNL     1     114.653 111.468  92.384  1.00  0.00     0.142 A 
ATOM      5  C   UNL     1     114.734 111.338  93.785  1.00  0.00     0.022 A 
ATOM      6  C   UNL     1     114.339 110.143  94.401  1.00  0.00     0.062 A 
ATOM      7  C   UNL     1     115.213 112.420  94.529  1.00  0.00     0.019 A 
ATOM      8  C   UNL     1     115.595 113.589  93.871  1.00  0.00     0.094 A 
ATOM      9  C   UNL     1     115.486 113.647  92.477  1.00  0.00     0.336 A 
ATOM     10  O   UNL     1     115.824 114.692  91.863  1.00  0.00    -0.246 OA
ATOM     11  O   UNL     1     115.027 112.601  91.794  1.00  0.00    -0.423 OA
ENDROOT
BRANCH   1  12
ATOM     12  O   UNL     1     113.455 107.856  94.202  1.00  0.00    -0.493 OA
ATOM     13  C   UNL     1     112.895 107.729  95.504  1.00  0.00     0.278 C 
ENDBRANCH   1  12
BRANCH   2  14
ATOM     14  O   UNL     1     113.298 108.112  91.483  1.00  0.00    -0.493 OA
ATOM     15  C   UNL     1     114.117 107.092  90.920  1.00  0.00     0.278 C 
ENDBRANCH   2  14
TORSDOF 2
ENDMDL
MODEL 2
REMARK VINA RESULT:    -4.655      9.394     10.916
REMARK INTER + INTRA:          -5.293
REMARK INTER:                  -5.174
REMARK INTRA:                  -0.119
REMARK UNBOUND:                -0.094
REMARK SMILES COc1cc2ccc(=O)oc2cc1OC
REMARK SMILES IDX 3 1 13 2 12 3 11 4 5 5 4 6 6 7 7 8 8 9 9 10 10 11 2 12 1 13
REMARK SMILES IDX 14 14 15 15
REMARK H PARENT
REMARK Flexibility Score: inf
ROOT
ATOM      1  C   UNL     1     104.086 113.462  95.523  1.00  0.00     0.161 A 
ATOM      2  C   UNL     1     105.056 113.497  94.507  1.00  0.00     0.164 A 
ATOM      3  C   UNL     1     105.789 112.334  94.199  1.00  0.00     0.098 A 
ATOM      4  C   UNL     1     105.556 111.147  94.895  1.00  0.00     0.142 A 
ATOM      5  C   UNL     1     104.583 111.110  95.915  1.00  0.00     0.022 A 
ATOM      6  C   UNL     1     103.852 112.264  96.226  1.00  0.00     0.062 A 
ATOM      7  C   UNL     1     104.374 109.906  96.593  1.00  0.00     0.019 A 
ATOM      8  C   UNL     1     105.126 108.784  96.248  1.00  0.00     0.094 A 
ATOM      9  C   UNL     1     106.075 108.895  95.226  1.00  0.00     0.336 A 
ATOM     10  O   UNL     1     106.765 107.894  94.898  1.00  0.00    -0.246 OA
ATOM     11  O   UNL     1     106.253 110.053  94.595  1.00  0.00    -0.423 OA
ENDROOT
BRANCH   1  12
ATOM     12  O   UNL     1     103.375 114.640  95.804  1.00  0.00    -0.493 OA
ATOM     13  C   UNL     1     101.995 114.838  95.517  1.00  0.00     0.278 C 
ENDBRANCH   1  12
BRANCH   2  14
ATOM     14  O   UNL     1     105.264 114.708  93.827  1.00  0.00    -0.493 OA
ATOM     15  C   UNL     1     106.451 115.042  93.115  1.00  0.00     0.278 C 
ENDBRANCH   2  14
TORSDOF 2
ENDMDL
MODEL 3
REMARK VINA RESULT:    -4.650      7.113      8.495
REMARK INTER + INTRA:          -5.288
REMARK INTER:                  -5.131
REMARK INTRA:                  -0.157
REMARK UNBOUND:                -0.094
REMARK SMILES COc1cc2ccc(=O)oc2cc1OC
REMARK SMILES IDX 3 1 13 2 12 3 11 4 5 5 4 6 6 7 7 8 8 9 9 10 10 11 2 12 1 13
REMARK SMILES IDX 14 14 15 15
REMARK H PARENT
REMARK Flexibility Score: inf
ROOT
ATOM      1  C   UNL     1     113.784 104.734  98.136  1.00  0.00     0.161 A 
ATOM      2  C   UNL     1     113.638 104.284  99.459  1.00  0.00     0.164 A 
ATOM      3  C   UNL     1     113.423 105.214 100.495  1.00  0.00     0.098 A 
ATOM      4  C   UNL     1     113.352 106.580 100.215  1.00  0.00     0.142 A 
ATOM      5  C   UNL     1     113.498 107.033  98.887  1.00  0.00     0.022 A 
ATOM      6  C   UNL     1     113.713 106.113  97.854  1.00  0.00     0.062 A 
ATOM      7  C   UNL     1     113.422 108.407  98.640  1.00  0.00     0.019 A 
ATOM      8  C   UNL     1     113.206 109.284  99.702  1.00  0.00     0.094 A 
ATOM      9  C   UNL     1     113.072 108.763 100.993  1.00  0.00     0.336 A 
ATOM     10  O   UNL     1     112.877 109.538 101.966  1.00  0.00    -0.246 OA
ATOM     11  O   UNL     1     113.147 107.451 101.201  1.00  0.00    -0.423 OA
ENDROOT
BRANCH   1  12
ATOM     12  O   UNL     1     113.998 103.779  97.129  1.00  0.00    -0.493 OA
ATOM     13  C   UNL     1     113.041 103.423  96.137  1.00  0.00     0.278 C 
ENDBRANCH   1  12
BRANCH   2  14
ATOM     14  O   UNL     1     113.715 102.903  99.705  1.00  0.00    -0.493 OA
ATOM     15  C   UNL     1     112.589 102.040  99.821  1.00  0.00     0.278 C 
ENDBRANCH   2  14
TORSDOF 2
ENDMDL
MODEL 4
REMARK VINA RESULT:    -4.602      7.230      9.962
REMARK INTER + INTRA:          -5.234
REMARK INTER:                  -5.123
REMARK INTRA:                  -0.111
REMARK UNBOUND:                -0.094
REMARK SMILES COc1cc2ccc(=O)oc2cc1OC
REMARK SMILES IDX 3 1 13 2 12 3 11 4 5 5 4 6 6 7 7 8 8 9 9 10 10 11 2 12 1 13
REMARK SMILES IDX 14 14 15 15
REMARK H PARENT
REMARK Flexibility Score: inf
ROOT
ATOM      1  C   UNL     1     112.771 104.251  99.268  1.00  0.00     0.161 A 
ATOM      2  C   UNL     1     113.496 104.553  98.103  1.00  0.00     0.164 A 
ATOM      3  C   UNL     1     113.091 104.009  96.868  1.00  0.00     0.098 A 
ATOM      4  C   UNL     1     111.976 103.174  96.794  1.00  0.00     0.142 A 
ATOM      5  C   UNL     1     111.248 102.870  97.963  1.00  0.00     0.022 A 
ATOM      6  C   UNL     1     111.646 103.407  99.194  1.00  0.00     0.062 A 
ATOM      7  C   UNL     1     110.136 102.029  97.856  1.00  0.00     0.019 A 
ATOM      8  C   UNL     1     109.779 101.519  96.608  1.00  0.00     0.094 A 
ATOM      9  C   UNL     1     110.549 101.863  95.492  1.00  0.00     0.336 A 
ATOM     10  O   UNL     1     110.244 101.413  94.356  1.00  0.00    -0.246 OA
ATOM     11  O   UNL     1     111.602 102.666  95.622  1.00  0.00    -0.423 OA
ENDROOT
BRANCH   1  12
ATOM     12  O   UNL     1     113.202 104.810 100.483  1.00  0.00    -0.493 OA
ATOM     13  C   UNL     1     112.549 105.880 101.156  1.00  0.00     0.278 C 
ENDBRANCH   1  12
BRANCH   2  14
ATOM     14  O   UNL     1     114.613 105.397  98.214  1.00  0.00    -0.493 OA
ATOM     15  C   UNL     1     114.560 106.819  98.154  1.00  0.00     0.278 C 
ENDBRANCH   2  14
TORSDOF 2
ENDMDL
MODEL 5
REMARK VINA RESULT:    -4.600      0.946      2.715
REMARK INTER + INTRA:          -5.232
REMARK INTER:                  -5.115
REMARK INTRA:                  -0.117
REMARK UNBOUND:                -0.094
REMARK SMILES COc1cc2ccc(=O)oc2cc1OC
REMARK SMILES IDX 3 1 13 2 12 3 11 4 5 5 4 6 6 7 7 8 8 9 9 10 10 11 2 12 1 13
REMARK SMILES IDX 14 14 15 15
REMARK H PARENT
REMARK Flexibility Score: inf
ROOT
ATOM      1  C   UNL     1     113.839 109.128  91.972  1.00  0.00     0.161 A 
ATOM      2  C   UNL     1     113.923 109.179  93.373  1.00  0.00     0.164 A 
ATOM      3  C   UNL     1     114.387 110.350  94.004  1.00  0.00     0.098 A 
ATOM      4  C   UNL     1     114.762 111.461  93.245  1.00  0.00     0.142 A 
ATOM      5  C   UNL     1     114.678 111.411  91.838  1.00  0.00     0.022 A 
ATOM      6  C   UNL     1     114.219 110.249  91.206  1.00  0.00     0.062 A 
ATOM      7  C   UNL     1     115.061 112.539  91.107  1.00  0.00     0.019 A 
ATOM      8  C   UNL     1     115.512 113.673  91.782  1.00  0.00     0.094 A 
ATOM      9  C   UNL     1     115.570 113.650  93.180  1.00  0.00     0.336 A 
ATOM     10  O   UNL     1     115.974 114.663  93.808  1.00  0.00    -0.246 OA
ATOM     11  O   UNL     1     115.198 112.563  93.851  1.00  0.00    -0.423 OA
ENDROOT
BRANCH   1  12
ATOM     12  O   UNL     1     113.373 107.944  91.376  1.00  0.00    -0.493 OA
ATOM     13  C   UNL     1     114.210 106.927  90.838  1.00  0.00     0.278 C 
ENDBRANCH   1  12
BRANCH   2  14
ATOM     14  O   UNL     1     113.537 108.044  94.105  1.00  0.00    -0.493 OA
ATOM     15  C   UNL     1     112.827 108.081  95.338  1.00  0.00     0.278 C 
ENDBRANCH   2  14
TORSDOF 2
ENDMDL
MODEL 6
REMARK VINA RESULT:    -4.599      1.827      5.344
REMARK INTER + INTRA:          -5.231
REMARK INTER:                  -5.099
REMARK INTRA:                  -0.132
REMARK UNBOUND:                -0.094
REMARK SMILES COc1cc2ccc(=O)oc2cc1OC
REMARK SMILES IDX 3 1 13 2 12 3 11 4 5 5 4 6 6 7 7 8 8 9 9 10 10 11 2 12 1 13
REMARK SMILES IDX 14 14 15 15
REMARK H PARENT
REMARK Flexibility Score: inf
ROOT
ATOM      1  C   UNL     1     114.984 111.881  91.584  1.00  0.00     0.161 A 
ATOM      2  C   UNL     1     115.365 112.621  92.716  1.00  0.00     0.164 A 
ATOM      3  C   UNL     1     115.123 112.104  94.004  1.00  0.00     0.098 A 
ATOM      4  C   UNL     1     114.508 110.861  94.163  1.00  0.00     0.142 A 
ATOM      5  C   UNL     1     114.124 110.117  93.028  1.00  0.00     0.022 A 
ATOM      6  C   UNL     1     114.362 110.626  91.745  1.00  0.00     0.062 A 
ATOM      7  C   UNL     1     113.510 108.876  93.221  1.00  0.00     0.019 A 
ATOM      8  C   UNL     1     113.295 108.412  94.518  1.00  0.00     0.094 A 
ATOM      9  C   UNL     1     113.701 109.205  95.596  1.00  0.00     0.336 A 
ATOM     10  O   UNL     1     113.515 108.804  96.775  1.00  0.00    -0.246 OA
ATOM     11  O   UNL     1     114.284 110.382  95.384  1.00  0.00    -0.423 OA
ENDROOT
BRANCH   1  12
ATOM     12  O   UNL     1     115.240 112.426  90.315  1.00  0.00    -0.493 OA
ATOM     13  C   UNL     1     114.270 112.562  89.283  1.00  0.00     0.278 C 
ENDBRANCH   1  12
BRANCH   2  14
ATOM     14  O   UNL     1     115.982 113.867  92.519  1.00  0.00    -0.493 OA
ATOM     15  C   UNL     1     115.304 115.119  92.555  1.00  0.00     0.278 C 
ENDBRANCH   2  14
TORSDOF 2
ENDMDL
MODEL 7
REMARK VINA RESULT:    -4.515      9.240     10.240
REMARK INTER + INTRA:          -5.137
REMARK INTER:                  -4.978
REMARK INTRA:                  -0.159
REMARK UNBOUND:                -0.094
REMARK SMILES COc1cc2ccc(=O)oc2cc1OC
REMARK SMILES IDX 3 1 13 2 12 3 11 4 5 5 4 6 6 7 7 8 8 9 9 10 10 11 2 12 1 13
REMARK SMILES IDX 14 14 15 15
REMARK H PARENT
REMARK Flexibility Score: inf
ROOT
ATOM      1  C   UNL     1     106.028 109.854  95.189  1.00  0.00     0.161 A 
ATOM      2  C   UNL     1     104.999 109.672  96.128  1.00  0.00     0.164 A 
ATOM      3  C   UNL     1     104.108 110.729  96.403  1.00  0.00     0.098 A 
ATOM      4  C   UNL     1     104.241 111.954  95.748  1.00  0.00     0.142 A 
ATOM      5  C   UNL     1     105.274 112.138  94.805  1.00  0.00     0.022 A 
ATOM      6  C   UNL     1     106.162 111.092  94.529  1.00  0.00     0.062 A 
ATOM      7  C   UNL     1     105.381 113.377  94.167  1.00  0.00     0.019 A 
ATOM      8  C   UNL     1     104.472 114.389  94.476  1.00  0.00     0.094 A 
ATOM      9  C   UNL     1     103.474 114.135  95.423  1.00  0.00     0.336 A 
ATOM     10  O   UNL     1     102.643 115.034  95.717  1.00  0.00    -0.246 OA
ATOM     11  O   UNL     1     103.394 112.946  96.015  1.00  0.00    -0.423 OA
ENDROOT
BRANCH   1  12
ATOM     12  O   UNL     1     106.898 108.780  94.939  1.00  0.00    -0.493 OA
ATOM     13  C   UNL     1     108.273 108.753  95.304  1.00  0.00     0.278 C 
ENDBRANCH   1  12
BRANCH   2  14
ATOM     14  O   UNL     1     104.894 108.426  96.768  1.00  0.00    -0.493 OA
ATOM     15  C   UNL     1     105.350 108.156  98.089  1.00  0.00     0.278 C 
ENDBRANCH   2  14
TORSDOF 2
ENDMDL
MODEL 8
REMARK VINA RESULT:    -4.513      8.416     10.061
REMARK INTER + INTRA:          -5.135
REMARK INTER:                  -4.969
REMARK INTRA:                  -0.166
REMARK UNBOUND:                -0.094
REMARK SMILES COc1cc2ccc(=O)oc2cc1OC
REMARK SMILES IDX 3 1 13 2 12 3 11 4 5 5 4 6 6 7 7 8 8 9 9 10 10 11 2 12 1 13
REMARK SMILES IDX 14 14 15 15
REMARK H PARENT
REMARK Flexibility Score: inf
ROOT
ATOM      1  C   UNL     1     112.691 105.854 101.148  1.00  0.00     0.161 A 
ATOM      2  C   UNL     1     111.384 105.339 101.114  1.00  0.00     0.164 A 
ATOM      3  C   UNL     1     110.953 104.600  99.995  1.00  0.00     0.098 A 
ATOM      4  C   UNL     1     111.816 104.374  98.921  1.00  0.00     0.142 A 
ATOM      5  C   UNL     1     113.128 104.890  98.954  1.00  0.00     0.022 A 
ATOM      6  C   UNL     1     113.561 105.626 100.063  1.00  0.00     0.062 A 
ATOM      7  C   UNL     1     113.967 104.647  97.863  1.00  0.00     0.019 A 
ATOM      8  C   UNL     1     113.489 103.908  96.781  1.00  0.00     0.094 A 
ATOM      9  C   UNL     1     112.176 103.429  96.817  1.00  0.00     0.336 A 
ATOM     10  O   UNL     1     111.724 102.760  95.850  1.00  0.00    -0.246 OA
ATOM     11  O   UNL     1     111.398 103.674  97.868  1.00  0.00    -0.423 OA
ENDROOT
BRANCH   1  12
ATOM     12  O   UNL     1     113.088 106.586 102.279  1.00  0.00    -0.493 OA
ATOM     13  C   UNL     1     113.174 108.005 102.333  1.00  0.00     0.278 C 
ENDBRANCH   1  12
BRANCH   2  14
ATOM     14  O   UNL     1     110.543 105.585 102.211  1.00  0.00    -0.493 OA
ATOM     15  C   UNL     1     109.542 106.596 102.251  1.00  0.00     0.278 C 
ENDBRANCH   2  14
TORSDOF 2
ENDMDL
