MODEL 1
REMARK VINA RESULT:    -3.962      0.000      0.000
REMARK INTER + INTRA:         -16.044
REMARK INTER:                 -10.449
REMARK INTRA:                  -5.596
REMARK UNBOUND:                -5.596
REMARK SMILES CCCCCCCCCCCCCCCCCCCCCCCCCCCCCC(=O)[O-]
REMARK SMILES IDX 16 1 17 2 18 3 19 4 20 5 21 6 22 7 23 8 24 9 25 10 26 11
REMARK SMILES IDX 27 12 28 13 29 14 30 15 31 16 32 17 15 18 14 19 13 20 12 21
REMARK SMILES IDX 11 22 10 23 9 24 8 25 7 26 6 27 5 28 4 29 3 30 2 31 1 32
REMARK H PARENT
REMARK Flexibility Score: inf
ROOT
ATOM      1  C   UNL     1     -44.631 -50.207  40.332  1.00  0.00     0.000 C 
ENDROOT
BRANCH   1   2
ATOM      2  C   UNL     1     -43.937 -51.568  40.187  1.00  0.00     0.000 C 
BRANCH   2   3
ATOM      3  C   UNL     1     -43.641 -51.891  38.715  1.00  0.00     0.000 C 
BRANCH   3   4
ATOM      4  C   UNL     1     -43.851 -53.378  38.372  1.00  0.00     0.000 C 
BRANCH   4   5
ATOM      5  C   UNL     1     -44.918 -53.648  37.293  1.00  0.00     0.000 C 
BRANCH   5   6
ATOM      6  C   UNL     1     -45.781 -52.414  36.987  1.00  0.00     0.000 C 
BRANCH   6   7
ATOM      7  C   UNL     1     -47.290 -52.736  37.019  1.00  0.00     0.000 C 
BRANCH   7   8
ATOM      8  C   UNL     1     -47.833 -53.037  38.425  1.00  0.00     0.000 C 
BRANCH   8   9
ATOM      9  C   UNL     1     -47.410 -51.992  39.469  1.00  0.00     0.000 C 
BRANCH   9  10
ATOM     10  C   UNL     1     -47.896 -52.330  40.892  1.00  0.00     0.000 C 
BRANCH  10  11
ATOM     11  C   UNL     1     -47.719 -53.803  41.317  1.00  0.00     0.000 C 
BRANCH  11  12
ATOM     12  C   UNL     1     -46.257 -54.168  41.632  1.00  0.00     0.000 C 
BRANCH  12  13
ATOM     13  C   UNL     1     -45.916 -55.629  41.280  1.00  0.00     0.006 C 
BRANCH  13  14
ATOM     14  C   UNL     1     -46.121 -55.976  39.794  1.00  0.00     0.053 C 
BRANCH  14  15
ATOM     15  C   UNL     1     -47.219 -56.972  39.581  1.00  0.00     0.041 C 
ATOM     16  O   UNL     1     -47.311 -57.984  40.327  1.00  0.00    -0.550 OA
ATOM     17  O   UNL     1     -48.156 -56.771  38.573  1.00  0.00    -0.550 OA
ENDBRANCH  14  15
ENDBRANCH  13  14
ENDBRANCH  12  13
ENDBRANCH  11  12
ENDBRANCH  10  11
ENDBRANCH   9  10
ENDBRANCH   8   9
ENDBRANCH   7   8
ENDBRANCH   6   7
ENDBRANCH   5   6
ENDBRANCH   4   5
ENDBRANCH   3   4
ENDBRANCH   2   3
ENDBRANCH   1   2
BRANCH   1  18
ATOM     18  C   UNL     1     -44.386 -49.330  39.094  1.00  0.00     0.000 C 
BRANCH  18  19
ATOM     19  C   UNL     1     -45.678 -48.985  38.331  1.00  0.00     0.000 C 
BRANCH  19  20
ATOM     20  C   UNL     1     -45.548 -48.957  36.796  1.00  0.00     0.000 C 
BRANCH  20  21
ATOM     21  C   UNL     1     -44.116 -48.761  36.268  1.00  0.00     0.000 C 
BRANCH  21  22
ATOM     22  C   UNL     1     -43.683 -49.859  35.287  1.00  0.00     0.000 C 
BRANCH  22  23
ATOM     23  C   UNL     1     -43.074 -49.243  34.018  1.00  0.00     0.000 C 
BRANCH  23  24
ATOM     24  C   UNL     1     -42.417 -47.879  34.269  1.00  0.00    -0.000 C 
BRANCH  24  25
ATOM     25  C   UNL     1     -40.897 -47.977  34.477  1.00  0.00    -0.000 C 
BRANCH  25  26
ATOM     26  C   UNL     1     -40.467 -47.717  35.933  1.00  0.00    -0.000 C 
BRANCH  26  27
ATOM     27  C   UNL     1     -40.330 -48.994  36.787  1.00  0.00    -0.000 C 
BRANCH  27  28
ATOM     28  C   UNL     1     -40.890 -48.815  38.208  1.00  0.00    -0.000 C 
BRANCH  28  29
ATOM     29  C   UNL     1     -41.520 -47.431  38.434  1.00  0.00    -0.000 C 
BRANCH  29  30
ATOM     30  C   UNL     1     -41.173 -46.811  39.807  1.00  0.00    -0.000 C 
BRANCH  30  31
ATOM     31  C   UNL     1     -42.383 -46.723  40.755  1.00  0.00    -0.003 C 
ATOM     32  C   UNL     1     -43.503 -45.850  40.190  1.00  0.00     0.004 C 
ENDBRANCH  30  31
ENDBRANCH  29  30
ENDBRANCH  28  29
ENDBRANCH  27  28
ENDBRANCH  26  27
ENDBRANCH  25  26
ENDBRANCH  24  25
ENDBRANCH  23  24
ENDBRANCH  22  23
ENDBRANCH  21  22
ENDBRANCH  20  21
ENDBRANCH  19  20
ENDBRANCH  18  19
ENDBRANCH   1  18
TORSDOF 28
ENDMDL
MODEL 2
REMARK VINA RESULT:    -3.945      3.892      8.148
REMARK INTER + INTRA:         -15.999
REMARK INTER:                 -10.471
REMARK INTRA:                  -5.528
REMARK UNBOUND:                -5.596
REMARK SMILES CCCCCCCCCCCCCCCCCCCCCCCCCCCCCC(=O)[O-]
REMARK SMILES IDX 16 1 17 2 18 3 19 4 20 5 21 6 22 7 23 8 24 9 25 10 26 11
REMARK SMILES IDX 27 12 28 13 29 14 30 15 31 16 32 17 15 18 14 19 13 20 12 21
REMARK SMILES IDX 11 22 10 23 9 24 8 25 7 26 6 27 5 28 4 29 3 30 2 31 1 32
REMARK H PARENT
REMARK Flexibility Score: inf
ROOT
ATOM      1  C   UNL     1     -43.876 -49.869  35.249  1.00  0.00     0.000 C 
ENDROOT
BRANCH   1   2
ATOM      2  C   UNL     1     -43.095 -49.293  34.061  1.00  0.00     0.000 C 
BRANCH   2   3
ATOM      3  C   UNL     1     -42.360 -48.000  34.448  1.00  0.00     0.000 C 
BRANCH   3   4
ATOM      4  C   UNL     1     -40.831 -48.173  34.507  1.00  0.00     0.000 C 
BRANCH   4   5
ATOM      5  C   UNL     1     -40.172 -47.658  35.801  1.00  0.00     0.000 C 
BRANCH   5   6
ATOM      6  C   UNL     1     -40.679 -48.383  37.057  1.00  0.00     0.000 C 
BRANCH   6   7
ATOM      7  C   UNL     1     -40.502 -49.913  36.957  1.00  0.00     0.000 C 
BRANCH   7   8
ATOM      8  C   UNL     1     -40.899 -50.671  38.234  1.00  0.00     0.000 C 
BRANCH   8   9
ATOM      9  C   UNL     1     -42.309 -50.315  38.730  1.00  0.00     0.000 C 
BRANCH   9  10
ATOM     10  C   UNL     1     -42.303 -49.559  40.073  1.00  0.00     0.000 C 
BRANCH  10  11
ATOM     11  C   UNL     1     -43.580 -48.749  40.381  1.00  0.00     0.000 C 
BRANCH  11  12
ATOM     12  C   UNL     1     -43.655 -47.423  39.605  1.00  0.00     0.000 C 
BRANCH  12  13
ATOM     13  C   UNL     1     -42.349 -46.609  39.683  1.00  0.00     0.006 C 
BRANCH  13  14
ATOM     14  C   UNL     1     -42.453 -45.345  40.555  1.00  0.00     0.053 C 
BRANCH  14  15
ATOM     15  C   UNL     1     -41.123 -44.708  40.810  1.00  0.00     0.041 C 
ATOM     16  O   UNL     1     -40.060 -45.331  40.545  1.00  0.00    -0.550 OA
ATOM     17  O   UNL     1     -41.055 -43.415  41.318  1.00  0.00    -0.550 OA
ENDBRANCH  14  15
ENDBRANCH  13  14
ENDBRANCH  12  13
ENDBRANCH  11  12
ENDBRANCH  10  11
ENDBRANCH   9  10
ENDBRANCH   8   9
ENDBRANCH   7   8
ENDBRANCH   6   7
ENDBRANCH   5   6
ENDBRANCH   4   5
ENDBRANCH   3   4
ENDBRANCH   2   3
ENDBRANCH   1   2
BRANCH   1  18
ATOM     18  C   UNL     1     -44.244 -48.765  36.253  1.00  0.00     0.000 C 
BRANCH  18  19
ATOM     19  C   UNL     1     -45.652 -48.935  36.851  1.00  0.00     0.000 C 
BRANCH  19  20
ATOM     20  C   UNL     1     -45.822 -50.132  37.806  1.00  0.00     0.000 C 
BRANCH  20  21
ATOM     21  C   UNL     1     -46.908 -51.142  37.397  1.00  0.00     0.000 C 
BRANCH  21  22
ATOM     22  C   UNL     1     -46.330 -52.461  36.865  1.00  0.00     0.000 C 
BRANCH  22  23
ATOM     23  C   UNL     1     -44.865 -52.625  37.298  1.00  0.00     0.000 C 
BRANCH  23  24
ATOM     24  C   UNL     1     -44.452 -54.093  37.475  1.00  0.00    -0.000 C 
BRANCH  24  25
ATOM     25  C   UNL     1     -44.013 -54.421  38.911  1.00  0.00    -0.000 C 
BRANCH  25  26
ATOM     26  C   UNL     1     -44.846 -55.543  39.558  1.00  0.00    -0.000 C 
BRANCH  26  27
ATOM     27  C   UNL     1     -46.174 -55.840  38.831  1.00  0.00    -0.000 C 
BRANCH  27  28
ATOM     28  C   UNL     1     -47.404 -55.470  39.678  1.00  0.00    -0.000 C 
BRANCH  28  29
ATOM     29  C   UNL     1     -47.704 -53.963  39.672  1.00  0.00    -0.000 C 
BRANCH  29  30
ATOM     30  C   UNL     1     -47.866 -53.360  41.086  1.00  0.00    -0.000 C 
BRANCH  30  31
ATOM     31  C   UNL     1     -47.242 -51.959  41.223  1.00  0.00    -0.003 C 
ATOM     32  C   UNL     1     -45.730 -51.971  40.996  1.00  0.00     0.004 C 
ENDBRANCH  30  31
ENDBRANCH  29  30
ENDBRANCH  28  29
ENDBRANCH  27  28
ENDBRANCH  26  27
ENDBRANCH  25  26
ENDBRANCH  24  25
ENDBRANCH  23  24
ENDBRANCH  22  23
ENDBRANCH  21  22
ENDBRANCH  20  21
ENDBRANCH  19  20
ENDBRANCH  18  19
ENDBRANCH   1  18
TORSDOF 28
ENDMDL
MODEL 3
REMARK VINA RESULT:    -3.916      1.937      3.829
REMARK INTER + INTRA:         -15.922
REMARK INTER:                  -9.799
REMARK INTRA:                  -6.123
REMARK UNBOUND:                -5.596
REMARK SMILES CCCCCCCCCCCCCCCCCCCCCCCCCCCCCC(=O)[O-]
REMARK SMILES IDX 16 1 17 2 18 3 19 4 20 5 21 6 22 7 23 8 24 9 25 10 26 11
REMARK SMILES IDX 27 12 28 13 29 14 30 15 31 16 32 17 15 18 14 19 13 20 12 21
REMARK SMILES IDX 11 22 10 23 9 24 8 25 7 26 6 27 5 28 4 29 3 30 2 31 1 32
REMARK H PARENT
REMARK Flexibility Score: inf
ROOT
ATOM      1  C   UNL     1     -41.983 -50.799  42.570  1.00  0.00     0.000 C 
ENDROOT
BRANCH   1   2
ATOM      2  C   UNL     1     -43.339 -50.893  41.857  1.00  0.00     0.000 C 
BRANCH   2   3
ATOM      3  C   UNL     1     -43.236 -51.718  40.565  1.00  0.00     0.000 C 
BRANCH   3   4
ATOM      4  C   UNL     1     -44.276 -51.308  39.506  1.00  0.00     0.000 C 
BRANCH   4   5
ATOM      5  C   UNL     1     -45.506 -50.564  40.061  1.00  0.00     0.000 C 
BRANCH   5   6
ATOM      6  C   UNL     1     -46.781 -50.831  39.246  1.00  0.00     0.000 C 
BRANCH   6   7
ATOM      7  C   UNL     1     -46.497 -50.919  37.732  1.00  0.00     0.000 C 
BRANCH   7   8
ATOM      8  C   UNL     1     -46.767 -52.306  37.126  1.00  0.00     0.000 C 
BRANCH   8   9
ATOM      9  C   UNL     1     -47.856 -53.087  37.878  1.00  0.00     0.000 C 
BRANCH   9  10
ATOM     10  C   UNL     1     -47.376 -54.466  38.372  1.00  0.00     0.000 C 
BRANCH  10  11
ATOM     11  C   UNL     1     -45.848 -54.680  38.350  1.00  0.00     0.000 C 
BRANCH  11  12
ATOM     12  C   UNL     1     -45.240 -54.830  39.755  1.00  0.00     0.000 C 
BRANCH  12  13
ATOM     13  C   UNL     1     -46.305 -54.857  40.869  1.00  0.00     0.006 C 
BRANCH  13  14
ATOM     14  C   UNL     1     -46.225 -53.663  41.837  1.00  0.00     0.053 C 
BRANCH  14  15
ATOM     15  C   UNL     1     -47.573 -53.196  42.290  1.00  0.00     0.041 C 
ATOM     16  O   UNL     1     -47.753 -52.843  43.487  1.00  0.00    -0.550 OA
ATOM     17  O   UNL     1     -48.628 -53.128  41.386  1.00  0.00    -0.550 OA
ENDBRANCH  14  15
ENDBRANCH  13  14
ENDBRANCH  12  13
ENDBRANCH  11  12
ENDBRANCH  10  11
ENDBRANCH   9  10
ENDBRANCH   8   9
ENDBRANCH   7   8
ENDBRANCH   6   7
ENDBRANCH   5   6
ENDBRANCH   4   5
ENDBRANCH   3   4
ENDBRANCH   2   3
ENDBRANCH   1   2
BRANCH   1  18
ATOM     18  C   UNL     1     -41.438 -49.363  42.527  1.00  0.00     0.000 C 
BRANCH  18  19
ATOM     19  C   UNL     1     -42.216 -48.447  41.565  1.00  0.00     0.000 C 
BRANCH  19  20
ATOM     20  C   UNL     1     -41.365 -47.750  40.486  1.00  0.00     0.000 C 
BRANCH  20  21
ATOM     21  C   UNL     1     -42.142 -47.296  39.239  1.00  0.00     0.000 C 
BRANCH  21  22
ATOM     22  C   UNL     1     -43.659 -47.225  39.469  1.00  0.00     0.000 C 
BRANCH  22  23
ATOM     23  C   UNL     1     -44.420 -47.716  38.228  1.00  0.00     0.000 C 
BRANCH  23  24
ATOM     24  C   UNL     1     -43.544 -48.542  37.275  1.00  0.00    -0.000 C 
BRANCH  24  25
ATOM     25  C   UNL     1     -44.221 -48.810  35.922  1.00  0.00    -0.000 C 
BRANCH  25  26
ATOM     26  C   UNL     1     -43.218 -49.070  34.784  1.00  0.00    -0.000 C 
BRANCH  26  27
ATOM     27  C   UNL     1     -42.344 -47.851  34.424  1.00  0.00    -0.000 C 
BRANCH  27  28
ATOM     28  C   UNL     1     -40.842 -48.126  34.615  1.00  0.00    -0.000 C 
BRANCH  28  29
ATOM     29  C   UNL     1     -40.306 -47.616  35.962  1.00  0.00    -0.000 C 
BRANCH  29  30
ATOM     30  C   UNL     1     -39.611 -48.710  36.804  1.00  0.00    -0.000 C 
BRANCH  30  31
ATOM     31  C   UNL     1     -40.345 -50.063  36.764  1.00  0.00    -0.003 C 
ATOM     32  C   UNL     1     -40.553 -50.653  38.159  1.00  0.00     0.004 C 
ENDBRANCH  30  31
ENDBRANCH  29  30
ENDBRANCH  28  29
ENDBRANCH  27  28
ENDBRANCH  26  27
ENDBRANCH  25  26
ENDBRANCH  24  25
ENDBRANCH  23  24
ENDBRANCH  22  23
ENDBRANCH  21  22
ENDBRANCH  20  21
ENDBRANCH  19  20
ENDBRANCH  18  19
ENDBRANCH   1  18
TORSDOF 28
ENDMDL
MODEL 4
REMARK VINA RESULT:    -3.859      3.613      7.554
REMARK INTER + INTRA:         -15.771
REMARK INTER:                 -10.372
REMARK INTRA:                  -5.399
REMARK UNBOUND:                -5.596
REMARK SMILES CCCCCCCCCCCCCCCCCCCCCCCCCCCCCC(=O)[O-]
REMARK SMILES IDX 16 1 17 2 18 3 19 4 20 5 21 6 22 7 23 8 24 9 25 10 26 11
REMARK SMILES IDX 27 12 28 13 29 14 30 15 31 16 32 17 15 18 14 19 13 20 12 21
REMARK SMILES IDX 11 22 10 23 9 24 8 25 7 26 6 27 5 28 4 29 3 30 2 31 1 32
REMARK H PARENT
REMARK Flexibility Score: inf
ROOT
ATOM      1  C   UNL     1     -42.024 -47.631  34.252  1.00  0.00     0.000 C 
ENDROOT
BRANCH   1   2
ATOM      2  C   UNL     1     -42.643 -48.979  33.861  1.00  0.00     0.000 C 
BRANCH   2   3
ATOM      3  C   UNL     1     -43.566 -49.514  34.967  1.00  0.00     0.000 C 
BRANCH   3   4
ATOM      4  C   UNL     1     -43.893 -48.458  36.039  1.00  0.00     0.000 C 
BRANCH   4   5
ATOM      5  C   UNL     1     -45.164 -48.744  36.862  1.00  0.00     0.000 C 
BRANCH   5   6
ATOM      6  C   UNL     1     -45.419 -50.246  37.061  1.00  0.00     0.000 C 
BRANCH   6   7
ATOM      7  C   UNL     1     -46.609 -50.514  38.006  1.00  0.00     0.000 C 
BRANCH   7   8
ATOM      8  C   UNL     1     -46.238 -50.502  39.497  1.00  0.00     0.000 C 
BRANCH   8   9
ATOM      9  C   UNL     1     -44.883 -51.168  39.784  1.00  0.00     0.000 C 
BRANCH   9  10
ATOM     10  C   UNL     1     -43.971 -50.314  40.685  1.00  0.00     0.000 C 
BRANCH  10  11
ATOM     11  C   UNL     1     -43.749 -48.861  40.214  1.00  0.00     0.000 C 
BRANCH  11  12
ATOM     12  C   UNL     1     -42.454 -48.683  39.402  1.00  0.00     0.000 C 
BRANCH  12  13
ATOM     13  C   UNL     1     -42.199 -47.218  38.996  1.00  0.00     0.006 C 
BRANCH  13  14
ATOM     14  C   UNL     1     -41.684 -46.333  40.144  1.00  0.00     0.053 C 
BRANCH  14  15
ATOM     15  C   UNL     1     -42.564 -45.149  40.400  1.00  0.00     0.041 C 
ATOM     16  O   UNL     1     -43.811 -45.239  40.237  1.00  0.00    -0.550 OA
ATOM     17  O   UNL     1     -42.011 -43.952  40.842  1.00  0.00    -0.550 OA
ENDBRANCH  14  15
ENDBRANCH  13  14
ENDBRANCH  12  13
ENDBRANCH  11  12
ENDBRANCH  10  11
ENDBRANCH   9  10
ENDBRANCH   8   9
ENDBRANCH   7   8
ENDBRANCH   6   7
ENDBRANCH   5   6
ENDBRANCH   4   5
ENDBRANCH   3   4
ENDBRANCH   2   3
ENDBRANCH   1   2
BRANCH   1  18
ATOM     18  C   UNL     1     -40.711 -47.830  35.025  1.00  0.00     0.000 C 
BRANCH  18  19
ATOM     19  C   UNL     1     -39.820 -48.935  34.429  1.00  0.00     0.000 C 
BRANCH  19  20
ATOM     20  C   UNL     1     -39.435 -50.066  35.402  1.00  0.00     0.000 C 
BRANCH  20  21
ATOM     21  C   UNL     1     -40.249 -50.106  36.707  1.00  0.00     0.000 C 
BRANCH  21  22
ATOM     22  C   UNL     1     -40.584 -51.533  37.163  1.00  0.00     0.000 C 
BRANCH  22  23
ATOM     23  C   UNL     1     -42.105 -51.748  37.198  1.00  0.00     0.000 C 
BRANCH  23  24
ATOM     24  C   UNL     1     -42.506 -53.096  37.814  1.00  0.00    -0.000 C 
BRANCH  24  25
ATOM     25  C   UNL     1     -43.321 -53.975  36.851  1.00  0.00    -0.000 C 
BRANCH  25  26
ATOM     26  C   UNL     1     -44.841 -53.772  36.986  1.00  0.00    -0.000 C 
BRANCH  26  27
ATOM     27  C   UNL     1     -45.448 -54.391  38.262  1.00  0.00    -0.000 C 
BRANCH  27  28
ATOM     28  C   UNL     1     -46.977 -54.233  38.322  1.00  0.00    -0.000 C 
BRANCH  28  29
ATOM     29  C   UNL     1     -47.596 -54.866  39.579  1.00  0.00    -0.000 C 
BRANCH  29  30
ATOM     30  C   UNL     1     -48.110 -53.829  40.603  1.00  0.00    -0.000 C 
BRANCH  30  31
ATOM     31  C   UNL     1     -47.032 -53.385  41.609  1.00  0.00    -0.003 C 
ATOM     32  C   UNL     1     -47.619 -52.601  42.784  1.00  0.00     0.004 C 
ENDBRANCH  30  31
ENDBRANCH  29  30
ENDBRANCH  28  29
ENDBRANCH  27  28
ENDBRANCH  26  27
ENDBRANCH  25  26
ENDBRANCH  24  25
ENDBRANCH  23  24
ENDBRANCH  22  23
ENDBRANCH  21  22
ENDBRANCH  20  21
ENDBRANCH  19  20
ENDBRANCH  18  19
ENDBRANCH   1  18
TORSDOF 28
ENDMDL
MODEL 5
REMARK VINA RESULT:    -3.815      2.430      7.578
REMARK INTER + INTRA:         -15.655
REMARK INTER:                  -9.609
REMARK INTRA:                  -6.046
REMARK UNBOUND:                -5.596
REMARK SMILES CCCCCCCCCCCCCCCCCCCCCCCCCCCCCC(=O)[O-]
REMARK SMILES IDX 16 1 17 2 18 3 19 4 20 5 21 6 22 7 23 8 24 9 25 10 26 11
REMARK SMILES IDX 27 12 28 13 29 14 30 15 31 16 32 17 15 18 14 19 13 20 12 21
REMARK SMILES IDX 11 22 10 23 9 24 8 25 7 26 6 27 5 28 4 29 3 30 2 31 1 32
REMARK H PARENT
REMARK Flexibility Score: inf
ROOT
ATOM      1  C   UNL     1     -43.741 -48.281  37.990  1.00  0.00     0.000 C 
ENDROOT
BRANCH   1   2
ATOM      2  C   UNL     1     -43.872 -47.957  39.484  1.00  0.00     0.000 C 
BRANCH   2   3
ATOM      3  C   UNL     1     -42.500 -47.941  40.176  1.00  0.00     0.000 C 
BRANCH   3   4
ATOM      4  C   UNL     1     -41.449 -47.119  39.408  1.00  0.00     0.000 C 
BRANCH   4   5
ATOM      5  C   UNL     1     -40.090 -47.820  39.223  1.00  0.00     0.000 C 
BRANCH   5   6
ATOM      6  C   UNL     1     -40.231 -49.313  38.885  1.00  0.00     0.000 C 
BRANCH   6   7
ATOM      7  C   UNL     1     -40.545 -49.545  37.392  1.00  0.00     0.000 C 
BRANCH   7   8
ATOM      8  C   UNL     1     -39.637 -48.757  36.433  1.00  0.00     0.000 C 
BRANCH   8   9
ATOM      9  C   UNL     1     -40.357 -47.579  35.757  1.00  0.00     0.000 C 
BRANCH   9  10
ATOM     10  C   UNL     1     -41.007 -47.962  34.414  1.00  0.00     0.000 C 
BRANCH  10  11
ATOM     11  C   UNL     1     -42.539 -48.146  34.450  1.00  0.00     0.000 C 
BRANCH  11  12
ATOM     12  C   UNL     1     -43.001 -49.471  33.818  1.00  0.00     0.000 C 
BRANCH  12  13
ATOM     13  C   UNL     1     -42.792 -50.683  34.747  1.00  0.00     0.006 C 
BRANCH  13  14
ATOM     14  C   UNL     1     -41.739 -51.683  34.239  1.00  0.00     0.053 C 
BRANCH  14  15
ATOM     15  C   UNL     1     -42.332 -53.006  33.867  1.00  0.00     0.041 C 
ATOM     16  O   UNL     1     -42.150 -53.481  32.713  1.00  0.00    -0.550 OA
ATOM     17  O   UNL     1     -43.066 -53.728  34.801  1.00  0.00    -0.550 OA
ENDBRANCH  14  15
ENDBRANCH  13  14
ENDBRANCH  12  13
ENDBRANCH  11  12
ENDBRANCH  10  11
ENDBRANCH   9  10
ENDBRANCH   8   9
ENDBRANCH   7   8
ENDBRANCH   6   7
ENDBRANCH   5   6
ENDBRANCH   4   5
ENDBRANCH   3   4
ENDBRANCH   2   3
ENDBRANCH   1   2
BRANCH   1  18
ATOM     18  C   UNL     1     -45.073 -48.050  37.258  1.00  0.00     0.000 C 
BRANCH  18  19
ATOM     19  C   UNL     1     -45.615 -49.318  36.574  1.00  0.00     0.000 C 
BRANCH  19  20
ATOM     20  C   UNL     1     -46.826 -49.973  37.266  1.00  0.00     0.000 C 
BRANCH  20  21
ATOM     21  C   UNL     1     -46.735 -51.501  37.425  1.00  0.00     0.000 C 
BRANCH  21  22
ATOM     22  C   UNL     1     -45.469 -52.096  36.792  1.00  0.00     0.000 C 
BRANCH  22  23
ATOM     23  C   UNL     1     -44.578 -52.741  37.864  1.00  0.00     0.000 C 
BRANCH  23  24
ATOM     24  C   UNL     1     -43.739 -51.717  38.642  1.00  0.00    -0.000 C 
BRANCH  24  25
ATOM     25  C   UNL     1     -43.904 -51.843  40.166  1.00  0.00    -0.000 C 
BRANCH  25  26
ATOM     26  C   UNL     1     -45.183 -51.169  40.694  1.00  0.00    -0.000 C 
BRANCH  26  27
ATOM     27  C   UNL     1     -46.160 -52.134  41.397  1.00  0.00    -0.000 C 
BRANCH  27  28
ATOM     28  C   UNL     1     -47.601 -51.993  40.880  1.00  0.00    -0.000 C 
BRANCH  28  29
ATOM     29  C   UNL     1     -48.196 -53.323  40.391  1.00  0.00    -0.000 C 
BRANCH  29  30
ATOM     30  C   UNL     1     -47.128 -54.375  40.014  1.00  0.00    -0.000 C 
BRANCH  30  31
ATOM     31  C   UNL     1     -47.336 -54.971  38.609  1.00  0.00    -0.003 C 
ATOM     32  C   UNL     1     -46.472 -56.211  38.370  1.00  0.00     0.004 C 
ENDBRANCH  30  31
ENDBRANCH  29  30
ENDBRANCH  28  29
ENDBRANCH  27  28
ENDBRANCH  26  27
ENDBRANCH  25  26
ENDBRANCH  24  25
ENDBRANCH  23  24
ENDBRANCH  22  23
ENDBRANCH  21  22
ENDBRANCH  20  21
ENDBRANCH  19  20
ENDBRANCH  18  19
ENDBRANCH   1  18
TORSDOF 28
ENDMDL
MODEL 6
REMARK VINA RESULT:    -3.811      2.011      3.962
REMARK INTER + INTRA:         -15.645
REMARK INTER:                  -9.845
REMARK INTRA:                  -5.800
REMARK UNBOUND:                -5.596
REMARK SMILES CCCCCCCCCCCCCCCCCCCCCCCCCCCCCC(=O)[O-]
REMARK SMILES IDX 16 1 17 2 18 3 19 4 20 5 21 6 22 7 23 8 24 9 25 10 26 11
REMARK SMILES IDX 27 12 28 13 29 14 30 15 31 16 32 17 15 18 14 19 13 20 12 21
REMARK SMILES IDX 11 22 10 23 9 24 8 25 7 26 6 27 5 28 4 29 3 30 2 31 1 32
REMARK H PARENT
REMARK Flexibility Score: inf
ROOT
ATOM      1  C   UNL     1     -42.280 -50.787  36.341  1.00  0.00     0.000 C 
ENDROOT
BRANCH   1   2
ATOM      2  C   UNL     1     -42.810 -51.817  37.348  1.00  0.00     0.000 C 
BRANCH   2   3
ATOM      3  C   UNL     1     -42.257 -51.557  38.758  1.00  0.00     0.000 C 
BRANCH   3   4
ATOM      4  C   UNL     1     -43.363 -51.320  39.803  1.00  0.00     0.000 C 
BRANCH   4   5
ATOM      5  C   UNL     1     -43.476 -49.868  40.306  1.00  0.00     0.000 C 
BRANCH   5   6
ATOM      6  C   UNL     1     -44.662 -49.113  39.685  1.00  0.00     0.000 C 
BRANCH   6   7
ATOM      7  C   UNL     1     -44.276 -48.401  38.371  1.00  0.00     0.000 C 
BRANCH   7   8
ATOM      8  C   UNL     1     -45.444 -48.237  37.384  1.00  0.00     0.000 C 
BRANCH   8   9
ATOM      9  C   UNL     1     -46.589 -49.229  37.640  1.00  0.00     0.000 C 
BRANCH   9  10
ATOM     10  C   UNL     1     -46.581 -50.423  36.667  1.00  0.00     0.000 C 
BRANCH  10  11
ATOM     11  C   UNL     1     -46.253 -51.791  37.301  1.00  0.00     0.000 C 
BRANCH  11  12
ATOM     12  C   UNL     1     -47.475 -52.721  37.392  1.00  0.00     0.000 C 
BRANCH  12  13
ATOM     13  C   UNL     1     -47.695 -53.284  38.810  1.00  0.00     0.006 C 
BRANCH  13  14
ATOM     14  C   UNL     1     -47.331 -52.298  39.935  1.00  0.00     0.053 C 
BRANCH  14  15
ATOM     15  C   UNL     1     -48.202 -52.454  41.142  1.00  0.00     0.041 C 
ATOM     16  O   UNL     1     -47.865 -51.932  42.240  1.00  0.00    -0.550 OA
ATOM     17  O   UNL     1     -49.400 -53.154  41.052  1.00  0.00    -0.550 OA
ENDBRANCH  14  15
ENDBRANCH  13  14
ENDBRANCH  12  13
ENDBRANCH  11  12
ENDBRANCH  10  11
ENDBRANCH   9  10
ENDBRANCH   8   9
ENDBRANCH   7   8
ENDBRANCH   6   7
ENDBRANCH   5   6
ENDBRANCH   4   5
ENDBRANCH   3   4
ENDBRANCH   2   3
ENDBRANCH   1   2
BRANCH   1  18
ATOM     18  C   UNL     1     -43.270 -50.591  35.182  1.00  0.00     0.000 C 
BRANCH  18  19
ATOM     19  C   UNL     1     -42.977 -49.337  34.340  1.00  0.00     0.000 C 
BRANCH  19  20
ATOM     20  C   UNL     1     -42.472 -48.115  35.133  1.00  0.00     0.000 C 
BRANCH  20  21
ATOM     21  C   UNL     1     -41.098 -47.580  34.696  1.00  0.00     0.000 C 
BRANCH  21  22
ATOM     22  C   UNL     1     -40.144 -48.688  34.225  1.00  0.00     0.000 C 
BRANCH  22  23
ATOM     23  C   UNL     1     -38.799 -48.595  34.962  1.00  0.00     0.000 C 
BRANCH  23  24
ATOM     24  C   UNL     1     -38.813 -47.576  36.110  1.00  0.00    -0.000 C 
BRANCH  24  25
ATOM     25  C   UNL     1     -38.509 -48.212  37.476  1.00  0.00    -0.000 C 
BRANCH  25  26
ATOM     26  C   UNL     1     -39.756 -48.802  38.160  1.00  0.00    -0.000 C 
BRANCH  26  27
ATOM     27  C   UNL     1     -40.823 -47.754  38.538  1.00  0.00    -0.000 C 
BRANCH  27  28
ATOM     28  C   UNL     1     -40.774 -47.376  40.028  1.00  0.00    -0.000 C 
BRANCH  28  29
ATOM     29  C   UNL     1     -40.723 -45.857  40.260  1.00  0.00    -0.000 C 
BRANCH  29  30
ATOM     30  C   UNL     1     -41.852 -45.333  41.176  1.00  0.00    -0.000 C 
BRANCH  30  31
ATOM     31  C   UNL     1     -43.255 -45.772  40.720  1.00  0.00    -0.003 C 
ATOM     32  C   UNL     1     -43.974 -44.685  39.921  1.00  0.00     0.004 C 
ENDBRANCH  30  31
ENDBRANCH  29  30
ENDBRANCH  28  29
ENDBRANCH  27  28
ENDBRANCH  26  27
ENDBRANCH  25  26
ENDBRANCH  24  25
ENDBRANCH  23  24
ENDBRANCH  22  23
ENDBRANCH  21  22
ENDBRANCH  20  21
ENDBRANCH  19  20
ENDBRANCH  18  19
ENDBRANCH   1  18
TORSDOF 28
ENDMDL
MODEL 7
REMARK VINA RESULT:    -3.796      1.736      3.707
REMARK INTER + INTRA:         -15.606
REMARK INTER:                  -9.240
REMARK INTRA:                  -6.366
REMARK UNBOUND:                -5.596
REMARK SMILES CCCCCCCCCCCCCCCCCCCCCCCCCCCCCC(=O)[O-]
REMARK SMILES IDX 16 1 17 2 18 3 19 4 20 5 21 6 22 7 23 8 24 9 25 10 26 11
REMARK SMILES IDX 27 12 28 13 29 14 30 15 31 16 32 17 15 18 14 19 13 20 12 21
REMARK SMILES IDX 11 22 10 23 9 24 8 25 7 26 6 27 5 28 4 29 3 30 2 31 1 32
REMARK H PARENT
REMARK Flexibility Score: inf
ROOT
ATOM      1  C   UNL     1     -43.102 -49.552  40.012  1.00  0.00     0.000 C 
ENDROOT
BRANCH   1   2
ATOM      2  C   UNL     1     -44.594 -49.753  40.307  1.00  0.00     0.000 C 
BRANCH   2   3
ATOM      3  C   UNL     1     -44.875 -51.169  40.834  1.00  0.00     0.000 C 
BRANCH   3   4
ATOM      4  C   UNL     1     -43.684 -52.127  40.648  1.00  0.00     0.000 C 
BRANCH   4   5
ATOM      5  C   UNL     1     -44.047 -53.505  40.063  1.00  0.00     0.000 C 
BRANCH   5   6
ATOM      6  C   UNL     1     -43.538 -53.695  38.626  1.00  0.00     0.000 C 
BRANCH   6   7
ATOM      7  C   UNL     1     -43.947 -52.528  37.704  1.00  0.00     0.000 C 
BRANCH   7   8
ATOM      8  C   UNL     1     -45.212 -52.802  36.875  1.00  0.00     0.000 C 
BRANCH   8   9
ATOM      9  C   UNL     1     -46.404 -51.926  37.291  1.00  0.00     0.000 C 
BRANCH   9  10
ATOM     10  C   UNL     1     -47.622 -52.748  37.756  1.00  0.00     0.000 C 
BRANCH  10  11
ATOM     11  C   UNL     1     -47.713 -52.992  39.277  1.00  0.00     0.000 C 
BRANCH  11  12
ATOM     12  C   UNL     1     -47.463 -54.459  39.669  1.00  0.00     0.000 C 
BRANCH  12  13
ATOM     13  C   UNL     1     -47.290 -55.383  38.448  1.00  0.00     0.006 C 
BRANCH  13  14
ATOM     14  C   UNL     1     -46.437 -56.633  38.728  1.00  0.00     0.053 C 
BRANCH  14  15
ATOM     15  C   UNL     1     -47.227 -57.743  39.348  1.00  0.00     0.041 C 
ATOM     16  O   UNL     1     -47.153 -57.957  40.589  1.00  0.00    -0.550 OA
ATOM     17  O   UNL     1     -48.063 -58.528  38.562  1.00  0.00    -0.550 OA
ENDBRANCH  14  15
ENDBRANCH  13  14
ENDBRANCH  12  13
ENDBRANCH  11  12
ENDBRANCH  10  11
ENDBRANCH   9  10
ENDBRANCH   8   9
ENDBRANCH   7   8
ENDBRANCH   6   7
ENDBRANCH   5   6
ENDBRANCH   4   5
ENDBRANCH   3   4
ENDBRANCH   2   3
ENDBRANCH   1   2
BRANCH   1  18
ATOM     18  C   UNL     1     -42.897 -48.891  38.640  1.00  0.00     0.000 C 
BRANCH  18  19
ATOM     19  C   UNL     1     -44.186 -48.820  37.802  1.00  0.00     0.000 C 
BRANCH  19  20
ATOM     20  C   UNL     1     -43.991 -48.430  36.325  1.00  0.00     0.000 C 
BRANCH  20  21
ATOM     21  C   UNL     1     -43.867 -49.614  35.350  1.00  0.00     0.000 C 
BRANCH  21  22
ATOM     22  C   UNL     1     -43.042 -49.278  34.099  1.00  0.00     0.000 C 
BRANCH  22  23
ATOM     23  C   UNL     1     -42.396 -47.890  34.232  1.00  0.00     0.000 C 
BRANCH  23  24
ATOM     24  C   UNL     1     -40.862 -47.945  34.274  1.00  0.00    -0.000 C 
BRANCH  24  25
ATOM     25  C   UNL     1     -40.313 -48.221  35.683  1.00  0.00    -0.000 C 
BRANCH  25  26
ATOM     26  C   UNL     1     -39.619 -49.590  35.804  1.00  0.00    -0.000 C 
BRANCH  26  27
ATOM     27  C   UNL     1     -40.101 -50.437  37.000  1.00  0.00    -0.000 C 
BRANCH  27  28
ATOM     28  C   UNL     1     -40.801 -51.733  36.559  1.00  0.00    -0.000 C 
BRANCH  28  29
ATOM     29  C   UNL     1     -40.651 -52.015  35.055  1.00  0.00    -0.000 C 
BRANCH  29  30
ATOM     30  C   UNL     1     -41.910 -52.643  34.416  1.00  0.00    -0.000 C 
BRANCH  30  31
ATOM     31  C   UNL     1     -41.783 -54.161  34.192  1.00  0.00    -0.003 C 
ATOM     32  C   UNL     1     -42.264 -54.970  35.397  1.00  0.00     0.004 C 
ENDBRANCH  30  31
ENDBRANCH  29  30
ENDBRANCH  28  29
ENDBRANCH  27  28
ENDBRANCH  26  27
ENDBRANCH  25  26
ENDBRANCH  24  25
ENDBRANCH  23  24
ENDBRANCH  22  23
ENDBRANCH  21  22
ENDBRANCH  20  21
ENDBRANCH  19  20
ENDBRANCH  18  19
ENDBRANCH   1  18
TORSDOF 28
ENDMDL
MODEL 8
REMARK VINA RESULT:    -3.767      1.634      4.629
REMARK INTER + INTRA:         -15.530
REMARK INTER:                 -10.163
REMARK INTRA:                  -5.367
REMARK UNBOUND:                -5.596
REMARK SMILES CCCCCCCCCCCCCCCCCCCCCCCCCCCCCC(=O)[O-]
REMARK SMILES IDX 16 1 17 2 18 3 19 4 20 5 21 6 22 7 23 8 24 9 25 10 26 11
REMARK SMILES IDX 27 12 28 13 29 14 30 15 31 16 32 17 15 18 14 19 13 20 12 21
REMARK SMILES IDX 11 22 10 23 9 24 8 25 7 26 6 27 5 28 4 29 3 30 2 31 1 32
REMARK H PARENT
REMARK Flexibility Score: inf
ROOT
ATOM      1  C   UNL     1     -46.844 -51.752  37.597  1.00  0.00     0.000 C 
ENDROOT
BRANCH   1   2
ATOM      2  C   UNL     1     -47.014 -52.005  39.101  1.00  0.00     0.000 C 
BRANCH   2   3
ATOM      3  C   UNL     1     -48.249 -52.874  39.387  1.00  0.00     0.000 C 
BRANCH   3   4
ATOM      4  C   UNL     1     -48.603 -52.942  40.884  1.00  0.00     0.000 C 
BRANCH   4   5
ATOM      5  C   UNL     1     -47.592 -52.251  41.819  1.00  0.00     0.000 C 
BRANCH   5   6
ATOM      6  C   UNL     1     -47.623 -52.814  43.249  1.00  0.00     0.000 C 
BRANCH   6   7
ATOM      7  C   UNL     1     -46.287 -53.481  43.641  1.00  0.00     0.000 C 
BRANCH   7   8
ATOM      8  C   UNL     1     -45.469 -53.990  42.443  1.00  0.00     0.000 C 
BRANCH   8   9
ATOM      9  C   UNL     1     -45.576 -55.510  42.246  1.00  0.00     0.000 C 
BRANCH   9  10
ATOM     10  C   UNL     1     -46.304 -55.899  40.945  1.00  0.00     0.000 C 
BRANCH  10  11
ATOM     11  C   UNL     1     -45.643 -55.398  39.643  1.00  0.00     0.000 C 
BRANCH  11  12
ATOM     12  C   UNL     1     -46.421 -55.802  38.379  1.00  0.00     0.000 C 
BRANCH  12  13
ATOM     13  C   UNL     1     -47.733 -56.545  38.695  1.00  0.00     0.006 C 
BRANCH  13  14
ATOM     14  C   UNL     1     -47.841 -57.930  38.031  1.00  0.00     0.053 C 
BRANCH  14  15
ATOM     15  C   UNL     1     -47.226 -59.015  38.858  1.00  0.00     0.041 C 
ATOM     16  O   UNL     1     -47.508 -59.117  40.083  1.00  0.00    -0.550 OA
ATOM     17  O   UNL     1     -46.358 -59.931  38.273  1.00  0.00    -0.550 OA
ENDBRANCH  14  15
ENDBRANCH  13  14
ENDBRANCH  12  13
ENDBRANCH  11  12
ENDBRANCH  10  11
ENDBRANCH   9  10
ENDBRANCH   8   9
ENDBRANCH   7   8
ENDBRANCH   6   7
ENDBRANCH   5   6
ENDBRANCH   4   5
ENDBRANCH   3   4
ENDBRANCH   2   3
ENDBRANCH   1   2
BRANCH   1  18
ATOM     18  C   UNL     1     -46.818 -50.246  37.292  1.00  0.00     0.000 C 
BRANCH  18  19
ATOM     19  C   UNL     1     -45.481 -49.771  36.697  1.00  0.00     0.000 C 
BRANCH  19  20
ATOM     20  C   UNL     1     -45.001 -48.388  37.178  1.00  0.00     0.000 C 
BRANCH  20  21
ATOM     21  C   UNL     1     -43.679 -48.396  37.965  1.00  0.00     0.000 C 
BRANCH  21  22
ATOM     22  C   UNL     1     -43.885 -48.318  39.485  1.00  0.00     0.000 C 
BRANCH  22  23
ATOM     23  C   UNL     1     -44.148 -49.714  40.070  1.00  0.00     0.000 C 
BRANCH  23  24
ATOM     24  C   UNL     1     -43.021 -50.712  39.768  1.00  0.00    -0.000 C 
BRANCH  24  25
ATOM     25  C   UNL     1     -43.543 -52.073  39.280  1.00  0.00    -0.000 C 
BRANCH  25  26
ATOM     26  C   UNL     1     -42.718 -52.657  38.119  1.00  0.00    -0.000 C 
BRANCH  26  27
ATOM     27  C   UNL     1     -42.207 -51.603  37.116  1.00  0.00    -0.000 C 
BRANCH  27  28
ATOM     28  C   UNL     1     -42.638 -51.908  35.671  1.00  0.00    -0.000 C 
BRANCH  28  29
ATOM     29  C   UNL     1     -42.610 -50.668  34.762  1.00  0.00    -0.000 C 
BRANCH  29  30
ATOM     30  C   UNL     1     -41.201 -50.052  34.602  1.00  0.00    -0.000 C 
BRANCH  30  31
ATOM     31  C   UNL     1     -41.164 -48.541  34.892  1.00  0.00    -0.003 C 
ATOM     32  C   UNL     1     -42.375 -47.807  34.315  1.00  0.00     0.004 C 
ENDBRANCH  30  31
ENDBRANCH  29  30
ENDBRANCH  28  29
ENDBRANCH  27  28
ENDBRANCH  26  27
ENDBRANCH  25  26
ENDBRANCH  24  25
ENDBRANCH  23  24
ENDBRANCH  22  23
ENDBRANCH  21  22
ENDBRANCH  20  21
ENDBRANCH  19  20
ENDBRANCH  18  19
ENDBRANCH   1  18
TORSDOF 28
ENDMDL
MODEL 9
REMARK VINA RESULT:    -3.761      2.006      4.418
REMARK INTER + INTRA:         -15.513
REMARK INTER:                  -9.556
REMARK INTRA:                  -5.957
REMARK UNBOUND:                -5.596
REMARK SMILES CCCCCCCCCCCCCCCCCCCCCCCCCCCCCC(=O)[O-]
REMARK SMILES IDX 16 1 17 2 18 3 19 4 20 5 21 6 22 7 23 8 24 9 25 10 26 11
REMARK SMILES IDX 27 12 28 13 29 14 30 15 31 16 32 17 15 18 14 19 13 20 12 21
REMARK SMILES IDX 11 22 10 23 9 24 8 25 7 26 6 27 5 28 4 29 3 30 2 31 1 32
REMARK H PARENT
REMARK Flexibility Score: inf
ROOT
ATOM      1  C   UNL     1     -39.708 -48.256  37.903  1.00  0.00     0.000 C 
ENDROOT
BRANCH   1   2
ATOM      2  C   UNL     1     -40.861 -47.566  38.644  1.00  0.00     0.000 C 
BRANCH   2   3
ATOM      3  C   UNL     1     -42.207 -47.824  37.949  1.00  0.00     0.000 C 
BRANCH   3   4
ATOM      4  C   UNL     1     -43.413 -47.644  38.890  1.00  0.00     0.000 C 
BRANCH   4   5
ATOM      5  C   UNL     1     -44.617 -48.553  38.578  1.00  0.00     0.000 C 
BRANCH   5   6
ATOM      6  C   UNL     1     -45.359 -48.140  37.298  1.00  0.00     0.000 C 
BRANCH   6   7
ATOM      7  C   UNL     1     -46.489 -49.127  36.934  1.00  0.00     0.000 C 
BRANCH   7   8
ATOM      8  C   UNL     1     -46.598 -50.328  37.887  1.00  0.00     0.000 C 
BRANCH   8   9
ATOM      9  C   UNL     1     -46.727 -51.670  37.149  1.00  0.00     0.000 C 
BRANCH   9  10
ATOM     10  C   UNL     1     -45.702 -52.719  37.622  1.00  0.00     0.000 C 
BRANCH  10  11
ATOM     11  C   UNL     1     -46.232 -54.165  37.718  1.00  0.00     0.000 C 
BRANCH  11  12
ATOM     12  C   UNL     1     -47.099 -54.407  38.966  1.00  0.00     0.000 C 
BRANCH  12  13
ATOM     13  C   UNL     1     -46.418 -53.942  40.268  1.00  0.00     0.006 C 
BRANCH  13  14
ATOM     14  C   UNL     1     -47.404 -53.574  41.391  1.00  0.00     0.053 C 
BRANCH  14  15
ATOM     15  C   UNL     1     -48.232 -52.372  41.060  1.00  0.00     0.041 C 
ATOM     16  O   UNL     1     -49.481 -52.480  40.928  1.00  0.00    -0.550 OA
ATOM     17  O   UNL     1     -47.629 -51.127  40.921  1.00  0.00    -0.550 OA
ENDBRANCH  14  15
ENDBRANCH  13  14
ENDBRANCH  12  13
ENDBRANCH  11  12
ENDBRANCH  10  11
ENDBRANCH   9  10
ENDBRANCH   8   9
ENDBRANCH   7   8
ENDBRANCH   6   7
ENDBRANCH   5   6
ENDBRANCH   4   5
ENDBRANCH   3   4
ENDBRANCH   2   3
ENDBRANCH   1   2
BRANCH   1  18
ATOM     18  C   UNL     1     -39.527 -47.665  36.496  1.00  0.00     0.000 C 
BRANCH  18  19
ATOM     19  C   UNL     1     -39.251 -48.732  35.422  1.00  0.00     0.000 C 
BRANCH  19  20
ATOM     20  C   UNL     1     -40.293 -48.810  34.289  1.00  0.00     0.000 C 
BRANCH  20  21
ATOM     21  C   UNL     1     -41.356 -47.698  34.307  1.00  0.00     0.000 C 
BRANCH  21  22
ATOM     22  C   UNL     1     -42.788 -48.238  34.437  1.00  0.00     0.000 C 
BRANCH  22  23
ATOM     23  C   UNL     1     -42.812 -49.763  34.245  1.00  0.00     0.000 C 
BRANCH  23  24
ATOM     24  C   UNL     1     -43.339 -50.514  35.476  1.00  0.00    -0.000 C 
BRANCH  24  25
ATOM     25  C   UNL     1     -42.949 -52.001  35.481  1.00  0.00    -0.000 C 
BRANCH  25  26
ATOM     26  C   UNL     1     -42.096 -52.398  36.699  1.00  0.00    -0.000 C 
BRANCH  26  27
ATOM     27  C   UNL     1     -41.593 -51.202  37.534  1.00  0.00    -0.000 C 
BRANCH  27  28
ATOM     28  C   UNL     1     -41.688 -51.459  39.047  1.00  0.00    -0.000 C 
BRANCH  28  29
ATOM     29  C   UNL     1     -43.115 -51.791  39.511  1.00  0.00    -0.000 C 
BRANCH  29  30
ATOM     30  C   UNL     1     -43.493 -51.142  40.862  1.00  0.00    -0.000 C 
BRANCH  30  31
ATOM     31  C   UNL     1     -42.272 -50.645  41.658  1.00  0.00    -0.003 C 
ATOM     32  C   UNL     1     -42.361 -49.156  41.991  1.00  0.00     0.004 C 
ENDBRANCH  30  31
ENDBRANCH  29  30
ENDBRANCH  28  29
ENDBRANCH  27  28
ENDBRANCH  26  27
ENDBRANCH  25  26
ENDBRANCH  24  25
ENDBRANCH  23  24
ENDBRANCH  22  23
ENDBRANCH  21  22
ENDBRANCH  20  21
ENDBRANCH  19  20
ENDBRANCH  18  19
ENDBRANCH   1  18
TORSDOF 28
ENDMDL
