MODEL 1
REMARK VINA RESULT:    -5.519      0.000      0.000
REMARK INTER + INTRA:         -14.643
REMARK INTER:                 -11.973
REMARK INTRA:                  -2.671
REMARK UNBOUND:                -2.671
REMARK SMILES CCCCCCCCCCCCCCCCCCCCCC(=O)[O-]
REMARK SMILES IDX 12 1 11 2 10 3 9 4 8 5 7 6 6 7 5 8 4 9 3 10 2 11 1 12 13 13
REMARK SMILES IDX 14 14 15 15 16 16 17 17 18 18 19 19 20 20 21 21 22 22 23 23
REMARK SMILES IDX 24 24
REMARK H PARENT
REMARK Flexibility Score: inf
ROOT
ATOM      1  C   UNL     1       8.993   9.188  39.649  1.00  0.00     0.000 C 
ENDROOT
BRANCH   1   2
ATOM      2  C   UNL     1       7.551   8.656  39.502  1.00  0.00     0.000 C 
BRANCH   2   3
ATOM      3  C   UNL     1       6.505   9.781  39.591  1.00  0.00     0.000 C 
BRANCH   3   4
ATOM      4  C   UNL     1       5.606   9.666  40.834  1.00  0.00    -0.000 C 
BRANCH   4   5
ATOM      5  C   UNL     1       5.757  10.810  41.854  1.00  0.00    -0.000 C 
BRANCH   5   6
ATOM      6  C   UNL     1       6.798  10.500  42.943  1.00  0.00    -0.000 C 
BRANCH   6   7
ATOM      7  C   UNL     1       6.936   8.995  43.229  1.00  0.00    -0.000 C 
BRANCH   7   8
ATOM      8  C   UNL     1       8.339   8.615  43.738  1.00  0.00    -0.000 C 
BRANCH   8   9
ATOM      9  C   UNL     1       9.282   9.827  43.822  1.00  0.00    -0.000 C 
BRANCH   9  10
ATOM     10  C   UNL     1       9.950   9.953  45.203  1.00  0.00    -0.000 C 
BRANCH  10  11
ATOM     11  C   UNL     1      10.592   8.636  45.670  1.00  0.00    -0.003 C 
ATOM     12  C   UNL     1      11.954   8.380  45.028  1.00  0.00     0.004 C 
ENDBRANCH  10  11
ENDBRANCH   9  10
ENDBRANCH   8   9
ENDBRANCH   7   8
ENDBRANCH   6   7
ENDBRANCH   5   6
ENDBRANCH   4   5
ENDBRANCH   3   4
ENDBRANCH   2   3
ENDBRANCH   1   2
BRANCH   1  13
ATOM     13  C   UNL     1       9.071  10.656  40.105  1.00  0.00     0.000 C 
BRANCH  13  14
ATOM     14  C   UNL     1       9.732  11.572  39.064  1.00  0.00     0.000 C 
BRANCH  14  15
ATOM     15  C   UNL     1       9.768  13.050  39.494  1.00  0.00     0.000 C 
BRANCH  15  16
ATOM     16  C   UNL     1       8.652  13.483  40.464  1.00  0.00     0.000 C 
BRANCH  16  17
ATOM     17  C   UNL     1       9.175  13.826  41.869  1.00  0.00     0.000 C 
BRANCH  17  18
ATOM     18  C   UNL     1      10.241  14.937  41.857  1.00  0.00     0.000 C 
BRANCH  18  19
ATOM     19  C   UNL     1       9.688  16.373  41.931  1.00  0.00     0.000 C 
BRANCH  19  20
ATOM     20  C   UNL     1       8.371  16.470  42.717  1.00  0.00     0.006 C 
BRANCH  20  21
ATOM     21  C   UNL     1       7.205  16.837  41.794  1.00  0.00     0.053 C 
BRANCH  21  22
ATOM     22  C   UNL     1       6.066  17.396  42.588  1.00  0.00     0.041 C 
ATOM     23  O   UNL     1       5.348  16.635  43.289  1.00  0.00    -0.550 OA
ATOM     24  O   UNL     1       5.828  18.766  42.594  1.00  0.00    -0.550 OA
ENDBRANCH  21  22
ENDBRANCH  20  21
ENDBRANCH  19  20
ENDBRANCH  18  19
ENDBRANCH  17  18
ENDBRANCH  16  17
ENDBRANCH  15  16
ENDBRANCH  14  15
ENDBRANCH  13  14
ENDBRANCH   1  13
TORSDOF 20
ENDMDL
MODEL 2
REMARK VINA RESULT:    -5.121      3.095      6.663
REMARK INTER + INTRA:         -13.780
REMARK INTER:                 -10.932
REMARK INTRA:                  -2.847
REMARK UNBOUND:                -2.671
REMARK SMILES CCCCCCCCCCCCCCCCCCCCCC(=O)[O-]
REMARK SMILES IDX 12 1 11 2 10 3 9 4 8 5 7 6 6 7 5 8 4 9 3 10 2 11 1 12 13 13
REMARK SMILES IDX 14 14 15 15 16 16 17 17 18 18 19 19 20 20 21 21 22 22 23 23
REMARK SMILES IDX 24 24
REMARK H PARENT
REMARK Flexibility Score: inf
ROOT
ATOM      1  C   UNL     1       9.762  12.555  39.403  1.00  0.00     0.000 C 
ENDROOT
BRANCH   1   2
ATOM      2  C   UNL     1       8.401  12.485  40.128  1.00  0.00     0.000 C 
BRANCH   2   3
ATOM      3  C   UNL     1       8.563  12.286  41.646  1.00  0.00     0.000 C 
BRANCH   3   4
ATOM      4  C   UNL     1       7.220  12.309  42.398  1.00  0.00    -0.000 C 
BRANCH   4   5
ATOM      5  C   UNL     1       5.978  12.493  41.507  1.00  0.00    -0.000 C 
BRANCH   5   6
ATOM      6  C   UNL     1       5.416  13.923  41.562  1.00  0.00    -0.000 C 
BRANCH   6   7
ATOM      7  C   UNL     1       5.926  14.721  42.774  1.00  0.00    -0.000 C 
BRANCH   7   8
ATOM      8  C   UNL     1       6.527  16.083  42.378  1.00  0.00    -0.000 C 
BRANCH   8   9
ATOM      9  C   UNL     1       7.913  16.318  43.001  1.00  0.00    -0.000 C 
BRANCH   9  10
ATOM     10  C   UNL     1       8.773  17.285  42.168  1.00  0.00    -0.000 C 
BRANCH  10  11
ATOM     11  C   UNL     1      10.116  16.665  41.748  1.00  0.00    -0.003 C 
ATOM     12  C   UNL     1      10.178  15.160  41.998  1.00  0.00     0.004 C 
ENDBRANCH  10  11
ENDBRANCH   9  10
ENDBRANCH   8   9
ENDBRANCH   7   8
ENDBRANCH   6   7
ENDBRANCH   5   6
ENDBRANCH   4   5
ENDBRANCH   3   4
ENDBRANCH   2   3
ENDBRANCH   1   2
BRANCH   1  13
ATOM     13  C   UNL     1      10.052  11.339  38.504  1.00  0.00     0.000 C 
BRANCH  13  14
ATOM     14  C   UNL     1       9.037  10.200  38.694  1.00  0.00     0.000 C 
BRANCH  14  15
ATOM     15  C   UNL     1       9.620   8.991  39.448  1.00  0.00     0.000 C 
BRANCH  15  16
ATOM     16  C   UNL     1       8.586   8.078  40.134  1.00  0.00     0.000 C 
BRANCH  16  17
ATOM     17  C   UNL     1       7.417   8.857  40.758  1.00  0.00     0.000 C 
BRANCH  17  18
ATOM     18  C   UNL     1       7.308   8.658  42.282  1.00  0.00     0.000 C 
BRANCH  18  19
ATOM     19  C   UNL     1       8.625   8.845  43.060  1.00  0.00     0.000 C 
BRANCH  19  20
ATOM     20  C   UNL     1       8.408   9.334  44.500  1.00  0.00     0.006 C 
BRANCH  20  21
ATOM     21  C   UNL     1       9.345   8.612  45.473  1.00  0.00     0.053 C 
BRANCH  21  22
ATOM     22  C   UNL     1      10.717   9.207  45.416  1.00  0.00     0.041 C 
ATOM     23  O   UNL     1      10.864  10.458  45.381  1.00  0.00    -0.550 OA
ATOM     24  O   UNL     1      11.836   8.383  45.453  1.00  0.00    -0.550 OA
ENDBRANCH  21  22
ENDBRANCH  20  21
ENDBRANCH  19  20
ENDBRANCH  18  19
ENDBRANCH  17  18
ENDBRANCH  16  17
ENDBRANCH  15  16
ENDBRANCH  14  15
ENDBRANCH  13  14
ENDBRANCH   1  13
TORSDOF 20
ENDMDL
MODEL 3
REMARK VINA RESULT:    -4.910     11.203     14.002
REMARK INTER + INTRA:         -13.322
REMARK INTER:                 -11.270
REMARK INTRA:                  -2.053
REMARK UNBOUND:                -2.671
REMARK SMILES CCCCCCCCCCCCCCCCCCCCCC(=O)[O-]
REMARK SMILES IDX 12 1 11 2 10 3 9 4 8 5 7 6 6 7 5 8 4 9 3 10 2 11 1 12 13 13
REMARK SMILES IDX 14 14 15 15 16 16 17 17 18 18 19 19 20 20 21 21 22 22 23 23
REMARK SMILES IDX 24 24
REMARK H PARENT
REMARK Flexibility Score: inf
ROOT
ATOM      1  C   UNL     1      23.595  14.348  42.696  1.00  0.00     0.000 C 
ENDROOT
BRANCH   1   2
ATOM      2  C   UNL     1      24.520  13.113  42.739  1.00  0.00     0.000 C 
BRANCH   2   3
ATOM      3  C   UNL     1      23.874  11.930  43.482  1.00  0.00     0.000 C 
BRANCH   3   4
ATOM      4  C   UNL     1      23.929  10.617  42.681  1.00  0.00    -0.000 C 
BRANCH   4   5
ATOM      5  C   UNL     1      23.028   9.490  43.217  1.00  0.00    -0.000 C 
BRANCH   5   6
ATOM      6  C   UNL     1      21.547   9.692  42.854  1.00  0.00    -0.000 C 
BRANCH   6   7
ATOM      7  C   UNL     1      21.342  10.143  41.398  1.00  0.00    -0.000 C 
BRANCH   7   8
ATOM      8  C   UNL     1      21.820   9.093  40.379  1.00  0.00    -0.000 C 
BRANCH   8   9
ATOM      9  C   UNL     1      20.906   9.012  39.145  1.00  0.00    -0.000 C 
BRANCH   9  10
ATOM     10  C   UNL     1      19.434   9.306  39.486  1.00  0.00    -0.000 C 
BRANCH  10  11
ATOM     11  C   UNL     1      18.577   8.032  39.542  1.00  0.00    -0.003 C 
ATOM     12  C   UNL     1      17.117   8.314  39.893  1.00  0.00     0.004 C 
ENDBRANCH  10  11
ENDBRANCH   9  10
ENDBRANCH   8   9
ENDBRANCH   7   8
ENDBRANCH   6   7
ENDBRANCH   5   6
ENDBRANCH   4   5
ENDBRANCH   3   4
ENDBRANCH   2   3
ENDBRANCH   1   2
BRANCH   1  13
ATOM     13  C   UNL     1      23.344  14.890  41.278  1.00  0.00     0.000 C 
BRANCH  13  14
ATOM     14  C   UNL     1      22.967  16.380  41.265  1.00  0.00     0.000 C 
BRANCH  14  15
ATOM     15  C   UNL     1      21.446  16.619  41.295  1.00  0.00     0.000 C 
BRANCH  15  16
ATOM     16  C   UNL     1      20.813  16.670  42.698  1.00  0.00     0.000 C 
BRANCH  16  17
ATOM     17  C   UNL     1      19.288  16.475  42.678  1.00  0.00     0.000 C 
BRANCH  17  18
ATOM     18  C   UNL     1      18.874  14.997  42.546  1.00  0.00     0.000 C 
BRANCH  18  19
ATOM     19  C   UNL     1      19.947  13.978  42.975  1.00  0.00     0.000 C 
BRANCH  19  20
ATOM     20  C   UNL     1      19.898  13.649  44.476  1.00  0.00     0.006 C 
BRANCH  20  21
ATOM     21  C   UNL     1      20.532  12.284  44.760  1.00  0.00     0.053 C 
BRANCH  21  22
ATOM     22  C   UNL     1      19.726  11.535  45.775  1.00  0.00     0.041 C 
ATOM     23  O   UNL     1      19.153  12.153  46.711  1.00  0.00    -0.550 OA
ATOM     24  O   UNL     1      19.567  10.159  45.659  1.00  0.00    -0.550 OA
ENDBRANCH  21  22
ENDBRANCH  20  21
ENDBRANCH  19  20
ENDBRANCH  18  19
ENDBRANCH  17  18
ENDBRANCH  16  17
ENDBRANCH  15  16
ENDBRANCH  14  15
ENDBRANCH  13  14
ENDBRANCH   1  13
TORSDOF 20
ENDMDL
MODEL 4
REMARK VINA RESULT:    -4.830      7.249     10.129
REMARK INTER + INTRA:         -13.149
REMARK INTER:                 -12.323
REMARK INTRA:                  -0.826
REMARK UNBOUND:                -2.671
REMARK SMILES CCCCCCCCCCCCCCCCCCCCCC(=O)[O-]
REMARK SMILES IDX 12 1 11 2 10 3 9 4 8 5 7 6 6 7 5 8 4 9 3 10 2 11 1 12 13 13
REMARK SMILES IDX 14 14 15 15 16 16 17 17 18 18 19 19 20 20 21 21 22 22 23 23
REMARK SMILES IDX 24 24
REMARK H PARENT
REMARK Flexibility Score: inf
ROOT
ATOM      1  C   UNL     1      18.297  16.349  42.293  1.00  0.00     0.000 C 
ENDROOT
BRANCH   1   2
ATOM      2  C   UNL     1      19.800  16.689  42.392  1.00  0.00     0.000 C 
BRANCH   2   3
ATOM      3  C   UNL     1      20.643  15.474  42.820  1.00  0.00     0.000 C 
BRANCH   3   4
ATOM      4  C   UNL     1      19.806  14.192  42.980  1.00  0.00    -0.000 C 
BRANCH   4   5
ATOM      5  C   UNL     1      20.041  13.422  44.293  1.00  0.00    -0.000 C 
BRANCH   5   6
ATOM      6  C   UNL     1      20.632  12.021  44.061  1.00  0.00    -0.000 C 
BRANCH   6   7
ATOM      7  C   UNL     1      21.019  11.769  42.594  1.00  0.00    -0.000 C 
BRANCH   7   8
ATOM      8  C   UNL     1      21.484  10.323  42.343  1.00  0.00    -0.000 C 
BRANCH   8   9
ATOM      9  C   UNL     1      21.106   9.819  40.939  1.00  0.00    -0.000 C 
BRANCH   9  10
ATOM     10  C   UNL     1      19.765   9.064  40.930  1.00  0.00    -0.000 C 
BRANCH  10  11
ATOM     11  C   UNL     1      19.024   9.197  39.589  1.00  0.00    -0.003 C 
ATOM     12  C   UNL     1      17.807   8.278  39.491  1.00  0.00     0.004 C 
ENDBRANCH  10  11
ENDBRANCH   9  10
ENDBRANCH   8   9
ENDBRANCH   7   8
ENDBRANCH   6   7
ENDBRANCH   5   6
ENDBRANCH   4   5
ENDBRANCH   3   4
ENDBRANCH   2   3
ENDBRANCH   1   2
BRANCH   1  13
ATOM     13  C   UNL     1      17.374  17.578  42.364  1.00  0.00     0.000 C 
BRANCH  13  14
ATOM     14  C   UNL     1      16.001  17.333  41.721  1.00  0.00     0.000 C 
BRANCH  14  15
ATOM     15  C   UNL     1      15.101  18.582  41.721  1.00  0.00     0.000 C 
BRANCH  15  16
ATOM     16  C   UNL     1      13.878  18.517  42.656  1.00  0.00     0.000 C 
BRANCH  16  17
ATOM     17  C   UNL     1      13.005  17.274  42.418  1.00  0.00     0.000 C 
BRANCH  17  18
ATOM     18  C   UNL     1      11.546  17.624  42.066  1.00  0.00     0.000 C 
BRANCH  18  19
ATOM     19  C   UNL     1      10.557  16.444  42.138  1.00  0.00     0.000 C 
BRANCH  19  20
ATOM     20  C   UNL     1       9.091  16.879  41.989  1.00  0.00     0.006 C 
BRANCH  20  21
ATOM     21  C   UNL     1       8.259  16.431  43.194  1.00  0.00     0.053 C 
BRANCH  21  22
ATOM     22  C   UNL     1       7.221  15.439  42.772  1.00  0.00     0.041 C 
ATOM     23  O   UNL     1       6.071  15.469  43.286  1.00  0.00    -0.550 OA
ATOM     24  O   UNL     1       7.506  14.514  41.775  1.00  0.00    -0.550 OA
ENDBRANCH  21  22
ENDBRANCH  20  21
ENDBRANCH  19  20
ENDBRANCH  18  19
ENDBRANCH  17  18
ENDBRANCH  16  17
ENDBRANCH  15  16
ENDBRANCH  14  15
ENDBRANCH  13  14
ENDBRANCH   1  13
TORSDOF 20
ENDMDL
MODEL 5
REMARK VINA RESULT:    -4.711      3.065      7.223
REMARK INTER + INTRA:         -12.890
REMARK INTER:                 -10.640
REMARK INTRA:                  -2.250
REMARK UNBOUND:                -2.671
REMARK SMILES CCCCCCCCCCCCCCCCCCCCCC(=O)[O-]
REMARK SMILES IDX 12 1 11 2 10 3 9 4 8 5 7 6 6 7 5 8 4 9 3 10 2 11 1 12 13 13
REMARK SMILES IDX 14 14 15 15 16 16 17 17 18 18 19 19 20 20 21 21 22 22 23 23
REMARK SMILES IDX 24 24
REMARK H PARENT
REMARK Flexibility Score: inf
ROOT
ATOM      1  C   UNL     1       5.624  14.961  42.870  1.00  0.00     0.000 C 
ENDROOT
BRANCH   1   2
ATOM      2  C   UNL     1       6.251  16.358  42.679  1.00  0.00     0.000 C 
BRANCH   2   3
ATOM      3  C   UNL     1       7.657  16.453  43.298  1.00  0.00     0.000 C 
BRANCH   3   4
ATOM      4  C   UNL     1       8.655  17.212  42.404  1.00  0.00    -0.000 C 
BRANCH   4   5
ATOM      5  C   UNL     1       9.415  16.338  41.390  1.00  0.00    -0.000 C 
BRANCH   5   6
ATOM      6  C   UNL     1      10.153  15.163  42.056  1.00  0.00    -0.000 C 
BRANCH   6   7
ATOM      7  C   UNL     1       9.604  13.791  41.629  1.00  0.00    -0.000 C 
BRANCH   7   8
ATOM      8  C   UNL     1       9.634  13.589  40.103  1.00  0.00    -0.000 C 
BRANCH   8   9
ATOM      9  C   UNL     1       8.989  12.261  39.672  1.00  0.00    -0.000 C 
BRANCH   9  10
ATOM     10  C   UNL     1       9.937  11.400  38.819  1.00  0.00    -0.000 C 
BRANCH  10  11
ATOM     11  C   UNL     1       9.568   9.908  38.852  1.00  0.00    -0.003 C 
ATOM     12  C   UNL     1       8.064   9.672  38.972  1.00  0.00     0.004 C 
ENDBRANCH  10  11
ENDBRANCH   9  10
ENDBRANCH   8   9
ENDBRANCH   7   8
ENDBRANCH   6   7
ENDBRANCH   5   6
ENDBRANCH   4   5
ENDBRANCH   3   4
ENDBRANCH   2   3
ENDBRANCH   1   2
BRANCH   1  13
ATOM     13  C   UNL     1       5.020  14.367  41.585  1.00  0.00     0.000 C 
BRANCH  13  14
ATOM     14  C   UNL     1       5.015  12.831  41.581  1.00  0.00     0.000 C 
BRANCH  14  15
ATOM     15  C   UNL     1       6.429  12.222  41.534  1.00  0.00     0.000 C 
BRANCH  15  16
ATOM     16  C   UNL     1       6.871  11.478  42.808  1.00  0.00     0.000 C 
BRANCH  16  17
ATOM     17  C   UNL     1       8.022  10.489  42.560  1.00  0.00     0.000 C 
BRANCH  17  18
ATOM     18  C   UNL     1       7.609   9.021  42.777  1.00  0.00     0.000 C 
BRANCH  18  19
ATOM     19  C   UNL     1       7.495   8.587  44.250  1.00  0.00     0.000 C 
BRANCH  19  20
ATOM     20  C   UNL     1       8.422   9.379  45.185  1.00  0.00     0.006 C 
BRANCH  20  21
ATOM     21  C   UNL     1       9.645   8.547  45.581  1.00  0.00     0.053 C 
BRANCH  21  22
ATOM     22  C   UNL     1      10.899   9.345  45.406  1.00  0.00     0.041 C 
ATOM     23  O   UNL     1      10.840  10.595  45.263  1.00  0.00    -0.550 OA
ATOM     24  O   UNL     1      12.137   8.715  45.453  1.00  0.00    -0.550 OA
ENDBRANCH  21  22
ENDBRANCH  20  21
ENDBRANCH  19  20
ENDBRANCH  18  19
ENDBRANCH  17  18
ENDBRANCH  16  17
ENDBRANCH  15  16
ENDBRANCH  14  15
ENDBRANCH  13  14
ENDBRANCH   1  13
TORSDOF 20
ENDMDL
MODEL 6
REMARK VINA RESULT:    -4.683     11.924     15.063
REMARK INTER + INTRA:         -12.829
REMARK INTER:                  -9.778
REMARK INTRA:                  -3.051
REMARK UNBOUND:                -2.671
REMARK SMILES CCCCCCCCCCCCCCCCCCCCCC(=O)[O-]
REMARK SMILES IDX 12 1 11 2 10 3 9 4 8 5 7 6 6 7 5 8 4 9 3 10 2 11 1 12 13 13
REMARK SMILES IDX 14 14 15 15 16 16 17 17 18 18 19 19 20 20 21 21 22 22 23 23
REMARK SMILES IDX 24 24
REMARK H PARENT
REMARK Flexibility Score: inf
ROOT
ATOM      1  C   UNL     1      23.958  12.365  42.929  1.00  0.00     0.000 C 
ENDROOT
BRANCH   1   2
ATOM      2  C   UNL     1      24.172  13.476  41.878  1.00  0.00     0.000 C 
BRANCH   2   3
ATOM      3  C   UNL     1      23.805  14.868  42.422  1.00  0.00     0.000 C 
BRANCH   3   4
ATOM      4  C   UNL     1      23.229  15.800  41.342  1.00  0.00    -0.000 C 
BRANCH   4   5
ATOM      5  C   UNL     1      22.329  16.932  41.872  1.00  0.00    -0.000 C 
BRANCH   5   6
ATOM      6  C   UNL     1      20.833  16.586  41.794  1.00  0.00    -0.000 C 
BRANCH   6   7
ATOM      7  C   UNL     1      20.317  15.869  43.053  1.00  0.00    -0.000 C 
BRANCH   7   8
ATOM      8  C   UNL     1      19.434  14.652  42.722  1.00  0.00    -0.000 C 
BRANCH   8   9
ATOM      9  C   UNL     1      20.235  13.340  42.669  1.00  0.00    -0.000 C 
BRANCH   9  10
ATOM     10  C   UNL     1      20.570  12.801  44.071  1.00  0.00    -0.000 C 
BRANCH  10  11
ATOM     11  C   UNL     1      19.418  13.004  45.070  1.00  0.00    -0.003 C 
ATOM     12  C   UNL     1      19.425  11.976  46.200  1.00  0.00     0.004 C 
ENDBRANCH  10  11
ENDBRANCH   9  10
ENDBRANCH   8   9
ENDBRANCH   7   8
ENDBRANCH   6   7
ENDBRANCH   5   6
ENDBRANCH   4   5
ENDBRANCH   3   4
ENDBRANCH   2   3
ENDBRANCH   1   2
BRANCH   1  13
ATOM     13  C   UNL     1      25.066  12.296  43.995  1.00  0.00     0.000 C 
BRANCH  13  14
ATOM     14  C   UNL     1      24.747  11.305  45.125  1.00  0.00     0.000 C 
BRANCH  14  15
ATOM     15  C   UNL     1      23.314  10.746  45.051  1.00  0.00     0.000 C 
BRANCH  15  16
ATOM     16  C   UNL     1      23.178   9.237  45.326  1.00  0.00     0.000 C 
BRANCH  16  17
ATOM     17  C   UNL     1      21.767   8.697  45.039  1.00  0.00     0.000 C 
BRANCH  17  18
ATOM     18  C   UNL     1      21.196   9.192  43.697  1.00  0.00     0.000 C 
BRANCH  18  19
ATOM     19  C   UNL     1      22.039   8.836  42.458  1.00  0.00     0.000 C 
BRANCH  19  20
ATOM     20  C   UNL     1      21.756   9.748  41.254  1.00  0.00     0.006 C 
BRANCH  20  21
ATOM     21  C   UNL     1      20.250   9.953  41.063  1.00  0.00     0.053 C 
BRANCH  21  22
ATOM     22  C   UNL     1      19.790   9.299  39.797  1.00  0.00     0.041 C 
ATOM     23  O   UNL     1      18.626   9.507  39.364  1.00  0.00    -0.550 OA
ATOM     24  O   UNL     1      20.665   8.502  39.069  1.00  0.00    -0.550 OA
ENDBRANCH  21  22
ENDBRANCH  20  21
ENDBRANCH  19  20
ENDBRANCH  18  19
ENDBRANCH  17  18
ENDBRANCH  16  17
ENDBRANCH  15  16
ENDBRANCH  14  15
ENDBRANCH  13  14
ENDBRANCH   1  13
TORSDOF 20
ENDMDL
MODEL 7
REMARK VINA RESULT:    -4.677      2.944      6.935
REMARK INTER + INTRA:         -12.817
REMARK INTER:                  -9.938
REMARK INTRA:                  -2.879
REMARK UNBOUND:                -2.671
REMARK SMILES CCCCCCCCCCCCCCCCCCCCCC(=O)[O-]
REMARK SMILES IDX 12 1 11 2 10 3 9 4 8 5 7 6 6 7 5 8 4 9 3 10 2 11 1 12 13 13
REMARK SMILES IDX 14 14 15 15 16 16 17 17 18 18 19 19 20 20 21 21 22 22 23 23
REMARK SMILES IDX 24 24
REMARK H PARENT
REMARK Flexibility Score: inf
ROOT
ATOM      1  C   UNL     1       4.972  13.919  41.304  1.00  0.00     0.000 C 
ENDROOT
BRANCH   1   2
ATOM      2  C   UNL     1       6.088  14.249  42.318  1.00  0.00     0.000 C 
BRANCH   2   3
ATOM      3  C   UNL     1       5.767  15.506  43.147  1.00  0.00     0.000 C 
BRANCH   3   4
ATOM      4  C   UNL     1       6.037  16.813  42.380  1.00  0.00    -0.000 C 
BRANCH   4   5
ATOM      5  C   UNL     1       7.411  16.888  41.689  1.00  0.00    -0.000 C 
BRANCH   5   6
ATOM      6  C   UNL     1       8.574  16.571  42.644  1.00  0.00    -0.000 C 
BRANCH   6   7
ATOM      7  C   UNL     1       9.824  16.051  41.914  1.00  0.00    -0.000 C 
BRANCH   7   8
ATOM      8  C   UNL     1       9.849  14.516  41.801  1.00  0.00    -0.000 C 
BRANCH   8   9
ATOM      9  C   UNL     1       9.276  14.015  40.464  1.00  0.00    -0.000 C 
BRANCH   9  10
ATOM     10  C   UNL     1       8.798  12.554  40.542  1.00  0.00    -0.000 C 
BRANCH  10  11
ATOM     11  C   UNL     1       9.621  11.616  39.643  1.00  0.00    -0.003 C 
ATOM     12  C   UNL     1       9.992  12.253  38.305  1.00  0.00     0.004 C 
ENDBRANCH  10  11
ENDBRANCH   9  10
ENDBRANCH   8   9
ENDBRANCH   7   8
ENDBRANCH   6   7
ENDBRANCH   5   6
ENDBRANCH   4   5
ENDBRANCH   3   4
ENDBRANCH   2   3
ENDBRANCH   1   2
BRANCH   1  13
ATOM     13  C   UNL     1       4.942  12.443  40.870  1.00  0.00     0.000 C 
BRANCH  13  14
ATOM     14  C   UNL     1       5.638  11.510  41.872  1.00  0.00     0.000 C 
BRANCH  14  15
ATOM     15  C   UNL     1       5.431  10.018  41.555  1.00  0.00     0.000 C 
BRANCH  15  16
ATOM     16  C   UNL     1       5.592   9.629  40.073  1.00  0.00     0.000 C 
BRANCH  16  17
ATOM     17  C   UNL     1       7.045   9.305  39.690  1.00  0.00     0.000 C 
BRANCH  17  18
ATOM     18  C   UNL     1       7.626   8.122  40.488  1.00  0.00     0.000 C 
BRANCH  18  19
ATOM     19  C   UNL     1       8.811   8.475  41.408  1.00  0.00     0.000 C 
BRANCH  19  20
ATOM     20  C   UNL     1       8.425   8.522  42.894  1.00  0.00     0.006 C 
BRANCH  20  21
ATOM     21  C   UNL     1       8.810   9.866  43.520  1.00  0.00     0.053 C 
BRANCH  21  22
ATOM     22  C   UNL     1       9.335   9.665  44.907  1.00  0.00     0.041 C 
ATOM     23  O   UNL     1       8.678   8.988  45.742  1.00  0.00    -0.550 OA
ATOM     24  O   UNL     1      10.575  10.182  45.263  1.00  0.00    -0.550 OA
ENDBRANCH  21  22
ENDBRANCH  20  21
ENDBRANCH  19  20
ENDBRANCH  18  19
ENDBRANCH  17  18
ENDBRANCH  16  17
ENDBRANCH  15  16
ENDBRANCH  14  15
ENDBRANCH  13  14
ENDBRANCH   1  13
TORSDOF 20
ENDMDL
MODEL 8
REMARK VINA RESULT:    -4.655      3.471      4.534
REMARK INTER + INTRA:         -12.768
REMARK INTER:                 -10.951
REMARK INTRA:                  -1.816
REMARK UNBOUND:                -2.671
REMARK SMILES CCCCCCCCCCCCCCCCCCCCCC(=O)[O-]
REMARK SMILES IDX 12 1 11 2 10 3 9 4 8 5 7 6 6 7 5 8 4 9 3 10 2 11 1 12 13 13
REMARK SMILES IDX 14 14 15 15 16 16 17 17 18 18 19 19 20 20 21 21 22 22 23 23
REMARK SMILES IDX 24 24
REMARK H PARENT
REMARK Flexibility Score: inf
ROOT
ATOM      1  C   UNL     1       6.075  13.122  41.399  1.00  0.00     0.000 C 
ENDROOT
BRANCH   1   2
ATOM      2  C   UNL     1       4.952  12.243  40.808  1.00  0.00     0.000 C 
BRANCH   2   3
ATOM      3  C   UNL     1       5.207  10.743  41.038  1.00  0.00     0.000 C 
BRANCH   3   4
ATOM      4  C   UNL     1       5.879  10.059  39.835  1.00  0.00    -0.000 C 
BRANCH   4   5
ATOM      5  C   UNL     1       7.411   9.937  39.928  1.00  0.00    -0.000 C 
BRANCH   5   6
ATOM      6  C   UNL     1       7.903   8.490  39.755  1.00  0.00    -0.000 C 
BRANCH   6   7
ATOM      7  C   UNL     1       8.437   7.878  41.062  1.00  0.00    -0.000 C 
BRANCH   7   8
ATOM      8  C   UNL     1       8.864   8.947  42.085  1.00  0.00    -0.000 C 
BRANCH   8   9
ATOM      9  C   UNL     1       9.362   8.332  43.404  1.00  0.00    -0.000 C 
BRANCH   9  10
ATOM     10  C   UNL     1       9.084   9.240  44.615  1.00  0.00    -0.000 C 
BRANCH  10  11
ATOM     11  C   UNL     1      10.374   9.718  45.302  1.00  0.00    -0.003 C 
ATOM     12  C   UNL     1      11.428   8.618  45.413  1.00  0.00     0.004 C 
ENDBRANCH  10  11
ENDBRANCH   9  10
ENDBRANCH   8   9
ENDBRANCH   7   8
ENDBRANCH   6   7
ENDBRANCH   5   6
ENDBRANCH   4   5
ENDBRANCH   3   4
ENDBRANCH   2   3
ENDBRANCH   1   2
BRANCH   1  13
ATOM     13  C   UNL     1       6.974  12.388  42.410  1.00  0.00     0.000 C 
BRANCH  13  14
ATOM     14  C   UNL     1       8.469  12.501  42.072  1.00  0.00     0.000 C 
BRANCH  14  15
ATOM     15  C   UNL     1       8.749  13.421  40.870  1.00  0.00     0.000 C 
BRANCH  15  16
ATOM     16  C   UNL     1       9.796  14.525  41.113  1.00  0.00     0.000 C 
BRANCH  16  17
ATOM     17  C   UNL     1       9.245  15.709  41.925  1.00  0.00     0.000 C 
BRANCH  17  18
ATOM     18  C   UNL     1      10.193  16.923  41.935  1.00  0.00     0.000 C 
BRANCH  18  19
ATOM     19  C   UNL     1      11.689  16.581  42.073  1.00  0.00     0.000 C 
BRANCH  19  20
ATOM     20  C   UNL     1      12.574  17.821  42.276  1.00  0.00     0.006 C 
BRANCH  20  21
ATOM     21  C   UNL     1      13.990  17.422  42.703  1.00  0.00     0.053 C 
BRANCH  21  22
ATOM     22  C   UNL     1      15.007  18.119  41.854  1.00  0.00     0.041 C 
ATOM     23  O   UNL     1      14.673  19.106  41.147  1.00  0.00    -0.550 OA
ATOM     24  O   UNL     1      16.335  17.710  41.884  1.00  0.00    -0.550 OA
ENDBRANCH  21  22
ENDBRANCH  20  21
ENDBRANCH  19  20
ENDBRANCH  18  19
ENDBRANCH  17  18
ENDBRANCH  16  17
ENDBRANCH  15  16
ENDBRANCH  14  15
ENDBRANCH  13  14
ENDBRANCH   1  13
TORSDOF 20
ENDMDL
MODEL 9
REMARK VINA RESULT:    -4.624      2.155      4.479
REMARK INTER + INTRA:         -12.701
REMARK INTER:                  -9.727
REMARK INTRA:                  -2.974
REMARK UNBOUND:                -2.671
REMARK SMILES CCCCCCCCCCCCCCCCCCCCCC(=O)[O-]
REMARK SMILES IDX 12 1 11 2 10 3 9 4 8 5 7 6 6 7 5 8 4 9 3 10 2 11 1 12 13 13
REMARK SMILES IDX 14 14 15 15 16 16 17 17 18 18 19 19 20 20 21 21 22 22 23 23
REMARK SMILES IDX 24 24
REMARK H PARENT
REMARK Flexibility Score: inf
ROOT
ATOM      1  C   UNL     1       9.431   9.375  44.652  1.00  0.00     0.000 C 
ENDROOT
BRANCH   1   2
ATOM      2  C   UNL     1       8.262   9.295  45.657  1.00  0.00     0.000 C 
BRANCH   2   3
ATOM      3  C   UNL     1       7.189   8.282  45.219  1.00  0.00     0.000 C 
BRANCH   3   4
ATOM      4  C   UNL     1       5.758   8.836  45.338  1.00  0.00    -0.000 C 
BRANCH   4   5
ATOM      5  C   UNL     1       5.068   9.149  43.998  1.00  0.00    -0.000 C 
BRANCH   5   6
ATOM      6  C   UNL     1       5.675   8.367  42.821  1.00  0.00    -0.000 C 
BRANCH   6   7
ATOM      7  C   UNL     1       5.597   9.132  41.489  1.00  0.00    -0.000 C 
BRANCH   7   8
ATOM      8  C   UNL     1       5.949   8.250  40.277  1.00  0.00    -0.000 C 
BRANCH   8   9
ATOM      9  C   UNL     1       7.444   8.309  39.922  1.00  0.00    -0.000 C 
BRANCH   9  10
ATOM     10  C   UNL     1       7.831   9.632  39.237  1.00  0.00    -0.000 C 
BRANCH  10  11
ATOM     11  C   UNL     1       9.353   9.797  39.091  1.00  0.00    -0.003 C 
ATOM     12  C   UNL     1       9.744  11.097  38.391  1.00  0.00     0.004 C 
ENDBRANCH  10  11
ENDBRANCH   9  10
ENDBRANCH   8   9
ENDBRANCH   7   8
ENDBRANCH   6   7
ENDBRANCH   5   6
ENDBRANCH   4   5
ENDBRANCH   3   4
ENDBRANCH   2   3
ENDBRANCH   1   2
BRANCH   1  13
ATOM     13  C   UNL     1       8.993   9.681  43.209  1.00  0.00     0.000 C 
BRANCH  13  14
ATOM     14  C   UNL     1       8.192  10.987  43.092  1.00  0.00     0.000 C 
BRANCH  14  15
ATOM     15  C   UNL     1       8.667  11.886  41.935  1.00  0.00     0.000 C 
BRANCH  15  16
ATOM     16  C   UNL     1       7.579  12.768  41.295  1.00  0.00     0.000 C 
BRANCH  16  17
ATOM     17  C   UNL     1       6.575  13.323  42.318  1.00  0.00     0.000 C 
BRANCH  17  18
ATOM     18  C   UNL     1       6.379  14.847  42.201  1.00  0.00     0.000 C 
BRANCH  18  19
ATOM     19  C   UNL     1       7.028  15.676  43.326  1.00  0.00     0.000 C 
BRANCH  19  20
ATOM     20  C   UNL     1       7.852  16.862  42.801  1.00  0.00     0.006 C 
BRANCH  20  21
ATOM     21  C   UNL     1       8.620  16.478  41.533  1.00  0.00     0.053 C 
BRANCH  21  22
ATOM     22  C   UNL     1      10.033  16.113  41.867  1.00  0.00     0.041 C 
ATOM     23  O   UNL     1      10.892  17.014  42.055  1.00  0.00    -0.550 OA
ATOM     24  O   UNL     1      10.387  14.778  42.023  1.00  0.00    -0.550 OA
ENDBRANCH  21  22
ENDBRANCH  20  21
ENDBRANCH  19  20
ENDBRANCH  18  19
ENDBRANCH  17  18
ENDBRANCH  16  17
ENDBRANCH  15  16
ENDBRANCH  14  15
ENDBRANCH  13  14
ENDBRANCH   1  13
TORSDOF 20
ENDMDL
