MODEL 1
REMARK VINA RESULT:    11.584      0.000      0.000
REMARK INTER + INTRA:          23.683
REMARK INTER:                  22.420
REMARK INTRA:                   1.263
REMARK UNBOUND:                 1.263
REMARK SMILES CCCCCCCCCCCCCCCCCC(=O)[O-]
REMARK SMILES IDX 10 1 11 2 12 3 13 4 14 5 15 6 16 7 17 8 18 9 19 10 20 11
REMARK SMILES IDX 9 12 8 13 7 14 6 15 5 16 4 17 3 18 2 19 1 20
REMARK H PARENT
REMARK Flexibility Score: inf
ROOT
ATOM      1  C   UNL     1       3.016  -9.187  10.158  1.00  0.00     0.000 C 
ENDROOT
BRANCH   1   2
ATOM      2  C   UNL     1       1.681  -8.948  10.887  1.00  0.00     0.000 C 
BRANCH   2   3
ATOM      3  C   UNL     1       0.427  -9.048   9.997  1.00  0.00     0.000 C 
BRANCH   3   4
ATOM      4  C   UNL     1      -0.710  -8.092  10.416  1.00  0.00     0.000 C 
BRANCH   4   5
ATOM      5  C   UNL     1      -0.441  -7.424  11.776  1.00  0.00     0.000 C 
BRANCH   5   6
ATOM      6  C   UNL     1       1.053  -7.392  12.135  1.00  0.00     0.000 C 
BRANCH   6   7
ATOM      7  C   UNL     1       1.603  -5.961  12.262  1.00  0.00     0.006 C 
BRANCH   7   8
ATOM      8  C   UNL     1       2.709  -5.673  11.238  1.00  0.00     0.053 C 
BRANCH   8   9
ATOM      9  C   UNL     1       2.202  -4.856  10.089  1.00  0.00     0.041 C 
ATOM     10  O   UNL     1       1.391  -5.356   9.267  1.00  0.00    -0.550 OA
ATOM     11  O   UNL     1       2.649  -3.553   9.910  1.00  0.00    -0.550 OA
ENDBRANCH   8   9
ENDBRANCH   7   8
ENDBRANCH   6   7
ENDBRANCH   5   6
ENDBRANCH   4   5
ENDBRANCH   3   4
ENDBRANCH   2   3
ENDBRANCH   1   2
BRANCH   1  12
ATOM     12  C   UNL     1       4.255  -8.594  10.856  1.00  0.00     0.000 C 
BRANCH  12  13
ATOM     13  C   UNL     1       4.176  -8.676  12.387  1.00  0.00    -0.000 C 
BRANCH  13  14
ATOM     14  C   UNL     1       4.924  -7.502  13.039  1.00  0.00    -0.000 C 
BRANCH  14  15
ATOM     15  C   UNL     1       5.673  -6.636  12.013  1.00  0.00    -0.000 C 
BRANCH  15  16
ATOM     16  C   UNL     1       7.198  -6.685  12.201  1.00  0.00    -0.000 C 
BRANCH  16  17
ATOM     17  C   UNL     1       7.561  -7.062  13.642  1.00  0.00    -0.000 C 
BRANCH  17  18
ATOM     18  C   UNL     1       8.413  -5.966  14.301  1.00  0.00    -0.000 C 
BRANCH  18  19
ATOM     19  C   UNL     1       7.571  -4.782  14.800  1.00  0.00    -0.003 C 
ATOM     20  C   UNL     1       6.472  -5.209  15.773  1.00  0.00     0.004 C 
ENDBRANCH  18  19
ENDBRANCH  17  18
ENDBRANCH  16  17
ENDBRANCH  15  16
ENDBRANCH  14  15
ENDBRANCH  13  14
ENDBRANCH  12  13
ENDBRANCH   1  12
TORSDOF 16
ENDMDL
MODEL 2
REMARK VINA RESULT:    12.203      1.059      1.556
REMARK INTER + INTRA:          24.881
REMARK INTER:                  26.137
REMARK INTRA:                  -1.256
REMARK UNBOUND:                 1.263
REMARK SMILES CCCCCCCCCCCCCCCCCC(=O)[O-]
REMARK SMILES IDX 10 1 11 2 12 3 13 4 14 5 15 6 16 7 17 8 18 9 19 10 20 11
REMARK SMILES IDX 9 12 8 13 7 14 6 15 5 16 4 17 3 18 2 19 1 20
REMARK H PARENT
REMARK Flexibility Score: inf
ROOT
ATOM      1  C   UNL     1       2.836  -8.401  10.502  1.00  0.00     0.000 C 
ENDROOT
BRANCH   1   2
ATOM      2  C   UNL     1       1.486  -8.358  11.244  1.00  0.00     0.000 C 
BRANCH   2   3
ATOM      3  C   UNL     1       0.409  -9.310  10.689  1.00  0.00     0.000 C 
BRANCH   3   4
ATOM      4  C   UNL     1      -0.996  -8.677  10.608  1.00  0.00     0.000 C 
BRANCH   4   5
ATOM      5  C   UNL     1      -0.946  -7.140  10.591  1.00  0.00     0.000 C 
BRANCH   5   6
ATOM      6  C   UNL     1      -0.866  -6.565   9.167  1.00  0.00     0.000 C 
BRANCH   6   7
ATOM      7  C   UNL     1      -0.013  -5.287   9.090  1.00  0.00     0.006 C 
BRANCH   7   8
ATOM      8  C   UNL     1       1.490  -5.593   9.089  1.00  0.00     0.053 C 
BRANCH   8   9
ATOM      9  C   UNL     1       2.213  -4.831  10.157  1.00  0.00     0.041 C 
ATOM     10  O   UNL     1       2.634  -3.668   9.929  1.00  0.00    -0.550 OA
ATOM     11  O   UNL     1       2.447  -5.418  11.394  1.00  0.00    -0.550 OA
ENDBRANCH   8   9
ENDBRANCH   7   8
ENDBRANCH   6   7
ENDBRANCH   5   6
ENDBRANCH   4   5
ENDBRANCH   3   4
ENDBRANCH   2   3
ENDBRANCH   1   2
BRANCH   1  12
ATOM     12  C   UNL     1       4.034  -8.858  11.356  1.00  0.00     0.000 C 
BRANCH  12  13
ATOM     13  C   UNL     1       3.934  -8.405  12.820  1.00  0.00    -0.000 C 
BRANCH  13  14
ATOM     14  C   UNL     1       4.876  -7.221  13.093  1.00  0.00    -0.000 C 
BRANCH  14  15
ATOM     15  C   UNL     1       5.661  -6.790  11.844  1.00  0.00    -0.000 C 
BRANCH  15  16
ATOM     16  C   UNL     1       7.107  -6.383  12.167  1.00  0.00    -0.000 C 
BRANCH  16  17
ATOM     17  C   UNL     1       7.658  -7.204  13.339  1.00  0.00    -0.000 C 
BRANCH  17  18
ATOM     18  C   UNL     1       8.310  -6.294  14.391  1.00  0.00    -0.000 C 
BRANCH  18  19
ATOM     19  C   UNL     1       7.574  -4.954  14.550  1.00  0.00    -0.003 C 
ATOM     20  C   UNL     1       6.699  -4.907  15.802  1.00  0.00     0.004 C 
ENDBRANCH  18  19
ENDBRANCH  17  18
ENDBRANCH  16  17
ENDBRANCH  15  16
ENDBRANCH  14  15
ENDBRANCH  13  14
ENDBRANCH  12  13
ENDBRANCH   1  12
TORSDOF 16
ENDMDL
MODEL 3
REMARK VINA RESULT:    12.638      3.457      5.302
REMARK INTER + INTRA:          25.723
REMARK INTER:                  25.068
REMARK INTRA:                   0.655
REMARK UNBOUND:                 1.263
REMARK SMILES CCCCCCCCCCCCCCCCCC(=O)[O-]
REMARK SMILES IDX 10 1 11 2 12 3 13 4 14 5 15 6 16 7 17 8 18 9 19 10 20 11
REMARK SMILES IDX 9 12 8 13 7 14 6 15 5 16 4 17 3 18 2 19 1 20
REMARK H PARENT
REMARK Flexibility Score: inf
ROOT
ATOM      1  C   UNL     1       0.157  -6.331   9.703  1.00  0.00     0.000 C 
ENDROOT
BRANCH   1   2
ATOM      2  C   UNL     1       1.584  -5.902  10.091  1.00  0.00     0.000 C 
BRANCH   2   3
ATOM      3  C   UNL     1       2.131  -4.687   9.317  1.00  0.00     0.000 C 
BRANCH   3   4
ATOM      4  C   UNL     1       2.656  -3.556  10.227  1.00  0.00     0.000 C 
BRANCH   4   5
ATOM      5  C   UNL     1       2.749  -2.209   9.491  1.00  0.00     0.000 C 
BRANCH   5   6
ATOM      6  C   UNL     1       2.297  -1.025  10.361  1.00  0.00     0.000 C 
BRANCH   6   7
ATOM      7  C   UNL     1       1.039  -0.329   9.811  1.00  0.00     0.006 C 
BRANCH   7   8
ATOM      8  C   UNL     1       1.276   1.162   9.537  1.00  0.00     0.053 C 
BRANCH   8   9
ATOM      9  C   UNL     1      -0.013   1.905   9.356  1.00  0.00     0.041 C 
ATOM     10  O   UNL     1      -1.082   1.439   9.829  1.00  0.00    -0.550 OA
ATOM     11  O   UNL     1      -0.036   3.095   8.642  1.00  0.00    -0.550 OA
ENDBRANCH   8   9
ENDBRANCH   7   8
ENDBRANCH   6   7
ENDBRANCH   5   6
ENDBRANCH   4   5
ENDBRANCH   3   4
ENDBRANCH   2   3
ENDBRANCH   1   2
BRANCH   1  12
ATOM     12  C   UNL     1      -0.262  -7.728  10.201  1.00  0.00     0.000 C 
BRANCH  12  13
ATOM     13  C   UNL     1      -0.499  -7.777  11.717  1.00  0.00    -0.000 C 
BRANCH  13  14
ATOM     14  C   UNL     1       0.752  -8.285  12.452  1.00  0.00    -0.000 C 
BRANCH  14  15
ATOM     15  C   UNL     1       2.012  -7.476  12.105  1.00  0.00    -0.000 C 
BRANCH  15  16
ATOM     16  C   UNL     1       3.172  -8.364  11.629  1.00  0.00    -0.000 C 
BRANCH  16  17
ATOM     17  C   UNL     1       4.410  -8.166  12.512  1.00  0.00    -0.000 C 
BRANCH  17  18
ATOM     18  C   UNL     1       4.961  -6.738  12.377  1.00  0.00    -0.000 C 
BRANCH  18  19
ATOM     19  C   UNL     1       6.464  -6.711  12.059  1.00  0.00    -0.003 C 
ATOM     20  C   UNL     1       7.335  -6.860  13.306  1.00  0.00     0.004 C 
ENDBRANCH  18  19
ENDBRANCH  17  18
ENDBRANCH  16  17
ENDBRANCH  15  16
ENDBRANCH  14  15
ENDBRANCH  13  14
ENDBRANCH  12  13
ENDBRANCH   1  12
TORSDOF 16
ENDMDL
MODEL 4
REMARK VINA RESULT:    12.787      3.987      7.021
REMARK INTER + INTRA:          26.011
REMARK INTER:                  26.242
REMARK INTRA:                  -0.231
REMARK UNBOUND:                 1.263
REMARK SMILES CCCCCCCCCCCCCCCCCC(=O)[O-]
REMARK SMILES IDX 10 1 11 2 12 3 13 4 14 5 15 6 16 7 17 8 18 9 19 10 20 11
REMARK SMILES IDX 9 12 8 13 7 14 6 15 5 16 4 17 3 18 2 19 1 20
REMARK H PARENT
REMARK Flexibility Score: inf
ROOT
ATOM      1  C   UNL     1       2.032  -6.257  12.002  1.00  0.00     0.000 C 
ENDROOT
BRANCH   1   2
ATOM      2  C   UNL     1       1.287  -7.447  11.369  1.00  0.00     0.000 C 
BRANCH   2   3
ATOM      3  C   UNL     1       2.192  -8.500  10.702  1.00  0.00     0.000 C 
BRANCH   3   4
ATOM      4  C   UNL     1       3.694  -8.310  11.003  1.00  0.00     0.000 C 
BRANCH   4   5
ATOM      5  C   UNL     1       4.039  -8.619  12.470  1.00  0.00     0.000 C 
BRANCH   5   6
ATOM      6  C   UNL     1       5.020  -7.601  13.075  1.00  0.00     0.000 C 
BRANCH   6   7
ATOM      7  C   UNL     1       6.039  -7.076  12.049  1.00  0.00     0.006 C 
BRANCH   7   8
ATOM      8  C   UNL     1       6.829  -5.874  12.582  1.00  0.00     0.053 C 
BRANCH   8   9
ATOM      9  C   UNL     1       7.621  -6.226  13.804  1.00  0.00     0.041 C 
ATOM     10  O   UNL     1       7.537  -5.514  14.838  1.00  0.00    -0.550 OA
ATOM     11  O   UNL     1       8.471  -7.324  13.791  1.00  0.00    -0.550 OA
ENDBRANCH   8   9
ENDBRANCH   7   8
ENDBRANCH   6   7
ENDBRANCH   5   6
ENDBRANCH   4   5
ENDBRANCH   3   4
ENDBRANCH   2   3
ENDBRANCH   1   2
BRANCH   1  12
ATOM     12  C   UNL     1       2.913  -5.447  11.030  1.00  0.00     0.000 C 
BRANCH  12  13
ATOM     13  C   UNL     1       2.097  -4.689   9.974  1.00  0.00    -0.000 C 
BRANCH  13  14
ATOM     14  C   UNL     1       2.723  -3.316   9.679  1.00  0.00    -0.000 C 
BRANCH  14  15
ATOM     15  C   UNL     1       1.842  -2.150  10.156  1.00  0.00    -0.000 C 
BRANCH  15  16
ATOM     16  C   UNL     1       2.293  -0.797   9.585  1.00  0.00    -0.000 C 
BRANCH  16  17
ATOM     17  C   UNL     1       1.559   0.361  10.273  1.00  0.00    -0.000 C 
BRANCH  17  18
ATOM     18  C   UNL     1       0.067   0.361   9.908  1.00  0.00    -0.000 C 
BRANCH  18  19
ATOM     19  C   UNL     1      -0.488   1.779   9.691  1.00  0.00    -0.003 C 
ATOM     20  C   UNL     1       0.250   2.539   8.590  1.00  0.00     0.004 C 
ENDBRANCH  18  19
ENDBRANCH  17  18
ENDBRANCH  16  17
ENDBRANCH  15  16
ENDBRANCH  14  15
ENDBRANCH  13  14
ENDBRANCH  12  13
ENDBRANCH   1  12
TORSDOF 16
ENDMDL
MODEL 5
REMARK VINA RESULT:    12.893      2.967      5.102
REMARK INTER + INTRA:          26.216
REMARK INTER:                  25.595
REMARK INTRA:                   0.621
REMARK UNBOUND:                 1.263
REMARK SMILES CCCCCCCCCCCCCCCCCC(=O)[O-]
REMARK SMILES IDX 10 1 11 2 12 3 13 4 14 5 15 6 16 7 17 8 18 9 19 10 20 11
REMARK SMILES IDX 9 12 8 13 7 14 6 15 5 16 4 17 3 18 2 19 1 20
REMARK H PARENT
REMARK Flexibility Score: inf
ROOT
ATOM      1  C   UNL     1       0.994  -7.078  12.051  1.00  0.00     0.000 C 
ENDROOT
BRANCH   1   2
ATOM      2  C   UNL     1       2.004  -5.934  11.843  1.00  0.00     0.000 C 
BRANCH   2   3
ATOM      3  C   UNL     1       2.315  -5.601  10.371  1.00  0.00     0.000 C 
BRANCH   3   4
ATOM      4  C   UNL     1       1.829  -4.203   9.935  1.00  0.00     0.000 C 
BRANCH   4   5
ATOM      5  C   UNL     1       2.853  -3.101  10.257  1.00  0.00     0.000 C 
BRANCH   5   6
ATOM      6  C   UNL     1       2.609  -1.812   9.455  1.00  0.00     0.000 C 
BRANCH   6   7
ATOM      7  C   UNL     1       1.436  -0.982  10.006  1.00  0.00     0.006 C 
BRANCH   7   8
ATOM      8  C   UNL     1       1.622   0.520   9.755  1.00  0.00     0.053 C 
BRANCH   8   9
ATOM      9  C   UNL     1       0.315   1.206   9.501  1.00  0.00     0.041 C 
ATOM     10  O   UNL     1      -0.592   1.181  10.373  1.00  0.00    -0.550 OA
ATOM     11  O   UNL     1       0.089   1.847   8.290  1.00  0.00    -0.550 OA
ENDBRANCH   8   9
ENDBRANCH   7   8
ENDBRANCH   6   7
ENDBRANCH   5   6
ENDBRANCH   4   5
ENDBRANCH   3   4
ENDBRANCH   2   3
ENDBRANCH   1   2
BRANCH   1  12
ATOM     12  C   UNL     1      -0.183  -7.097  11.057  1.00  0.00     0.000 C 
BRANCH  12  13
ATOM     13  C   UNL     1      -0.451  -8.491  10.472  1.00  0.00    -0.000 C 
BRANCH  13  14
ATOM     14  C   UNL     1       0.824  -9.349  10.495  1.00  0.00    -0.000 C 
BRANCH  14  15
ATOM     15  C   UNL     1       2.086  -8.544  10.147  1.00  0.00    -0.000 C 
BRANCH  15  16
ATOM     16  C   UNL     1       3.378  -9.343  10.374  1.00  0.00    -0.000 C 
BRANCH  16  17
ATOM     17  C   UNL     1       4.552  -8.409  10.693  1.00  0.00    -0.000 C 
BRANCH  17  18
ATOM     18  C   UNL     1       4.615  -8.098  12.196  1.00  0.00    -0.000 C 
BRANCH  18  19
ATOM     19  C   UNL     1       5.238  -6.724  12.490  1.00  0.00    -0.003 C 
ATOM     20  C   UNL     1       6.766  -6.745  12.433  1.00  0.00     0.004 C 
ENDBRANCH  18  19
ENDBRANCH  17  18
ENDBRANCH  16  17
ENDBRANCH  15  16
ENDBRANCH  14  15
ENDBRANCH  13  14
ENDBRANCH  12  13
ENDBRANCH   1  12
TORSDOF 16
ENDMDL
MODEL 6
REMARK VINA RESULT:    13.226      3.313      6.188
REMARK INTER + INTRA:          26.860
REMARK INTER:                  26.411
REMARK INTRA:                   0.449
REMARK UNBOUND:                 1.263
REMARK SMILES CCCCCCCCCCCCCCCCCC(=O)[O-]
REMARK SMILES IDX 10 1 11 2 12 3 13 4 14 5 15 6 16 7 17 8 18 9 19 10 20 11
REMARK SMILES IDX 9 12 8 13 7 14 6 15 5 16 4 17 3 18 2 19 1 20
REMARK H PARENT
REMARK Flexibility Score: inf
ROOT
ATOM      1  C   UNL     1       1.143  -6.997  12.252  1.00  0.00     0.000 C 
ENDROOT
BRANCH   1   2
ATOM      2  C   UNL     1       0.060  -7.319  11.205  1.00  0.00     0.000 C 
BRANCH   2   3
ATOM      3  C   UNL     1       0.255  -8.652  10.457  1.00  0.00     0.000 C 
BRANCH   3   4
ATOM      4  C   UNL     1       1.601  -9.344  10.761  1.00  0.00     0.000 C 
BRANCH   4   5
ATOM      5  C   UNL     1       2.785  -8.654  10.063  1.00  0.00     0.000 C 
BRANCH   5   6
ATOM      6  C   UNL     1       4.083  -8.731  10.883  1.00  0.00     0.000 C 
BRANCH   6   7
ATOM      7  C   UNL     1       3.897  -8.262  12.337  1.00  0.00     0.006 C 
BRANCH   7   8
ATOM      8  C   UNL     1       5.219  -8.250  13.115  1.00  0.00     0.053 C 
BRANCH   8   9
ATOM      9  C   UNL     1       6.116  -7.136  12.669  1.00  0.00     0.041 C 
ATOM     10  O   UNL     1       7.246  -6.982  13.202  1.00  0.00    -0.550 OA
ATOM     11  O   UNL     1       5.691  -6.251  11.687  1.00  0.00    -0.550 OA
ENDBRANCH   8   9
ENDBRANCH   7   8
ENDBRANCH   6   7
ENDBRANCH   5   6
ENDBRANCH   4   5
ENDBRANCH   3   4
ENDBRANCH   2   3
ENDBRANCH   1   2
BRANCH   1  12
ATOM     12  C   UNL     1       1.914  -5.685  12.008  1.00  0.00     0.000 C 
BRANCH  12  13
ATOM     13  C   UNL     1       2.647  -5.661  10.660  1.00  0.00    -0.000 C 
BRANCH  13  14
ATOM     14  C   UNL     1       2.097  -4.546   9.755  1.00  0.00    -0.000 C 
BRANCH  14  15
ATOM     15  C   UNL     1       2.638  -3.158  10.134  1.00  0.00    -0.000 C 
BRANCH  15  16
ATOM     16  C   UNL     1       1.717  -2.019   9.670  1.00  0.00    -0.000 C 
BRANCH  16  17
ATOM     17  C   UNL     1       2.218  -0.665  10.185  1.00  0.00    -0.000 C 
BRANCH  17  18
ATOM     18  C   UNL     1       1.575   0.493   9.407  1.00  0.00    -0.000 C 
BRANCH  18  19
ATOM     19  C   UNL     1       0.283   1.002  10.066  1.00  0.00    -0.003 C 
ATOM     20  C   UNL     1      -0.455   2.027   9.204  1.00  0.00     0.004 C 
ENDBRANCH  18  19
ENDBRANCH  17  18
ENDBRANCH  16  17
ENDBRANCH  15  16
ENDBRANCH  14  15
ENDBRANCH  13  14
ENDBRANCH  12  13
ENDBRANCH   1  12
TORSDOF 16
ENDMDL
MODEL 7
REMARK VINA RESULT:    13.460      2.758      6.343
REMARK INTER + INTRA:          27.313
REMARK INTER:                  26.168
REMARK INTRA:                   1.145
REMARK UNBOUND:                 1.263
REMARK SMILES CCCCCCCCCCCCCCCCCC(=O)[O-]
REMARK SMILES IDX 10 1 11 2 12 3 13 4 14 5 15 6 16 7 17 8 18 9 19 10 20 11
REMARK SMILES IDX 9 12 8 13 7 14 6 15 5 16 4 17 3 18 2 19 1 20
REMARK H PARENT
REMARK Flexibility Score: inf
ROOT
ATOM      1  C   UNL     1       3.383  -8.802  14.269  1.00  0.00     0.000 C 
ENDROOT
BRANCH   1   2
ATOM      2  C   UNL     1       4.489  -8.950  13.208  1.00  0.00     0.000 C 
BRANCH   2   3
ATOM      3  C   UNL     1       4.052  -8.631  11.765  1.00  0.00     0.000 C 
BRANCH   3   4
ATOM      4  C   UNL     1       4.901  -7.534  11.088  1.00  0.00     0.000 C 
BRANCH   4   5
ATOM      5  C   UNL     1       5.588  -6.611  12.110  1.00  0.00     0.000 C 
BRANCH   5   6
ATOM      6  C   UNL     1       7.121  -6.689  12.042  1.00  0.00     0.000 C 
BRANCH   6   7
ATOM      7  C   UNL     1       7.762  -6.979  13.410  1.00  0.00     0.006 C 
BRANCH   7   8
ATOM      8  C   UNL     1       6.978  -6.340  14.564  1.00  0.00     0.053 C 
BRANCH   8   9
ATOM      9  C   UNL     1       7.689  -5.147  15.125  1.00  0.00     0.041 C 
ATOM     10  O   UNL     1       7.049  -4.273  15.766  1.00  0.00    -0.550 OA
ATOM     11  O   UNL     1       9.052  -4.985  14.914  1.00  0.00    -0.550 OA
ENDBRANCH   8   9
ENDBRANCH   7   8
ENDBRANCH   6   7
ENDBRANCH   5   6
ENDBRANCH   4   5
ENDBRANCH   3   4
ENDBRANCH   2   3
ENDBRANCH   1   2
BRANCH   1  12
ATOM     12  C   UNL     1       1.951  -9.048  13.757  1.00  0.00     0.000 C 
BRANCH  12  13
ATOM     13  C   UNL     1       1.480  -7.983  12.757  1.00  0.00    -0.000 C 
BRANCH  13  14
ATOM     14  C   UNL     1       0.029  -8.241  12.323  1.00  0.00    -0.000 C 
BRANCH  14  15
ATOM     15  C   UNL     1      -0.083  -8.647  10.845  1.00  0.00    -0.000 C 
BRANCH  15  16
ATOM     16  C   UNL     1      -0.696  -7.541   9.972  1.00  0.00    -0.000 C 
BRANCH  16  17
ATOM     17  C   UNL     1       0.208  -6.302   9.944  1.00  0.00    -0.000 C 
BRANCH  17  18
ATOM     18  C   UNL     1       1.569  -6.598  10.591  1.00  0.00    -0.000 C 
BRANCH  18  19
ATOM     19  C   UNL     1       2.424  -5.333  10.774  1.00  0.00    -0.003 C 
ATOM     20  C   UNL     1       2.201  -4.305   9.665  1.00  0.00     0.004 C 
ENDBRANCH  18  19
ENDBRANCH  17  18
ENDBRANCH  16  17
ENDBRANCH  15  16
ENDBRANCH  14  15
ENDBRANCH  13  14
ENDBRANCH  12  13
ENDBRANCH   1  12
TORSDOF 16
ENDMDL
MODEL 8
REMARK VINA RESULT:    13.531      3.859      6.610
REMARK INTER + INTRA:          27.450
REMARK INTER:                  27.261
REMARK INTRA:                   0.189
REMARK UNBOUND:                 1.263
REMARK SMILES CCCCCCCCCCCCCCCCCC(=O)[O-]
REMARK SMILES IDX 10 1 11 2 12 3 13 4 14 5 15 6 16 7 17 8 18 9 19 10 20 11
REMARK SMILES IDX 9 12 8 13 7 14 6 15 5 16 4 17 3 18 2 19 1 20
REMARK H PARENT
REMARK Flexibility Score: inf
ROOT
ATOM      1  C   UNL     1       1.113  -6.007   9.342  1.00  0.00     0.000 C 
ENDROOT
BRANCH   1   2
ATOM      2  C   UNL     1      -0.424  -6.037   9.433  1.00  0.00     0.000 C 
BRANCH   2   3
ATOM      3  C   UNL     1      -1.025  -7.395   9.845  1.00  0.00     0.000 C 
BRANCH   3   4
ATOM      4  C   UNL     1      -0.035  -8.309  10.597  1.00  0.00     0.000 C 
BRANCH   4   5
ATOM      5  C   UNL     1       0.265  -7.802  12.018  1.00  0.00     0.000 C 
BRANCH   5   6
ATOM      6  C   UNL     1       1.765  -7.570  12.260  1.00  0.00     0.000 C 
BRANCH   6   7
ATOM      7  C   UNL     1       2.653  -8.522  11.441  1.00  0.00     0.006 C 
BRANCH   7   8
ATOM      8  C   UNL     1       3.965  -7.858  11.003  1.00  0.00     0.053 C 
BRANCH   8   9
ATOM      9  C   UNL     1       4.918  -7.701  12.149  1.00  0.00     0.041 C 
ATOM     10  O   UNL     1       5.785  -6.789  12.129  1.00  0.00    -0.550 OA
ATOM     11  O   UNL     1       4.865  -8.579  13.223  1.00  0.00    -0.550 OA
ENDBRANCH   8   9
ENDBRANCH   7   8
ENDBRANCH   6   7
ENDBRANCH   5   6
ENDBRANCH   4   5
ENDBRANCH   3   4
ENDBRANCH   2   3
ENDBRANCH   1   2
BRANCH   1  12
ATOM     12  C   UNL     1       1.821  -5.304  10.516  1.00  0.00     0.000 C 
BRANCH  12  13
ATOM     13  C   UNL     1       2.709  -4.135  10.067  1.00  0.00    -0.000 C 
BRANCH  13  14
ATOM     14  C   UNL     1       1.860  -2.901   9.724  1.00  0.00    -0.000 C 
BRANCH  14  15
ATOM     15  C   UNL     1       2.579  -1.581  10.043  1.00  0.00    -0.000 C 
BRANCH  15  16
ATOM     16  C   UNL     1       1.940  -0.375   9.338  1.00  0.00    -0.000 C 
BRANCH  16  17
ATOM     17  C   UNL     1       1.506   0.688  10.356  1.00  0.00    -0.000 C 
BRANCH  17  18
ATOM     18  C   UNL     1      -0.014   0.909  10.308  1.00  0.00    -0.000 C 
BRANCH  18  19
ATOM     19  C   UNL     1      -0.463   1.651   9.038  1.00  0.00    -0.003 C 
ATOM     20  C   UNL     1       0.481   2.791   8.656  1.00  0.00     0.004 C 
ENDBRANCH  18  19
ENDBRANCH  17  18
ENDBRANCH  16  17
ENDBRANCH  15  16
ENDBRANCH  14  15
ENDBRANCH  13  14
ENDBRANCH  12  13
ENDBRANCH   1  12
TORSDOF 16
ENDMDL
MODEL 9
REMARK VINA RESULT:    13.799      3.296      4.889
REMARK INTER + INTRA:          27.969
REMARK INTER:                  28.842
REMARK INTRA:                  -0.873
REMARK UNBOUND:                 1.263
REMARK SMILES CCCCCCCCCCCCCCCCCC(=O)[O-]
REMARK SMILES IDX 10 1 11 2 12 3 13 4 14 5 15 6 16 7 17 8 18 9 19 10 20 11
REMARK SMILES IDX 9 12 8 13 7 14 6 15 5 16 4 17 3 18 2 19 1 20
REMARK H PARENT
REMARK Flexibility Score: inf
ROOT
ATOM      1  C   UNL     1       0.992  -6.412  10.559  1.00  0.00     0.000 C 
ENDROOT
BRANCH   1   2
ATOM      2  C   UNL     1       2.065  -5.715  11.416  1.00  0.00     0.000 C 
BRANCH   2   3
ATOM      3  C   UNL     1       3.027  -4.799  10.636  1.00  0.00     0.000 C 
BRANCH   3   4
ATOM      4  C   UNL     1       2.316  -3.849   9.648  1.00  0.00     0.000 C 
BRANCH   4   5
ATOM      5  C   UNL     1       2.885  -2.421   9.699  1.00  0.00     0.000 C 
BRANCH   5   6
ATOM      6  C   UNL     1       1.844  -1.384  10.151  1.00  0.00     0.000 C 
BRANCH   6   7
ATOM      7  C   UNL     1       1.876  -0.101   9.302  1.00  0.00     0.006 C 
BRANCH   7   8
ATOM      8  C   UNL     1       1.189   1.077  10.006  1.00  0.00     0.053 C 
BRANCH   8   9
ATOM      9  C   UNL     1      -0.054   1.505   9.288  1.00  0.00     0.041 C 
ATOM     10  O   UNL     1      -0.123   1.416   8.035  1.00  0.00    -0.550 OA
ATOM     11  O   UNL     1      -1.125   2.028  10.001  1.00  0.00    -0.550 OA
ENDBRANCH   8   9
ENDBRANCH   7   8
ENDBRANCH   6   7
ENDBRANCH   5   6
ENDBRANCH   4   5
ENDBRANCH   3   4
ENDBRANCH   2   3
ENDBRANCH   1   2
BRANCH   1  12
ATOM     12  C   UNL     1       0.449  -7.732  11.141  1.00  0.00     0.000 C 
BRANCH  12  13
ATOM     13  C   UNL     1       1.558  -8.742  11.472  1.00  0.00    -0.000 C 
BRANCH  13  14
ATOM     14  C   UNL     1       2.691  -8.671  10.435  1.00  0.00    -0.000 C 
BRANCH  14  15
ATOM     15  C   UNL     1       4.085  -8.667  11.083  1.00  0.00    -0.000 C 
BRANCH  15  16
ATOM     16  C   UNL     1       4.047  -8.258  12.564  1.00  0.00    -0.000 C 
BRANCH  16  17
ATOM     17  C   UNL     1       4.859  -6.979  12.801  1.00  0.00    -0.000 C 
BRANCH  17  18
ATOM     18  C   UNL     1       6.160  -6.994  11.983  1.00  0.00    -0.000 C 
BRANCH  18  19
ATOM     19  C   UNL     1       7.407  -6.773  12.854  1.00  0.00    -0.003 C 
ATOM     20  C   UNL     1       7.126  -5.900  14.077  1.00  0.00     0.004 C 
ENDBRANCH  18  19
ENDBRANCH  17  18
ENDBRANCH  16  17
ENDBRANCH  15  16
ENDBRANCH  14  15
ENDBRANCH  13  14
ENDBRANCH  12  13
ENDBRANCH   1  12
TORSDOF 16
ENDMDL
