MODEL 1
REMARK VINA RESULT:    -4.471      0.000      0.000
REMARK INTER + INTRA:          -7.281
REMARK INTER:                  -6.823
REMARK INTRA:                  -0.458
REMARK UNBOUND:                -0.458
REMARK SMILES O=C([O-])CCCCCCCCC(=O)[O-]
REMARK SMILES IDX 7 1 6 2 5 3 4 4 2 5 1 6 3 7 8 8 9 9 10 10 11 11 12 12 13 13
REMARK SMILES IDX 14 14
REMARK H PARENT
REMARK Flexibility Score: inf
ROOT
ATOM      1  C   UNL     1     -18.848  -5.969  22.205  1.00  0.00     0.000 C 
ENDROOT
BRANCH   1   2
ATOM      2  C   UNL     1     -18.171  -4.630  22.520  1.00  0.00     0.000 C 
BRANCH   2   3
ATOM      3  C   UNL     1     -16.647  -4.743  22.407  1.00  0.00     0.006 C 
BRANCH   3   4
ATOM      4  C   UNL     1     -16.200  -6.208  22.446  1.00  0.00     0.053 C 
BRANCH   4   5
ATOM      5  C   UNL     1     -15.092  -6.445  21.470  1.00  0.00     0.041 C 
ATOM      6  O   UNL     1     -14.080  -7.112  21.810  1.00  0.00    -0.550 OA
ATOM      7  O   UNL     1     -15.154  -5.887  20.199  1.00  0.00    -0.550 OA
ENDBRANCH   4   5
ENDBRANCH   3   4
ENDBRANCH   2   3
ENDBRANCH   1   2
BRANCH   1   8
ATOM      8  C   UNL     1     -20.130  -6.146  23.029  1.00  0.00     0.000 C 
BRANCH   8   9
ATOM      9  C   UNL     1     -20.722  -4.786  23.423  1.00  0.00     0.000 C 
BRANCH   9  10
ATOM     10  C   UNL     1     -21.665  -4.866  24.637  1.00  0.00     0.006 C 
BRANCH  10  11
ATOM     11  C   UNL     1     -22.065  -6.301  25.022  1.00  0.00     0.053 C 
BRANCH  11  12
ATOM     12  C   UNL     1     -23.223  -6.341  25.973  1.00  0.00     0.041 C 
ATOM     13  O   UNL     1     -24.353  -5.919  25.614  1.00  0.00    -0.550 OA
ATOM     14  O   UNL     1     -23.047  -6.813  27.269  1.00  0.00    -0.550 OA
ENDBRANCH  11  12
ENDBRANCH  10  11
ENDBRANCH   9  10
ENDBRANCH   8   9
ENDBRANCH   1   8
TORSDOF 9
ENDMDL
MODEL 2
REMARK VINA RESULT:    -4.431      0.755      7.590
REMARK INTER + INTRA:          -7.221
REMARK INTER:                  -6.779
REMARK INTRA:                  -0.442
REMARK UNBOUND:                -0.458
REMARK SMILES O=C([O-])CCCCCCCCC(=O)[O-]
REMARK SMILES IDX 7 1 6 2 5 3 4 4 2 5 1 6 3 7 8 8 9 9 10 10 11 11 12 12 13 13
REMARK SMILES IDX 14 14
REMARK H PARENT
REMARK Flexibility Score: inf
ROOT
ATOM      1  C   UNL     1     -20.445  -4.127  23.644  1.00  0.00     0.000 C 
ENDROOT
BRANCH   1   2
ATOM      2  C   UNL     1     -20.486  -5.635  23.366  1.00  0.00     0.000 C 
BRANCH   2   3
ATOM      3  C   UNL     1     -21.475  -6.340  24.301  1.00  0.00     0.006 C 
BRANCH   3   4
ATOM      4  C   UNL     1     -22.230  -5.328  25.166  1.00  0.00     0.053 C 
BRANCH   4   5
ATOM      5  C   UNL     1     -23.189  -6.027  26.076  1.00  0.00     0.041 C 
ATOM      6  O   UNL     1     -24.367  -6.261  25.697  1.00  0.00    -0.550 OA
ATOM      7  O   UNL     1     -22.798  -6.377  27.363  1.00  0.00    -0.550 OA
ENDBRANCH   4   5
ENDBRANCH   3   4
ENDBRANCH   2   3
ENDBRANCH   1   2
BRANCH   1   8
ATOM      8  C   UNL     1     -19.028  -3.570  23.452  1.00  0.00     0.000 C 
BRANCH   8   9
ATOM      9  C   UNL     1     -18.323  -4.254  22.273  1.00  0.00     0.000 C 
BRANCH   9  10
ATOM     10  C   UNL     1     -16.796  -4.343  22.451  1.00  0.00     0.006 C 
BRANCH  10  11
ATOM     11  C   UNL     1     -16.250  -5.781  22.447  1.00  0.00     0.053 C 
BRANCH  11  12
ATOM     12  C   UNL     1     -15.295  -6.032  21.319  1.00  0.00     0.041 C 
ATOM     13  O   UNL     1     -14.383  -6.892  21.441  1.00  0.00    -0.550 OA
ATOM     14  O   UNL     1     -15.389  -5.294  20.145  1.00  0.00    -0.550 OA
ENDBRANCH  11  12
ENDBRANCH  10  11
ENDBRANCH   9  10
ENDBRANCH   8   9
ENDBRANCH   1   8
TORSDOF 9
ENDMDL
MODEL 3
REMARK VINA RESULT:    -4.372      1.159      1.655
REMARK INTER + INTRA:          -7.131
REMARK INTER:                  -6.752
REMARK INTRA:                  -0.379
REMARK UNBOUND:                -0.458
REMARK SMILES O=C([O-])CCCCCCCCC(=O)[O-]
REMARK SMILES IDX 7 1 6 2 5 3 4 4 2 5 1 6 3 7 8 8 9 9 10 10 11 11 12 12 13 13
REMARK SMILES IDX 14 14
REMARK H PARENT
REMARK Flexibility Score: inf
ROOT
ATOM      1  C   UNL     1     -19.082  -3.652  23.263  1.00  0.00     0.000 C 
ENDROOT
BRANCH   1   2
ATOM      2  C   UNL     1     -18.405  -4.831  22.554  1.00  0.00     0.000 C 
BRANCH   2   3
ATOM      3  C   UNL     1     -16.883  -4.652  22.519  1.00  0.00     0.006 C 
BRANCH   3   4
ATOM      4  C   UNL     1     -16.172  -6.004  22.404  1.00  0.00     0.053 C 
BRANCH   4   5
ATOM      5  C   UNL     1     -15.907  -6.338  20.970  1.00  0.00     0.041 C 
ATOM      6  O   UNL     1     -16.843  -6.739  20.230  1.00  0.00    -0.550 OA
ATOM      7  O   UNL     1     -14.616  -6.254  20.464  1.00  0.00    -0.550 OA
ENDBRANCH   4   5
ENDBRANCH   3   4
ENDBRANCH   2   3
ENDBRANCH   1   2
BRANCH   1   8
ATOM      8  C   UNL     1     -20.392  -4.090  23.931  1.00  0.00     0.000 C 
BRANCH   8   9
ATOM      9  C   UNL     1     -20.710  -5.557  23.610  1.00  0.00     0.000 C 
BRANCH   9  10
ATOM     10  C   UNL     1     -21.817  -6.145  24.503  1.00  0.00     0.006 C 
BRANCH  10  11
ATOM     11  C   UNL     1     -22.652  -5.084  25.241  1.00  0.00     0.053 C 
BRANCH  11  12
ATOM     12  C   UNL     1     -22.732  -5.337  26.716  1.00  0.00     0.041 C 
ATOM     13  O   UNL     1     -22.721  -4.372  27.526  1.00  0.00    -0.550 OA
ATOM     14  O   UNL     1     -22.785  -6.639  27.201  1.00  0.00    -0.550 OA
ENDBRANCH  11  12
ENDBRANCH  10  11
ENDBRANCH   9  10
ENDBRANCH   8   9
ENDBRANCH   1   8
TORSDOF 9
ENDMDL
MODEL 4
REMARK VINA RESULT:    -4.355     16.464     17.961
REMARK INTER + INTRA:          -7.105
REMARK INTER:                  -6.496
REMARK INTRA:                  -0.609
REMARK UNBOUND:                -0.458
REMARK SMILES O=C([O-])CCCCCCCCC(=O)[O-]
REMARK SMILES IDX 7 1 6 2 5 3 4 4 2 5 1 6 3 7 8 8 9 9 10 10 11 11 12 12 13 13
REMARK SMILES IDX 14 14
REMARK H PARENT
REMARK Flexibility Score: inf
ROOT
ATOM      1  C   UNL     1     -15.223  10.393  30.331  1.00  0.00     0.000 C 
ENDROOT
BRANCH   1   2
ATOM      2  C   UNL     1     -14.932  10.486  31.834  1.00  0.00     0.000 C 
BRANCH   2   3
ATOM      3  C   UNL     1     -14.932   9.096  32.481  1.00  0.00     0.006 C 
BRANCH   3   4
ATOM      4  C   UNL     1     -14.303   8.056  31.550  1.00  0.00     0.053 C 
BRANCH   4   5
ATOM      5  C   UNL     1     -15.271   6.951  31.266  1.00  0.00     0.041 C 
ATOM      6  O   UNL     1     -16.504   7.194  31.191  1.00  0.00    -0.550 OA
ATOM      7  O   UNL     1     -14.817   5.645  31.134  1.00  0.00    -0.550 OA
ENDBRANCH   4   5
ENDBRANCH   3   4
ENDBRANCH   2   3
ENDBRANCH   1   2
BRANCH   1   8
ATOM      8  C   UNL     1     -14.701  11.631  29.592  1.00  0.00     0.000 C 
BRANCH   8   9
ATOM      9  C   UNL     1     -13.669  11.240  28.524  1.00  0.00     0.000 C 
BRANCH   9  10
ATOM     10  C   UNL     1     -13.429   9.722  28.442  1.00  0.00     0.006 C 
BRANCH  10  11
ATOM     11  C   UNL     1     -12.961   9.238  27.058  1.00  0.00     0.053 C 
BRANCH  11  12
ATOM     12  C   UNL     1     -13.743   9.855  25.938  1.00  0.00     0.041 C 
ATOM     13  O   UNL     1     -13.149  10.492  25.027  1.00  0.00    -0.550 OA
ATOM     14  O   UNL     1     -15.129   9.758  25.916  1.00  0.00    -0.550 OA
ENDBRANCH  11  12
ENDBRANCH  10  11
ENDBRANCH   9  10
ENDBRANCH   8   9
ENDBRANCH   1   8
TORSDOF 9
ENDMDL
MODEL 5
REMARK VINA RESULT:    -4.255      1.334      7.461
REMARK INTER + INTRA:          -6.952
REMARK INTER:                  -6.473
REMARK INTRA:                  -0.479
REMARK UNBOUND:                -0.458
REMARK SMILES O=C([O-])CCCCCCCCC(=O)[O-]
REMARK SMILES IDX 7 1 6 2 5 3 4 4 2 5 1 6 3 7 8 8 9 9 10 10 11 11 12 12 13 13
REMARK SMILES IDX 14 14
REMARK H PARENT
REMARK Flexibility Score: inf
ROOT
ATOM      1  C   UNL     1     -19.032  -5.019  22.666  1.00  0.00     0.000 C 
ENDROOT
BRANCH   1   2
ATOM      2  C   UNL     1     -20.230  -4.738  23.583  1.00  0.00     0.000 C 
BRANCH   2   3
ATOM      3  C   UNL     1     -21.105  -5.987  23.742  1.00  0.00     0.006 C 
BRANCH   3   4
ATOM      4  C   UNL     1     -22.015  -5.868  24.968  1.00  0.00     0.053 C 
BRANCH   4   5
ATOM      5  C   UNL     1     -23.452  -5.979  24.567  1.00  0.00     0.041 C 
ATOM      6  O   UNL     1     -23.770  -6.002  23.349  1.00  0.00    -0.550 OA
ATOM      7  O   UNL     1     -24.444  -6.007  25.539  1.00  0.00    -0.550 OA
ENDBRANCH   4   5
ENDBRANCH   3   4
ENDBRANCH   2   3
ENDBRANCH   1   2
BRANCH   1   8
ATOM      8  C   UNL     1     -18.079  -3.818  22.624  1.00  0.00     0.000 C 
BRANCH   8   9
ATOM      9  C   UNL     1     -16.624  -4.276  22.455  1.00  0.00     0.000 C 
BRANCH   9  10
ATOM     10  C   UNL     1     -16.455  -5.803  22.555  1.00  0.00     0.006 C 
BRANCH  10  11
ATOM     11  C   UNL     1     -15.499  -6.394  21.504  1.00  0.00     0.053 C 
BRANCH  11  12
ATOM     12  C   UNL     1     -16.007  -6.227  20.104  1.00  0.00     0.041 C 
ATOM     13  O   UNL     1     -17.199  -6.519  19.824  1.00  0.00    -0.550 OA
ATOM     14  O   UNL     1     -15.155  -5.781  19.100  1.00  0.00    -0.550 OA
ENDBRANCH  11  12
ENDBRANCH  10  11
ENDBRANCH   9  10
ENDBRANCH   8   9
ENDBRANCH   1   8
TORSDOF 9
ENDMDL
MODEL 6
REMARK VINA RESULT:    -4.193     16.312     17.232
REMARK INTER + INTRA:          -6.858
REMARK INTER:                  -5.964
REMARK INTRA:                  -0.894
REMARK UNBOUND:                -0.458
REMARK SMILES O=C([O-])CCCCCCCCC(=O)[O-]
REMARK SMILES IDX 7 1 6 2 5 3 4 4 2 5 1 6 3 7 8 8 9 9 10 10 11 11 12 12 13 13
REMARK SMILES IDX 14 14
REMARK H PARENT
REMARK Flexibility Score: inf
ROOT
ATOM      1  C   UNL     1     -14.389   9.483  28.137  1.00  0.00     0.000 C 
ENDROOT
BRANCH   1   2
ATOM      2  C   UNL     1     -13.285   8.438  28.339  1.00  0.00     0.000 C 
BRANCH   2   3
ATOM      3  C   UNL     1     -13.868   7.110  28.835  1.00  0.00     0.006 C 
BRANCH   3   4
ATOM      4  C   UNL     1     -14.170   7.168  30.335  1.00  0.00     0.053 C 
BRANCH   4   5
ATOM      5  C   UNL     1     -15.337   6.294  30.670  1.00  0.00     0.041 C 
ATOM      6  O   UNL     1     -16.509   6.744  30.588  1.00  0.00    -0.550 OA
ATOM      7  O   UNL     1     -15.127   4.997  31.122  1.00  0.00    -0.550 OA
ENDBRANCH   4   5
ENDBRANCH   3   4
ENDBRANCH   2   3
ENDBRANCH   1   2
BRANCH   1   8
ATOM      8  C   UNL     1     -13.861  10.900  28.395  1.00  0.00     0.000 C 
BRANCH   8   9
ATOM      9  C   UNL     1     -14.712  11.620  29.451  1.00  0.00     0.000 C 
BRANCH   9  10
ATOM     10  C   UNL     1     -15.480  10.654  30.371  1.00  0.00     0.006 C 
BRANCH  10  11
ATOM     11  C   UNL     1     -14.875  10.522  31.779  1.00  0.00     0.053 C 
BRANCH  11  12
ATOM     12  C   UNL     1     -15.619   9.542  32.636  1.00  0.00     0.041 C 
ATOM     13  O   UNL     1     -14.999   8.830  33.470  1.00  0.00    -0.550 OA
ATOM     14  O   UNL     1     -16.993   9.390  32.492  1.00  0.00    -0.550 OA
ENDBRANCH  11  12
ENDBRANCH  10  11
ENDBRANCH   9  10
ENDBRANCH   8   9
ENDBRANCH   1   8
TORSDOF 9
ENDMDL
MODEL 7
REMARK VINA RESULT:    -4.186      1.630      2.757
REMARK INTER + INTRA:          -6.847
REMARK INTER:                  -6.214
REMARK INTRA:                  -0.633
REMARK UNBOUND:                -0.458
REMARK SMILES O=C([O-])CCCCCCCCC(=O)[O-]
REMARK SMILES IDX 7 1 6 2 5 3 4 4 2 5 1 6 3 7 8 8 9 9 10 10 11 11 12 12 13 13
REMARK SMILES IDX 14 14
REMARK H PARENT
REMARK Flexibility Score: inf
ROOT
ATOM      1  C   UNL     1     -16.622  -4.549  22.478  1.00  0.00     0.000 C 
ENDROOT
BRANCH   1   2
ATOM      2  C   UNL     1     -16.154  -6.009  22.526  1.00  0.00     0.000 C 
BRANCH   2   3
ATOM      3  C   UNL     1     -15.046  -6.265  21.498  1.00  0.00     0.006 C 
BRANCH   3   4
ATOM      4  C   UNL     1     -15.575  -7.072  20.309  1.00  0.00     0.053 C 
BRANCH   4   5
ATOM      5  C   UNL     1     -15.927  -6.164  19.173  1.00  0.00     0.041 C 
ATOM      6  O   UNL     1     -16.681  -6.568  18.250  1.00  0.00    -0.550 OA
ATOM      7  O   UNL     1     -15.381  -4.888  19.108  1.00  0.00    -0.550 OA
ENDBRANCH   4   5
ENDBRANCH   3   4
ENDBRANCH   2   3
ENDBRANCH   1   2
BRANCH   1   8
ATOM      8  C   UNL     1     -18.152  -4.463  22.411  1.00  0.00     0.000 C 
BRANCH   8   9
ATOM      9  C   UNL     1     -18.767  -5.834  22.092  1.00  0.00     0.000 C 
BRANCH   9  10
ATOM     10  C   UNL     1     -19.985  -6.169  22.972  1.00  0.00     0.006 C 
BRANCH  10  11
ATOM     11  C   UNL     1     -20.597  -4.948  23.680  1.00  0.00     0.053 C 
BRANCH  11  12
ATOM     12  C   UNL     1     -21.955  -5.232  24.248  1.00  0.00     0.041 C 
ATOM     13  O   UNL     1     -22.193  -5.007  25.464  1.00  0.00    -0.550 OA
ATOM     14  O   UNL     1     -22.949  -5.778  23.443  1.00  0.00    -0.550 OA
ENDBRANCH  11  12
ENDBRANCH  10  11
ENDBRANCH   9  10
ENDBRANCH   8   9
ENDBRANCH   1   8
TORSDOF 9
ENDMDL
MODEL 8
REMARK VINA RESULT:    -4.176     16.407     17.301
REMARK INTER + INTRA:          -6.832
REMARK INTER:                  -6.155
REMARK INTRA:                  -0.677
REMARK UNBOUND:                -0.458
REMARK SMILES O=C([O-])CCCCCCCCC(=O)[O-]
REMARK SMILES IDX 7 1 6 2 5 3 4 4 2 5 1 6 3 7 8 8 9 9 10 10 11 11 12 12 13 13
REMARK SMILES IDX 14 14
REMARK H PARENT
REMARK Flexibility Score: inf
ROOT
ATOM      1  C   UNL     1     -15.471  10.414  30.497  1.00  0.00     0.000 C 
ENDROOT
BRANCH   1   2
ATOM      2  C   UNL     1     -14.603  11.270  29.566  1.00  0.00     0.000 C 
BRANCH   2   3
ATOM      3  C   UNL     1     -13.734  10.389  28.661  1.00  0.00     0.006 C 
BRANCH   3   4
ATOM      4  C   UNL     1     -13.129  11.206  27.516  1.00  0.00     0.053 C 
BRANCH   4   5
ATOM      5  C   UNL     1     -13.151  10.422  26.242  1.00  0.00     0.041 C 
ATOM      6  O   UNL     1     -12.991   9.173  26.265  1.00  0.00    -0.550 OA
ATOM      7  O   UNL     1     -13.297  11.076  25.026  1.00  0.00    -0.550 OA
ENDBRANCH   4   5
ENDBRANCH   3   4
ENDBRANCH   2   3
ENDBRANCH   1   2
BRANCH   1   8
ATOM      8  C   UNL     1     -14.925  10.433  31.931  1.00  0.00     0.000 C 
BRANCH   8   9
ATOM      9  C   UNL     1     -14.824   9.011  32.500  1.00  0.00     0.000 C 
BRANCH   9  10
ATOM     10  C   UNL     1     -13.972   8.070  31.630  1.00  0.00     0.006 C 
BRANCH  10  11
ATOM     11  C   UNL     1     -14.728   6.826  31.133  1.00  0.00     0.053 C 
BRANCH  11  12
ATOM     12  C   UNL     1     -14.878   6.800  29.642  1.00  0.00     0.041 C 
ATOM     13  O   UNL     1     -16.021   6.702  29.121  1.00  0.00    -0.550 OA
ATOM     14  O   UNL     1     -13.754   6.850  28.825  1.00  0.00    -0.550 OA
ENDBRANCH  11  12
ENDBRANCH  10  11
ENDBRANCH   9  10
ENDBRANCH   8   9
ENDBRANCH   1   8
TORSDOF 9
ENDMDL
MODEL 9
REMARK VINA RESULT:    -4.081     16.021     17.295
REMARK INTER + INTRA:          -6.686
REMARK INTER:                  -5.589
REMARK INTRA:                  -1.097
REMARK UNBOUND:                -0.458
REMARK SMILES O=C([O-])CCCCCCCCC(=O)[O-]
REMARK SMILES IDX 7 1 6 2 5 3 4 4 2 5 1 6 3 7 8 8 9 9 10 10 11 11 12 12 13 13
REMARK SMILES IDX 14 14
REMARK H PARENT
REMARK Flexibility Score: inf
ROOT
ATOM      1  C   UNL     1     -15.639  10.823  28.663  1.00  0.00     0.000 C 
ENDROOT
BRANCH   1   2
ATOM      2  C   UNL     1     -14.629  11.115  29.779  1.00  0.00     0.000 C 
BRANCH   2   3
ATOM      3  C   UNL     1     -15.125  10.575  31.125  1.00  0.00     0.006 C 
BRANCH   3   4
ATOM      4  C   UNL     1     -15.658   9.146  30.982  1.00  0.00     0.053 C 
BRANCH   4   5
ATOM      5  C   UNL     1     -14.723   8.170  31.623  1.00  0.00     0.041 C 
ATOM      6  O   UNL     1     -13.696   8.579  32.224  1.00  0.00    -0.550 OA
ATOM      7  O   UNL     1     -14.960   6.806  31.513  1.00  0.00    -0.550 OA
ENDBRANCH   4   5
ENDBRANCH   3   4
ENDBRANCH   2   3
ENDBRANCH   1   2
BRANCH   1   8
ATOM      8  C   UNL     1     -14.926  10.408  27.370  1.00  0.00     0.000 C 
BRANCH   8   9
ATOM      9  C   UNL     1     -13.414  10.267  27.596  1.00  0.00     0.000 C 
BRANCH   9  10
ATOM     10  C   UNL     1     -12.875   8.873  27.226  1.00  0.00     0.006 C 
BRANCH  10  11
ATOM     11  C   UNL     1     -12.909   7.863  28.386  1.00  0.00     0.053 C 
BRANCH  11  12
ATOM     12  C   UNL     1     -13.884   6.749  28.152  1.00  0.00     0.041 C 
ATOM     13  O   UNL     1     -13.471   5.573  27.974  1.00  0.00    -0.550 OA
ATOM     14  O   UNL     1     -15.247   7.013  28.095  1.00  0.00    -0.550 OA
ENDBRANCH  11  12
ENDBRANCH  10  11
ENDBRANCH   9  10
ENDBRANCH   8   9
ENDBRANCH   1   8
TORSDOF 9
ENDMDL
