MODEL 1
REMARK VINA RESULT:    -5.045      0.000      0.000
REMARK INTER + INTRA:         -15.903
REMARK INTER:                 -13.304
REMARK INTRA:                  -2.599
REMARK UNBOUND:                -2.599
REMARK SMILES CCCCCCCCCCCCCCCCCCCCCCCCCCCCCC(=O)[O-]
REMARK SMILES IDX 16 1 17 2 18 3 19 4 20 5 21 6 22 7 23 8 24 9 25 10 26 11
REMARK SMILES IDX 27 12 28 13 29 14 30 15 31 16 32 17 15 18 14 19 13 20 12 21
REMARK SMILES IDX 11 22 10 23 9 24 8 25 7 26 6 27 5 28 4 29 3 30 2 31 1 32
REMARK H PARENT
REMARK Flexibility Score: inf
ROOT
ATOM      1  C   UNL     1      25.564   0.432  37.728  1.00  0.00     0.000 C 
ENDROOT
BRANCH   1   2
ATOM      2  C   UNL     1      26.760   0.817  38.621  1.00  0.00     0.000 C 
BRANCH   2   3
ATOM      3  C   UNL     1      26.337   1.228  40.039  1.00  0.00     0.000 C 
BRANCH   3   4
ATOM      4  C   UNL     1      25.177   2.236  39.999  1.00  0.00     0.000 C 
BRANCH   4   5
ATOM      5  C   UNL     1      25.086   3.083  41.280  1.00  0.00     0.000 C 
BRANCH   5   6
ATOM      6  C   UNL     1      26.077   2.624  42.363  1.00  0.00     0.000 C 
BRANCH   6   7
ATOM      7  C   UNL     1      25.416   1.746  43.441  1.00  0.00     0.000 C 
BRANCH   7   8
ATOM      8  C   UNL     1      26.346   0.708  44.099  1.00  0.00     0.000 C 
BRANCH   8   9
ATOM      9  C   UNL     1      26.676  -0.520  43.226  1.00  0.00     0.000 C 
BRANCH   9  10
ATOM     10  C   UNL     1      27.388  -1.673  43.961  1.00  0.00     0.000 C 
BRANCH  10  11
ATOM     11  C   UNL     1      27.744  -2.887  43.082  1.00  0.00     0.000 C 
BRANCH  11  12
ATOM     12  C   UNL     1      27.472  -4.256  43.734  1.00  0.00     0.000 C 
BRANCH  12  13
ATOM     13  C   UNL     1      25.974  -4.541  43.971  1.00  0.00     0.006 C 
BRANCH  13  14
ATOM     14  C   UNL     1      25.743  -5.839  44.757  1.00  0.00     0.053 C 
BRANCH  14  15
ATOM     15  C   UNL     1      25.477  -5.542  46.199  1.00  0.00     0.041 C 
ATOM     16  O   UNL     1      24.453  -6.010  46.763  1.00  0.00    -0.550 OA
ATOM     17  O   UNL     1      26.374  -4.770  46.927  1.00  0.00    -0.550 OA
ENDBRANCH  14  15
ENDBRANCH  13  14
ENDBRANCH  12  13
ENDBRANCH  11  12
ENDBRANCH  10  11
ENDBRANCH   9  10
ENDBRANCH   8   9
ENDBRANCH   7   8
ENDBRANCH   6   7
ENDBRANCH   5   6
ENDBRANCH   4   5
ENDBRANCH   3   4
ENDBRANCH   2   3
ENDBRANCH   1   2
BRANCH   1  18
ATOM     18  C   UNL     1      25.621  -0.987  37.133  1.00  0.00     0.000 C 
BRANCH  18  19
ATOM     19  C   UNL     1      24.322  -1.479  36.466  1.00  0.00     0.000 C 
BRANCH  19  20
ATOM     20  C   UNL     1      23.993  -2.962  36.742  1.00  0.00     0.000 C 
BRANCH  20  21
ATOM     21  C   UNL     1      22.489  -3.275  36.636  1.00  0.00     0.000 C 
BRANCH  21  22
ATOM     22  C   UNL     1      22.158  -4.186  35.443  1.00  0.00     0.000 C 
BRANCH  22  23
ATOM     23  C   UNL     1      22.579  -5.647  35.678  1.00  0.00     0.000 C 
BRANCH  23  24
ATOM     24  C   UNL     1      23.373  -6.237  34.500  1.00  0.00    -0.000 C 
BRANCH  24  25
ATOM     25  C   UNL     1      24.814  -6.677  34.835  1.00  0.00    -0.000 C 
BRANCH  25  26
ATOM     26  C   UNL     1      25.264  -6.400  36.279  1.00  0.00    -0.000 C 
BRANCH  26  27
ATOM     27  C   UNL     1      26.629  -5.702  36.361  1.00  0.00    -0.000 C 
BRANCH  27  28
ATOM     28  C   UNL     1      26.669  -4.485  35.423  1.00  0.00    -0.000 C 
BRANCH  28  29
ATOM     29  C   UNL     1      27.920  -3.615  35.633  1.00  0.00    -0.000 C 
BRANCH  29  30
ATOM     30  C   UNL     1      28.284  -3.356  37.108  1.00  0.00    -0.000 C 
BRANCH  30  31
ATOM     31  C   UNL     1      29.747  -3.705  37.452  1.00  0.00    -0.003 C 
ATOM     32  C   UNL     1      30.712  -3.339  36.325  1.00  0.00     0.004 C 
ENDBRANCH  30  31
ENDBRANCH  29  30
ENDBRANCH  28  29
ENDBRANCH  27  28
ENDBRANCH  26  27
ENDBRANCH  25  26
ENDBRANCH  24  25
ENDBRANCH  23  24
ENDBRANCH  22  23
ENDBRANCH  21  22
ENDBRANCH  20  21
ENDBRANCH  19  20
ENDBRANCH  18  19
ENDBRANCH   1  18
TORSDOF 28
ENDMDL
MODEL 2
REMARK VINA RESULT:    -4.971      2.604      9.115
REMARK INTER + INTRA:         -15.708
REMARK INTER:                 -13.230
REMARK INTRA:                  -2.478
REMARK UNBOUND:                -2.599
REMARK SMILES CCCCCCCCCCCCCCCCCCCCCCCCCCCCCC(=O)[O-]
REMARK SMILES IDX 16 1 17 2 18 3 19 4 20 5 21 6 22 7 23 8 24 9 25 10 26 11
REMARK SMILES IDX 27 12 28 13 29 14 30 15 31 16 32 17 15 18 14 19 13 20 12 21
REMARK SMILES IDX 11 22 10 23 9 24 8 25 7 26 6 27 5 28 4 29 3 30 2 31 1 32
REMARK H PARENT
REMARK Flexibility Score: inf
ROOT
ATOM      1  C   UNL     1      25.597  -0.910  37.163  1.00  0.00     0.000 C 
ENDROOT
BRANCH   1   2
ATOM      2  C   UNL     1      24.302  -1.353  36.456  1.00  0.00     0.000 C 
BRANCH   2   3
ATOM      3  C   UNL     1      24.079  -2.872  36.518  1.00  0.00     0.000 C 
BRANCH   3   4
ATOM      4  C   UNL     1      22.614  -3.202  36.843  1.00  0.00     0.000 C 
BRANCH   4   5
ATOM      5  C   UNL     1      22.228  -4.636  36.443  1.00  0.00     0.000 C 
BRANCH   5   6
ATOM      6  C   UNL     1      22.633  -4.976  34.998  1.00  0.00     0.000 C 
BRANCH   6   7
ATOM      7  C   UNL     1      22.588  -6.486  34.707  1.00  0.00     0.000 C 
BRANCH   7   8
ATOM      8  C   UNL     1      23.735  -7.016  33.825  1.00  0.00     0.000 C 
BRANCH   8   9
ATOM      9  C   UNL     1      25.022  -6.168  33.848  1.00  0.00     0.000 C 
BRANCH   9  10
ATOM     10  C   UNL     1      26.124  -6.675  34.801  1.00  0.00     0.000 C 
BRANCH  10  11
ATOM     11  C   UNL     1      26.191  -5.959  36.162  1.00  0.00     0.000 C 
BRANCH  11  12
ATOM     12  C   UNL     1      27.522  -6.134  36.918  1.00  0.00     0.000 C 
BRANCH  12  13
ATOM     13  C   UNL     1      28.549  -5.018  36.629  1.00  0.00     0.006 C 
BRANCH  13  14
ATOM     14  C   UNL     1      28.042  -3.633  37.053  1.00  0.00     0.053 C 
BRANCH  14  15
ATOM     15  C   UNL     1      29.120  -2.867  37.751  1.00  0.00     0.041 C 
ATOM     16  O   UNL     1      28.840  -2.131  38.734  1.00  0.00    -0.550 OA
ATOM     17  O   UNL     1      30.440  -2.985  37.333  1.00  0.00    -0.550 OA
ENDBRANCH  14  15
ENDBRANCH  13  14
ENDBRANCH  12  13
ENDBRANCH  11  12
ENDBRANCH  10  11
ENDBRANCH   9  10
ENDBRANCH   8   9
ENDBRANCH   7   8
ENDBRANCH   6   7
ENDBRANCH   5   6
ENDBRANCH   4   5
ENDBRANCH   3   4
ENDBRANCH   2   3
ENDBRANCH   1   2
BRANCH   1  18
ATOM     18  C   UNL     1      25.478   0.378  38.000  1.00  0.00     0.000 C 
BRANCH  18  19
ATOM     19  C   UNL     1      26.732   0.761  38.810  1.00  0.00     0.000 C 
BRANCH  19  20
ATOM     20  C   UNL     1      26.751   2.227  39.289  1.00  0.00     0.000 C 
BRANCH  20  21
ATOM     21  C   UNL     1      25.734   2.508  40.411  1.00  0.00     0.000 C 
BRANCH  21  22
ATOM     22  C   UNL     1      26.231   3.567  41.407  1.00  0.00     0.000 C 
BRANCH  22  23
ATOM     23  C   UNL     1      26.370   3.017  42.838  1.00  0.00     0.000 C 
BRANCH  23  24
ATOM     24  C   UNL     1      25.603   1.700  43.048  1.00  0.00    -0.000 C 
BRANCH  24  25
ATOM     25  C   UNL     1      26.331   0.649  43.914  1.00  0.00    -0.000 C 
BRANCH  25  26
ATOM     26  C   UNL     1      26.632  -0.684  43.209  1.00  0.00    -0.000 C 
BRANCH  26  27
ATOM     27  C   UNL     1      27.628  -1.561  43.981  1.00  0.00    -0.000 C 
BRANCH  27  28
ATOM     28  C   UNL     1      27.781  -2.931  43.302  1.00  0.00    -0.000 C 
BRANCH  28  29
ATOM     29  C   UNL     1      27.405  -4.099  44.229  1.00  0.00    -0.000 C 
BRANCH  29  30
ATOM     30  C   UNL     1      27.387  -3.749  45.730  1.00  0.00    -0.000 C 
BRANCH  30  31
ATOM     31  C   UNL     1      26.872  -4.897  46.623  1.00  0.00    -0.003 C 
ATOM     32  C   UNL     1      25.528  -5.446  46.148  1.00  0.00     0.004 C 
ENDBRANCH  30  31
ENDBRANCH  29  30
ENDBRANCH  28  29
ENDBRANCH  27  28
ENDBRANCH  26  27
ENDBRANCH  25  26
ENDBRANCH  24  25
ENDBRANCH  23  24
ENDBRANCH  22  23
ENDBRANCH  21  22
ENDBRANCH  20  21
ENDBRANCH  19  20
ENDBRANCH  18  19
ENDBRANCH   1  18
TORSDOF 28
ENDMDL
MODEL 3
REMARK VINA RESULT:    -4.968      1.671      3.788
REMARK INTER + INTRA:         -15.698
REMARK INTER:                 -12.751
REMARK INTRA:                  -2.947
REMARK UNBOUND:                -2.599
REMARK SMILES CCCCCCCCCCCCCCCCCCCCCCCCCCCCCC(=O)[O-]
REMARK SMILES IDX 16 1 17 2 18 3 19 4 20 5 21 6 22 7 23 8 24 9 25 10 26 11
REMARK SMILES IDX 27 12 28 13 29 14 30 15 31 16 32 17 15 18 14 19 13 20 12 21
REMARK SMILES IDX 11 22 10 23 9 24 8 25 7 26 6 27 5 28 4 29 3 30 2 31 1 32
REMARK H PARENT
REMARK Flexibility Score: inf
ROOT
ATOM      1  C   UNL     1      24.039  -3.029  36.438  1.00  0.00     0.000 C 
ENDROOT
BRANCH   1   2
ATOM      2  C   UNL     1      24.364  -1.524  36.399  1.00  0.00     0.000 C 
BRANCH   2   3
ATOM      3  C   UNL     1      25.686  -1.182  37.104  1.00  0.00     0.000 C 
BRANCH   3   4
ATOM      4  C   UNL     1      25.646   0.237  37.693  1.00  0.00     0.000 C 
BRANCH   4   5
ATOM      5  C   UNL     1      26.630   0.419  38.861  1.00  0.00     0.000 C 
BRANCH   5   6
ATOM      6  C   UNL     1      26.560   1.826  39.479  1.00  0.00     0.000 C 
BRANCH   6   7
ATOM      7  C   UNL     1      25.115   2.300  39.716  1.00  0.00     0.000 C 
BRANCH   7   8
ATOM      8  C   UNL     1      24.879   3.039  41.048  1.00  0.00     0.000 C 
BRANCH   8   9
ATOM      9  C   UNL     1      26.154   3.563  41.739  1.00  0.00     0.000 C 
BRANCH   9  10
ATOM     10  C   UNL     1      26.463   2.930  43.110  1.00  0.00     0.000 C 
BRANCH  10  11
ATOM     11  C   UNL     1      25.695   1.631  43.419  1.00  0.00     0.000 C 
BRANCH  11  12
ATOM     12  C   UNL     1      26.575   0.461  43.898  1.00  0.00     0.000 C 
BRANCH  12  13
ATOM     13  C   UNL     1      26.728  -0.665  42.854  1.00  0.00     0.006 C 
BRANCH  13  14
ATOM     14  C   UNL     1      27.931  -1.573  43.145  1.00  0.00     0.053 C 
BRANCH  14  15
ATOM     15  C   UNL     1      27.540  -2.687  44.064  1.00  0.00     0.041 C 
ATOM     16  O   UNL     1      27.873  -2.651  45.279  1.00  0.00    -0.550 OA
ATOM     17  O   UNL     1      26.788  -3.753  43.586  1.00  0.00    -0.550 OA
ENDBRANCH  14  15
ENDBRANCH  13  14
ENDBRANCH  12  13
ENDBRANCH  11  12
ENDBRANCH  10  11
ENDBRANCH   9  10
ENDBRANCH   8   9
ENDBRANCH   7   8
ENDBRANCH   6   7
ENDBRANCH   5   6
ENDBRANCH   4   5
ENDBRANCH   3   4
ENDBRANCH   2   3
ENDBRANCH   1   2
BRANCH   1  18
ATOM     18  C   UNL     1      22.566  -3.374  36.726  1.00  0.00     0.000 C 
BRANCH  18  19
ATOM     19  C   UNL     1      22.120  -4.789  36.306  1.00  0.00     0.000 C 
BRANCH  19  20
ATOM     20  C   UNL     1      22.590  -5.206  34.896  1.00  0.00     0.000 C 
BRANCH  20  21
ATOM     21  C   UNL     1      23.600  -6.368  34.917  1.00  0.00     0.000 C 
BRANCH  21  22
ATOM     22  C   UNL     1      24.128  -6.717  33.516  1.00  0.00     0.000 C 
BRANCH  22  23
ATOM     23  C   UNL     1      25.611  -6.349  33.333  1.00  0.00     0.000 C 
BRANCH  23  24
ATOM     24  C   UNL     1      26.058  -5.196  34.249  1.00  0.00    -0.000 C 
BRANCH  24  25
ATOM     25  C   UNL     1      27.184  -5.550  35.244  1.00  0.00    -0.000 C 
BRANCH  25  26
ATOM     26  C   UNL     1      27.174  -4.747  36.556  1.00  0.00    -0.000 C 
BRANCH  26  27
ATOM     27  C   UNL     1      28.554  -4.667  37.223  1.00  0.00    -0.000 C 
BRANCH  27  28
ATOM     28  C   UNL     1      29.110  -3.237  37.144  1.00  0.00    -0.000 C 
BRANCH  28  29
ATOM     29  C   UNL     1      30.633  -3.202  36.931  1.00  0.00    -0.000 C 
BRANCH  29  30
ATOM     30  C   UNL     1      31.318  -4.582  36.957  1.00  0.00    -0.000 C 
BRANCH  30  31
ATOM     31  C   UNL     1      32.035  -4.939  35.638  1.00  0.00    -0.003 C 
ATOM     32  C   UNL     1      31.095  -5.585  34.622  1.00  0.00     0.004 C 
ENDBRANCH  30  31
ENDBRANCH  29  30
ENDBRANCH  28  29
ENDBRANCH  27  28
ENDBRANCH  26  27
ENDBRANCH  25  26
ENDBRANCH  24  25
ENDBRANCH  23  24
ENDBRANCH  22  23
ENDBRANCH  21  22
ENDBRANCH  20  21
ENDBRANCH  19  20
ENDBRANCH  18  19
ENDBRANCH   1  18
TORSDOF 28
ENDMDL
MODEL 4
REMARK VINA RESULT:    -4.953      0.904      1.540
REMARK INTER + INTRA:         -15.660
REMARK INTER:                 -13.280
REMARK INTRA:                  -2.381
REMARK UNBOUND:                -2.599
REMARK SMILES CCCCCCCCCCCCCCCCCCCCCCCCCCCCCC(=O)[O-]
REMARK SMILES IDX 16 1 17 2 18 3 19 4 20 5 21 6 22 7 23 8 24 9 25 10 26 11
REMARK SMILES IDX 27 12 28 13 29 14 30 15 31 16 32 17 15 18 14 19 13 20 12 21
REMARK SMILES IDX 11 22 10 23 9 24 8 25 7 26 6 27 5 28 4 29 3 30 2 31 1 32
REMARK H PARENT
REMARK Flexibility Score: inf
ROOT
ATOM      1  C   UNL     1      25.631  -1.080  37.117  1.00  0.00     0.000 C 
ENDROOT
BRANCH   1   2
ATOM      2  C   UNL     1      25.582   0.328  37.739  1.00  0.00     0.000 C 
BRANCH   2   3
ATOM      3  C   UNL     1      26.528   0.483  38.939  1.00  0.00     0.000 C 
BRANCH   3   4
ATOM      4  C   UNL     1      26.745   1.966  39.284  1.00  0.00     0.000 C 
BRANCH   4   5
ATOM      5  C   UNL     1      25.740   2.482  40.328  1.00  0.00     0.000 C 
BRANCH   5   6
ATOM      6  C   UNL     1      26.353   3.532  41.269  1.00  0.00     0.000 C 
BRANCH   6   7
ATOM      7  C   UNL     1      26.338   3.091  42.743  1.00  0.00     0.000 C 
BRANCH   7   8
ATOM      8  C   UNL     1      25.613   1.760  43.020  1.00  0.00     0.000 C 
BRANCH   8   9
ATOM      9  C   UNL     1      26.458   0.694  43.746  1.00  0.00     0.000 C 
BRANCH   9  10
ATOM     10  C   UNL     1      26.574  -0.659  43.016  1.00  0.00     0.000 C 
BRANCH  10  11
ATOM     11  C   UNL     1      27.844  -1.468  43.336  1.00  0.00     0.000 C 
BRANCH  11  12
ATOM     12  C   UNL     1      27.706  -2.990  43.143  1.00  0.00     0.000 C 
BRANCH  12  13
ATOM     13  C   UNL     1      26.980  -3.697  44.307  1.00  0.00     0.006 C 
BRANCH  13  14
ATOM     14  C   UNL     1      25.877  -4.645  43.819  1.00  0.00     0.053 C 
BRANCH  14  15
ATOM     15  C   UNL     1      25.479  -5.595  44.904  1.00  0.00     0.041 C 
ATOM     16  O   UNL     1      24.862  -6.657  44.622  1.00  0.00    -0.550 OA
ATOM     17  O   UNL     1      25.812  -5.322  46.225  1.00  0.00    -0.550 OA
ENDBRANCH  14  15
ENDBRANCH  13  14
ENDBRANCH  12  13
ENDBRANCH  11  12
ENDBRANCH  10  11
ENDBRANCH   9  10
ENDBRANCH   8   9
ENDBRANCH   7   8
ENDBRANCH   6   7
ENDBRANCH   5   6
ENDBRANCH   4   5
ENDBRANCH   3   4
ENDBRANCH   2   3
ENDBRANCH   1   2
BRANCH   1  18
ATOM     18  C   UNL     1      24.347  -1.521  36.391  1.00  0.00     0.000 C 
BRANCH  18  19
ATOM     19  C   UNL     1      23.957  -3.002  36.572  1.00  0.00     0.000 C 
BRANCH  19  20
ATOM     20  C   UNL     1      22.454  -3.232  36.832  1.00  0.00     0.000 C 
BRANCH  20  21
ATOM     21  C   UNL     1      21.914  -4.507  36.158  1.00  0.00     0.000 C 
BRANCH  21  22
ATOM     22  C   UNL     1      22.679  -4.866  34.875  1.00  0.00     0.000 C 
BRANCH  22  23
ATOM     23  C   UNL     1      23.193  -6.316  34.877  1.00  0.00     0.000 C 
BRANCH  23  24
ATOM     24  C   UNL     1      24.324  -6.551  33.861  1.00  0.00    -0.000 C 
BRANCH  24  25
ATOM     25  C   UNL     1      25.727  -6.747  34.475  1.00  0.00    -0.000 C 
BRANCH  25  26
ATOM     26  C   UNL     1      26.005  -5.927  35.747  1.00  0.00    -0.000 C 
BRANCH  26  27
ATOM     27  C   UNL     1      27.125  -4.893  35.563  1.00  0.00    -0.000 C 
BRANCH  27  28
ATOM     28  C   UNL     1      27.888  -4.683  36.880  1.00  0.00    -0.000 C 
BRANCH  28  29
ATOM     29  C   UNL     1      29.246  -5.404  36.902  1.00  0.00    -0.000 C 
BRANCH  29  30
ATOM     30  C   UNL     1      30.435  -4.523  37.335  1.00  0.00    -0.000 C 
BRANCH  30  31
ATOM     31  C   UNL     1      30.390  -3.097  36.750  1.00  0.00    -0.003 C 
ATOM     32  C   UNL     1      30.916  -3.039  35.317  1.00  0.00     0.004 C 
ENDBRANCH  30  31
ENDBRANCH  29  30
ENDBRANCH  28  29
ENDBRANCH  27  28
ENDBRANCH  26  27
ENDBRANCH  25  26
ENDBRANCH  24  25
ENDBRANCH  23  24
ENDBRANCH  22  23
ENDBRANCH  21  22
ENDBRANCH  20  21
ENDBRANCH  19  20
ENDBRANCH  18  19
ENDBRANCH   1  18
TORSDOF 28
ENDMDL
MODEL 5
REMARK VINA RESULT:    -4.948      1.305      4.011
REMARK INTER + INTRA:         -15.647
REMARK INTER:                 -12.444
REMARK INTRA:                  -3.203
REMARK UNBOUND:                -2.599
REMARK SMILES CCCCCCCCCCCCCCCCCCCCCCCCCCCCCC(=O)[O-]
REMARK SMILES IDX 16 1 17 2 18 3 19 4 20 5 21 6 22 7 23 8 24 9 25 10 26 11
REMARK SMILES IDX 27 12 28 13 29 14 30 15 31 16 32 17 15 18 14 19 13 20 12 21
REMARK SMILES IDX 11 22 10 23 9 24 8 25 7 26 6 27 5 28 4 29 3 30 2 31 1 32
REMARK H PARENT
REMARK Flexibility Score: inf
ROOT
ATOM      1  C   UNL     1      27.876   0.385  39.020  1.00  0.00     0.000 C 
ENDROOT
BRANCH   1   2
ATOM      2  C   UNL     1      26.492   0.555  39.673  1.00  0.00     0.000 C 
BRANCH   2   3
ATOM      3  C   UNL     1      25.687   1.717  39.071  1.00  0.00     0.000 C 
BRANCH   3   4
ATOM      4  C   UNL     1      25.195   2.674  40.169  1.00  0.00     0.000 C 
BRANCH   4   5
ATOM      5  C   UNL     1      26.351   3.329  40.943  1.00  0.00     0.000 C 
BRANCH   5   6
ATOM      6  C   UNL     1      26.293   3.036  42.452  1.00  0.00     0.000 C 
BRANCH   6   7
ATOM      7  C   UNL     1      25.029   2.259  42.859  1.00  0.00     0.000 C 
BRANCH   7   8
ATOM      8  C   UNL     1      25.252   1.149  43.905  1.00  0.00     0.000 C 
BRANCH   8   9
ATOM      9  C   UNL     1      26.686   0.586  43.963  1.00  0.00     0.000 C 
BRANCH   9  10
ATOM     10  C   UNL     1      26.955  -0.619  43.038  1.00  0.00     0.000 C 
BRANCH  10  11
ATOM     11  C   UNL     1      26.732  -1.999  43.682  1.00  0.00     0.000 C 
BRANCH  11  12
ATOM     12  C   UNL     1      27.861  -2.461  44.623  1.00  0.00     0.000 C 
BRANCH  12  13
ATOM     13  C   UNL     1      27.925  -3.993  44.805  1.00  0.00     0.006 C 
BRANCH  13  14
ATOM     14  C   UNL     1      26.835  -4.515  45.750  1.00  0.00     0.053 C 
BRANCH  14  15
ATOM     15  C   UNL     1      25.906  -5.437  45.024  1.00  0.00     0.041 C 
ATOM     16  O   UNL     1      25.764  -6.627  45.411  1.00  0.00    -0.550 OA
ATOM     17  O   UNL     1      25.177  -4.974  43.935  1.00  0.00    -0.550 OA
ENDBRANCH  14  15
ENDBRANCH  13  14
ENDBRANCH  12  13
ENDBRANCH  11  12
ENDBRANCH  10  11
ENDBRANCH   9  10
ENDBRANCH   8   9
ENDBRANCH   7   8
ENDBRANCH   6   7
ENDBRANCH   5   6
ENDBRANCH   4   5
ENDBRANCH   3   4
ENDBRANCH   2   3
ENDBRANCH   1   2
BRANCH   1  18
ATOM     18  C   UNL     1      28.632  -0.899  39.410  1.00  0.00     0.000 C 
BRANCH  18  19
ATOM     19  C   UNL     1      28.483  -2.080  38.431  1.00  0.00     0.000 C 
BRANCH  19  20
ATOM     20  C   UNL     1      29.823  -2.648  37.917  1.00  0.00     0.000 C 
BRANCH  20  21
ATOM     21  C   UNL     1      29.688  -3.391  36.576  1.00  0.00     0.000 C 
BRANCH  21  22
ATOM     22  C   UNL     1      29.767  -4.917  36.735  1.00  0.00     0.000 C 
BRANCH  22  23
ATOM     23  C   UNL     1      28.659  -5.653  35.961  1.00  0.00     0.000 C 
BRANCH  23  24
ATOM     24  C   UNL     1      27.469  -6.049  36.852  1.00  0.00    -0.000 C 
BRANCH  24  25
ATOM     25  C   UNL     1      26.108  -5.455  36.430  1.00  0.00    -0.000 C 
BRANCH  25  26
ATOM     26  C   UNL     1      26.186  -4.143  35.632  1.00  0.00    -0.000 C 
BRANCH  26  27
ATOM     27  C   UNL     1      25.578  -2.947  36.379  1.00  0.00    -0.000 C 
BRANCH  27  28
ATOM     28  C   UNL     1      24.204  -2.586  35.793  1.00  0.00    -0.000 C 
BRANCH  28  29
ATOM     29  C   UNL     1      23.045  -2.925  36.746  1.00  0.00    -0.000 C 
BRANCH  29  30
ATOM     30  C   UNL     1      22.288  -4.223  36.403  1.00  0.00    -0.000 C 
BRANCH  30  31
ATOM     31  C   UNL     1      22.524  -4.710  34.958  1.00  0.00    -0.003 C 
ATOM     32  C   UNL     1      22.952  -6.176  34.900  1.00  0.00     0.004 C 
ENDBRANCH  30  31
ENDBRANCH  29  30
ENDBRANCH  28  29
ENDBRANCH  27  28
ENDBRANCH  26  27
ENDBRANCH  25  26
ENDBRANCH  24  25
ENDBRANCH  23  24
ENDBRANCH  22  23
ENDBRANCH  21  22
ENDBRANCH  20  21
ENDBRANCH  19  20
ENDBRANCH  18  19
ENDBRANCH   1  18
TORSDOF 28
ENDMDL
MODEL 6
REMARK VINA RESULT:    -4.883      1.545      3.767
REMARK INTER + INTRA:         -15.476
REMARK INTER:                 -12.297
REMARK INTRA:                  -3.179
REMARK UNBOUND:                -2.599
REMARK SMILES CCCCCCCCCCCCCCCCCCCCCCCCCCCCCC(=O)[O-]
REMARK SMILES IDX 16 1 17 2 18 3 19 4 20 5 21 6 22 7 23 8 24 9 25 10 26 11
REMARK SMILES IDX 27 12 28 13 29 14 30 15 31 16 32 17 15 18 14 19 13 20 12 21
REMARK SMILES IDX 11 22 10 23 9 24 8 25 7 26 6 27 5 28 4 29 3 30 2 31 1 32
REMARK H PARENT
REMARK Flexibility Score: inf
ROOT
ATOM      1  C   UNL     1      27.989  -0.387  39.866  1.00  0.00     0.000 C 
ENDROOT
BRANCH   1   2
ATOM      2  C   UNL     1      26.976   0.350  38.968  1.00  0.00     0.000 C 
BRANCH   2   3
ATOM      3  C   UNL     1      26.959   1.867  39.208  1.00  0.00     0.000 C 
BRANCH   3   4
ATOM      4  C   UNL     1      25.853   2.256  40.203  1.00  0.00     0.000 C 
BRANCH   4   5
ATOM      5  C   UNL     1      26.260   3.431  41.108  1.00  0.00     0.000 C 
BRANCH   5   6
ATOM      6  C   UNL     1      26.406   3.018  42.582  1.00  0.00     0.000 C 
BRANCH   6   7
ATOM      7  C   UNL     1      25.731   1.670  42.893  1.00  0.00     0.000 C 
BRANCH   7   8
ATOM      8  C   UNL     1      26.545   0.724  43.796  1.00  0.00     0.000 C 
BRANCH   8   9
ATOM      9  C   UNL     1      26.471  -0.768  43.414  1.00  0.00     0.000 C 
BRANCH   9  10
ATOM     10  C   UNL     1      27.832  -1.486  43.312  1.00  0.00     0.000 C 
BRANCH  10  11
ATOM     11  C   UNL     1      27.753  -3.013  43.129  1.00  0.00     0.000 C 
BRANCH  11  12
ATOM     12  C   UNL     1      26.500  -3.671  43.738  1.00  0.00     0.000 C 
BRANCH  12  13
ATOM     13  C   UNL     1      26.817  -4.705  44.839  1.00  0.00     0.006 C 
BRANCH  13  14
ATOM     14  C   UNL     1      27.431  -4.058  46.088  1.00  0.00     0.053 C 
BRANCH  14  15
ATOM     15  C   UNL     1      28.903  -4.314  46.146  1.00  0.00     0.041 C 
ATOM     16  O   UNL     1      29.681  -3.439  46.612  1.00  0.00    -0.550 OA
ATOM     17  O   UNL     1      29.416  -5.529  45.708  1.00  0.00    -0.550 OA
ENDBRANCH  14  15
ENDBRANCH  13  14
ENDBRANCH  12  13
ENDBRANCH  11  12
ENDBRANCH  10  11
ENDBRANCH   9  10
ENDBRANCH   8   9
ENDBRANCH   7   8
ENDBRANCH   6   7
ENDBRANCH   5   6
ENDBRANCH   4   5
ENDBRANCH   3   4
ENDBRANCH   2   3
ENDBRANCH   1   2
BRANCH   1  18
ATOM     18  C   UNL     1      29.072  -1.183  39.115  1.00  0.00     0.000 C 
BRANCH  18  19
ATOM     19  C   UNL     1      28.585  -2.462  38.407  1.00  0.00     0.000 C 
BRANCH  19  20
ATOM     20  C   UNL     1      29.504  -2.941  37.264  1.00  0.00     0.000 C 
BRANCH  20  21
ATOM     21  C   UNL     1      28.881  -4.070  36.422  1.00  0.00     0.000 C 
BRANCH  21  22
ATOM     22  C   UNL     1      29.050  -5.452  37.071  1.00  0.00     0.000 C 
BRANCH  22  23
ATOM     23  C   UNL     1      27.756  -6.286  37.037  1.00  0.00     0.000 C 
BRANCH  23  24
ATOM     24  C   UNL     1      26.614  -5.585  36.282  1.00  0.00    -0.000 C 
BRANCH  24  25
ATOM     25  C   UNL     1      25.641  -6.529  35.543  1.00  0.00    -0.000 C 
BRANCH  25  26
ATOM     26  C   UNL     1      24.728  -5.849  34.508  1.00  0.00    -0.000 C 
BRANCH  26  27
ATOM     27  C   UNL     1      23.237  -5.972  34.848  1.00  0.00    -0.000 C 
BRANCH  27  28
ATOM     28  C   UNL     1      22.576  -4.586  34.893  1.00  0.00    -0.000 C 
BRANCH  28  29
ATOM     29  C   UNL     1      22.253  -4.127  36.325  1.00  0.00    -0.000 C 
BRANCH  29  30
ATOM     30  C   UNL     1      22.974  -2.838  36.765  1.00  0.00    -0.000 C 
BRANCH  30  31
ATOM     31  C   UNL     1      24.129  -2.427  35.828  1.00  0.00    -0.003 C 
ATOM     32  C   UNL     1      25.430  -2.169  36.586  1.00  0.00     0.004 C 
ENDBRANCH  30  31
ENDBRANCH  29  30
ENDBRANCH  28  29
ENDBRANCH  27  28
ENDBRANCH  26  27
ENDBRANCH  25  26
ENDBRANCH  24  25
ENDBRANCH  23  24
ENDBRANCH  22  23
ENDBRANCH  21  22
ENDBRANCH  20  21
ENDBRANCH  19  20
ENDBRANCH  18  19
ENDBRANCH   1  18
TORSDOF 28
ENDMDL
MODEL 7
REMARK VINA RESULT:    -4.872      1.741      4.320
REMARK INTER + INTRA:         -15.447
REMARK INTER:                 -12.086
REMARK INTRA:                  -3.361
REMARK UNBOUND:                -2.599
REMARK SMILES CCCCCCCCCCCCCCCCCCCCCCCCCCCCCC(=O)[O-]
REMARK SMILES IDX 16 1 17 2 18 3 19 4 20 5 21 6 22 7 23 8 24 9 25 10 26 11
REMARK SMILES IDX 27 12 28 13 29 14 30 15 31 16 32 17 15 18 14 19 13 20 12 21
REMARK SMILES IDX 11 22 10 23 9 24 8 25 7 26 6 27 5 28 4 29 3 30 2 31 1 32
REMARK H PARENT
REMARK Flexibility Score: inf
ROOT
ATOM      1  C   UNL     1      28.735  -2.965  38.601  1.00  0.00     0.000 C 
ENDROOT
BRANCH   1   2
ATOM      2  C   UNL     1      29.186  -1.493  38.643  1.00  0.00     0.000 C 
BRANCH   2   3
ATOM      3  C   UNL     1      28.465  -0.678  39.728  1.00  0.00     0.000 C 
BRANCH   3   4
ATOM      4  C   UNL     1      27.437   0.280  39.106  1.00  0.00     0.000 C 
BRANCH   4   5
ATOM      5  C   UNL     1      26.492   0.893  40.154  1.00  0.00     0.000 C 
BRANCH   5   6
ATOM      6  C   UNL     1      25.985   2.288  39.750  1.00  0.00     0.000 C 
BRANCH   6   7
ATOM      7  C   UNL     1      26.085   3.312  40.894  1.00  0.00     0.000 C 
BRANCH   7   8
ATOM      8  C   UNL     1      26.368   2.712  42.286  1.00  0.00     0.000 C 
BRANCH   8   9
ATOM      9  C   UNL     1      25.123   2.207  43.044  1.00  0.00     0.000 C 
BRANCH   9  10
ATOM     10  C   UNL     1      25.416   1.256  44.222  1.00  0.00     0.000 C 
BRANCH  10  11
ATOM     11  C   UNL     1      26.635   0.335  44.031  1.00  0.00     0.000 C 
BRANCH  11  12
ATOM     12  C   UNL     1      26.396  -0.864  43.094  1.00  0.00     0.000 C 
BRANCH  12  13
ATOM     13  C   UNL     1      27.086  -2.163  43.563  1.00  0.00     0.006 C 
BRANCH  13  14
ATOM     14  C   UNL     1      28.254  -1.891  44.521  1.00  0.00     0.053 C 
BRANCH  14  15
ATOM     15  C   UNL     1      28.621  -3.132  45.271  1.00  0.00     0.041 C 
ATOM     16  O   UNL     1      29.323  -3.057  46.315  1.00  0.00    -0.550 OA
ATOM     17  O   UNL     1      28.167  -4.370  44.833  1.00  0.00    -0.550 OA
ENDBRANCH  14  15
ENDBRANCH  13  14
ENDBRANCH  12  13
ENDBRANCH  11  12
ENDBRANCH  10  11
ENDBRANCH   9  10
ENDBRANCH   8   9
ENDBRANCH   7   8
ENDBRANCH   6   7
ENDBRANCH   5   6
ENDBRANCH   4   5
ENDBRANCH   3   4
ENDBRANCH   2   3
ENDBRANCH   1   2
BRANCH   1  18
ATOM     18  C   UNL     1      29.129  -3.735  37.327  1.00  0.00     0.000 C 
BRANCH  18  19
ATOM     19  C   UNL     1      30.357  -3.187  36.574  1.00  0.00     0.000 C 
BRANCH  19  20
ATOM     20  C   UNL     1      30.137  -3.004  35.057  1.00  0.00     0.000 C 
BRANCH  20  21
ATOM     21  C   UNL     1      28.700  -3.336  34.612  1.00  0.00     0.000 C 
BRANCH  21  22
ATOM     22  C   UNL     1      28.615  -4.655  33.828  1.00  0.00     0.000 C 
BRANCH  22  23
ATOM     23  C   UNL     1      27.251  -5.351  33.986  1.00  0.00     0.000 C 
BRANCH  23  24
ATOM     24  C   UNL     1      27.031  -5.921  35.398  1.00  0.00    -0.000 C 
BRANCH  24  25
ATOM     25  C   UNL     1      25.564  -6.241  35.754  1.00  0.00    -0.000 C 
BRANCH  25  26
ATOM     26  C   UNL     1      24.686  -6.688  34.573  1.00  0.00    -0.000 C 
BRANCH  26  27
ATOM     27  C   UNL     1      23.332  -5.967  34.523  1.00  0.00    -0.000 C 
BRANCH  27  28
ATOM     28  C   UNL     1      22.919  -5.496  35.926  1.00  0.00    -0.000 C 
BRANCH  28  29
ATOM     29  C   UNL     1      22.264  -4.105  35.918  1.00  0.00    -0.000 C 
BRANCH  29  30
ATOM     30  C   UNL     1      23.129  -2.983  36.525  1.00  0.00    -0.000 C 
BRANCH  30  31
ATOM     31  C   UNL     1      24.340  -2.597  35.649  1.00  0.00    -0.003 C 
ATOM     32  C   UNL     1      25.646  -2.575  36.441  1.00  0.00     0.004 C 
ENDBRANCH  30  31
ENDBRANCH  29  30
ENDBRANCH  28  29
ENDBRANCH  27  28
ENDBRANCH  26  27
ENDBRANCH  25  26
ENDBRANCH  24  25
ENDBRANCH  23  24
ENDBRANCH  22  23
ENDBRANCH  21  22
ENDBRANCH  20  21
ENDBRANCH  19  20
ENDBRANCH  18  19
ENDBRANCH   1  18
TORSDOF 28
ENDMDL
MODEL 8
REMARK VINA RESULT:    -4.866      3.003      8.941
REMARK INTER + INTRA:         -15.431
REMARK INTER:                 -12.796
REMARK INTRA:                  -2.635
REMARK UNBOUND:                -2.599
REMARK SMILES CCCCCCCCCCCCCCCCCCCCCCCCCCCCCC(=O)[O-]
REMARK SMILES IDX 16 1 17 2 18 3 19 4 20 5 21 6 22 7 23 8 24 9 25 10 26 11
REMARK SMILES IDX 27 12 28 13 29 14 30 15 31 16 32 17 15 18 14 19 13 20 12 21
REMARK SMILES IDX 11 22 10 23 9 24 8 25 7 26 6 27 5 28 4 29 3 30 2 31 1 32
REMARK H PARENT
REMARK Flexibility Score: inf
ROOT
ATOM      1  C   UNL     1      26.269   1.434  37.668  1.00  0.00     0.000 C 
ENDROOT
BRANCH   1   2
ATOM      2  C   UNL     1      25.330   0.250  37.970  1.00  0.00     0.000 C 
BRANCH   2   3
ATOM      3  C   UNL     1      25.633  -0.986  37.109  1.00  0.00     0.000 C 
BRANCH   3   4
ATOM      4  C   UNL     1      24.377  -1.456  36.358  1.00  0.00     0.000 C 
BRANCH   4   5
ATOM      5  C   UNL     1      24.091  -2.954  36.566  1.00  0.00     0.000 C 
BRANCH   5   6
ATOM      6  C   UNL     1      22.598  -3.245  36.789  1.00  0.00     0.000 C 
BRANCH   6   7
ATOM      7  C   UNL     1      22.162  -4.600  36.203  1.00  0.00     0.000 C 
BRANCH   7   8
ATOM      8  C   UNL     1      22.817  -4.971  34.858  1.00  0.00     0.000 C 
BRANCH   8   9
ATOM      9  C   UNL     1      23.126  -6.471  34.674  1.00  0.00     0.000 C 
BRANCH   9  10
ATOM     10  C   UNL     1      24.613  -6.810  34.448  1.00  0.00     0.000 C 
BRANCH  10  11
ATOM     11  C   UNL     1      25.565  -5.600  34.438  1.00  0.00     0.000 C 
BRANCH  11  12
ATOM     12  C   UNL     1      26.685  -5.653  35.494  1.00  0.00     0.000 C 
BRANCH  12  13
ATOM     13  C   UNL     1      27.591  -4.403  35.497  1.00  0.00     0.006 C 
BRANCH  13  14
ATOM     14  C   UNL     1      27.933  -3.932  36.917  1.00  0.00     0.053 C 
BRANCH  14  15
ATOM     15  C   UNL     1      29.406  -4.017  37.161  1.00  0.00     0.041 C 
ATOM     16  O   UNL     1      29.962  -5.139  37.298  1.00  0.00    -0.550 OA
ATOM     17  O   UNL     1      30.172  -2.858  37.212  1.00  0.00    -0.550 OA
ENDBRANCH  14  15
ENDBRANCH  13  14
ENDBRANCH  12  13
ENDBRANCH  11  12
ENDBRANCH  10  11
ENDBRANCH   9  10
ENDBRANCH   8   9
ENDBRANCH   7   8
ENDBRANCH   6   7
ENDBRANCH   5   6
ENDBRANCH   4   5
ENDBRANCH   3   4
ENDBRANCH   2   3
ENDBRANCH   1   2
BRANCH   1  18
ATOM     18  C   UNL     1      26.726   2.238  38.899  1.00  0.00     0.000 C 
BRANCH  18  19
ATOM     19  C   UNL     1      26.112   1.800  40.243  1.00  0.00     0.000 C 
BRANCH  19  20
ATOM     20  C   UNL     1      25.275   2.893  40.941  1.00  0.00     0.000 C 
BRANCH  20  21
ATOM     21  C   UNL     1      25.028   2.603  42.433  1.00  0.00     0.000 C 
BRANCH  21  22
ATOM     22  C   UNL     1      26.250   1.976  43.122  1.00  0.00     0.000 C 
BRANCH  22  23
ATOM     23  C   UNL     1      25.903   0.686  43.886  1.00  0.00     0.000 C 
BRANCH  23  24
ATOM     24  C   UNL     1      26.253  -0.588  43.097  1.00  0.00    -0.000 C 
BRANCH  24  25
ATOM     25  C   UNL     1      27.691  -1.111  43.302  1.00  0.00    -0.000 C 
BRANCH  25  26
ATOM     26  C   UNL     1      27.820  -2.318  44.246  1.00  0.00    -0.000 C 
BRANCH  26  27
ATOM     27  C   UNL     1      26.817  -3.437  43.932  1.00  0.00    -0.000 C 
BRANCH  27  28
ATOM     28  C   UNL     1      27.045  -4.642  44.857  1.00  0.00    -0.000 C 
BRANCH  28  29
ATOM     29  C   UNL     1      27.978  -4.319  46.036  1.00  0.00    -0.000 C 
BRANCH  29  30
ATOM     30  C   UNL     1      29.081  -5.365  46.290  1.00  0.00    -0.000 C 
BRANCH  30  31
ATOM     31  C   UNL     1      30.466  -4.743  46.567  1.00  0.00    -0.003 C 
ATOM     32  C   UNL     1      30.378  -3.260  46.921  1.00  0.00     0.004 C 
ENDBRANCH  30  31
ENDBRANCH  29  30
ENDBRANCH  28  29
ENDBRANCH  27  28
ENDBRANCH  26  27
ENDBRANCH  25  26
ENDBRANCH  24  25
ENDBRANCH  23  24
ENDBRANCH  22  23
ENDBRANCH  21  22
ENDBRANCH  20  21
ENDBRANCH  19  20
ENDBRANCH  18  19
ENDBRANCH   1  18
TORSDOF 28
ENDMDL
MODEL 9
REMARK VINA RESULT:    -4.807      1.785      4.592
REMARK INTER + INTRA:         -15.275
REMARK INTER:                 -13.177
REMARK INTRA:                  -2.098
REMARK UNBOUND:                -2.599
REMARK SMILES CCCCCCCCCCCCCCCCCCCCCCCCCCCCCC(=O)[O-]
REMARK SMILES IDX 16 1 17 2 18 3 19 4 20 5 21 6 22 7 23 8 24 9 25 10 26 11
REMARK SMILES IDX 27 12 28 13 29 14 30 15 31 16 32 17 15 18 14 19 13 20 12 21
REMARK SMILES IDX 11 22 10 23 9 24 8 25 7 26 6 27 5 28 4 29 3 30 2 31 1 32
REMARK H PARENT
REMARK Flexibility Score: inf
ROOT
ATOM      1  C   UNL     1      24.973   2.636  41.559  1.00  0.00     0.000 C 
ENDROOT
BRANCH   1   2
ATOM      2  C   UNL     1      26.205   2.848  42.459  1.00  0.00     0.000 C 
BRANCH   2   3
ATOM      3  C   UNL     1      26.317   1.796  43.574  1.00  0.00     0.000 C 
BRANCH   3   4
ATOM      4  C   UNL     1      26.360   0.375  42.990  1.00  0.00     0.000 C 
BRANCH   4   5
ATOM      5  C   UNL     1      27.125  -0.610  43.890  1.00  0.00     0.000 C 
BRANCH   5   6
ATOM      6  C   UNL     1      27.776  -1.754  43.094  1.00  0.00     0.000 C 
BRANCH   6   7
ATOM      7  C   UNL     1      27.672  -3.112  43.811  1.00  0.00     0.000 C 
BRANCH   7   8
ATOM      8  C   UNL     1      27.820  -3.054  45.345  1.00  0.00     0.000 C 
BRANCH   8   9
ATOM      9  C   UNL     1      27.092  -4.175  46.113  1.00  0.00     0.000 C 
BRANCH   9  10
ATOM     10  C   UNL     1      25.956  -4.871  45.336  1.00  0.00     0.000 C 
BRANCH  10  11
ATOM     11  C   UNL     1      25.399  -6.146  45.996  1.00  0.00     0.000 C 
BRANCH  11  12
ATOM     12  C   UNL     1      25.907  -6.406  47.427  1.00  0.00     0.000 C 
BRANCH  12  13
ATOM     13  C   UNL     1      24.776  -6.560  48.466  1.00  0.00     0.006 C 
BRANCH  13  14
ATOM     14  C   UNL     1      24.440  -5.235  49.164  1.00  0.00     0.053 C 
BRANCH  14  15
ATOM     15  C   UNL     1      23.011  -5.220  49.608  1.00  0.00     0.041 C 
ATOM     16  O   UNL     1      22.581  -4.280  50.327  1.00  0.00    -0.550 OA
ATOM     17  O   UNL     1      22.147  -6.232  49.206  1.00  0.00    -0.550 OA
ENDBRANCH  14  15
ENDBRANCH  13  14
ENDBRANCH  12  13
ENDBRANCH  11  12
ENDBRANCH  10  11
ENDBRANCH   9  10
ENDBRANCH   8   9
ENDBRANCH   7   8
ENDBRANCH   6   7
ENDBRANCH   5   6
ENDBRANCH   4   5
ENDBRANCH   3   4
ENDBRANCH   2   3
ENDBRANCH   1   2
BRANCH   1  18
ATOM     18  C   UNL     1      25.264   2.600  40.047  1.00  0.00     0.000 C 
BRANCH  18  19
ATOM     19  C   UNL     1      26.720   2.276  39.660  1.00  0.00     0.000 C 
BRANCH  19  20
ATOM     20  C   UNL     1      26.870   1.047  38.738  1.00  0.00     0.000 C 
BRANCH  20  21
ATOM     21  C   UNL     1      25.545   0.625  38.076  1.00  0.00     0.000 C 
BRANCH  21  22
ATOM     22  C   UNL     1      25.635  -0.751  37.398  1.00  0.00     0.000 C 
BRANCH  22  23
ATOM     23  C   UNL     1      24.350  -1.123  36.637  1.00  0.00     0.000 C 
BRANCH  23  24
ATOM     24  C   UNL     1      24.225  -2.634  36.379  1.00  0.00    -0.000 C 
BRANCH  24  25
ATOM     25  C   UNL     1      22.851  -3.246  36.726  1.00  0.00    -0.000 C 
BRANCH  25  26
ATOM     26  C   UNL     1      22.222  -4.111  35.621  1.00  0.00    -0.000 C 
BRANCH  26  27
ATOM     27  C   UNL     1      22.463  -5.614  35.822  1.00  0.00    -0.000 C 
BRANCH  27  28
ATOM     28  C   UNL     1      23.195  -6.211  34.611  1.00  0.00    -0.000 C 
BRANCH  28  29
ATOM     29  C   UNL     1      24.518  -6.894  34.994  1.00  0.00    -0.000 C 
BRANCH  29  30
ATOM     30  C   UNL     1      25.033  -6.554  36.406  1.00  0.00    -0.000 C 
BRANCH  30  31
ATOM     31  C   UNL     1      26.311  -5.689  36.404  1.00  0.00    -0.003 C 
ATOM     32  C   UNL     1      27.533  -6.455  36.906  1.00  0.00     0.004 C 
ENDBRANCH  30  31
ENDBRANCH  29  30
ENDBRANCH  28  29
ENDBRANCH  27  28
ENDBRANCH  26  27
ENDBRANCH  25  26
ENDBRANCH  24  25
ENDBRANCH  23  24
ENDBRANCH  22  23
ENDBRANCH  21  22
ENDBRANCH  20  21
ENDBRANCH  19  20
ENDBRANCH  18  19
ENDBRANCH   1  18
TORSDOF 28
ENDMDL
