MODEL 1
REMARK VINA RESULT:    -6.405      0.000      0.000
REMARK INTER + INTRA:          -7.622
REMARK INTER:                  -7.716
REMARK INTRA:                   0.094
REMARK UNBOUND:                 0.094
REMARK SMILES Oc1cc(O)c2cc(O)c(-c3ccc(O)c(O)c3)[o+]c2c1.[Cl-]
REMARK SMILES IDX 10 1 19 2 20 3 21 4 2 5 3 6 4 7 6 8 7 9 8 10 11 11 12 12
REMARK SMILES IDX 13 13 14 14 18 15 16 16 15 17 17 19 9 21 1 23 5 25
REMARK H PARENT 15 18 17 20 9 22 1 24 5 26
REMARK Flexibility Score: inf
ROOT
ATOM      1  C   UNL     1     -38.720  75.434 -26.029  1.00  0.00     0.402 A 
ATOM      2  O   UNL     1     -37.606  75.916 -25.484  1.00  0.00    -0.202 OA
ATOM      3  C   UNL     1     -36.388  75.581 -25.895  1.00  0.00     0.368 A 
ATOM      4  C   UNL     1     -35.278  76.143 -25.261  1.00  0.00     0.162 A 
ATOM      5  C   UNL     1     -33.985  75.810 -25.676  1.00  0.00     0.128 A 
ATOM      6  C   UNL     1     -33.803  74.911 -26.729  1.00  0.00     0.093 A 
ATOM      7  C   UNL     1     -34.899  74.334 -27.382  1.00  0.00     0.136 A 
ATOM      8  C   UNL     1     -36.213  74.667 -26.963  1.00  0.00     0.125 A 
ATOM      9  C   UNL     1     -37.371  74.128 -27.548  1.00  0.00     0.078 A 
ATOM     10  C   UNL     1     -38.634  74.500 -27.078  1.00  0.00     0.223 A 
ENDROOT
BRANCH   1  11
ATOM     11  C   UNL     1     -40.020  75.893 -25.487  1.00  0.00     0.087 A 
ATOM     12  C   UNL     1     -40.239  75.998 -24.104  1.00  0.00     0.022 A 
ATOM     13  C   UNL     1     -41.481  76.411 -23.616  1.00  0.00     0.051 A 
ATOM     14  C   UNL     1     -42.528  76.714 -24.493  1.00  0.00     0.157 A 
ATOM     15  C   UNL     1     -41.076  76.174 -26.367  1.00  0.00     0.068 A 
ATOM     16  C   UNL     1     -42.325  76.590 -25.887  1.00  0.00     0.158 A 
BRANCH  14  17
ATOM     17  O   UNL     1     -43.743  77.125 -23.940  1.00  0.00    -0.504 OA
ATOM     18  H   UNL     1     -43.822  77.770 -23.167  1.00  0.00     0.293 HD
ENDBRANCH  14  17
BRANCH  16  19
ATOM     19  O   UNL     1     -43.324  76.864 -26.823  1.00  0.00    -0.504 OA
ATOM     20  H   UNL     1     -43.281  76.588 -27.792  1.00  0.00     0.293 HD
ENDBRANCH  16  19
ENDBRANCH   1  11
BRANCH  10  21
ATOM     21  O   UNL     1     -39.781  73.928 -27.627  1.00  0.00    -0.500 OA
ATOM     22  H   UNL     1     -40.021  72.956 -27.466  1.00  0.00     0.294 HD
ENDBRANCH  10  21
BRANCH   5  23
ATOM     23  O   UNL     1     -32.872  76.366 -25.048  1.00  0.00    -0.507 OA
ATOM     24  H   UNL     1     -32.471  77.242 -25.361  1.00  0.00     0.293 HD
ENDBRANCH   5  23
BRANCH   7  25
ATOM     25  O   UNL     1     -34.632  73.448 -28.430  1.00  0.00    -0.507 OA
ATOM     26  H   UNL     1     -33.705  73.200 -28.743  1.00  0.00     0.293 HD
ENDBRANCH   7  25
TORSDOF 6
ENDMDL
MODEL 2
REMARK VINA RESULT:    -6.091      1.583      6.925
REMARK INTER + INTRA:          -7.243
REMARK INTER:                  -7.652
REMARK INTRA:                   0.409
REMARK UNBOUND:                 0.094
REMARK SMILES Oc1cc(O)c2cc(O)c(-c3ccc(O)c(O)c3)[o+]c2c1.[Cl-]
REMARK SMILES IDX 10 1 19 2 20 3 21 4 2 5 3 6 4 7 6 8 7 9 8 10 11 11 12 12
REMARK SMILES IDX 13 13 14 14 18 15 16 16 15 17 17 19 9 21 1 23 5 25
REMARK H PARENT 15 18 17 20 9 22 1 24 5 26
REMARK Flexibility Score: inf
ROOT
ATOM      1  C   UNL     1     -37.337  75.877 -26.760  1.00  0.00     0.402 A 
ATOM      2  O   UNL     1     -37.821  76.115 -25.543  1.00  0.00    -0.202 OA
ATOM      3  C   UNL     1     -39.119  76.117 -25.262  1.00  0.00     0.368 A 
ATOM      4  C   UNL     1     -39.531  76.375 -23.952  1.00  0.00     0.162 A 
ATOM      5  C   UNL     1     -40.891  76.379 -23.629  1.00  0.00     0.128 A 
ATOM      6  C   UNL     1     -41.843  76.125 -24.619  1.00  0.00     0.093 A 
ATOM      7  C   UNL     1     -41.456  75.863 -25.939  1.00  0.00     0.136 A 
ATOM      8  C   UNL     1     -40.077  75.859 -26.273  1.00  0.00     0.125 A 
ATOM      9  C   UNL     1     -39.597  75.621 -27.572  1.00  0.00     0.078 A 
ATOM     10  C   UNL     1     -38.223  75.638 -27.827  1.00  0.00     0.223 A 
ENDROOT
BRANCH   1  11
ATOM     11  C   UNL     1     -35.867  75.894 -26.944  1.00  0.00     0.087 A 
ATOM     12  C   UNL     1     -35.284  75.627 -28.194  1.00  0.00     0.022 A 
ATOM     13  C   UNL     1     -33.895  75.626 -28.337  1.00  0.00     0.051 A 
ATOM     14  C   UNL     1     -33.063  75.877 -27.241  1.00  0.00     0.157 A 
ATOM     15  C   UNL     1     -35.034  76.124 -25.839  1.00  0.00     0.068 A 
ATOM     16  C   UNL     1     -33.640  76.126 -25.974  1.00  0.00     0.158 A 
BRANCH  14  17
ATOM     17  O   UNL     1     -31.683  75.866 -27.453  1.00  0.00    -0.504 OA
ATOM     18  H   UNL     1     -31.188  75.114 -27.911  1.00  0.00     0.293 HD
ENDBRANCH  14  17
BRANCH  16  19
ATOM     19  O   UNL     1     -32.875  76.375 -24.833  1.00  0.00    -0.504 OA
ATOM     20  H   UNL     1     -32.708  77.296 -24.455  1.00  0.00     0.293 HD
ENDBRANCH  16  19
ENDBRANCH   1  11
BRANCH  10  21
ATOM     21  O   UNL     1     -37.750  75.451 -29.125  1.00  0.00    -0.500 OA
ATOM     22  H   UNL     1     -37.433  74.545 -29.451  1.00  0.00     0.294 HD
ENDBRANCH  10  21
BRANCH   5  23
ATOM     23  O   UNL     1     -41.309  76.636 -22.324  1.00  0.00    -0.507 OA
ATOM     24  H   UNL     1     -41.981  77.367 -22.119  1.00  0.00     0.293 HD
ENDBRANCH   5  23
BRANCH   7  25
ATOM     25  O   UNL     1     -42.469  75.614 -26.869  1.00  0.00    -0.507 OA
ATOM     26  H   UNL     1     -42.919  76.325 -27.427  1.00  0.00     0.293 HD
ENDBRANCH   7  25
TORSDOF 6
ENDMDL
MODEL 3
REMARK VINA RESULT:    -5.254      1.456      7.241
REMARK INTER + INTRA:          -6.235
REMARK INTER:                  -6.142
REMARK INTRA:                  -0.093
REMARK UNBOUND:                 0.094
REMARK SMILES Oc1cc(O)c2cc(O)c(-c3ccc(O)c(O)c3)[o+]c2c1.[Cl-]
REMARK SMILES IDX 10 1 19 2 20 3 21 4 2 5 3 6 4 7 6 8 7 9 8 10 11 11 12 12
REMARK SMILES IDX 13 13 14 14 18 15 16 16 15 17 17 19 9 21 1 23 5 25
REMARK H PARENT 15 18 17 20 9 22 1 24 5 26
REMARK Flexibility Score: inf
ROOT
ATOM      1  C   UNL     1     -38.463  75.928 -25.660  1.00  0.00     0.402 A 
ATOM      2  O   UNL     1     -39.492  75.547 -26.413  1.00  0.00    -0.202 OA
ATOM      3  C   UNL     1     -40.756  75.616 -26.009  1.00  0.00     0.368 A 
ATOM      4  C   UNL     1     -41.770  75.195 -26.874  1.00  0.00     0.162 A 
ATOM      5  C   UNL     1     -43.108  75.261 -26.475  1.00  0.00     0.128 A 
ATOM      6  C   UNL     1     -43.434  75.749 -25.208  1.00  0.00     0.093 A 
ATOM      7  C   UNL     1     -42.437  76.177 -24.323  1.00  0.00     0.136 A 
ATOM      8  C   UNL     1     -41.076  76.111 -24.722  1.00  0.00     0.125 A 
ATOM      9  C   UNL     1     -40.010  76.505 -23.897  1.00  0.00     0.078 A 
ATOM     10  C   UNL     1     -38.693  76.406 -24.357  1.00  0.00     0.223 A 
ENDROOT
BRANCH   1  11
ATOM     11  C   UNL     1     -37.099  75.810 -26.227  1.00  0.00     0.087 A 
ATOM     12  C   UNL     1     -36.212  76.898 -26.227  1.00  0.00     0.022 A 
ATOM     13  C   UNL     1     -34.940  76.770 -26.789  1.00  0.00     0.051 A 
ATOM     14  C   UNL     1     -34.533  75.563 -27.369  1.00  0.00     0.157 A 
ATOM     15  C   UNL     1     -36.702  74.607 -26.828  1.00  0.00     0.068 A 
ATOM     16  C   UNL     1     -35.428  74.468 -27.393  1.00  0.00     0.158 A 
BRANCH  14  17
ATOM     17  O   UNL     1     -33.247  75.500 -27.909  1.00  0.00    -0.504 OA
ATOM     18  H   UNL     1     -32.571  74.787 -27.676  1.00  0.00     0.293 HD
ENDBRANCH  14  17
BRANCH  16  19
ATOM     19  O   UNL     1     -35.098  73.237 -27.964  1.00  0.00    -0.504 OA
ATOM     20  H   UNL     1     -35.769  72.612 -28.385  1.00  0.00     0.293 HD
ENDBRANCH  16  19
ENDBRANCH   1  11
BRANCH  10  21
ATOM     21  O   UNL     1     -37.633  76.751 -23.520  1.00  0.00    -0.500 OA
ATOM     22  H   UNL     1     -37.186  76.070 -22.917  1.00  0.00     0.294 HD
ENDBRANCH  10  21
BRANCH   5  23
ATOM     23  O   UNL     1     -44.125  74.842 -27.332  1.00  0.00    -0.507 OA
ATOM     24  H   UNL     1     -44.842  75.481 -27.655  1.00  0.00     0.293 HD
ENDBRANCH   5  23
BRANCH   7  25
ATOM     25  O   UNL     1     -42.846  76.657 -23.075  1.00  0.00    -0.507 OA
ATOM     26  H   UNL     1     -43.573  77.344 -22.939  1.00  0.00     0.293 HD
ENDBRANCH   7  25
TORSDOF 6
ENDMDL
MODEL 4
REMARK VINA RESULT:    -5.145      4.055      6.328
REMARK INTER + INTRA:          -6.103
REMARK INTER:                  -5.757
REMARK INTRA:                  -0.346
REMARK UNBOUND:                 0.094
REMARK SMILES Oc1cc(O)c2cc(O)c(-c3ccc(O)c(O)c3)[o+]c2c1.[Cl-]
REMARK SMILES IDX 10 1 19 2 20 3 21 4 2 5 3 6 4 7 6 8 7 9 8 10 11 11 12 12
REMARK SMILES IDX 13 13 14 14 18 15 16 16 15 17 17 19 9 21 1 23 5 25
REMARK H PARENT 15 18 17 20 9 22 1 24 5 26
REMARK Flexibility Score: inf
ROOT
ATOM      1  C   UNL     1     -39.644  76.083 -21.977  1.00  0.00     0.402 A 
ATOM      2  O   UNL     1     -38.756  76.356 -22.931  1.00  0.00    -0.202 OA
ATOM      3  C   UNL     1     -39.072  76.438 -24.219  1.00  0.00     0.368 A 
ATOM      4  C   UNL     1     -38.071  76.732 -25.148  1.00  0.00     0.162 A 
ATOM      5  C   UNL     1     -38.376  76.828 -26.508  1.00  0.00     0.128 A 
ATOM      6  C   UNL     1     -39.689  76.629 -26.942  1.00  0.00     0.093 A 
ATOM      7  C   UNL     1     -40.711  76.333 -26.032  1.00  0.00     0.136 A 
ATOM      8  C   UNL     1     -40.406  76.233 -24.650  1.00  0.00     0.125 A 
ATOM      9  C   UNL     1     -41.362  75.927 -23.668  1.00  0.00     0.078 A 
ATOM     10  C   UNL     1     -40.985  75.840 -22.324  1.00  0.00     0.223 A 
ENDROOT
BRANCH   1  11
ATOM     11  C   UNL     1     -39.169  76.028 -20.575  1.00  0.00     0.087 A 
ATOM     12  C   UNL     1     -39.315  77.125 -19.711  1.00  0.00     0.022 A 
ATOM     13  C   UNL     1     -38.839  77.057 -18.400  1.00  0.00     0.051 A 
ATOM     14  C   UNL     1     -38.199  75.905 -17.931  1.00  0.00     0.157 A 
ATOM     15  C   UNL     1     -38.508  74.881 -20.114  1.00  0.00     0.068 A 
ATOM     16  C   UNL     1     -38.027  74.803 -18.801  1.00  0.00     0.158 A 
BRANCH  14  17
ATOM     17  O   UNL     1     -37.750  75.901 -16.608  1.00  0.00    -0.504 OA
ATOM     18  H   UNL     1     -38.351  75.763 -15.808  1.00  0.00     0.293 HD
ENDBRANCH  14  17
BRANCH  16  19
ATOM     19  O   UNL     1     -37.390  73.624 -18.407  1.00  0.00    -0.504 OA
ATOM     20  H   UNL     1     -36.745  73.563 -17.633  1.00  0.00     0.293 HD
ENDBRANCH  16  19
ENDBRANCH   1  11
BRANCH  10  21
ATOM     21  O   UNL     1     -41.925  75.488 -21.356  1.00  0.00    -0.500 OA
ATOM     22  H   UNL     1     -42.234  74.530 -21.236  1.00  0.00     0.294 HD
ENDBRANCH  10  21
BRANCH   5  23
ATOM     23  O   UNL     1     -37.382  77.120 -27.440  1.00  0.00    -0.507 OA
ATOM     24  H   UNL     1     -36.641  77.781 -27.234  1.00  0.00     0.293 HD
ENDBRANCH   5  23
BRANCH   7  25
ATOM     25  O   UNL     1     -41.998  76.152 -26.546  1.00  0.00    -0.507 OA
ATOM     26  H   UNL     1     -42.754  76.814 -26.438  1.00  0.00     0.293 HD
ENDBRANCH   7  25
TORSDOF 6
ENDMDL
MODEL 5
REMARK VINA RESULT:    -5.086      1.092      2.597
REMARK INTER + INTRA:          -6.032
REMARK INTER:                  -6.283
REMARK INTRA:                   0.251
REMARK UNBOUND:                 0.094
REMARK SMILES Oc1cc(O)c2cc(O)c(-c3ccc(O)c(O)c3)[o+]c2c1.[Cl-]
REMARK SMILES IDX 10 1 19 2 20 3 21 4 2 5 3 6 4 7 6 8 7 9 8 10 11 11 12 12
REMARK SMILES IDX 13 13 14 14 18 15 16 16 15 17 17 19 9 21 1 23 5 25
REMARK H PARENT 15 18 17 20 9 22 1 24 5 26
REMARK Flexibility Score: inf
ROOT
ATOM      1  C   UNL     1     -38.502  75.735 -25.206  1.00  0.00     0.402 A 
ATOM      2  O   UNL     1     -38.074  75.047 -26.261  1.00  0.00    -0.202 OA
ATOM      3  C   UNL     1     -36.788  74.875 -26.547  1.00  0.00     0.368 A 
ATOM      4  C   UNL     1     -36.435  74.134 -27.677  1.00  0.00     0.162 A 
ATOM      5  C   UNL     1     -35.089  73.935 -27.998  1.00  0.00     0.128 A 
ATOM      6  C   UNL     1     -34.092  74.480 -27.186  1.00  0.00     0.093 A 
ATOM      7  C   UNL     1     -34.419  75.227 -26.047  1.00  0.00     0.136 A 
ATOM      8  C   UNL     1     -35.784  75.433 -25.718  1.00  0.00     0.125 A 
ATOM      9  C   UNL     1     -36.206  76.179 -24.605  1.00  0.00     0.078 A 
ATOM     10  C   UNL     1     -37.570  76.344 -24.346  1.00  0.00     0.223 A 
ENDROOT
BRANCH   1  11
ATOM     11  C   UNL     1     -39.964  75.847 -24.990  1.00  0.00     0.087 A 
ATOM     12  C   UNL     1     -40.498  76.085 -23.713  1.00  0.00     0.022 A 
ATOM     13  C   UNL     1     -41.880  76.163 -23.531  1.00  0.00     0.051 A 
ATOM     14  C   UNL     1     -42.754  75.996 -24.611  1.00  0.00     0.157 A 
ATOM     15  C   UNL     1     -40.839  75.657 -26.070  1.00  0.00     0.068 A 
ATOM     16  C   UNL     1     -42.226  75.735 -25.897  1.00  0.00     0.158 A 
BRANCH  14  17
ATOM     17  O   UNL     1     -44.125  76.091 -24.362  1.00  0.00    -0.504 OA
ATOM     18  H   UNL     1     -44.799  76.426 -25.035  1.00  0.00     0.293 HD
ENDBRANCH  14  17
BRANCH  16  19
ATOM     19  O   UNL     1     -43.035  75.547 -27.020  1.00  0.00    -0.504 OA
ATOM     20  H   UNL     1     -42.856  74.859 -27.736  1.00  0.00     0.293 HD
ENDBRANCH  16  19
ENDBRANCH   1  11
BRANCH  10  21
ATOM     21  O   UNL     1     -37.988  77.125 -23.270  1.00  0.00    -0.500 OA
ATOM     22  H   UNL     1     -37.417  77.878 -22.904  1.00  0.00     0.294 HD
ENDBRANCH  10  21
BRANCH   5  23
ATOM     23  O   UNL     1     -34.730  73.198 -29.125  1.00  0.00    -0.507 OA
ATOM     24  H   UNL     1     -33.775  72.895 -29.277  1.00  0.00     0.293 HD
ENDBRANCH   5  23
BRANCH   7  25
ATOM     25  O   UNL     1     -33.363  75.734 -25.285  1.00  0.00    -0.507 OA
ATOM     26  H   UNL     1     -32.704  75.164 -24.773  1.00  0.00     0.293 HD
ENDBRANCH   7  25
TORSDOF 6
ENDMDL
MODEL 6
REMARK VINA RESULT:    -4.977      1.768      2.334
REMARK INTER + INTRA:          -5.901
REMARK INTER:                  -6.268
REMARK INTRA:                   0.368
REMARK UNBOUND:                 0.094
REMARK SMILES Oc1cc(O)c2cc(O)c(-c3ccc(O)c(O)c3)[o+]c2c1.[Cl-]
REMARK SMILES IDX 10 1 19 2 20 3 21 4 2 5 3 6 4 7 6 8 7 9 8 10 11 11 12 12
REMARK SMILES IDX 13 13 14 14 18 15 16 16 15 17 17 19 9 21 1 23 5 25
REMARK H PARENT 15 18 17 20 9 22 1 24 5 26
REMARK Flexibility Score: inf
ROOT
ATOM      1  C   UNL     1     -38.779  76.179 -24.702  1.00  0.00     0.402 A 
ATOM      2  O   UNL     1     -37.469  76.166 -24.467  1.00  0.00    -0.202 OA
ATOM      3  C   UNL     1     -36.559  76.007 -25.422  1.00  0.00     0.368 A 
ATOM      4  C   UNL     1     -35.205  76.010 -25.078  1.00  0.00     0.162 A 
ATOM      5  C   UNL     1     -34.227  75.848 -26.063  1.00  0.00     0.128 A 
ATOM      6  C   UNL     1     -34.604  75.682 -27.397  1.00  0.00     0.093 A 
ATOM      7  C   UNL     1     -35.954  75.675 -27.768  1.00  0.00     0.136 A 
ATOM      8  C   UNL     1     -36.951  75.837 -26.772  1.00  0.00     0.125 A 
ATOM      9  C   UNL     1     -38.328  75.830 -27.049  1.00  0.00     0.078 A 
ATOM     10  C   UNL     1     -39.253  75.991 -26.013  1.00  0.00     0.223 A 
ENDROOT
BRANCH   1  11
ATOM     11  C   UNL     1     -39.694  76.374 -23.553  1.00  0.00     0.087 A 
ATOM     12  C   UNL     1     -39.251  76.966 -22.359  1.00  0.00     0.022 A 
ATOM     13  C   UNL     1     -40.126  77.118 -21.282  1.00  0.00     0.051 A 
ATOM     14  C   UNL     1     -41.450  76.674 -21.368  1.00  0.00     0.157 A 
ATOM     15  C   UNL     1     -41.015  75.908 -23.634  1.00  0.00     0.068 A 
ATOM     16  C   UNL     1     -41.900  76.057 -22.558  1.00  0.00     0.158 A 
BRANCH  14  17
ATOM     17  O   UNL     1     -42.275  76.861 -20.255  1.00  0.00    -0.504 OA
ATOM     18  H   UNL     1     -43.151  76.380 -20.116  1.00  0.00     0.293 HD
ENDBRANCH  14  17
BRANCH  16  19
ATOM     19  O   UNL     1     -43.203  75.581 -22.715  1.00  0.00    -0.504 OA
ATOM     20  H   UNL     1     -43.477  74.906 -23.414  1.00  0.00     0.293 HD
ENDBRANCH  16  19
ENDBRANCH   1  11
BRANCH  10  21
ATOM     21  O   UNL     1     -40.620  75.934 -26.282  1.00  0.00    -0.500 OA
ATOM     22  H   UNL     1     -41.309  75.893 -25.539  1.00  0.00     0.294 HD
ENDBRANCH  10  21
BRANCH   5  23
ATOM     23  O   UNL     1     -32.874  75.850 -25.726  1.00  0.00    -0.507 OA
ATOM     24  H   UNL     1     -32.171  76.208 -26.362  1.00  0.00     0.293 HD
ENDBRANCH   5  23
BRANCH   7  25
ATOM     25  O   UNL     1     -36.247  75.508 -29.125  1.00  0.00    -0.507 OA
ATOM     26  H   UNL     1     -35.580  75.206 -29.820  1.00  0.00     0.293 HD
ENDBRANCH   7  25
TORSDOF 6
ENDMDL
MODEL 7
REMARK VINA RESULT:    -4.489      7.498     10.156
REMARK INTER + INTRA:          -5.313
REMARK INTER:                  -5.354
REMARK INTRA:                   0.041
REMARK UNBOUND:                 0.094
REMARK SMILES Oc1cc(O)c2cc(O)c(-c3ccc(O)c(O)c3)[o+]c2c1.[Cl-]
REMARK SMILES IDX 10 1 19 2 20 3 21 4 2 5 3 6 4 7 6 8 7 9 8 10 11 11 12 12
REMARK SMILES IDX 13 13 14 14 18 15 16 16 15 17 17 19 9 21 1 23 5 25
REMARK H PARENT 15 18 17 20 9 22 1 24 5 26
REMARK Flexibility Score: inf
ROOT
ATOM      1  C   UNL     1     -36.879  72.248 -18.950  1.00  0.00     0.402 A 
ATOM      2  O   UNL     1     -37.958  72.395 -19.716  1.00  0.00    -0.202 OA
ATOM      3  C   UNL     1     -38.601  73.549 -19.856  1.00  0.00     0.368 A 
ATOM      4  C   UNL     1     -39.724  73.606 -20.686  1.00  0.00     0.162 A 
ATOM      5  C   UNL     1     -40.417  74.807 -20.854  1.00  0.00     0.128 A 
ATOM      6  C   UNL     1     -39.987  75.957 -20.188  1.00  0.00     0.093 A 
ATOM      7  C   UNL     1     -38.865  75.927 -19.351  1.00  0.00     0.136 A 
ATOM      8  C   UNL     1     -38.158  74.710 -19.176  1.00  0.00     0.125 A 
ATOM      9  C   UNL     1     -37.032  74.582 -18.346  1.00  0.00     0.078 A 
ATOM     10  C   UNL     1     -36.390  73.346 -18.220  1.00  0.00     0.223 A 
ENDROOT
BRANCH   1  11
ATOM     11  C   UNL     1     -36.245  70.911 -18.885  1.00  0.00     0.087 A 
ATOM     12  C   UNL     1     -37.006  69.750 -18.676  1.00  0.00     0.022 A 
ATOM     13  C   UNL     1     -36.383  68.504 -18.594  1.00  0.00     0.051 A 
ATOM     14  C   UNL     1     -34.993  68.391 -18.706  1.00  0.00     0.157 A 
ATOM     15  C   UNL     1     -34.849  70.803 -18.975  1.00  0.00     0.068 A 
ATOM     16  C   UNL     1     -34.215  69.557 -18.895  1.00  0.00     0.158 A 
BRANCH  14  17
ATOM     17  O   UNL     1     -34.433  67.114 -18.621  1.00  0.00    -0.504 OA
ATOM     18  H   UNL     1     -34.097  66.702 -17.762  1.00  0.00     0.293 HD
ENDBRANCH  14  17
BRANCH  16  19
ATOM     19  O   UNL     1     -32.823  69.525 -19.006  1.00  0.00    -0.504 OA
ATOM     20  H   UNL     1     -32.253  70.335 -19.197  1.00  0.00     0.293 HD
ENDBRANCH  16  19
ENDBRANCH   1  11
BRANCH  10  21
ATOM     21  O   UNL     1     -35.302  73.209 -17.358  1.00  0.00    -0.500 OA
ATOM     22  H   UNL     1     -35.363  73.461 -16.378  1.00  0.00     0.294 HD
ENDBRANCH  10  21
BRANCH   5  23
ATOM     23  O   UNL     1     -41.538  74.871 -21.679  1.00  0.00    -0.507 OA
ATOM     24  H   UNL     1     -42.280  75.541 -21.513  1.00  0.00     0.293 HD
ENDBRANCH   5  23
BRANCH   7  25
ATOM     25  O   UNL     1     -38.497  77.122 -18.725  1.00  0.00    -0.507 OA
ATOM     26  H   UNL     1     -38.285  77.980 -19.214  1.00  0.00     0.293 HD
ENDBRANCH   7  25
TORSDOF 6
ENDMDL
