MODEL 1
REMARK VINA RESULT:    -4.963      0.000      0.000
REMARK INTER + INTRA:          -7.849
REMARK INTER:                  -7.574
REMARK INTRA:                  -0.275
REMARK UNBOUND:                -0.275
REMARK SMILES CC(=O)CCC=C(C)CCC=C(C)CCC=C(C)C
REMARK SMILES IDX 10 1 11 2 12 3 13 4 14 5 15 6 16 7 18 8 17 9 19 10 9 11 7 12
REMARK SMILES IDX 6 13 8 14 5 15 4 16 2 17 3 18 1 19
REMARK H PARENT
REMARK Flexibility Score: inf
ROOT
ATOM      1  C   UNL     1     105.359  47.854  59.313  1.00  0.00     0.032 C 
ENDROOT
BRANCH   1   2
ATOM      2  C   UNL     1     105.599  48.255  60.749  1.00  0.00    -0.028 C 
ATOM      3  C   UNL     1     106.766  48.076  61.410  1.00  0.00    -0.077 C 
ATOM      4  C   UNL     1     107.989  47.507  60.731  1.00  0.00     0.039 C 
BRANCH   3   5
ATOM      5  C   UNL     1     106.850  48.469  62.871  1.00  0.00     0.034 C 
BRANCH   5   6
ATOM      6  C   UNL     1     108.286  48.365  63.404  1.00  0.00     0.032 C 
BRANCH   6   7
ATOM      7  C   UNL     1     108.839  49.717  63.786  1.00  0.00    -0.028 C 
ATOM      8  C   UNL     1     106.886  50.290  65.246  1.00  0.00     0.039 C 
ATOM      9  C   UNL     1     108.201  50.607  64.580  1.00  0.00    -0.080 C 
ATOM     10  C   UNL     1     108.834  51.945  64.863  1.00  0.00     0.039 C 
ENDBRANCH   6   7
ENDBRANCH   5   6
ENDBRANCH   3   5
ENDBRANCH   1   2
BRANCH   1  11
ATOM     11  C   UNL     1     103.871  47.933  58.945  1.00  0.00     0.034 C 
BRANCH  11  12
ATOM     12  C   UNL     1     103.648  48.662  57.636  1.00  0.00    -0.077 C 
ATOM     13  C   UNL     1     104.238  48.194  56.513  1.00  0.00    -0.028 C 
ATOM     14  C   UNL     1     102.780  49.899  57.622  1.00  0.00     0.039 C 
BRANCH  13  15
ATOM     15  C   UNL     1     104.074  48.804  55.144  1.00  0.00     0.035 C 
BRANCH  15  16
ATOM     16  C   UNL     1     104.207  47.736  54.054  1.00  0.00     0.079 C 
BRANCH  16  17
ATOM     17  C   UNL     1     102.851  47.325  53.544  1.00  0.00     0.130 C 
ATOM     18  O   UNL     1     102.432  47.799  52.498  1.00  0.00    -0.300 OA
ATOM     19  C   UNL     1     102.003  46.336  54.287  1.00  0.00     0.087 C 
ENDBRANCH  16  17
ENDBRANCH  15  16
ENDBRANCH  13  15
ENDBRANCH  11  12
ENDBRANCH   1  11
TORSDOF 9
ENDMDL
MODEL 2
REMARK VINA RESULT:    -4.899      1.150      1.936
REMARK INTER + INTRA:          -7.751
REMARK INTER:                  -6.988
REMARK INTRA:                  -0.763
REMARK UNBOUND:                -0.275
REMARK SMILES CC(=O)CCC=C(C)CCC=C(C)CCC=C(C)C
REMARK SMILES IDX 10 1 11 2 12 3 13 4 14 5 15 6 16 7 18 8 17 9 19 10 9 11 7 12
REMARK SMILES IDX 6 13 8 14 5 15 4 16 2 17 3 18 1 19
REMARK H PARENT
REMARK Flexibility Score: inf
ROOT
ATOM      1  C   UNL     1     105.244  47.850  59.237  1.00  0.00     0.032 C 
ENDROOT
BRANCH   1   2
ATOM      2  C   UNL     1     105.368  48.247  60.689  1.00  0.00    -0.028 C 
ATOM      3  C   UNL     1     106.522  48.222  61.395  1.00  0.00    -0.077 C 
ATOM      4  C   UNL     1     107.840  47.853  60.756  1.00  0.00     0.039 C 
BRANCH   3   5
ATOM      5  C   UNL     1     106.493  48.587  62.865  1.00  0.00     0.034 C 
BRANCH   5   6
ATOM      6  C   UNL     1     107.888  48.961  63.384  1.00  0.00     0.032 C 
BRANCH   6   7
ATOM      7  C   UNL     1     108.156  48.364  64.744  1.00  0.00    -0.028 C 
ATOM      8  C   UNL     1     108.479  46.047  63.850  1.00  0.00     0.039 C 
ATOM      9  C   UNL     1     108.383  47.050  64.972  1.00  0.00    -0.080 C 
ATOM     10  C   UNL     1     108.602  46.561  66.380  1.00  0.00     0.039 C 
ENDBRANCH   6   7
ENDBRANCH   5   6
ENDBRANCH   3   5
ENDBRANCH   1   2
BRANCH   1  11
ATOM     11  C   UNL     1     103.787  47.917  58.756  1.00  0.00     0.034 C 
BRANCH  11  12
ATOM     12  C   UNL     1     103.657  48.668  57.446  1.00  0.00    -0.077 C 
ATOM     13  C   UNL     1     104.343  48.230  56.365  1.00  0.00    -0.028 C 
ATOM     14  C   UNL     1     102.772  49.892  57.384  1.00  0.00     0.039 C 
BRANCH  13  15
ATOM     15  C   UNL     1     104.277  48.864  54.998  1.00  0.00     0.035 C 
BRANCH  15  16
ATOM     16  C   UNL     1     104.281  47.793  53.903  1.00  0.00     0.079 C 
BRANCH  16  17
ATOM     17  C   UNL     1     102.874  47.420  53.519  1.00  0.00     0.130 C 
ATOM     18  O   UNL     1     102.410  47.829  52.464  1.00  0.00    -0.300 OA
ATOM     19  C   UNL     1     102.029  46.547  54.397  1.00  0.00     0.087 C 
ENDBRANCH  16  17
ENDBRANCH  15  16
ENDBRANCH  13  15
ENDBRANCH  11  12
ENDBRANCH   1  11
TORSDOF 9
ENDMDL
MODEL 3
REMARK VINA RESULT:    -4.800      3.235      9.225
REMARK INTER + INTRA:          -7.599
REMARK INTER:                  -6.697
REMARK INTRA:                  -0.902
REMARK UNBOUND:                -0.275
REMARK SMILES CC(=O)CCC=C(C)CCC=C(C)CCC=C(C)C
REMARK SMILES IDX 10 1 11 2 12 3 13 4 14 5 15 6 16 7 18 8 17 9 19 10 9 11 7 12
REMARK SMILES IDX 6 13 8 14 5 15 4 16 2 17 3 18 1 19
REMARK H PARENT
REMARK Flexibility Score: inf
ROOT
ATOM      1  C   UNL     1     105.884  48.179  60.737  1.00  0.00     0.032 C 
ENDROOT
BRANCH   1   2
ATOM      2  C   UNL     1     105.275  47.891  59.386  1.00  0.00    -0.028 C 
ATOM      3  C   UNL     1     103.947  47.859  59.135  1.00  0.00    -0.077 C 
ATOM      4  C   UNL     1     102.925  48.189  60.197  1.00  0.00     0.039 C 
BRANCH   3   5
ATOM      5  C   UNL     1     103.470  47.494  57.743  1.00  0.00     0.034 C 
BRANCH   5   6
ATOM      6  C   UNL     1     104.248  48.254  56.660  1.00  0.00     0.032 C 
BRANCH   6   7
ATOM      7  C   UNL     1     103.736  47.932  55.277  1.00  0.00    -0.028 C 
ATOM      8  C   UNL     1     105.032  49.775  54.184  1.00  0.00     0.039 C 
ATOM      9  C   UNL     1     104.049  48.632  54.162  1.00  0.00    -0.080 C 
ATOM     10  C   UNL     1     103.447  48.240  52.838  1.00  0.00     0.039 C 
ENDBRANCH   6   7
ENDBRANCH   5   6
ENDBRANCH   3   5
ENDBRANCH   1   2
BRANCH   1  11
ATOM     11  C   UNL     1     107.342  47.703  60.814  1.00  0.00     0.034 C 
BRANCH  11  12
ATOM     12  C   UNL     1     108.053  48.249  62.036  1.00  0.00    -0.077 C 
ATOM     13  C   UNL     1     107.702  47.793  63.260  1.00  0.00    -0.028 C 
ATOM     14  C   UNL     1     109.128  49.295  61.855  1.00  0.00     0.039 C 
BRANCH  13  15
ATOM     15  C   UNL     1     108.350  48.228  64.551  1.00  0.00     0.035 C 
BRANCH  15  16
ATOM     16  C   UNL     1     107.339  48.939  65.454  1.00  0.00     0.079 C 
BRANCH  16  17
ATOM     17  C   UNL     1     107.150  50.369  65.019  1.00  0.00     0.130 C 
ATOM     18  O   UNL     1     106.021  50.795  64.826  1.00  0.00    -0.300 OA
ATOM     19  C   UNL     1     108.319  51.287  64.823  1.00  0.00     0.087 C 
ENDBRANCH  16  17
ENDBRANCH  15  16
ENDBRANCH  13  15
ENDBRANCH  11  12
ENDBRANCH   1  11
TORSDOF 9
ENDMDL
MODEL 4
REMARK VINA RESULT:    -4.753      3.838      9.242
REMARK INTER + INTRA:          -7.528
REMARK INTER:                  -6.507
REMARK INTRA:                  -1.020
REMARK UNBOUND:                -0.275
REMARK SMILES CC(=O)CCC=C(C)CCC=C(C)CCC=C(C)C
REMARK SMILES IDX 10 1 11 2 12 3 13 4 14 5 15 6 16 7 18 8 17 9 19 10 9 11 7 12
REMARK SMILES IDX 6 13 8 14 5 15 4 16 2 17 3 18 1 19
REMARK H PARENT
REMARK Flexibility Score: inf
ROOT
ATOM      1  C   UNL     1     105.615  48.190  60.497  1.00  0.00     0.032 C 
ENDROOT
BRANCH   1   2
ATOM      2  C   UNL     1     105.106  47.845  59.118  1.00  0.00    -0.028 C 
ATOM      3  C   UNL     1     103.800  47.832  58.763  1.00  0.00    -0.077 C 
ATOM      4  C   UNL     1     102.709  48.242  59.724  1.00  0.00     0.039 C 
BRANCH   3   5
ATOM      5  C   UNL     1     103.424  47.407  57.359  1.00  0.00     0.034 C 
BRANCH   5   6
ATOM      6  C   UNL     1     102.769  48.553  56.575  1.00  0.00     0.032 C 
BRANCH   6   7
ATOM      7  C   UNL     1     103.796  49.389  55.850  1.00  0.00    -0.028 C 
ATOM      8  C   UNL     1     103.598  48.088  53.719  1.00  0.00     0.039 C 
ATOM      9  C   UNL     1     104.206  49.166  54.580  1.00  0.00    -0.080 C 
ATOM     10  C   UNL     1     105.266  50.046  53.970  1.00  0.00     0.039 C 
ENDBRANCH   6   7
ENDBRANCH   5   6
ENDBRANCH   3   5
ENDBRANCH   1   2
BRANCH   1  11
ATOM     11  C   UNL     1     107.092  47.806  60.666  1.00  0.00     0.034 C 
BRANCH  11  12
ATOM     12  C   UNL     1     107.672  48.339  61.961  1.00  0.00    -0.077 C 
ATOM     13  C   UNL     1     106.833  48.681  62.966  1.00  0.00    -0.028 C 
ATOM     14  C   UNL     1     109.170  48.485  62.091  1.00  0.00     0.039 C 
BRANCH  13  15
ATOM     15  C   UNL     1     107.279  49.191  64.313  1.00  0.00     0.035 C 
BRANCH  15  16
ATOM     16  C   UNL     1     106.877  48.215  65.423  1.00  0.00     0.079 C 
BRANCH  16  17
ATOM     17  C   UNL     1     108.020  47.296  65.762  1.00  0.00     0.130 C 
ATOM     18  O   UNL     1     108.717  47.537  66.738  1.00  0.00    -0.300 OA
ATOM     19  C   UNL     1     108.320  46.083  64.934  1.00  0.00     0.087 C 
ENDBRANCH  16  17
ENDBRANCH  15  16
ENDBRANCH  13  15
ENDBRANCH  11  12
ENDBRANCH   1  11
TORSDOF 9
ENDMDL
MODEL 5
REMARK VINA RESULT:    -4.497     15.760     17.550
REMARK INTER + INTRA:          -7.137
REMARK INTER:                  -5.921
REMARK INTRA:                  -1.216
REMARK UNBOUND:                -0.275
REMARK SMILES CC(=O)CCC=C(C)CCC=C(C)CCC=C(C)C
REMARK SMILES IDX 10 1 11 2 12 3 13 4 14 5 15 6 16 7 18 8 17 9 19 10 9 11 7 12
REMARK SMILES IDX 6 13 8 14 5 15 4 16 2 17 3 18 1 19
REMARK H PARENT
REMARK Flexibility Score: inf
ROOT
ATOM      1  C   UNL     1     111.141  35.169  54.941  1.00  0.00     0.032 C 
ENDROOT
BRANCH   1   2
ATOM      2  C   UNL     1     112.579  34.814  54.645  1.00  0.00    -0.028 C 
ATOM      3  C   UNL     1     112.973  33.945  53.687  1.00  0.00    -0.077 C 
ATOM      4  C   UNL     1     111.986  33.288  52.751  1.00  0.00     0.039 C 
BRANCH   3   5
ATOM      5  C   UNL     1     114.448  33.632  53.539  1.00  0.00     0.034 C 
BRANCH   5   6
ATOM      6  C   UNL     1     114.957  33.951  52.126  1.00  0.00     0.032 C 
BRANCH   6   7
ATOM      7  C   UNL     1     114.921  35.435  51.843  1.00  0.00    -0.028 C 
ATOM      8  C   UNL     1     113.312  35.203  49.938  1.00  0.00     0.039 C 
ATOM      9  C   UNL     1     114.218  36.005  50.838  1.00  0.00    -0.080 C 
ATOM     10  C   UNL     1     114.287  37.495  50.628  1.00  0.00     0.039 C 
ENDBRANCH   6   7
ENDBRANCH   5   6
ENDBRANCH   3   5
ENDBRANCH   1   2
BRANCH   1  11
ATOM     11  C   UNL     1     110.764  34.841  56.392  1.00  0.00     0.034 C 
BRANCH  11  12
ATOM     12  C   UNL     1     109.636  33.832  56.470  1.00  0.00    -0.077 C 
ATOM     13  C   UNL     1     108.854  33.804  57.574  1.00  0.00    -0.028 C 
ATOM     14  C   UNL     1     109.420  32.878  55.318  1.00  0.00     0.039 C 
BRANCH  13  15
ATOM     15  C   UNL     1     107.681  32.875  57.766  1.00  0.00     0.035 C 
BRANCH  15  16
ATOM     16  C   UNL     1     106.963  33.173  59.085  1.00  0.00     0.079 C 
BRANCH  16  17
ATOM     17  C   UNL     1     105.472  33.052  58.918  1.00  0.00     0.130 C 
ATOM     18  O   UNL     1     104.990  33.045  57.794  1.00  0.00    -0.300 OA
ATOM     19  C   UNL     1     104.560  32.930  60.102  1.00  0.00     0.087 C 
ENDBRANCH  16  17
ENDBRANCH  15  16
ENDBRANCH  13  15
ENDBRANCH  11  12
ENDBRANCH   1  11
TORSDOF 9
ENDMDL
MODEL 6
REMARK VINA RESULT:    -4.285     15.736     17.142
REMARK INTER + INTRA:          -6.814
REMARK INTER:                  -6.252
REMARK INTRA:                  -0.562
REMARK UNBOUND:                -0.275
REMARK SMILES CC(=O)CCC=C(C)CCC=C(C)CCC=C(C)C
REMARK SMILES IDX 10 1 11 2 12 3 13 4 14 5 15 6 16 7 18 8 17 9 19 10 9 11 7 12
REMARK SMILES IDX 6 13 8 14 5 15 4 16 2 17 3 18 1 19
REMARK H PARENT
REMARK Flexibility Score: inf
ROOT
ATOM      1  C   UNL     1     107.036  32.925  58.054  1.00  0.00     0.032 C 
ENDROOT
BRANCH   1   2
ATOM      2  C   UNL     1     107.670  33.097  56.695  1.00  0.00    -0.028 C 
ATOM      3  C   UNL     1     109.002  33.175  56.474  1.00  0.00    -0.077 C 
ATOM      4  C   UNL     1     110.006  33.022  57.592  1.00  0.00     0.039 C 
BRANCH   3   5
ATOM      5  C   UNL     1     109.502  33.411  55.064  1.00  0.00     0.034 C 
BRANCH   5   6
ATOM      6  C   UNL     1     111.018  33.649  55.031  1.00  0.00     0.032 C 
BRANCH   6   7
ATOM      7  C   UNL     1     111.490  34.048  53.653  1.00  0.00    -0.028 C 
ATOM      8  C   UNL     1     113.914  33.766  54.218  1.00  0.00     0.039 C 
ATOM      9  C   UNL     1     112.789  34.143  53.287  1.00  0.00    -0.080 C 
ATOM     10  C   UNL     1     113.142  34.587  51.892  1.00  0.00     0.039 C 
ENDBRANCH   6   7
ENDBRANCH   5   6
ENDBRANCH   3   5
ENDBRANCH   1   2
BRANCH   1  11
ATOM     11  C   UNL     1     105.510  33.086  57.991  1.00  0.00     0.034 C 
BRANCH  11  12
ATOM     12  C   UNL     1     104.873  32.997  59.363  1.00  0.00    -0.077 C 
ATOM     13  C   UNL     1     103.524  33.006  59.464  1.00  0.00    -0.028 C 
ATOM     14  C   UNL     1     105.761  32.910  60.582  1.00  0.00     0.039 C 
BRANCH  13  15
ATOM     15  C   UNL     1     102.765  32.890  60.762  1.00  0.00     0.035 C 
BRANCH  15  16
ATOM     16  C   UNL     1     101.980  34.174  61.047  1.00  0.00     0.079 C 
BRANCH  16  17
ATOM     17  C   UNL     1     100.956  33.942  62.127  1.00  0.00     0.130 C 
ATOM     18  O   UNL     1      99.857  34.471  62.038  1.00  0.00    -0.300 OA
ATOM     19  C   UNL     1     101.250  33.068  63.309  1.00  0.00     0.087 C 
ENDBRANCH  16  17
ENDBRANCH  15  16
ENDBRANCH  13  15
ENDBRANCH  11  12
ENDBRANCH   1  11
TORSDOF 9
ENDMDL
MODEL 7
REMARK VINA RESULT:    -3.882      1.416      2.087
REMARK INTER + INTRA:          -6.199
REMARK INTER:                  -5.375
REMARK INTRA:                  -0.824
REMARK UNBOUND:                -0.275
REMARK SMILES CC(=O)CCC=C(C)CCC=C(C)CCC=C(C)C
REMARK SMILES IDX 10 1 11 2 12 3 13 4 14 5 15 6 16 7 18 8 17 9 19 10 9 11 7 12
REMARK SMILES IDX 6 13 8 14 5 15 4 16 2 17 3 18 1 19
REMARK H PARENT
REMARK Flexibility Score: inf
ROOT
ATOM      1  C   UNL     1     104.278  48.233  59.646  1.00  0.00     0.032 C 
ENDROOT
BRANCH   1   2
ATOM      2  C   UNL     1     105.740  47.931  59.871  1.00  0.00    -0.028 C 
ATOM      3  C   UNL     1     106.371  48.041  61.062  1.00  0.00    -0.077 C 
ATOM      4  C   UNL     1     105.633  48.418  62.325  1.00  0.00     0.039 C 
BRANCH   3   5
ATOM      5  C   UNL     1     107.859  47.765  61.134  1.00  0.00     0.034 C 
BRANCH   5   6
ATOM      6  C   UNL     1     108.369  47.779  62.582  1.00  0.00     0.032 C 
BRANCH   6   7
ATOM      7  C   UNL     1     108.748  49.171  63.027  1.00  0.00    -0.028 C 
ATOM      8  C   UNL     1     107.761  48.892  65.312  1.00  0.00     0.039 C 
ATOM      9  C   UNL     1     108.446  49.697  64.236  1.00  0.00    -0.080 C 
ATOM     10  C   UNL     1     108.843  51.115  64.556  1.00  0.00     0.039 C 
ENDBRANCH   6   7
ENDBRANCH   5   6
ENDBRANCH   3   5
ENDBRANCH   1   2
BRANCH   1  11
ATOM     11  C   UNL     1     103.684  47.356  58.535  1.00  0.00     0.034 C 
BRANCH  11  12
ATOM     12  C   UNL     1     103.299  48.169  57.315  1.00  0.00    -0.077 C 
ATOM     13  C   UNL     1     103.237  47.557  56.110  1.00  0.00    -0.028 C 
ATOM     14  C   UNL     1     103.007  49.643  57.475  1.00  0.00     0.039 C 
BRANCH  13  15
ATOM     15  C   UNL     1     102.837  48.240  54.826  1.00  0.00     0.035 C 
BRANCH  15  16
ATOM     16  C   UNL     1     104.063  48.499  53.945  1.00  0.00     0.079 C 
BRANCH  16  17
ATOM     17  C   UNL     1     104.499  49.936  54.049  1.00  0.00     0.130 C 
ATOM     18  O   UNL     1     103.664  50.805  54.256  1.00  0.00    -0.300 OA
ATOM     19  C   UNL     1     105.940  50.328  53.914  1.00  0.00     0.087 C 
ENDBRANCH  16  17
ENDBRANCH  15  16
ENDBRANCH  13  15
ENDBRANCH  11  12
ENDBRANCH   1  11
TORSDOF 9
ENDMDL
MODEL 8
REMARK VINA RESULT:    -3.410      3.341      9.376
REMARK INTER + INTRA:          -5.480
REMARK INTER:                  -4.930
REMARK INTRA:                  -0.550
REMARK UNBOUND:                -0.275
REMARK SMILES CC(=O)CCC=C(C)CCC=C(C)CCC=C(C)C
REMARK SMILES IDX 10 1 11 2 12 3 13 4 14 5 15 6 16 7 18 8 17 9 19 10 9 11 7 12
REMARK SMILES IDX 6 13 8 14 5 15 4 16 2 17 3 18 1 19
REMARK H PARENT
REMARK Flexibility Score: inf
ROOT
ATOM      1  C   UNL     1     105.422  47.546  59.847  1.00  0.00     0.032 C 
ENDROOT
BRANCH   1   2
ATOM      2  C   UNL     1     104.183  48.221  59.309  1.00  0.00    -0.028 C 
ATOM      3  C   UNL     1     103.979  48.525  58.007  1.00  0.00    -0.077 C 
ATOM      4  C   UNL     1     104.970  48.141  56.934  1.00  0.00     0.039 C 
BRANCH   3   5
ATOM      5  C   UNL     1     102.715  49.260  57.613  1.00  0.00     0.034 C 
BRANCH   5   6
ATOM      6  C   UNL     1     102.391  49.073  56.124  1.00  0.00     0.032 C 
BRANCH   6   7
ATOM      7  C   UNL     1     101.934  47.665  55.826  1.00  0.00    -0.028 C 
ATOM      8  C   UNL     1     103.183  47.538  53.659  1.00  0.00     0.039 C 
ATOM      9  C   UNL     1     102.251  46.979  54.704  1.00  0.00    -0.080 C 
ATOM     10  C   UNL     1     101.706  45.590  54.497  1.00  0.00     0.039 C 
ENDBRANCH   6   7
ENDBRANCH   5   6
ENDBRANCH   3   5
ENDBRANCH   1   2
BRANCH   1  11
ATOM     11  C   UNL     1     106.408  48.562  60.440  1.00  0.00     0.034 C 
BRANCH  11  12
ATOM     12  C   UNL     1     107.305  47.937  61.489  1.00  0.00    -0.077 C 
ATOM     13  C   UNL     1     107.159  48.303  62.783  1.00  0.00    -0.028 C 
ATOM     14  C   UNL     1     108.346  46.929  61.060  1.00  0.00     0.039 C 
BRANCH  13  15
ATOM     15  C   UNL     1     107.963  47.735  63.926  1.00  0.00     0.035 C 
BRANCH  15  16
ATOM     16  C   UNL     1     107.715  48.531  65.211  1.00  0.00     0.079 C 
BRANCH  16  17
ATOM     17  C   UNL     1     107.631  50.005  64.916  1.00  0.00     0.130 C 
ATOM     18  O   UNL     1     108.636  50.608  64.567  1.00  0.00    -0.300 OA
ATOM     19  C   UNL     1     106.336  50.754  65.032  1.00  0.00     0.087 C 
ENDBRANCH  16  17
ENDBRANCH  15  16
ENDBRANCH  13  15
ENDBRANCH  11  12
ENDBRANCH   1  11
TORSDOF 9
ENDMDL
