MODEL 1
REMARK VINA RESULT:    -6.604      0.000      0.000
REMARK INTER + INTRA:         -10.533
REMARK INTER:                  -9.114
REMARK INTRA:                  -1.419
REMARK UNBOUND:                -1.419
REMARK SMILES O=C([O-])[C@@H]1O[C@H](Oc2cc3oc(-c4ccccc4)cc(=O)c3c(O)c2O)[C@H](O)[C@@H](O)[C@@H]1O
REMARK SMILES IDX 7 1 6 2 4 3 31 4 5 5 29 6 27 7 2 8 1 9 3 10 32 11 30 13
REMARK SMILES IDX 28 15 8 17 25 18 9 19 23 20 10 21 22 22 11 23 20 24 12 25
REMARK SMILES IDX 19 26 21 27 26 28 24 30 13 32 14 33 18 34 15 35 17 36 16 37
REMARK H PARENT 32 12 30 14 28 16 26 29 24 31
REMARK Flexibility Score: inf
ROOT
ATOM      1  O   UNL     1      -2.122  24.937  29.953  1.00  0.00    -0.458 OA
ENDROOT
BRANCH   1   2
ATOM      2  C   UNL     1      -2.462  25.386  31.269  1.00  0.00     0.339 C 
ATOM      3  C   UNL     1      -4.556  26.360  30.676  1.00  0.00     0.199 C 
ATOM      4  C   UNL     1      -5.341  25.223  31.382  1.00  0.00     0.180 C 
ATOM      5  O   UNL     1      -3.263  26.562  31.234  1.00  0.00    -0.328 OA
ATOM      6  C   UNL     1      -4.516  23.934  31.464  1.00  0.00     0.181 C 
ATOM      7  C   UNL     1      -3.140  24.252  32.061  1.00  0.00     0.214 C 
BRANCH   3   8
ATOM      8  C   UNL     1      -4.508  26.272  29.167  1.00  0.00     0.073 C 
ATOM      9  O   UNL     1      -4.126  27.271  28.502  1.00  0.00    -0.547 OA
ATOM     10  O   UNL     1      -4.849  25.104  28.497  1.00  0.00    -0.547 OA
ENDBRANCH   3   8
BRANCH   4  11
ATOM     11  O   UNL     1      -6.557  24.966  30.726  1.00  0.00    -0.387 OA
ATOM     12  H   UNL     1      -6.535  25.473  29.873  1.00  0.00     0.211 HD
ENDBRANCH   4  11
BRANCH   6  13
ATOM     13  O   UNL     1      -5.190  23.009  32.278  1.00  0.00    -0.387 OA
ATOM     14  H   UNL     1      -5.403  22.224  31.708  1.00  0.00     0.211 HD
ENDBRANCH   6  13
BRANCH   7  15
ATOM     15  O   UNL     1      -2.340  23.098  32.034  1.00  0.00    -0.384 OA
ATOM     16  H   UNL     1      -1.403  23.396  32.172  1.00  0.00     0.211 HD
ENDBRANCH   7  15
ENDBRANCH   1   2
BRANCH   1  17
ATOM     17  C   UNL     1      -1.078  25.399  29.128  1.00  0.00     0.172 A 
ATOM     18  C   UNL     1      -1.047  25.263  27.718  1.00  0.00     0.201 A 
ATOM     19  C   UNL     1      -0.012  26.018  29.782  1.00  0.00     0.098 A 
ATOM     20  C   UNL     1       0.058  25.776  26.985  1.00  0.00     0.176 A 
ATOM     21  C   UNL     1       1.088  26.498  29.078  1.00  0.00     0.146 A 
ATOM     22  C   UNL     1       1.138  26.382  27.673  1.00  0.00     0.111 A 
ATOM     23  O   UNL     1       2.083  27.067  29.750  1.00  0.00    -0.456 OA
ATOM     24  C   UNL     1       2.285  26.887  27.021  1.00  0.00     0.197 A 
ATOM     25  C   UNL     1       3.172  27.561  29.166  1.00  0.00     0.138 A 
ATOM     26  C   UNL     1       3.303  27.476  27.772  1.00  0.00     0.100 A 
ATOM     27  O   UNL     1       2.418  26.814  25.770  1.00  0.00    -0.289 OA
BRANCH  18  28
ATOM     28  O   UNL     1      -2.100  24.615  27.070  1.00  0.00    -0.502 OA
ATOM     29  H   UNL     1      -2.001  24.003  26.274  1.00  0.00     0.293 HD
ENDBRANCH  18  28
BRANCH  20  30
ATOM     30  O   UNL     1       0.101  25.710  25.587  1.00  0.00    -0.504 OA
ATOM     31  H   UNL     1       0.289  26.490  24.977  1.00  0.00     0.293 HD
ENDBRANCH  20  30
BRANCH  25  32
ATOM     32  C   UNL     1       4.222  28.175  30.017  1.00  0.00     0.017 A 
ATOM     33  C   UNL     1       4.052  29.443  30.607  1.00  0.00     0.012 A 
ATOM     34  C   UNL     1       5.411  27.464  30.270  1.00  0.00     0.012 A 
ATOM     35  C   UNL     1       5.057  29.991  31.413  1.00  0.00     0.001 A 
ATOM     36  C   UNL     1       6.412  28.017  31.074  1.00  0.00     0.001 A 
ATOM     37  C   UNL     1       6.236  29.280  31.643  1.00  0.00     0.000 A 
ENDBRANCH  25  32
ENDBRANCH   1  17
TORSDOF 9
ENDMDL
MODEL 2
REMARK VINA RESULT:    -6.532      3.303      8.533
REMARK INTER + INTRA:         -10.434
REMARK INTER:                  -9.019
REMARK INTRA:                  -1.414
REMARK UNBOUND:                -1.419
REMARK SMILES O=C([O-])[C@@H]1O[C@H](Oc2cc3oc(-c4ccccc4)cc(=O)c3c(O)c2O)[C@H](O)[C@@H](O)[C@@H]1O
REMARK SMILES IDX 7 1 6 2 4 3 31 4 5 5 29 6 27 7 2 8 1 9 3 10 32 11 30 13
REMARK SMILES IDX 28 15 8 17 25 18 9 19 23 20 10 21 22 22 11 23 20 24 12 25
REMARK SMILES IDX 19 26 21 27 26 28 24 30 13 32 14 33 18 34 15 35 17 36 16 37
REMARK H PARENT 32 12 30 14 28 16 26 29 24 31
REMARK Flexibility Score: inf
ROOT
ATOM      1  O   UNL     1      -1.214  27.478  25.564  1.00  0.00    -0.458 OA
ENDROOT
BRANCH   1   2
ATOM      2  C   UNL     1      -1.276  28.901  25.707  1.00  0.00     0.339 C 
ATOM      3  C   UNL     1       1.055  29.225  26.088  1.00  0.00     0.199 C 
ATOM      4  C   UNL     1       1.248  29.855  24.684  1.00  0.00     0.180 C 
ATOM      5  O   UNL     1      -0.268  29.387  26.586  1.00  0.00    -0.328 OA
ATOM      6  C   UNL     1       0.174  29.379  23.700  1.00  0.00     0.181 C 
ATOM      7  C   UNL     1      -1.211  29.579  24.326  1.00  0.00     0.214 C 
BRANCH   3   8
ATOM      8  C   UNL     1       1.534  27.797  26.228  1.00  0.00     0.073 C 
ATOM      9  O   UNL     1       1.644  27.291  27.376  1.00  0.00    -0.547 OA
ATOM     10  O   UNL     1       1.830  27.019  25.115  1.00  0.00    -0.547 OA
ENDBRANCH   3   8
BRANCH   4  11
ATOM     11  O   UNL     1       2.524  29.566  24.172  1.00  0.00    -0.387 OA
ATOM     12  H   UNL     1       2.412  29.410  23.198  1.00  0.00     0.211 HD
ENDBRANCH   4  11
BRANCH   6  13
ATOM     13  O   UNL     1       0.277  30.124  22.513  1.00  0.00    -0.387 OA
ATOM     14  H   UNL     1       1.165  30.569  22.527  1.00  0.00     0.211 HD
ENDBRANCH   6  13
BRANCH   7  15
ATOM     15  O   UNL     1      -2.191  29.041  23.475  1.00  0.00    -0.384 OA
ATOM     16  H   UNL     1      -2.490  28.189  23.888  1.00  0.00     0.211 HD
ENDBRANCH   7  15
ENDBRANCH   1   2
BRANCH   1  17
ATOM     17  C   UNL     1      -1.633  26.501  26.488  1.00  0.00     0.172 A 
ATOM     18  C   UNL     1      -1.126  25.178  26.545  1.00  0.00     0.201 A 
ATOM     19  C   UNL     1      -2.626  26.895  27.385  1.00  0.00     0.098 A 
ATOM     20  C   UNL     1      -1.619  24.277  27.528  1.00  0.00     0.176 A 
ATOM     21  C   UNL     1      -3.136  26.012  28.332  1.00  0.00     0.146 A 
ATOM     22  C   UNL     1      -2.643  24.694  28.414  1.00  0.00     0.111 A 
ATOM     23  O   UNL     1      -4.091  26.434  29.154  1.00  0.00    -0.456 OA
ATOM     24  C   UNL     1      -3.207  23.850  29.396  1.00  0.00     0.197 A 
ATOM     25  C   UNL     1      -4.637  25.667  30.095  1.00  0.00     0.138 A 
ATOM     26  C   UNL     1      -4.207  24.340  30.236  1.00  0.00     0.100 A 
ATOM     27  O   UNL     1      -2.833  22.653  29.531  1.00  0.00    -0.289 OA
BRANCH  18  28
ATOM     28  O   UNL     1      -0.155  24.778  25.625  1.00  0.00    -0.502 OA
ATOM     29  H   UNL     1      -0.345  24.434  24.696  1.00  0.00     0.293 HD
ENDBRANCH  18  28
BRANCH  20  30
ATOM     30  O   UNL     1      -1.105  22.980  27.652  1.00  0.00    -0.504 OA
ATOM     31  H   UNL     1      -1.662  22.148  27.770  1.00  0.00     0.293 HD
ENDBRANCH  20  30
BRANCH  25  32
ATOM     32  C   UNL     1      -5.699  26.244  30.959  1.00  0.00     0.017 A 
ATOM     33  C   UNL     1      -6.772  25.464  31.436  1.00  0.00     0.012 A 
ATOM     34  C   UNL     1      -5.623  27.596  31.340  1.00  0.00     0.012 A 
ATOM     35  C   UNL     1      -7.752  26.034  32.256  1.00  0.00     0.001 A 
ATOM     36  C   UNL     1      -6.605  28.161  32.159  1.00  0.00     0.001 A 
ATOM     37  C   UNL     1      -7.670  27.381  32.615  1.00  0.00     0.000 A 
ENDBRANCH  25  32
ENDBRANCH   1  17
TORSDOF 9
ENDMDL
MODEL 3
REMARK VINA RESULT:    -6.347      1.009      2.349
REMARK INTER + INTRA:         -10.177
REMARK INTER:                  -9.278
REMARK INTRA:                  -0.900
REMARK UNBOUND:                -1.419
REMARK SMILES O=C([O-])[C@@H]1O[C@H](Oc2cc3oc(-c4ccccc4)cc(=O)c3c(O)c2O)[C@H](O)[C@@H](O)[C@@H]1O
REMARK SMILES IDX 7 1 6 2 4 3 31 4 5 5 29 6 27 7 2 8 1 9 3 10 32 11 30 13
REMARK SMILES IDX 28 15 8 17 25 18 9 19 23 20 10 21 22 22 11 23 20 24 12 25
REMARK SMILES IDX 19 26 21 27 26 28 24 30 13 32 14 33 18 34 15 35 17 36 16 37
REMARK H PARENT 32 12 30 14 28 16 26 29 24 31
REMARK Flexibility Score: inf
ROOT
ATOM      1  O   UNL     1      -2.564  25.244  29.888  1.00  0.00    -0.458 OA
ENDROOT
BRANCH   1   2
ATOM      2  C   UNL     1      -3.476  24.148  29.771  1.00  0.00     0.339 C 
ATOM      3  C   UNL     1      -3.131  23.288  31.967  1.00  0.00     0.199 C 
ATOM      4  C   UNL     1      -4.528  23.776  32.432  1.00  0.00     0.180 C 
ATOM      5  O   UNL     1      -3.073  23.040  30.567  1.00  0.00    -0.328 OA
ATOM      6  C   UNL     1      -5.020  24.959  31.592  1.00  0.00     0.181 C 
ATOM      7  C   UNL     1      -4.908  24.606  30.105  1.00  0.00     0.214 C 
BRANCH   3   8
ATOM      8  C   UNL     1      -1.964  24.129  32.435  1.00  0.00     0.073 C 
ATOM      9  O   UNL     1      -0.789  23.730  32.220  1.00  0.00    -0.547 OA
ATOM     10  O   UNL     1      -2.158  25.347  33.075  1.00  0.00    -0.547 OA
ENDBRANCH   3   8
BRANCH   4  11
ATOM     11  O   UNL     1      -4.513  24.131  33.791  1.00  0.00    -0.387 OA
ATOM     12  H   UNL     1      -5.457  24.278  34.059  1.00  0.00     0.211 HD
ENDBRANCH   4  11
BRANCH   6  13
ATOM     13  O   UNL     1      -6.359  25.230  31.921  1.00  0.00    -0.387 OA
ATOM     14  H   UNL     1      -6.361  26.064  32.461  1.00  0.00     0.211 HD
ENDBRANCH   6  13
BRANCH   7  15
ATOM     15  O   UNL     1      -5.250  25.726  29.330  1.00  0.00    -0.384 OA
ATOM     16  H   UNL     1      -4.470  26.341  29.356  1.00  0.00     0.211 HD
ENDBRANCH   7  15
ENDBRANCH   1   2
BRANCH   1  17
ATOM     17  C   UNL     1      -1.438  25.518  29.088  1.00  0.00     0.172 A 
ATOM     18  C   UNL     1      -1.325  25.182  27.716  1.00  0.00     0.201 A 
ATOM     19  C   UNL     1      -0.374  26.155  29.728  1.00  0.00     0.098 A 
ATOM     20  C   UNL     1      -0.140  25.516  27.004  1.00  0.00     0.176 A 
ATOM     21  C   UNL     1       0.801  26.461  29.048  1.00  0.00     0.146 A 
ATOM     22  C   UNL     1       0.934  26.144  27.681  1.00  0.00     0.111 A 
ATOM     23  O   UNL     1       1.789  27.056  29.709  1.00  0.00    -0.456 OA
ATOM     24  C   UNL     1       2.154  26.479  27.053  1.00  0.00     0.197 A 
ATOM     25  C   UNL     1       2.946  27.393  29.145  1.00  0.00     0.138 A 
ATOM     26  C   UNL     1       3.161  27.103  27.789  1.00  0.00     0.100 A 
ATOM     27  O   UNL     1       2.362  26.221  25.837  1.00  0.00    -0.289 OA
BRANCH  18  28
ATOM     28  O   UNL     1      -2.379  24.516  27.087  1.00  0.00    -0.502 OA
ATOM     29  H   UNL     1      -2.890  24.865  26.290  1.00  0.00     0.293 HD
ENDBRANCH  18  28
BRANCH  20  30
ATOM     30  O   UNL     1      -0.012  25.249  25.635  1.00  0.00    -0.504 OA
ATOM     31  H   UNL     1       0.612  25.734  25.008  1.00  0.00     0.293 HD
ENDBRANCH  20  30
BRANCH  25  32
ATOM     32  C   UNL     1       3.981  28.054  29.979  1.00  0.00     0.017 A 
ATOM     33  C   UNL     1       3.799  29.352  30.498  1.00  0.00     0.012 A 
ATOM     34  C   UNL     1       5.166  27.361  30.291  1.00  0.00     0.012 A 
ATOM     35  C   UNL     1       4.789  29.944  31.289  1.00  0.00     0.001 A 
ATOM     36  C   UNL     1       6.152  27.958  31.081  1.00  0.00     0.001 A 
ATOM     37  C   UNL     1       5.965  29.249  31.578  1.00  0.00     0.000 A 
ENDBRANCH  25  32
ENDBRANCH   1  17
TORSDOF 9
ENDMDL
MODEL 4
REMARK VINA RESULT:    -6.210      1.324      2.134
REMARK INTER + INTRA:          -9.989
REMARK INTER:                  -8.385
REMARK INTRA:                  -1.604
REMARK UNBOUND:                -1.419
REMARK SMILES O=C([O-])[C@@H]1O[C@H](Oc2cc3oc(-c4ccccc4)cc(=O)c3c(O)c2O)[C@H](O)[C@@H](O)[C@@H]1O
REMARK SMILES IDX 7 1 6 2 4 3 31 4 5 5 29 6 27 7 2 8 1 9 3 10 32 11 30 13
REMARK SMILES IDX 28 15 8 17 25 18 9 19 23 20 10 21 22 22 11 23 20 24 12 25
REMARK SMILES IDX 19 26 21 27 26 28 24 30 13 32 14 33 18 34 15 35 17 36 16 37
REMARK H PARENT 32 12 30 14 28 16 26 29 24 31
REMARK Flexibility Score: inf
ROOT
ATOM      1  O   UNL     1      -1.997  26.321  29.910  1.00  0.00    -0.458 OA
ENDROOT
BRANCH   1   2
ATOM      2  C   UNL     1      -3.243  26.915  29.536  1.00  0.00     0.339 C 
ATOM      3  C   UNL     1      -4.490  24.884  29.477  1.00  0.00     0.199 C 
ATOM      4  C   UNL     1      -5.252  25.256  30.776  1.00  0.00     0.180 C 
ATOM      5  O   UNL     1      -4.038  26.026  28.759  1.00  0.00    -0.328 OA
ATOM      6  C   UNL     1      -4.447  26.230  31.643  1.00  0.00     0.181 C 
ATOM      7  C   UNL     1      -3.993  27.416  30.784  1.00  0.00     0.214 C 
BRANCH   3   8
ATOM      8  C   UNL     1      -3.392  23.857  29.643  1.00  0.00     0.073 C 
ATOM      9  O   UNL     1      -2.751  23.469  28.632  1.00  0.00    -0.547 OA
ATOM     10  O   UNL     1      -3.056  23.350  30.893  1.00  0.00    -0.547 OA
ENDBRANCH   3   8
BRANCH   4  11
ATOM     11  O   UNL     1      -5.571  24.109  31.521  1.00  0.00    -0.387 OA
ATOM     12  H   UNL     1      -5.381  24.323  32.472  1.00  0.00     0.211 HD
ENDBRANCH   4  11
BRANCH   6  13
ATOM     13  O   UNL     1      -5.258  26.683  32.697  1.00  0.00    -0.387 OA
ATOM     14  H   UNL     1      -5.830  25.920  32.971  1.00  0.00     0.211 HD
ENDBRANCH   6  13
BRANCH   7  15
ATOM     15  O   UNL     1      -3.161  28.253  31.545  1.00  0.00    -0.384 OA
ATOM     16  H   UNL     1      -2.727  28.880  30.908  1.00  0.00     0.211 HD
ENDBRANCH   7  15
ENDBRANCH   1   2
BRANCH   1  17
ATOM     17  C   UNL     1      -0.747  26.469  29.277  1.00  0.00     0.172 A 
ATOM     18  C   UNL     1      -0.502  26.197  27.907  1.00  0.00     0.201 A 
ATOM     19  C   UNL     1       0.301  26.903  30.089  1.00  0.00     0.098 A 
ATOM     20  C   UNL     1       0.801  26.391  27.373  1.00  0.00     0.176 A 
ATOM     21  C   UNL     1       1.587  27.068  29.583  1.00  0.00     0.146 A 
ATOM     22  C   UNL     1       1.854  26.812  28.223  1.00  0.00     0.111 A 
ATOM     23  O   UNL     1       2.553  27.471  30.402  1.00  0.00    -0.456 OA
ATOM     24  C   UNL     1       3.182  26.997  27.776  1.00  0.00     0.197 A 
ATOM     25  C   UNL     1       3.810  27.663  30.012  1.00  0.00     0.138 A 
ATOM     26  C   UNL     1       4.160  27.422  28.675  1.00  0.00     0.100 A 
ATOM     27  O   UNL     1       3.510  26.780  26.578  1.00  0.00    -0.289 OA
BRANCH  18  28
ATOM     28  O   UNL     1      -1.546  25.732  27.105  1.00  0.00    -0.502 OA
ATOM     29  H   UNL     1      -2.489  26.091  27.118  1.00  0.00     0.293 HD
ENDBRANCH  18  28
BRANCH  20  30
ATOM     30  O   UNL     1       1.071  26.186  26.015  1.00  0.00    -0.504 OA
ATOM     31  H   UNL     1       1.194  25.284  25.580  1.00  0.00     0.293 HD
ENDBRANCH  20  30
BRANCH  25  32
ATOM     32  C   UNL     1       4.808  28.114  31.015  1.00  0.00     0.017 A 
ATOM     33  C   UNL     1       4.428  28.524  32.308  1.00  0.00     0.012 A 
ATOM     34  C   UNL     1       6.176  28.106  30.682  1.00  0.00     0.012 A 
ATOM     35  C   UNL     1       5.393  28.935  33.234  1.00  0.00     0.001 A 
ATOM     36  C   UNL     1       7.136  28.519  31.610  1.00  0.00     0.001 A 
ATOM     37  C   UNL     1       6.745  28.935  32.884  1.00  0.00     0.000 A 
ENDBRANCH  25  32
ENDBRANCH   1  17
TORSDOF 9
ENDMDL
MODEL 5
REMARK VINA RESULT:    -6.025      3.122      8.731
REMARK INTER + INTRA:          -9.734
REMARK INTER:                  -8.293
REMARK INTRA:                  -1.441
REMARK UNBOUND:                -1.419
REMARK SMILES O=C([O-])[C@@H]1O[C@H](Oc2cc3oc(-c4ccccc4)cc(=O)c3c(O)c2O)[C@H](O)[C@@H](O)[C@@H]1O
REMARK SMILES IDX 7 1 6 2 4 3 31 4 5 5 29 6 27 7 2 8 1 9 3 10 32 11 30 13
REMARK SMILES IDX 28 15 8 17 25 18 9 19 23 20 10 21 22 22 11 23 20 24 12 25
REMARK SMILES IDX 19 26 21 27 26 28 24 30 13 32 14 33 18 34 15 35 17 36 16 37
REMARK H PARENT 32 12 30 14 28 16 26 29 24 31
REMARK Flexibility Score: inf
ROOT
ATOM      1  O   UNL     1      -1.003  25.329  28.775  1.00  0.00    -0.458 OA
ENDROOT
BRANCH   1   2
ATOM      2  C   UNL     1      -0.872  24.611  27.545  1.00  0.00     0.339 C 
ATOM      3  C   UNL     1       0.336  26.306  26.383  1.00  0.00     0.199 C 
ATOM      4  C   UNL     1       1.650  25.484  26.446  1.00  0.00     0.180 C 
ATOM      5  O   UNL     1      -0.827  25.488  26.425  1.00  0.00    -0.328 OA
ATOM      6  C   UNL     1       1.647  24.506  27.626  1.00  0.00     0.181 C 
ATOM      7  C   UNL     1       0.355  23.681  27.597  1.00  0.00     0.214 C 
BRANCH   3   8
ATOM      8  C   UNL     1       0.246  27.457  27.360  1.00  0.00     0.073 C 
ATOM      9  O   UNL     1      -0.765  28.207  27.339  1.00  0.00    -0.547 OA
ATOM     10  O   UNL     1       1.242  27.691  28.300  1.00  0.00    -0.547 OA
ENDBRANCH   3   8
BRANCH   4  11
ATOM     11  O   UNL     1       2.770  26.327  26.531  1.00  0.00    -0.387 OA
ATOM     12  H   UNL     1       2.729  26.938  25.750  1.00  0.00     0.211 HD
ENDBRANCH   4  11
BRANCH   6  13
ATOM     13  O   UNL     1       2.761  23.657  27.522  1.00  0.00    -0.387 OA
ATOM     14  H   UNL     1       3.555  24.238  27.384  1.00  0.00     0.211 HD
ENDBRANCH   6  13
BRANCH   7  15
ATOM     15  O   UNL     1       0.295  22.865  28.738  1.00  0.00    -0.384 OA
ATOM     16  H   UNL     1       1.233  22.672  29.002  1.00  0.00     0.211 HD
ENDBRANCH   7  15
ENDBRANCH   1   2
BRANCH   1  17
ATOM     17  C   UNL     1      -2.041  25.235  29.722  1.00  0.00     0.172 A 
ATOM     18  C   UNL     1      -1.999  24.425  30.884  1.00  0.00     0.201 A 
ATOM     19  C   UNL     1      -3.180  25.997  29.456  1.00  0.00     0.098 A 
ATOM     20  C   UNL     1      -3.107  24.416  31.776  1.00  0.00     0.176 A 
ATOM     21  C   UNL     1      -4.281  25.973  30.307  1.00  0.00     0.146 A 
ATOM     22  C   UNL     1      -4.260  25.182  31.474  1.00  0.00     0.111 A 
ATOM     23  O   UNL     1      -5.345  26.707  30.001  1.00  0.00    -0.456 OA
ATOM     24  C   UNL     1      -5.412  25.201  32.292  1.00  0.00     0.197 A 
ATOM     25  C   UNL     1      -6.442  26.754  30.754  1.00  0.00     0.138 A 
ATOM     26  C   UNL     1      -6.504  25.989  31.927  1.00  0.00     0.100 A 
ATOM     27  O   UNL     1      -5.483  24.515  33.347  1.00  0.00    -0.289 OA
BRANCH  18  28
ATOM     28  O   UNL     1      -0.871  23.640  31.130  1.00  0.00    -0.502 OA
ATOM     29  H   UNL     1       0.078  23.908  30.915  1.00  0.00     0.293 HD
ENDBRANCH  18  28
BRANCH  20  30
ATOM     30  O   UNL     1      -3.082  23.672  32.962  1.00  0.00    -0.504 OA
ATOM     31  H   UNL     1      -3.897  23.388  33.483  1.00  0.00     0.293 HD
ENDBRANCH  20  30
BRANCH  25  32
ATOM     32  C   UNL     1      -7.573  27.609  30.314  1.00  0.00     0.017 A 
ATOM     33  C   UNL     1      -8.913  27.186  30.431  1.00  0.00     0.012 A 
ATOM     34  C   UNL     1      -7.311  28.891  29.794  1.00  0.00     0.012 A 
ATOM     35  C   UNL     1      -9.958  28.020  30.017  1.00  0.00     0.001 A 
ATOM     36  C   UNL     1      -8.359  29.718  29.381  1.00  0.00     0.001 A 
ATOM     37  C   UNL     1      -9.681  29.283  29.490  1.00  0.00     0.000 A 
ENDBRANCH  25  32
ENDBRANCH   1  17
TORSDOF 9
ENDMDL
MODEL 6
REMARK VINA RESULT:    -5.895      2.026      8.103
REMARK INTER + INTRA:          -9.554
REMARK INTER:                  -8.660
REMARK INTRA:                  -0.894
REMARK UNBOUND:                -1.419
REMARK SMILES O=C([O-])[C@@H]1O[C@H](Oc2cc3oc(-c4ccccc4)cc(=O)c3c(O)c2O)[C@H](O)[C@@H](O)[C@@H]1O
REMARK SMILES IDX 7 1 6 2 4 3 31 4 5 5 29 6 27 7 2 8 1 9 3 10 32 11 30 13
REMARK SMILES IDX 28 15 8 17 25 18 9 19 23 20 10 21 22 22 11 23 20 24 12 25
REMARK SMILES IDX 19 26 21 27 26 28 24 30 13 32 14 33 18 34 15 35 17 36 16 37
REMARK H PARENT 32 12 30 14 28 16 26 29 24 31
REMARK Flexibility Score: inf
ROOT
ATOM      1  O   UNL     1       1.963  27.125  29.724  1.00  0.00    -0.458 OA
ENDROOT
BRANCH   1   2
ATOM      2  C   UNL     1       2.902  27.820  28.898  1.00  0.00     0.339 C 
ATOM      3  C   UNL     1       3.045  29.773  30.258  1.00  0.00     0.199 C 
ATOM      4  C   UNL     1       4.472  29.398  30.734  1.00  0.00     0.180 C 
ATOM      5  O   UNL     1       2.731  29.231  28.980  1.00  0.00    -0.328 OA
ATOM      6  C   UNL     1       4.716  27.887  30.648  1.00  0.00     0.181 C 
ATOM      7  C   UNL     1       4.340  27.393  29.247  1.00  0.00     0.214 C 
BRANCH   3   8
ATOM      8  C   UNL     1       1.940  29.519  31.259  1.00  0.00     0.073 C 
ATOM      9  O   UNL     1       0.758  29.842  30.971  1.00  0.00    -0.547 OA
ATOM     10  O   UNL     1       2.196  28.911  32.483  1.00  0.00    -0.547 OA
ENDBRANCH   3   8
BRANCH   4  11
ATOM     11  O   UNL     1       4.699  29.841  32.048  1.00  0.00    -0.387 OA
ATOM     12  H   UNL     1       4.719  29.032  32.624  1.00  0.00     0.211 HD
ENDBRANCH   4  11
BRANCH   6  13
ATOM     13  O   UNL     1       6.074  27.627  30.900  1.00  0.00    -0.387 OA
ATOM     14  H   UNL     1       6.585  28.410  30.565  1.00  0.00     0.211 HD
ENDBRANCH   6  13
BRANCH   7  15
ATOM     15  O   UNL     1       4.454  25.994  29.197  1.00  0.00    -0.384 OA
ATOM     16  H   UNL     1       5.098  25.734  29.907  1.00  0.00     0.211 HD
ENDBRANCH   7  15
ENDBRANCH   1   2
BRANCH   1  17
ATOM     17  C   UNL     1       1.025  26.151  29.330  1.00  0.00     0.172 A 
ATOM     18  C   UNL     1       1.128  25.362  28.157  1.00  0.00     0.201 A 
ATOM     19  C   UNL     1      -0.075  25.987  30.173  1.00  0.00     0.098 A 
ATOM     20  C   UNL     1       0.122  24.400  27.864  1.00  0.00     0.176 A 
ATOM     21  C   UNL     1      -1.080  25.070  29.880  1.00  0.00     0.146 A 
ATOM     22  C   UNL     1      -0.996  24.268  28.723  1.00  0.00     0.111 A 
ATOM     23  O   UNL     1      -2.114  24.963  30.709  1.00  0.00    -0.456 OA
ATOM     24  C   UNL     1      -2.052  23.360  28.485  1.00  0.00     0.197 A 
ATOM     25  C   UNL     1      -3.119  24.113  30.518  1.00  0.00     0.138 A 
ATOM     26  C   UNL     1      -3.115  23.285  29.386  1.00  0.00     0.100 A 
ATOM     27  O   UNL     1      -2.062  22.614  27.470  1.00  0.00    -0.289 OA
BRANCH  18  28
ATOM     28  O   UNL     1       2.214  25.550  27.300  1.00  0.00    -0.502 OA
ATOM     29  H   UNL     1       2.145  25.738  26.311  1.00  0.00     0.293 HD
ENDBRANCH  18  28
BRANCH  20  30
ATOM     30  O   UNL     1       0.216  23.565  26.744  1.00  0.00    -0.504 OA
ATOM     31  H   UNL     1       1.071  23.348  26.256  1.00  0.00     0.293 HD
ENDBRANCH  20  30
BRANCH  25  32
ATOM     32  C   UNL     1      -4.224  24.079  31.510  1.00  0.00     0.017 A 
ATOM     33  C   UNL     1      -5.237  25.059  31.526  1.00  0.00     0.012 A 
ATOM     34  C   UNL     1      -4.285  23.026  32.442  1.00  0.00     0.012 A 
ATOM     35  C   UNL     1      -6.271  24.994  32.467  1.00  0.00     0.001 A 
ATOM     36  C   UNL     1      -5.319  22.968  33.381  1.00  0.00     0.001 A 
ATOM     37  C   UNL     1      -6.310  23.951  33.395  1.00  0.00     0.000 A 
ENDBRANCH  25  32
ENDBRANCH   1  17
TORSDOF 9
ENDMDL
MODEL 7
REMARK VINA RESULT:    -5.833      3.060      8.936
REMARK INTER + INTRA:          -9.468
REMARK INTER:                  -8.014
REMARK INTRA:                  -1.454
REMARK UNBOUND:                -1.419
REMARK SMILES O=C([O-])[C@@H]1O[C@H](Oc2cc3oc(-c4ccccc4)cc(=O)c3c(O)c2O)[C@H](O)[C@@H](O)[C@@H]1O
REMARK SMILES IDX 7 1 6 2 4 3 31 4 5 5 29 6 27 7 2 8 1 9 3 10 32 11 30 13
REMARK SMILES IDX 28 15 8 17 25 18 9 19 23 20 10 21 22 22 11 23 20 24 12 25
REMARK SMILES IDX 19 26 21 27 26 28 24 30 13 32 14 33 18 34 15 35 17 36 16 37
REMARK H PARENT 32 12 30 14 28 16 26 29 24 31
REMARK Flexibility Score: inf
ROOT
ATOM      1  O   UNL     1      -1.354  26.070  28.237  1.00  0.00    -0.458 OA
ENDROOT
BRANCH   1   2
ATOM      2  C   UNL     1      -0.477  27.195  28.357  1.00  0.00     0.339 C 
ATOM      3  C   UNL     1       1.313  26.265  27.087  1.00  0.00     0.199 C 
ATOM      4  C   UNL     1       1.032  27.221  25.898  1.00  0.00     0.180 C 
ATOM      5  O   UNL     1       0.890  26.801  28.335  1.00  0.00    -0.328 OA
ATOM      6  C   UNL     1      -0.427  27.692  25.886  1.00  0.00     0.181 C 
ATOM      7  C   UNL     1      -0.794  28.238  27.270  1.00  0.00     0.214 C 
BRANCH   3   8
ATOM      8  C   UNL     1       0.836  24.842  26.899  1.00  0.00     0.073 C 
ATOM      9  O   UNL     1       1.239  23.946  27.687  1.00  0.00    -0.547 OA
ATOM     10  O   UNL     1      -0.060  24.504  25.892  1.00  0.00    -0.547 OA
ENDBRANCH   3   8
BRANCH   4  11
ATOM     11  O   UNL     1       1.343  26.609  24.672  1.00  0.00    -0.387 OA
ATOM     12  H   UNL     1       1.526  25.653  24.868  1.00  0.00     0.211 HD
ENDBRANCH   4  11
BRANCH   6  13
ATOM     13  O   UNL     1      -0.576  28.699  24.917  1.00  0.00    -0.387 OA
ATOM     14  H   UNL     1      -1.415  28.504  24.424  1.00  0.00     0.211 HD
ENDBRANCH   6  13
BRANCH   7  15
ATOM     15  O   UNL     1      -2.159  28.565  27.297  1.00  0.00    -0.384 OA
ATOM     16  H   UNL     1      -2.220  29.550  27.184  1.00  0.00     0.211 HD
ENDBRANCH   7  15
ENDBRANCH   1   2
BRANCH   1  17
ATOM     17  C   UNL     1      -2.186  25.515  29.228  1.00  0.00     0.172 A 
ATOM     18  C   UNL     1      -1.843  24.402  30.036  1.00  0.00     0.201 A 
ATOM     19  C   UNL     1      -3.431  26.124  29.391  1.00  0.00     0.098 A 
ATOM     20  C   UNL     1      -2.762  23.932  31.015  1.00  0.00     0.176 A 
ATOM     21  C   UNL     1      -4.349  25.654  30.325  1.00  0.00     0.146 A 
ATOM     22  C   UNL     1      -4.028  24.553  31.145  1.00  0.00     0.111 A 
ATOM     23  O   UNL     1      -5.527  26.261  30.430  1.00  0.00    -0.456 OA
ATOM     24  C   UNL     1      -5.007  24.126  32.071  1.00  0.00     0.197 A 
ATOM     25  C   UNL     1      -6.466  25.890  31.296  1.00  0.00     0.138 A 
ATOM     26  C   UNL     1      -6.228  24.797  32.143  1.00  0.00     0.100 A 
ATOM     27  O   UNL     1      -4.808  23.144  32.834  1.00  0.00    -0.289 OA
BRANCH  18  28
ATOM     28  O   UNL     1      -0.609  23.776  29.849  1.00  0.00    -0.502 OA
ATOM     29  H   UNL     1      -0.478  22.786  29.704  1.00  0.00     0.293 HD
ENDBRANCH  18  28
BRANCH  20  30
ATOM     30  O   UNL     1      -2.438  22.870  31.868  1.00  0.00    -0.504 OA
ATOM     31  H   UNL     1      -1.917  22.958  32.727  1.00  0.00     0.293 HD
ENDBRANCH  20  30
BRANCH  25  32
ATOM     32  C   UNL     1      -7.747  26.641  31.326  1.00  0.00     0.017 A 
ATOM     33  C   UNL     1      -8.643  26.537  32.409  1.00  0.00     0.012 A 
ATOM     34  C   UNL     1      -8.067  27.505  30.262  1.00  0.00     0.012 A 
ATOM     35  C   UNL     1      -9.838  27.266  32.412  1.00  0.00     0.001 A 
ATOM     36  C   UNL     1      -9.263  28.229  30.270  1.00  0.00     0.001 A 
ATOM     37  C   UNL     1     -10.148  28.108  31.343  1.00  0.00     0.000 A 
ENDBRANCH  25  32
ENDBRANCH   1  17
TORSDOF 9
ENDMDL
MODEL 8
REMARK VINA RESULT:    -5.765      2.654      5.039
REMARK INTER + INTRA:          -9.375
REMARK INTER:                  -7.805
REMARK INTRA:                  -1.570
REMARK UNBOUND:                -1.419
REMARK SMILES O=C([O-])[C@@H]1O[C@H](Oc2cc3oc(-c4ccccc4)cc(=O)c3c(O)c2O)[C@H](O)[C@@H](O)[C@@H]1O
REMARK SMILES IDX 7 1 6 2 4 3 31 4 5 5 29 6 27 7 2 8 1 9 3 10 32 11 30 13
REMARK SMILES IDX 28 15 8 17 25 18 9 19 23 20 10 21 22 22 11 23 20 24 12 25
REMARK SMILES IDX 19 26 21 27 26 28 24 30 13 32 14 33 18 34 15 35 17 36 16 37
REMARK H PARENT 32 12 30 14 28 16 26 29 24 31
REMARK Flexibility Score: inf
ROOT
ATOM      1  O   UNL     1      -2.477  26.083  30.741  1.00  0.00    -0.458 OA
ENDROOT
BRANCH   1   2
ATOM      2  C   UNL     1      -3.042  24.993  30.005  1.00  0.00     0.339 C 
ATOM      3  C   UNL     1      -2.797  23.363  31.727  1.00  0.00     0.199 C 
ATOM      4  C   UNL     1      -4.324  23.345  31.996  1.00  0.00     0.180 C 
ATOM      5  O   UNL     1      -2.478  23.746  30.394  1.00  0.00    -0.328 OA
ATOM      6  C   UNL     1      -4.987  24.661  31.576  1.00  0.00     0.181 C 
ATOM      7  C   UNL     1      -4.577  24.997  30.138  1.00  0.00     0.214 C 
BRANCH   3   8
ATOM      8  C   UNL     1      -1.971  24.124  32.740  1.00  0.00     0.073 C 
ATOM      9  O   UNL     1      -0.715  24.043  32.700  1.00  0.00    -0.547 OA
ATOM     10  O   UNL     1      -2.565  24.934  33.700  1.00  0.00    -0.547 OA
ENDBRANCH   3   8
BRANCH   4  11
ATOM     11  O   UNL     1      -4.596  23.088  33.351  1.00  0.00    -0.387 OA
ATOM     12  H   UNL     1      -3.816  23.422  33.867  1.00  0.00     0.211 HD
ENDBRANCH   4  11
BRANCH   6  13
ATOM     13  O   UNL     1      -6.382  24.518  31.656  1.00  0.00    -0.387 OA
ATOM     14  H   UNL     1      -6.774  25.417  31.499  1.00  0.00     0.211 HD
ENDBRANCH   6  13
BRANCH   7  15
ATOM     15  O   UNL     1      -5.089  26.257  29.787  1.00  0.00    -0.384 OA
ATOM     16  H   UNL     1      -4.358  26.914  29.931  1.00  0.00     0.211 HD
ENDBRANCH   7  15
ENDBRANCH   1   2
BRANCH   1  17
ATOM     17  C   UNL     1      -1.357  26.865  30.398  1.00  0.00     0.172 A 
ATOM     18  C   UNL     1      -0.391  27.334  31.323  1.00  0.00     0.201 A 
ATOM     19  C   UNL     1      -1.228  27.189  29.047  1.00  0.00     0.098 A 
ATOM     20  C   UNL     1       0.707  28.111  30.861  1.00  0.00     0.176 A 
ATOM     21  C   UNL     1      -0.174  27.973  28.589  1.00  0.00     0.146 A 
ATOM     22  C   UNL     1       0.804  28.445  29.488  1.00  0.00     0.111 A 
ATOM     23  O   UNL     1      -0.106  28.264  27.294  1.00  0.00    -0.456 OA
ATOM     24  C   UNL     1       1.845  29.238  28.956  1.00  0.00     0.197 A 
ATOM     25  C   UNL     1       0.866  29.000  26.760  1.00  0.00     0.138 A 
ATOM     26  C   UNL     1       1.873  29.515  27.589  1.00  0.00     0.100 A 
ATOM     27  O   UNL     1       2.754  29.711  29.691  1.00  0.00    -0.289 OA
BRANCH  18  28
ATOM     28  O   UNL     1      -0.540  27.035  32.679  1.00  0.00    -0.502 OA
ATOM     29  H   UNL     1      -0.154  26.223  33.137  1.00  0.00     0.293 HD
ENDBRANCH  18  28
BRANCH  20  30
ATOM     30  O   UNL     1       1.710  28.548  31.735  1.00  0.00    -0.504 OA
ATOM     31  H   UNL     1       2.678  28.268  31.689  1.00  0.00     0.293 HD
ENDBRANCH  20  30
BRANCH  25  32
ATOM     32  C   UNL     1       0.842  29.263  25.299  1.00  0.00     0.017 A 
ATOM     33  C   UNL     1      -0.265  29.871  24.673  1.00  0.00     0.012 A 
ATOM     34  C   UNL     1       1.963  28.927  24.517  1.00  0.00     0.012 A 
ATOM     35  C   UNL     1      -0.253  30.115  23.295  1.00  0.00     0.001 A 
ATOM     36  C   UNL     1       1.968  29.172  23.140  1.00  0.00     0.001 A 
ATOM     37  C   UNL     1       0.861  29.764  22.529  1.00  0.00     0.000 A 
ENDBRANCH  25  32
ENDBRANCH   1  17
TORSDOF 9
ENDMDL
MODEL 9
REMARK VINA RESULT:    -5.461      1.745      2.741
REMARK INTER + INTRA:          -8.955
REMARK INTER:                  -7.740
REMARK INTRA:                  -1.215
REMARK UNBOUND:                -1.419
REMARK SMILES O=C([O-])[C@@H]1O[C@H](Oc2cc3oc(-c4ccccc4)cc(=O)c3c(O)c2O)[C@H](O)[C@@H](O)[C@@H]1O
REMARK SMILES IDX 7 1 6 2 4 3 31 4 5 5 29 6 27 7 2 8 1 9 3 10 32 11 30 13
REMARK SMILES IDX 28 15 8 17 25 18 9 19 23 20 10 21 22 22 11 23 20 24 12 25
REMARK SMILES IDX 19 26 21 27 26 28 24 30 13 32 14 33 18 34 15 35 17 36 16 37
REMARK H PARENT 32 12 30 14 28 16 26 29 24 31
REMARK Flexibility Score: inf
ROOT
ATOM      1  O   UNL     1      -4.083  25.207  31.046  1.00  0.00    -0.458 OA
ENDROOT
BRANCH   1   2
ATOM      2  C   UNL     1      -3.651  24.751  32.332  1.00  0.00     0.339 C 
ATOM      3  C   UNL     1      -5.157  26.093  33.602  1.00  0.00     0.199 C 
ATOM      4  C   UNL     1      -6.014  24.858  33.985  1.00  0.00     0.180 C 
ATOM      5  O   UNL     1      -3.802  25.757  33.326  1.00  0.00    -0.328 OA
ATOM      6  C   UNL     1      -5.873  23.732  32.954  1.00  0.00     0.181 C 
ATOM      7  C   UNL     1      -4.386  23.451  32.712  1.00  0.00     0.214 C 
BRANCH   3   8
ATOM      8  C   UNL     1      -5.744  26.979  32.527  1.00  0.00     0.073 C 
ATOM      9  O   UNL     1      -5.145  28.039  32.204  1.00  0.00    -0.547 OA
ATOM     10  O   UNL     1      -6.918  26.638  31.866  1.00  0.00    -0.547 OA
ENDBRANCH   3   8
BRANCH   4  11
ATOM     11  O   UNL     1      -7.368  25.206  34.125  1.00  0.00    -0.387 OA
ATOM     12  H   UNL     1      -7.860  24.367  34.325  1.00  0.00     0.211 HD
ENDBRANCH   4  11
BRANCH   6  13
ATOM     13  O   UNL     1      -6.506  22.578  33.445  1.00  0.00    -0.387 OA
ATOM     14  H   UNL     1      -7.470  22.659  33.220  1.00  0.00     0.211 HD
ENDBRANCH   6  13
BRANCH   7  15
ATOM     15  O   UNL     1      -4.249  22.501  31.687  1.00  0.00    -0.384 OA
ATOM     16  H   UNL     1      -5.135  22.063  31.583  1.00  0.00     0.211 HD
ENDBRANCH   7  15
ENDBRANCH   1   2
BRANCH   1  17
ATOM     17  C   UNL     1      -3.286  25.689  29.990  1.00  0.00     0.172 A 
ATOM     18  C   UNL     1      -3.711  25.787  28.641  1.00  0.00     0.201 A 
ATOM     19  C   UNL     1      -1.990  26.076  30.331  1.00  0.00     0.098 A 
ATOM     20  C   UNL     1      -2.820  26.297  27.657  1.00  0.00     0.176 A 
ATOM     21  C   UNL     1      -1.100  26.549  29.372  1.00  0.00     0.146 A 
ATOM     22  C   UNL     1      -1.502  26.664  28.025  1.00  0.00     0.111 A 
ATOM     23  O   UNL     1       0.128  26.892  29.747  1.00  0.00    -0.456 OA
ATOM     24  C   UNL     1      -0.548  27.149  27.102  1.00  0.00     0.197 A 
ATOM     25  C   UNL     1       1.046  27.360  28.906  1.00  0.00     0.138 A 
ATOM     26  C   UNL     1       0.728  27.496  27.546  1.00  0.00     0.100 A 
ATOM     27  O   UNL     1      -0.819  27.272  25.877  1.00  0.00    -0.289 OA
BRANCH  18  28
ATOM     28  O   UNL     1      -4.998  25.369  28.298  1.00  0.00    -0.502 OA
ATOM     29  H   UNL     1      -5.278  24.409  28.162  1.00  0.00     0.293 HD
ENDBRANCH  18  28
BRANCH  20  30
ATOM     30  O   UNL     1      -3.220  26.460  26.326  1.00  0.00    -0.504 OA
ATOM     31  H   UNL     1      -3.647  27.292  25.948  1.00  0.00     0.293 HD
ENDBRANCH  20  30
BRANCH  25  32
ATOM     32  C   UNL     1       2.388  27.711  29.436  1.00  0.00     0.017 A 
ATOM     33  C   UNL     1       3.561  27.503  28.684  1.00  0.00     0.012 A 
ATOM     34  C   UNL     1       2.496  28.298  30.711  1.00  0.00     0.012 A 
ATOM     35  C   UNL     1       4.811  27.853  29.207  1.00  0.00     0.001 A 
ATOM     36  C   UNL     1       3.747  28.645  31.229  1.00  0.00     0.001 A 
ATOM     37  C   UNL     1       4.903  28.421  30.480  1.00  0.00     0.000 A 
ENDBRANCH  25  32
ENDBRANCH   1  17
TORSDOF 9
ENDMDL
