MODEL 1
REMARK VINA RESULT:     6.311      0.000      0.000
REMARK INTER + INTRA:           6.864
REMARK INTER:                   6.864
REMARK INTRA:                   0.000
REMARK UNBOUND:                 0.000
REMARK SMILES Cc1cc(O)c2c(c1)C(=O)c1cc(O)cc(O)c1C2=O
REMARK SMILES IDX 1 1 2 2 8 3 7 4 6 5 4 6 3 7 19 8 20 9 18 10 11 11 9 12 10 13
REMARK SMILES IDX 12 14 13 15 15 16 16 17 5 18 17 20 14 22
REMARK H PARENT 5 19 17 21 14 23
REMARK Flexibility Score: inf
ROOT
ATOM      1  C   UNL     1      55.664 -10.875  44.305  1.00  0.00     0.044 C 
ATOM      2  C   UNL     1      57.086 -11.074  43.867  1.00  0.00    -0.047 A 
ATOM      3  C   UNL     1      57.366 -11.547  42.580  1.00  0.00     0.016 A 
ATOM      4  C   UNL     1      58.691 -11.763  42.170  1.00  0.00     0.038 A 
ATOM      5  C   UNL     1      59.756 -11.503  43.062  1.00  0.00     0.076 A 
ATOM      6  C   UNL     1      59.461 -11.104  44.392  1.00  0.00     0.127 A 
ATOM      7  C   UNL     1      58.135 -10.876  44.771  1.00  0.00     0.050 A 
ATOM      8  C   UNL     1      61.145 -11.600  42.546  1.00  0.00     0.201 C 
ATOM      9  O   UNL     1      62.049 -10.875  43.041  1.00  0.00    -0.288 OA
ATOM     10  C   UNL     1      61.427 -12.408  41.332  1.00  0.00     0.076 A 
ATOM     11  C   UNL     1      60.360 -12.669  40.442  1.00  0.00     0.041 A 
ATOM     12  C   UNL     1      58.979 -12.271  40.807  1.00  0.00     0.194 C 
ATOM     13  O   UNL     1      58.046 -12.388  39.967  1.00  0.00    -0.289 OA
ATOM     14  C   UNL     1      60.612 -13.310  39.218  1.00  0.00     0.059 A 
ATOM     15  C   UNL     1      61.908 -13.706  38.877  1.00  0.00     0.120 A 
ATOM     16  C   UNL     1      62.956 -13.486  39.771  1.00  0.00     0.093 A 
ATOM     17  C   UNL     1      62.729 -12.868  41.004  1.00  0.00     0.131 A 
ENDROOT
BRANCH   6  18
ATOM     18  O   UNL     1      60.446 -10.960  45.373  1.00  0.00    -0.507 OA
ATOM     19  H   UNL     1      61.411 -11.226  45.237  1.00  0.00     0.293 HD
ENDBRANCH   6  18
BRANCH  17  20
ATOM     20  O   UNL     1      63.810 -12.764  41.883  1.00  0.00    -0.507 OA
ATOM     21  H   UNL     1      63.723 -12.462  42.843  1.00  0.00     0.293 HD
ENDBRANCH  17  20
BRANCH  15  22
ATOM     22  O   UNL     1      62.165 -14.330  37.659  1.00  0.00    -0.508 OA
ATOM     23  H   UNL     1      63.108 -14.418  37.297  1.00  0.00     0.293 HD
ENDBRANCH  15  22
TORSDOF 3
ENDMDL
MODEL 2
REMARK VINA RESULT:     7.201      1.482      6.231
REMARK INTER + INTRA:           7.832
REMARK INTER:                   7.832
REMARK INTRA:                   0.000
REMARK UNBOUND:                 0.000
REMARK SMILES Cc1cc(O)c2c(c1)C(=O)c1cc(O)cc(O)c1C2=O
REMARK SMILES IDX 1 1 2 2 8 3 7 4 6 5 4 6 3 7 19 8 20 9 18 10 11 11 9 12 10 13
REMARK SMILES IDX 12 14 13 15 15 16 16 17 5 18 17 20 14 22
REMARK H PARENT 5 19 17 21 14 23
REMARK Flexibility Score: inf
ROOT
ATOM      1  C   UNL     1      63.233 -14.415  38.858  1.00  0.00     0.044 C 
ATOM      2  C   UNL     1      62.094 -13.707  39.532  1.00  0.00    -0.047 A 
ATOM      3  C   UNL     1      62.200 -13.321  40.872  1.00  0.00     0.016 A 
ATOM      4  C   UNL     1      61.129 -12.683  41.520  1.00  0.00     0.038 A 
ATOM      5  C   UNL     1      59.931 -12.428  40.815  1.00  0.00     0.076 A 
ATOM      6  C   UNL     1      59.800 -12.898  39.482  1.00  0.00     0.127 A 
ATOM      7  C   UNL     1      60.887 -13.512  38.853  1.00  0.00     0.050 A 
ATOM      8  C   UNL     1      58.879 -11.622  41.486  1.00  0.00     0.201 C 
ATOM      9  O   UNL     1      58.108 -10.901  40.797  1.00  0.00    -0.288 OA
ATOM     10  C   UNL     1      58.859 -11.521  42.968  1.00  0.00     0.076 A 
ATOM     11  C   UNL     1      60.057 -11.779  43.670  1.00  0.00     0.041 A 
ATOM     12  C   UNL     1      61.247 -12.283  42.942  1.00  0.00     0.194 C 
ATOM     13  O   UNL     1      62.352 -12.395  43.541  1.00  0.00    -0.289 OA
ATOM     14  C   UNL     1      60.115 -11.561  45.057  1.00  0.00     0.059 A 
ATOM     15  C   UNL     1      58.992 -11.105  45.752  1.00  0.00     0.120 A 
ATOM     16  C   UNL     1      57.796 -10.888  45.067  1.00  0.00     0.093 A 
ATOM     17  C   UNL     1      57.706 -11.116  43.691  1.00  0.00     0.131 A 
ENDROOT
BRANCH   6  18
ATOM     18  O   UNL     1      58.604 -12.809  38.765  1.00  0.00    -0.507 OA
ATOM     19  H   UNL     1      57.748 -13.262  39.050  1.00  0.00     0.293 HD
ENDBRANCH   6  18
BRANCH  17  20
ATOM     20  O   UNL     1      56.453 -10.965  43.092  1.00  0.00    -0.507 OA
ATOM     21  H   UNL     1      56.055 -10.069  42.847  1.00  0.00     0.293 HD
ENDBRANCH  17  20
BRANCH  15  22
ATOM     22  O   UNL     1      59.048 -10.875  47.124  1.00  0.00    -0.508 OA
ATOM     23  H   UNL     1      58.315 -10.369  47.608  1.00  0.00     0.293 HD
ENDBRANCH  15  22
TORSDOF 3
ENDMDL
MODEL 3
REMARK VINA RESULT:     8.829      1.848      3.688
REMARK INTER + INTRA:           9.604
REMARK INTER:                   9.604
REMARK INTRA:                   0.000
REMARK UNBOUND:                 0.000
REMARK SMILES Cc1cc(O)c2c(c1)C(=O)c1cc(O)cc(O)c1C2=O
REMARK SMILES IDX 1 1 2 2 8 3 7 4 6 5 4 6 3 7 19 8 20 9 18 10 11 11 9 12 10 13
REMARK SMILES IDX 12 14 13 15 15 16 16 17 5 18 17 20 14 22
REMARK H PARENT 5 19 17 21 14 23
REMARK Flexibility Score: inf
ROOT
ATOM      1  C   UNL     1      55.672 -10.924  44.696  1.00  0.00     0.044 C 
ATOM      2  C   UNL     1      56.811 -11.042  43.726  1.00  0.00    -0.047 A 
ATOM      3  C   UNL     1      58.127 -11.120  44.192  1.00  0.00     0.016 A 
ATOM      4  C   UNL     1      59.202 -11.202  43.292  1.00  0.00     0.038 A 
ATOM      5  C   UNL     1      58.956 -11.206  41.901  1.00  0.00     0.076 A 
ATOM      6  C   UNL     1      57.627 -11.042  41.434  1.00  0.00     0.127 A 
ATOM      7  C   UNL     1      56.571 -10.982  42.349  1.00  0.00     0.050 A 
ATOM      8  C   UNL     1      60.102 -11.443  40.985  1.00  0.00     0.201 C 
ATOM      9  O   UNL     1      59.910 -12.010  39.876  1.00  0.00    -0.288 OA
ATOM     10  C   UNL     1      61.488 -11.186  41.454  1.00  0.00     0.076 A 
ATOM     11  C   UNL     1      61.731 -11.180  42.846  1.00  0.00     0.041 A 
ATOM     12  C   UNL     1      60.595 -11.277  43.795  1.00  0.00     0.194 C 
ATOM     13  O   UNL     1      60.814 -11.399  45.031  1.00  0.00    -0.289 OA
ATOM     14  C   UNL     1      63.047 -11.077  43.326  1.00  0.00     0.059 A 
ATOM     15  C   UNL     1      64.119 -10.965  42.437  1.00  0.00     0.120 A 
ATOM     16  C   UNL     1      63.879 -10.929  41.063  1.00  0.00     0.093 A 
ATOM     17  C   UNL     1      62.577 -11.010  40.562  1.00  0.00     0.131 A 
ENDROOT
BRANCH   6  18
ATOM     18  O   UNL     1      57.315 -10.897  40.079  1.00  0.00    -0.507 OA
ATOM     19  H   UNL     1      57.983 -11.041  39.335  1.00  0.00     0.293 HD
ENDBRANCH   6  18
BRANCH  17  20
ATOM     20  O   UNL     1      62.408 -10.876  39.181  1.00  0.00    -0.507 OA
ATOM     21  H   UNL     1      61.530 -11.032  38.708  1.00  0.00     0.293 HD
ENDBRANCH  17  20
BRANCH  15  22
ATOM     22  O   UNL     1      65.427 -10.875  42.908  1.00  0.00    -0.508 OA
ATOM     23  H   UNL     1      66.145 -10.380  42.389  1.00  0.00     0.293 HD
ENDBRANCH  15  22
TORSDOF 3
ENDMDL
