MODEL 1
REMARK VINA RESULT:    -7.738      0.000      0.000
REMARK INTER + INTRA:         -14.719
REMARK INTER:                 -13.393
REMARK INTRA:                  -1.326
REMARK UNBOUND:                -1.326
REMARK SMILES OC[C@@H]1O[C@H](O)[C@H](O)[C@H](O)[C@H]1O[C@H]1O[C@H](CO)[C@H](O[C@@H]2O[C@H](CO)[C@@H](O)[C@H](O)[C@@H]2O)[C@@H](O)[C@H]1O
REMARK SMILES IDX 18 1 15 2 14 3 13 4 33 5 31 6 19 7 20 8 22 9 25 10 21 11
REMARK SMILES IDX 27 12 29 13 23 14 24 15 26 17 28 19 30 21 16 23 17 24 32 26
REMARK SMILES IDX 34 28 12 30 11 31 3 32 9 33 4 34 7 35 5 36 2 37 1 38 10 40
REMARK SMILES IDX 8 42 6 44
REMARK H PARENT 24 16 26 18 28 20 30 22 17 25 32 27 34 29 1 39 10 41 8 43 6 45
REMARK Flexibility Score: inf
ROOT
ATOM      1  C   UNL     1      -1.032  17.218  24.716  1.00  0.00     0.184 C 
ATOM      2  C   UNL     1      -2.100  16.756  25.734  1.00  0.00     0.178 C 
ATOM      3  O   UNL     1      -2.228  15.342  25.670  1.00  0.00    -0.341 OA
ATOM      4  C   UNL     1      -1.051  14.662  26.089  1.00  0.00     0.282 C 
ATOM      5  C   UNL     1       0.156  15.070  25.190  1.00  0.00     0.202 C 
ATOM      6  C   UNL     1       0.310  16.601  25.139  1.00  0.00     0.180 C 
ENDROOT
BRANCH   1   7
ATOM      7  O   UNL     1      -1.421  16.713  23.447  1.00  0.00    -0.341 OA
BRANCH   7   8
ATOM      8  C   UNL     1      -0.951  17.456  22.344  1.00  0.00     0.282 C 
ATOM      9  C   UNL     1      -1.103  19.620  21.440  1.00  0.00     0.178 C 
ATOM     10  C   UNL     1      -1.800  19.165  20.140  1.00  0.00     0.177 C 
ATOM     11  O   UNL     1      -1.481  18.763  22.498  1.00  0.00    -0.341 OA
ATOM     12  C   UNL     1      -1.347  17.734  19.818  1.00  0.00     0.179 C 
ATOM     13  C   UNL     1      -1.495  16.792  21.045  1.00  0.00     0.202 C 
BRANCH   9  14
ATOM     14  C   UNL     1      -1.509  21.052  21.807  1.00  0.00     0.191 C 
BRANCH  14  15
ATOM     15  O   UNL     1      -1.452  21.200  23.205  1.00  0.00    -0.394 OA
ATOM     16  H   UNL     1      -0.860  21.979  23.380  1.00  0.00     0.210 HD
ENDBRANCH  14  15
ENDBRANCH   9  14
BRANCH  10  17
ATOM     17  O   UNL     1      -1.435  20.011  19.078  1.00  0.00    -0.387 OA
ATOM     18  H   UNL     1      -0.532  19.736  18.775  1.00  0.00     0.211 HD
ENDBRANCH  10  17
BRANCH  12  19
ATOM     19  O   UNL     1      -2.008  17.234  18.678  1.00  0.00    -0.387 OA
ATOM     20  H   UNL     1      -1.347  16.857  18.051  1.00  0.00     0.211 HD
ENDBRANCH  12  19
BRANCH  13  21
ATOM     21  O   UNL     1      -2.820  16.350  21.216  1.00  0.00    -0.385 OA
ATOM     22  H   UNL     1      -2.822  15.682  21.957  1.00  0.00     0.211 HD
ENDBRANCH  13  21
ENDBRANCH   7   8
ENDBRANCH   1   7
BRANCH   2  23
ATOM     23  C   UNL     1      -3.482  17.365  25.419  1.00  0.00     0.191 C 
BRANCH  23  24
ATOM     24  O   UNL     1      -3.861  17.122  24.085  1.00  0.00    -0.394 OA
ATOM     25  H   UNL     1      -4.710  17.631  23.939  1.00  0.00     0.210 HD
ENDBRANCH  23  24
ENDBRANCH   2  23
BRANCH   6  26
ATOM     26  O   UNL     1       0.701  17.108  26.389  1.00  0.00    -0.387 OA
ATOM     27  H   UNL     1       1.293  16.428  26.810  1.00  0.00     0.211 HD
ENDBRANCH   6  26
BRANCH   5  28
ATOM     28  O   UNL     1       1.358  14.462  25.575  1.00  0.00    -0.385 OA
ATOM     29  H   UNL     1       1.444  14.578  26.558  1.00  0.00     0.211 HD
ENDBRANCH   5  28
BRANCH   4  30
ATOM     30  O   UNL     1      -0.879  14.850  27.494  1.00  0.00    -0.341 OA
BRANCH  30  31
ATOM     31  C   UNL     1      -0.573  13.696  28.292  1.00  0.00     0.184 C 
ATOM     32  C   UNL     1      -1.609  13.706  29.469  1.00  0.00     0.178 C 
ATOM     33  C   UNL     1      -0.586  12.319  27.531  1.00  0.00     0.180 C 
ATOM     34  O   UNL     1      -2.900  13.212  29.116  1.00  0.00    -0.342 OA
ATOM     35  C   UNL     1      -2.035  11.928  27.213  1.00  0.00     0.201 C 
ATOM     36  C   UNL     1      -2.896  11.932  28.491  1.00  0.00     0.279 C 
BRANCH  32  37
ATOM     37  C   UNL     1      -1.116  13.185  30.843  1.00  0.00     0.191 C 
BRANCH  37  38
ATOM     38  O   UNL     1      -1.862  13.690  31.911  1.00  0.00    -0.394 OA
ATOM     39  H   UNL     1      -2.802  13.762  31.589  1.00  0.00     0.210 HD
ENDBRANCH  37  38
ENDBRANCH  32  37
BRANCH  33  40
ATOM     40  O   UNL     1       0.028  11.331  28.317  1.00  0.00    -0.387 OA
ATOM     41  H   UNL     1      -0.625  10.603  28.460  1.00  0.00     0.211 HD
ENDBRANCH  33  40
BRANCH  35  42
ATOM     42  O   UNL     1      -2.113  10.694  26.538  1.00  0.00    -0.385 OA
ATOM     43  H   UNL     1      -1.732   9.994  27.136  1.00  0.00     0.211 HD
ENDBRANCH  35  42
BRANCH  36  44
ATOM     44  O   UNL     1      -2.510  10.932  29.407  1.00  0.00    -0.366 OA
ATOM     45  H   UNL     1      -3.137  10.975  30.172  1.00  0.00     0.213 HD
ENDBRANCH  36  44
ENDBRANCH  30  31
ENDBRANCH   4  30
TORSDOF 18
ENDMDL
MODEL 2
REMARK VINA RESULT:    -7.591      2.812      9.830
REMARK INTER + INTRA:         -14.464
REMARK INTER:                 -12.598
REMARK INTRA:                  -1.867
REMARK UNBOUND:                -1.326
REMARK SMILES OC[C@@H]1O[C@H](O)[C@H](O)[C@H](O)[C@H]1O[C@H]1O[C@H](CO)[C@H](O[C@@H]2O[C@H](CO)[C@@H](O)[C@H](O)[C@@H]2O)[C@@H](O)[C@H]1O
REMARK SMILES IDX 18 1 15 2 14 3 13 4 33 5 31 6 19 7 20 8 22 9 25 10 21 11
REMARK SMILES IDX 27 12 29 13 23 14 24 15 26 17 28 19 30 21 16 23 17 24 32 26
REMARK SMILES IDX 34 28 12 30 11 31 3 32 9 33 4 34 7 35 5 36 2 37 1 38 10 40
REMARK SMILES IDX 8 42 6 44
REMARK H PARENT 24 16 26 18 28 20 30 22 17 25 32 27 34 29 1 39 10 41 8 43 6 45
REMARK Flexibility Score: inf
ROOT
ATOM      1  C   UNL     1      -2.212  11.911  28.928  1.00  0.00     0.184 C 
ATOM      2  C   UNL     1      -2.511  13.402  29.206  1.00  0.00     0.178 C 
ATOM      3  O   UNL     1      -1.285  14.108  29.344  1.00  0.00    -0.341 OA
ATOM      4  C   UNL     1      -0.527  14.138  28.141  1.00  0.00     0.282 C 
ATOM      5  C   UNL     1      -0.189  12.687  27.681  1.00  0.00     0.202 C 
ATOM      6  C   UNL     1      -1.464  11.829  27.589  1.00  0.00     0.180 C 
ENDROOT
BRANCH   1   7
ATOM      7  O   UNL     1      -1.376  11.451  29.981  1.00  0.00    -0.341 OA
BRANCH   7   8
ATOM      8  C   UNL     1      -1.683  10.160  30.460  1.00  0.00     0.282 C 
ATOM      9  C   UNL     1      -1.671   8.939  32.468  1.00  0.00     0.178 C 
ATOM     10  C   UNL     1      -0.619   7.916  31.988  1.00  0.00     0.177 C 
ATOM     11  O   UNL     1      -1.423  10.188  31.854  1.00  0.00    -0.341 OA
ATOM     12  C   UNL     1      -0.745   7.766  30.465  1.00  0.00     0.179 C 
ATOM     13  C   UNL     1      -0.744   9.143  29.747  1.00  0.00     0.202 C 
BRANCH   9  14
ATOM     14  C   UNL     1      -1.601   9.124  33.989  1.00  0.00     0.191 C 
BRANCH  14  15
ATOM     15  O   UNL     1      -2.383   8.131  34.607  1.00  0.00    -0.394 OA
ATOM     16  H   UNL     1      -3.172   8.595  34.992  1.00  0.00     0.210 HD
ENDBRANCH  14  15
ENDBRANCH   9  14
BRANCH  10  17
ATOM     17  O   UNL     1      -0.851   6.669  32.592  1.00  0.00    -0.387 OA
ATOM     18  H   UNL     1      -1.134   6.839  33.527  1.00  0.00     0.211 HD
ENDBRANCH  10  17
BRANCH  12  19
ATOM     19  O   UNL     1       0.241   6.896  29.955  1.00  0.00    -0.387 OA
ATOM     20  H   UNL     1       0.245   6.060  30.476  1.00  0.00     0.211 HD
ENDBRANCH  12  19
BRANCH  13  21
ATOM     21  O   UNL     1       0.555   9.665  29.602  1.00  0.00    -0.385 OA
ATOM     22  H   UNL     1       1.078   9.399  30.408  1.00  0.00     0.211 HD
ENDBRANCH  13  21
ENDBRANCH   7   8
ENDBRANCH   1   7
BRANCH   2  23
ATOM     23  C   UNL     1      -3.306  13.585  30.515  1.00  0.00     0.191 C 
BRANCH  23  24
ATOM     24  O   UNL     1      -2.449  13.740  31.623  1.00  0.00    -0.394 OA
ATOM     25  H   UNL     1      -1.517  13.659  31.268  1.00  0.00     0.210 HD
ENDBRANCH  23  24
ENDBRANCH   2  23
BRANCH   6  26
ATOM     26  O   UNL     1      -2.293  12.273  26.546  1.00  0.00    -0.387 OA
ATOM     27  H   UNL     1      -3.036  12.790  26.960  1.00  0.00     0.211 HD
ENDBRANCH   6  26
BRANCH   5  28
ATOM     28  O   UNL     1       0.527  12.644  26.478  1.00  0.00    -0.385 OA
ATOM     29  H   UNL     1       0.594  13.578  26.143  1.00  0.00     0.211 HD
ENDBRANCH   5  28
BRANCH   4  30
ATOM     30  O   UNL     1      -1.200  14.959  27.186  1.00  0.00    -0.341 OA
BRANCH  30  31
ATOM     31  C   UNL     1      -0.545  16.162  26.756  1.00  0.00     0.184 C 
ATOM     32  C   UNL     1       0.458  15.723  25.634  1.00  0.00     0.178 C 
ATOM     33  C   UNL     1      -1.495  17.313  26.256  1.00  0.00     0.180 C 
ATOM     34  O   UNL     1      -0.147  15.508  24.360  1.00  0.00    -0.342 OA
ATOM     35  C   UNL     1      -2.074  16.933  24.887  1.00  0.00     0.201 C 
ATOM     36  C   UNL     1      -0.948  16.590  23.892  1.00  0.00     0.279 C 
BRANCH  32  37
ATOM     37  C   UNL     1       1.796  16.498  25.545  1.00  0.00     0.191 C 
BRANCH  37  38
ATOM     38  O   UNL     1       1.778  17.692  26.271  1.00  0.00    -0.394 OA
ATOM     39  H   UNL     1       1.410  18.388  25.660  1.00  0.00     0.210 HD
ENDBRANCH  37  38
ENDBRANCH  32  37
BRANCH  33  40
ATOM     40  O   UNL     1      -0.783  18.519  26.171  1.00  0.00    -0.387 OA
ATOM     41  H   UNL     1       0.000  18.456  26.770  1.00  0.00     0.211 HD
ENDBRANCH  33  40
BRANCH  35  42
ATOM     42  O   UNL     1      -2.927  17.933  24.380  1.00  0.00    -0.385 OA
ATOM     43  H   UNL     1      -2.521  18.818  24.591  1.00  0.00     0.211 HD
ENDBRANCH  35  42
BRANCH  36  44
ATOM     44  O   UNL     1      -0.143  17.705  23.580  1.00  0.00    -0.366 OA
ATOM     45  H   UNL     1       0.332  17.498  22.736  1.00  0.00     0.213 HD
ENDBRANCH  36  44
ENDBRANCH  30  31
ENDBRANCH   4  30
TORSDOF 18
ENDMDL
MODEL 3
REMARK VINA RESULT:    -7.451      7.253      8.727
REMARK INTER + INTRA:         -14.222
REMARK INTER:                 -12.553
REMARK INTRA:                  -1.669
REMARK UNBOUND:                -1.326
REMARK SMILES OC[C@@H]1O[C@H](O)[C@H](O)[C@H](O)[C@H]1O[C@H]1O[C@H](CO)[C@H](O[C@@H]2O[C@H](CO)[C@@H](O)[C@H](O)[C@@H]2O)[C@@H](O)[C@H]1O
REMARK SMILES IDX 18 1 15 2 14 3 13 4 33 5 31 6 19 7 20 8 22 9 25 10 21 11
REMARK SMILES IDX 27 12 29 13 23 14 24 15 26 17 28 19 30 21 16 23 17 24 32 26
REMARK SMILES IDX 34 28 12 30 11 31 3 32 9 33 4 34 7 35 5 36 2 37 1 38 10 40
REMARK SMILES IDX 8 42 6 44
REMARK H PARENT 24 16 26 18 28 20 30 22 17 25 32 27 34 29 1 39 10 41 8 43 6 45
REMARK Flexibility Score: inf
ROOT
ATOM      1  C   UNL     1      -3.739   7.952  24.627  1.00  0.00     0.184 C 
ATOM      2  C   UNL     1      -2.383   7.368  25.086  1.00  0.00     0.178 C 
ATOM      3  O   UNL     1      -1.566   8.419  25.586  1.00  0.00    -0.341 OA
ATOM      4  C   UNL     1      -2.091   9.013  26.767  1.00  0.00     0.282 C 
ATOM      5  C   UNL     1      -3.506   9.605  26.488  1.00  0.00     0.202 C 
ATOM      6  C   UNL     1      -4.432   8.545  25.863  1.00  0.00     0.180 C 
ENDROOT
BRANCH   1   7
ATOM      7  O   UNL     1      -3.453   8.980  23.689  1.00  0.00    -0.341 OA
BRANCH   7   8
ATOM      8  C   UNL     1      -4.522   9.313  22.832  1.00  0.00     0.282 C 
ATOM      9  C   UNL     1      -6.724   8.639  22.358  1.00  0.00     0.178 C 
ATOM     10  C   UNL     1      -6.414   8.206  20.909  1.00  0.00     0.177 C 
ATOM     11  O   UNL     1      -5.581   8.429  23.163  1.00  0.00    -0.341 OA
ATOM     12  C   UNL     1      -5.257   9.065  20.380  1.00  0.00     0.179 C 
ATOM     13  C   UNL     1      -4.055   9.084  21.364  1.00  0.00     0.202 C 
BRANCH   9  14
ATOM     14  C   UNL     1      -7.883   7.821  22.939  1.00  0.00     0.191 C 
BRANCH  14  15
ATOM     15  O   UNL     1      -9.081   8.538  22.766  1.00  0.00    -0.394 OA
ATOM     16  H   UNL     1      -9.654   7.985  22.172  1.00  0.00     0.210 HD
ENDBRANCH  14  15
ENDBRANCH   9  14
BRANCH  10  17
ATOM     17  O   UNL     1      -7.543   8.407  20.096  1.00  0.00    -0.387 OA
ATOM     18  H   UNL     1      -7.891   9.315  20.288  1.00  0.00     0.211 HD
ENDBRANCH  10  17
BRANCH  12  19
ATOM     19  O   UNL     1      -4.878   8.666  19.081  1.00  0.00    -0.387 OA
ATOM     20  H   UNL     1      -5.657   8.716  18.480  1.00  0.00     0.211 HD
ENDBRANCH  12  19
BRANCH  13  21
ATOM     21  O   UNL     1      -3.263   7.927  21.257  1.00  0.00    -0.385 OA
ATOM     22  H   UNL     1      -3.112   7.753  20.287  1.00  0.00     0.211 HD
ENDBRANCH  13  21
ENDBRANCH   7   8
ENDBRANCH   1   7
BRANCH   2  23
ATOM     23  C   UNL     1      -1.628   6.704  23.917  1.00  0.00     0.191 C 
BRANCH  23  24
ATOM     24  O   UNL     1      -1.013   7.663  23.088  1.00  0.00    -0.394 OA
ATOM     25  H   UNL     1      -0.659   7.162  22.298  1.00  0.00     0.210 HD
ENDBRANCH  23  24
ENDBRANCH   2  23
BRANCH   6  26
ATOM     26  O   UNL     1      -4.725   7.528  26.786  1.00  0.00    -0.387 OA
ATOM     27  H   UNL     1      -4.103   7.640  27.554  1.00  0.00     0.211 HD
ENDBRANCH   6  26
BRANCH   5  28
ATOM     28  O   UNL     1      -4.098  10.174  27.623  1.00  0.00    -0.385 OA
ATOM     29  H   UNL     1      -4.882   9.610  27.860  1.00  0.00     0.211 HD
ENDBRANCH   5  28
BRANCH   4  30
ATOM     30  O   UNL     1      -2.003   8.075  27.840  1.00  0.00    -0.341 OA
BRANCH  30  31
ATOM     31  C   UNL     1      -0.929   8.230  28.779  1.00  0.00     0.184 C 
ATOM     32  C   UNL     1      -1.210   9.578  29.528  1.00  0.00     0.178 C 
ATOM     33  C   UNL     1      -0.734   7.042  29.793  1.00  0.00     0.180 C 
ATOM     34  O   UNL     1      -2.194   9.482  30.556  1.00  0.00    -0.342 OA
ATOM     35  C   UNL     1      -1.870   7.065  30.825  1.00  0.00     0.201 C 
ATOM     36  C   UNL     1      -1.964   8.445  31.505  1.00  0.00     0.279 C 
BRANCH  32  37
ATOM     37  C   UNL     1       0.022  10.419  29.947  1.00  0.00     0.191 C 
BRANCH  37  38
ATOM     38  O   UNL     1       0.456  11.283  28.937  1.00  0.00    -0.394 OA
ATOM     39  H   UNL     1       0.169  10.873  28.075  1.00  0.00     0.210 HD
ENDBRANCH  37  38
ENDBRANCH  32  37
BRANCH  33  40
ATOM     40  O   UNL     1       0.511   7.155  30.430  1.00  0.00    -0.387 OA
ATOM     41  H   UNL     1       0.817   8.090  30.341  1.00  0.00     0.211 HD
ENDBRANCH  33  40
BRANCH  35  42
ATOM     42  O   UNL     1      -1.744   6.028  31.770  1.00  0.00    -0.385 OA
ATOM     43  H   UNL     1      -2.523   6.081  32.389  1.00  0.00     0.211 HD
ENDBRANCH  35  42
BRANCH  36  44
ATOM     44  O   UNL     1      -0.833   8.737  32.296  1.00  0.00    -0.366 OA
ATOM     45  H   UNL     1      -1.162   9.012  33.189  1.00  0.00     0.213 HD
ENDBRANCH  36  44
ENDBRANCH  30  31
ENDBRANCH   4  30
TORSDOF 18
ENDMDL
MODEL 4
REMARK VINA RESULT:    -7.404      2.607      9.644
REMARK INTER + INTRA:         -14.140
REMARK INTER:                 -12.495
REMARK INTRA:                  -1.644
REMARK UNBOUND:                -1.326
REMARK SMILES OC[C@@H]1O[C@H](O)[C@H](O)[C@H](O)[C@H]1O[C@H]1O[C@H](CO)[C@H](O[C@@H]2O[C@H](CO)[C@@H](O)[C@H](O)[C@@H]2O)[C@@H](O)[C@H]1O
REMARK SMILES IDX 18 1 15 2 14 3 13 4 33 5 31 6 19 7 20 8 22 9 25 10 21 11
REMARK SMILES IDX 27 12 29 13 23 14 24 15 26 17 28 19 30 21 16 23 17 24 32 26
REMARK SMILES IDX 34 28 12 30 11 31 3 32 9 33 4 34 7 35 5 36 2 37 1 38 10 40
REMARK SMILES IDX 8 42 6 44
REMARK H PARENT 24 16 26 18 28 20 30 22 17 25 32 27 34 29 1 39 10 41 8 43 6 45
REMARK Flexibility Score: inf
ROOT
ATOM      1  C   UNL     1      -1.900  11.930  29.058  1.00  0.00     0.184 C 
ATOM      2  C   UNL     1      -2.489  13.357  29.151  1.00  0.00     0.178 C 
ATOM      3  O   UNL     1      -1.426  14.298  29.230  1.00  0.00    -0.341 OA
ATOM      4  C   UNL     1      -0.636  14.338  28.048  1.00  0.00     0.282 C 
ATOM      5  C   UNL     1      -0.010  12.938  27.770  1.00  0.00     0.202 C 
ATOM      6  C   UNL     1      -1.093  11.845  27.754  1.00  0.00     0.180 C 
ENDROOT
BRANCH   1   7
ATOM      7  O   UNL     1      -1.039  11.761  30.175  1.00  0.00    -0.341 OA
BRANCH   7   8
ATOM      8  C   UNL     1      -0.666  10.427  30.439  1.00  0.00     0.282 C 
ATOM      9  C   UNL     1      -1.015   8.262  29.592  1.00  0.00     0.178 C 
ATOM     10  C   UNL     1      -1.721   7.742  30.863  1.00  0.00     0.177 C 
ATOM     11  O   UNL     1      -1.289   9.640  29.437  1.00  0.00    -0.341 OA
ATOM     12  C   UNL     1      -1.171   8.508  32.075  1.00  0.00     0.179 C 
ATOM     13  C   UNL     1      -1.204  10.044  31.850  1.00  0.00     0.202 C 
BRANCH   9  14
ATOM     14  C   UNL     1      -1.516   7.524  28.345  1.00  0.00     0.191 C 
BRANCH  14  15
ATOM     15  O   UNL     1      -0.767   6.345  28.180  1.00  0.00    -0.394 OA
ATOM     16  H   UNL     1      -0.191   6.488  27.384  1.00  0.00     0.210 HD
ENDBRANCH  14  15
ENDBRANCH   9  14
BRANCH  10  17
ATOM     17  O   UNL     1      -1.459   6.371  31.030  1.00  0.00    -0.387 OA
ATOM     18  H   UNL     1      -0.475   6.255  31.047  1.00  0.00     0.211 HD
ENDBRANCH  10  17
BRANCH  12  19
ATOM     19  O   UNL     1      -1.832   8.127  33.261  1.00  0.00    -0.387 OA
ATOM     20  H   UNL     1      -2.566   8.758  33.448  1.00  0.00     0.211 HD
ENDBRANCH  12  19
BRANCH  13  21
ATOM     21  O   UNL     1      -2.484  10.585  32.070  1.00  0.00    -0.385 OA
ATOM     22  H   UNL     1      -2.392  11.312  32.746  1.00  0.00     0.211 HD
ENDBRANCH  13  21
ENDBRANCH   7   8
ENDBRANCH   1   7
BRANCH   2  23
ATOM     23  C   UNL     1      -3.359  13.528  30.413  1.00  0.00     0.191 C 
BRANCH  23  24
ATOM     24  O   UNL     1      -2.569  13.682  31.569  1.00  0.00    -0.394 OA
ATOM     25  H   UNL     1      -3.010  14.395  32.115  1.00  0.00     0.210 HD
ENDBRANCH  23  24
ENDBRANCH   2  23
BRANCH   6  26
ATOM     26  O   UNL     1      -1.946  12.000  26.648  1.00  0.00    -0.387 OA
ATOM     27  H   UNL     1      -1.372  12.195  25.860  1.00  0.00     0.211 HD
ENDBRANCH   6  26
BRANCH   5  28
ATOM     28  O   UNL     1       0.753  12.899  26.595  1.00  0.00    -0.385 OA
ATOM     29  H   UNL     1       1.364  13.682  26.617  1.00  0.00     0.211 HD
ENDBRANCH   5  28
BRANCH   4  30
ATOM     30  O   UNL     1      -1.411  14.901  26.989  1.00  0.00    -0.341 OA
BRANCH  30  31
ATOM     31  C   UNL     1      -1.063  16.216  26.529  1.00  0.00     0.184 C 
ATOM     32  C   UNL     1       0.099  16.012  25.496  1.00  0.00     0.178 C 
ATOM     33  C   UNL     1      -2.241  17.054  25.908  1.00  0.00     0.180 C 
ATOM     34  O   UNL     1      -0.336  15.594  24.203  1.00  0.00    -0.342 OA
ATOM     35  C   UNL     1      -2.600  16.480  24.531  1.00  0.00     0.201 C 
ATOM     36  C   UNL     1      -1.355  16.406  23.627  1.00  0.00     0.279 C 
BRANCH  32  37
ATOM     37  C   UNL     1       1.191  17.110  25.442  1.00  0.00     0.191 C 
BRANCH  37  38
ATOM     38  O   UNL     1       0.813  18.281  26.105  1.00  0.00    -0.394 OA
ATOM     39  H   UNL     1       0.001  18.054  26.636  1.00  0.00     0.210 HD
ENDBRANCH  37  38
ENDBRANCH  32  37
BRANCH  33  40
ATOM     40  O   UNL     1      -1.864  18.401  25.795  1.00  0.00    -0.387 OA
ATOM     41  H   UNL     1      -2.610  18.894  25.374  1.00  0.00     0.211 HD
ENDBRANCH  33  40
BRANCH  35  42
ATOM     42  O   UNL     1      -3.646  17.198  23.917  1.00  0.00    -0.385 OA
ATOM     43  H   UNL     1      -4.022  16.630  23.191  1.00  0.00     0.211 HD
ENDBRANCH  35  42
BRANCH  36  44
ATOM     44  O   UNL     1      -0.848  17.681  23.298  1.00  0.00    -0.366 OA
ATOM     45  H   UNL     1      -1.590  18.328  23.404  1.00  0.00     0.213 HD
ENDBRANCH  36  44
ENDBRANCH  30  31
ENDBRANCH   4  30
TORSDOF 18
ENDMDL
MODEL 5
REMARK VINA RESULT:    -7.381      6.339      8.608
REMARK INTER + INTRA:         -14.100
REMARK INTER:                 -13.144
REMARK INTRA:                  -0.956
REMARK UNBOUND:                -1.326
REMARK SMILES OC[C@@H]1O[C@H](O)[C@H](O)[C@H](O)[C@H]1O[C@H]1O[C@H](CO)[C@H](O[C@@H]2O[C@H](CO)[C@@H](O)[C@H](O)[C@@H]2O)[C@@H](O)[C@H]1O
REMARK SMILES IDX 18 1 15 2 14 3 13 4 33 5 31 6 19 7 20 8 22 9 25 10 21 11
REMARK SMILES IDX 27 12 29 13 23 14 24 15 26 17 28 19 30 21 16 23 17 24 32 26
REMARK SMILES IDX 34 28 12 30 11 31 3 32 9 33 4 34 7 35 5 36 2 37 1 38 10 40
REMARK SMILES IDX 8 42 6 44
REMARK H PARENT 24 16 26 18 28 20 30 22 17 25 32 27 34 29 1 39 10 41 8 43 6 45
REMARK Flexibility Score: inf
ROOT
ATOM      1  C   UNL     1      -1.858   8.609  27.022  1.00  0.00     0.184 C 
ATOM      2  C   UNL     1      -2.432   9.966  27.494  1.00  0.00     0.178 C 
ATOM      3  O   UNL     1      -3.614   9.737  28.249  1.00  0.00    -0.341 OA
ATOM      4  C   UNL     1      -3.366   9.037  29.463  1.00  0.00     0.282 C 
ATOM      5  C   UNL     1      -2.719   7.651  29.164  1.00  0.00     0.202 C 
ATOM      6  C   UNL     1      -1.473   7.807  28.273  1.00  0.00     0.180 C 
ENDROOT
BRANCH   1   7
ATOM      7  O   UNL     1      -2.894   7.942  26.316  1.00  0.00    -0.341 OA
BRANCH   7   8
ATOM      8  C   UNL     1      -3.077   8.372  24.985  1.00  0.00     0.282 C 
ATOM      9  C   UNL     1      -4.668   8.250  23.260  1.00  0.00     0.178 C 
ATOM     10  C   UNL     1      -3.755   7.456  22.301  1.00  0.00     0.177 C 
ATOM     11  O   UNL     1      -4.358   7.904  24.594  1.00  0.00    -0.341 OA
ATOM     12  C   UNL     1      -2.295   7.831  22.595  1.00  0.00     0.179 C 
ATOM     13  C   UNL     1      -1.965   7.722  24.109  1.00  0.00     0.202 C 
BRANCH   9  14
ATOM     14  C   UNL     1      -6.145   7.924  23.005  1.00  0.00     0.191 C 
BRANCH  14  15
ATOM     15  O   UNL     1      -6.244   6.617  22.494  1.00  0.00    -0.394 OA
ATOM     16  H   UNL     1      -7.098   6.579  21.988  1.00  0.00     0.210 HD
ENDBRANCH  14  15
ENDBRANCH   9  14
BRANCH  10  17
ATOM     17  O   UNL     1      -4.053   7.787  20.968  1.00  0.00    -0.387 OA
ATOM     18  H   UNL     1      -4.829   7.236  20.691  1.00  0.00     0.211 HD
ENDBRANCH  10  17
BRANCH  12  19
ATOM     19  O   UNL     1      -1.405   7.082  21.799  1.00  0.00    -0.387 OA
ATOM     20  H   UNL     1      -1.510   6.123  22.000  1.00  0.00     0.211 HD
ENDBRANCH  12  19
BRANCH  13  21
ATOM     21  O   UNL     1      -1.718   6.395  24.504  1.00  0.00    -0.385 OA
ATOM     22  H   UNL     1      -1.036   6.017  23.882  1.00  0.00     0.211 HD
ENDBRANCH  13  21
ENDBRANCH   7   8
ENDBRANCH   1   7
BRANCH   2  23
ATOM     23  C   UNL     1      -2.807  10.867  26.300  1.00  0.00     0.191 C 
BRANCH  23  24
ATOM     24  O   UNL     1      -2.643  12.231  26.611  1.00  0.00    -0.394 OA
ATOM     25  H   UNL     1      -2.885  12.328  27.576  1.00  0.00     0.210 HD
ENDBRANCH  23  24
ENDBRANCH   2  23
BRANCH   6  26
ATOM     26  O   UNL     1      -0.440   8.461  28.966  1.00  0.00    -0.387 OA
ATOM     27  H   UNL     1       0.417   8.045  28.677  1.00  0.00     0.211 HD
ENDBRANCH   6  26
BRANCH   5  28
ATOM     28  O   UNL     1      -2.414   6.925  30.322  1.00  0.00    -0.385 OA
ATOM     29  H   UNL     1      -3.211   6.375  30.542  1.00  0.00     0.211 HD
ENDBRANCH   5  28
BRANCH   4  30
ATOM     30  O   UNL     1      -2.643   9.889  30.352  1.00  0.00    -0.341 OA
BRANCH  30  31
ATOM     31  C   UNL     1      -3.399  10.715  31.251  1.00  0.00     0.184 C 
ATOM     32  C   UNL     1      -2.508  10.875  32.532  1.00  0.00     0.178 C 
ATOM     33  C   UNL     1      -3.839  12.115  30.682  1.00  0.00     0.180 C 
ATOM     34  O   UNL     1      -1.466  11.840  32.402  1.00  0.00    -0.342 OA
ATOM     35  C   UNL     1      -2.614  13.034  30.592  1.00  0.00     0.201 C 
ATOM     36  C   UNL     1      -1.894  13.122  31.952  1.00  0.00     0.279 C 
BRANCH  32  37
ATOM     37  C   UNL     1      -3.244  10.959  33.893  1.00  0.00     0.191 C 
BRANCH  37  38
ATOM     38  O   UNL     1      -4.621  10.749  33.776  1.00  0.00    -0.394 OA
ATOM     39  H   UNL     1      -4.882  11.089  32.876  1.00  0.00     0.210 HD
ENDBRANCH  37  38
ENDBRANCH  32  37
BRANCH  33  40
ATOM     40  O   UNL     1      -4.819  12.682  31.511  1.00  0.00    -0.387 OA
ATOM     41  H   UNL     1      -5.117  11.991  32.151  1.00  0.00     0.211 HD
ENDBRANCH  33  40
BRANCH  35  42
ATOM     42  O   UNL     1      -2.948  14.310  30.098  1.00  0.00    -0.385 OA
ATOM     43  H   UNL     1      -2.198  14.622  29.521  1.00  0.00     0.211 HD
ENDBRANCH  35  42
BRANCH  36  44
ATOM     44  O   UNL     1      -2.676  13.759  32.938  1.00  0.00    -0.366 OA
ATOM     45  H   UNL     1      -3.330  14.336  32.468  1.00  0.00     0.213 HD
ENDBRANCH  36  44
ENDBRANCH  30  31
ENDBRANCH   4  30
TORSDOF 18
ENDMDL
MODEL 6
REMARK VINA RESULT:    -7.359      1.464      8.998
REMARK INTER + INTRA:         -14.063
REMARK INTER:                 -13.161
REMARK INTRA:                  -0.902
REMARK UNBOUND:                -1.326
REMARK SMILES OC[C@@H]1O[C@H](O)[C@H](O)[C@H](O)[C@H]1O[C@H]1O[C@H](CO)[C@H](O[C@@H]2O[C@H](CO)[C@@H](O)[C@H](O)[C@@H]2O)[C@@H](O)[C@H]1O
REMARK SMILES IDX 18 1 15 2 14 3 13 4 33 5 31 6 19 7 20 8 22 9 25 10 21 11
REMARK SMILES IDX 27 12 29 13 23 14 24 15 26 17 28 19 30 21 16 23 17 24 32 26
REMARK SMILES IDX 34 28 12 30 11 31 3 32 9 33 4 34 7 35 5 36 2 37 1 38 10 40
REMARK SMILES IDX 8 42 6 44
REMARK H PARENT 24 16 26 18 28 20 30 22 17 25 32 27 34 29 1 39 10 41 8 43 6 45
REMARK Flexibility Score: inf
ROOT
ATOM      1  C   UNL     1      -1.117  16.024  26.016  1.00  0.00     0.184 C 
ATOM      2  C   UNL     1      -0.182  16.085  24.786  1.00  0.00     0.178 C 
ATOM      3  O   UNL     1      -0.895  15.651  23.635  1.00  0.00    -0.341 OA
ATOM      4  C   UNL     1      -1.963  16.523  23.286  1.00  0.00     0.282 C 
ATOM      5  C   UNL     1      -2.981  16.625  24.463  1.00  0.00     0.202 C 
ATOM      6  C   UNL     1      -2.270  17.009  25.773  1.00  0.00     0.180 C 
ENDROOT
BRANCH   1   7
ATOM      7  O   UNL     1      -1.619  14.697  26.092  1.00  0.00    -0.341 OA
BRANCH   7   8
ATOM      8  C   UNL     1      -1.019  13.892  27.083  1.00  0.00     0.282 C 
ATOM      9  C   UNL     1      -1.044  11.672  27.853  1.00  0.00     0.178 C 
ATOM     10  C   UNL     1      -1.595  12.029  29.250  1.00  0.00     0.177 C 
ATOM     11  O   UNL     1      -1.549  12.589  26.903  1.00  0.00    -0.341 OA
ATOM     12  C   UNL     1      -1.125  13.444  29.614  1.00  0.00     0.179 C 
ATOM     13  C   UNL     1      -1.421  14.460  28.477  1.00  0.00     0.202 C 
BRANCH   9  14
ATOM     14  C   UNL     1      -1.473  10.259  27.439  1.00  0.00     0.191 C 
BRANCH  14  15
ATOM     15  O   UNL     1      -0.723   9.320  28.171  1.00  0.00    -0.394 OA
ATOM     16  H   UNL     1       0.221   9.433  27.886  1.00  0.00     0.210 HD
ENDBRANCH  14  15
ENDBRANCH   9  14
BRANCH  10  17
ATOM     17  O   UNL     1      -1.103  11.123  30.206  1.00  0.00    -0.387 OA
ATOM     18  H   UNL     1      -1.541  10.249  30.041  1.00  0.00     0.211 HD
ENDBRANCH  10  17
BRANCH  12  19
ATOM     19  O   UNL     1      -1.658  13.857  30.852  1.00  0.00    -0.387 OA
ATOM     20  H   UNL     1      -2.622  13.654  30.880  1.00  0.00     0.211 HD
ENDBRANCH  12  19
BRANCH  13  21
ATOM     21  O   UNL     1      -2.761  14.889  28.484  1.00  0.00    -0.385 OA
ATOM     22  H   UNL     1      -2.808  15.727  29.021  1.00  0.00     0.211 HD
ENDBRANCH  13  21
ENDBRANCH   7   8
ENDBRANCH   1   7
BRANCH   2  23
ATOM     23  C   UNL     1       1.038  15.158  24.957  1.00  0.00     0.191 C 
BRANCH  23  24
ATOM     24  O   UNL     1       2.073  15.495  24.062  1.00  0.00    -0.394 OA
ATOM     25  H   UNL     1       1.748  15.242  23.151  1.00  0.00     0.210 HD
ENDBRANCH  23  24
ENDBRANCH   2  23
BRANCH   6  26
ATOM     26  O   UNL     1      -1.776  18.323  25.709  1.00  0.00    -0.387 OA
ATOM     27  H   UNL     1      -2.440  18.862  25.201  1.00  0.00     0.211 HD
ENDBRANCH   6  26
BRANCH   5  28
ATOM     28  O   UNL     1      -4.042  17.500  24.198  1.00  0.00    -0.385 OA
ATOM     29  H   UNL     1      -4.208  18.020  25.029  1.00  0.00     0.211 HD
ENDBRANCH   5  28
BRANCH   4  30
ATOM     30  O   UNL     1      -1.423  17.758  22.815  1.00  0.00    -0.341 OA
BRANCH  30  31
ATOM     31  C   UNL     1      -2.073  18.394  21.704  1.00  0.00     0.184 C 
ATOM     32  C   UNL     1      -1.016  19.383  21.102  1.00  0.00     0.178 C 
ATOM     33  C   UNL     1      -2.642  17.424  20.603  1.00  0.00     0.180 C 
ATOM     34  O   UNL     1      -0.039  18.759  20.269  1.00  0.00    -0.342 OA
ATOM     35  C   UNL     1      -1.477  16.827  19.802  1.00  0.00     0.201 C 
ATOM     36  C   UNL     1      -0.575  17.940  19.234  1.00  0.00     0.279 C 
BRANCH  32  37
ATOM     37  C   UNL     1      -1.553  20.711  20.513  1.00  0.00     0.191 C 
BRANCH  37  38
ATOM     38  O   UNL     1      -1.732  21.699  21.485  1.00  0.00    -0.394 OA
ATOM     39  H   UNL     1      -2.607  21.509  21.922  1.00  0.00     0.210 HD
ENDBRANCH  37  38
ENDBRANCH  32  37
BRANCH  33  40
ATOM     40  O   UNL     1      -3.514  18.123  19.754  1.00  0.00    -0.387 OA
ATOM     41  H   UNL     1      -3.064  18.955  19.469  1.00  0.00     0.211 HD
ENDBRANCH  33  40
BRANCH  35  42
ATOM     42  O   UNL     1      -1.926  15.956  18.790  1.00  0.00    -0.385 OA
ATOM     43  H   UNL     1      -1.223  15.265  18.646  1.00  0.00     0.211 HD
ENDBRANCH  35  42
BRANCH  36  44
ATOM     44  O   UNL     1      -1.233  18.729  18.267  1.00  0.00    -0.366 OA
ATOM     45  H   UNL     1      -1.185  19.670  18.573  1.00  0.00     0.213 HD
ENDBRANCH  36  44
ENDBRANCH  30  31
ENDBRANCH   4  30
TORSDOF 18
ENDMDL
MODEL 7
REMARK VINA RESULT:    -7.301      3.011      9.957
REMARK INTER + INTRA:         -13.962
REMARK INTER:                 -12.409
REMARK INTRA:                  -1.553
REMARK UNBOUND:                -1.326
REMARK SMILES OC[C@@H]1O[C@H](O)[C@H](O)[C@H](O)[C@H]1O[C@H]1O[C@H](CO)[C@H](O[C@@H]2O[C@H](CO)[C@@H](O)[C@H](O)[C@@H]2O)[C@@H](O)[C@H]1O
REMARK SMILES IDX 18 1 15 2 14 3 13 4 33 5 31 6 19 7 20 8 22 9 25 10 21 11
REMARK SMILES IDX 27 12 29 13 23 14 24 15 26 17 28 19 30 21 16 23 17 24 32 26
REMARK SMILES IDX 34 28 12 30 11 31 3 32 9 33 4 34 7 35 5 36 2 37 1 38 10 40
REMARK SMILES IDX 8 42 6 44
REMARK H PARENT 24 16 26 18 28 20 30 22 17 25 32 27 34 29 1 39 10 41 8 43 6 45
REMARK Flexibility Score: inf
ROOT
ATOM      1  C   UNL     1      -1.242  10.558  28.348  1.00  0.00     0.184 C 
ATOM      2  C   UNL     1      -1.725  10.905  26.921  1.00  0.00     0.178 C 
ATOM      3  O   UNL     1      -2.579  12.040  26.979  1.00  0.00    -0.341 OA
ATOM      4  C   UNL     1      -1.903  13.219  27.399  1.00  0.00     0.282 C 
ATOM      5  C   UNL     1      -1.293  13.012  28.819  1.00  0.00     0.202 C 
ATOM      6  C   UNL     1      -0.417  11.747  28.861  1.00  0.00     0.180 C 
ENDROOT
BRANCH   1   7
ATOM      7  O   UNL     1      -2.402  10.388  29.150  1.00  0.00    -0.341 OA
BRANCH   7   8
ATOM      8  C   UNL     1      -2.217   9.588  30.297  1.00  0.00     0.282 C 
ATOM      9  C   UNL     1      -0.684   8.041  31.180  1.00  0.00     0.178 C 
ATOM     10  C   UNL     1      -1.683   6.864  31.189  1.00  0.00     0.177 C 
ATOM     11  O   UNL     1      -0.989   8.905  30.104  1.00  0.00    -0.341 OA
ATOM     12  C   UNL     1      -3.099   7.427  31.377  1.00  0.00     0.179 C 
ATOM     13  C   UNL     1      -3.400   8.578  30.378  1.00  0.00     0.202 C 
BRANCH   9  14
ATOM     14  C   UNL     1       0.754   7.538  31.007  1.00  0.00     0.191 C 
BRANCH  14  15
ATOM     15  O   UNL     1       0.724   6.248  30.447  1.00  0.00    -0.394 OA
ATOM     16  H   UNL     1       1.614   5.845  30.624  1.00  0.00     0.210 HD
ENDBRANCH  14  15
ENDBRANCH   9  14
BRANCH  10  17
ATOM     17  O   UNL     1      -1.391   5.994  32.254  1.00  0.00    -0.387 OA
ATOM     18  H   UNL     1      -2.050   5.254  32.223  1.00  0.00     0.211 HD
ENDBRANCH  10  17
BRANCH  12  19
ATOM     19  O   UNL     1      -4.066   6.403  31.320  1.00  0.00    -0.387 OA
ATOM     20  H   UNL     1      -3.744   5.675  30.739  1.00  0.00     0.211 HD
ENDBRANCH  12  19
BRANCH  13  21
ATOM     21  O   UNL     1      -3.745   8.096  29.102  1.00  0.00    -0.385 OA
ATOM     22  H   UNL     1      -3.035   7.458  28.818  1.00  0.00     0.211 HD
ENDBRANCH  13  21
ENDBRANCH   7   8
ENDBRANCH   1   7
BRANCH   2  23
ATOM     23  C   UNL     1      -2.529   9.746  26.298  1.00  0.00     0.191 C 
BRANCH  23  24
ATOM     24  O   UNL     1      -3.895   9.827  26.631  1.00  0.00    -0.394 OA
ATOM     25  H   UNL     1      -4.320  10.399  25.929  1.00  0.00     0.210 HD
ENDBRANCH  23  24
ENDBRANCH   2  23
BRANCH   6  26
ATOM     26  O   UNL     1       0.737  11.909  28.075  1.00  0.00    -0.387 OA
ATOM     27  H   UNL     1       0.506  12.539  27.341  1.00  0.00     0.211 HD
ENDBRANCH   6  26
BRANCH   5  28
ATOM     28  O   UNL     1      -0.579  14.127  29.278  1.00  0.00    -0.385 OA
ATOM     29  H   UNL     1      -0.791  14.234  30.243  1.00  0.00     0.211 HD
ENDBRANCH   5  28
BRANCH   4  30
ATOM     30  O   UNL     1      -0.993  13.624  26.377  1.00  0.00    -0.341 OA
BRANCH  30  31
ATOM     31  C   UNL     1      -0.446  14.949  26.453  1.00  0.00     0.184 C 
ATOM     32  C   UNL     1       0.513  15.085  25.220  1.00  0.00     0.178 C 
ATOM     33  C   UNL     1      -1.499  16.119  26.490  1.00  0.00     0.180 C 
ATOM     34  O   UNL     1      -0.153  15.350  23.987  1.00  0.00    -0.342 OA
ATOM     35  C   UNL     1      -2.134  16.274  25.101  1.00  0.00     0.201 C 
ATOM     36  C   UNL     1      -1.051  16.456  24.021  1.00  0.00     0.279 C 
BRANCH  32  37
ATOM     37  C   UNL     1       1.789  15.943  25.415  1.00  0.00     0.191 C 
BRANCH  37  38
ATOM     38  O   UNL     1       2.883  15.454  24.695  1.00  0.00    -0.394 OA
ATOM     39  H   UNL     1       3.696  15.704  25.214  1.00  0.00     0.210 HD
ENDBRANCH  37  38
ENDBRANCH  32  37
BRANCH  33  40
ATOM     40  O   UNL     1      -0.875  17.314  26.880  1.00  0.00    -0.387 OA
ATOM     41  H   UNL     1      -0.001  17.366  26.423  1.00  0.00     0.211 HD
ENDBRANCH  33  40
BRANCH  35  42
ATOM     42  O   UNL     1      -3.081  17.316  25.068  1.00  0.00    -0.385 OA
ATOM     43  H   UNL     1      -3.834  17.066  25.669  1.00  0.00     0.211 HD
ENDBRANCH  35  42
BRANCH  36  44
ATOM     44  O   UNL     1      -0.342  17.667  24.164  1.00  0.00    -0.366 OA
ATOM     45  H   UNL     1      -0.122  17.989  23.253  1.00  0.00     0.213 HD
ENDBRANCH  36  44
ENDBRANCH  30  31
ENDBRANCH   4  30
TORSDOF 18
ENDMDL
MODEL 8
REMARK VINA RESULT:    -7.247      1.027      2.104
REMARK INTER + INTRA:         -13.869
REMARK INTER:                 -12.061
REMARK INTRA:                  -1.808
REMARK UNBOUND:                -1.326
REMARK SMILES OC[C@@H]1O[C@H](O)[C@H](O)[C@H](O)[C@H]1O[C@H]1O[C@H](CO)[C@H](O[C@@H]2O[C@H](CO)[C@@H](O)[C@H](O)[C@@H]2O)[C@@H](O)[C@H]1O
REMARK SMILES IDX 18 1 15 2 14 3 13 4 33 5 31 6 19 7 20 8 22 9 25 10 21 11
REMARK SMILES IDX 27 12 29 13 23 14 24 15 26 17 28 19 30 21 16 23 17 24 32 26
REMARK SMILES IDX 34 28 12 30 11 31 3 32 9 33 4 34 7 35 5 36 2 37 1 38 10 40
REMARK SMILES IDX 8 42 6 44
REMARK H PARENT 24 16 26 18 28 20 30 22 17 25 32 27 34 29 1 39 10 41 8 43 6 45
REMARK Flexibility Score: inf
ROOT
ATOM      1  C   UNL     1      -1.003  17.485  24.935  1.00  0.00     0.184 C 
ATOM      2  C   UNL     1      -2.052  16.875  25.893  1.00  0.00     0.178 C 
ATOM      3  O   UNL     1      -2.201  15.491  25.604  1.00  0.00    -0.341 OA
ATOM      4  C   UNL     1      -1.023  14.740  25.875  1.00  0.00     0.282 C 
ATOM      5  C   UNL     1       0.166  15.278  25.021  1.00  0.00     0.202 C 
ATOM      6  C   UNL     1       0.340  16.795  25.215  1.00  0.00     0.180 C 
ENDROOT
BRANCH   1   7
ATOM      7  O   UNL     1      -1.432  17.198  23.612  1.00  0.00    -0.341 OA
BRANCH   7   8
ATOM      8  C   UNL     1      -0.813  17.971  22.607  1.00  0.00     0.282 C 
ATOM      9  C   UNL     1      -1.106  20.008  21.472  1.00  0.00     0.178 C 
ATOM     10  C   UNL     1      -1.298  19.354  20.087  1.00  0.00     0.177 C 
ATOM     11  O   UNL     1      -1.604  19.141  22.471  1.00  0.00    -0.341 OA
ATOM     12  C   UNL     1      -0.507  18.038  20.055  1.00  0.00     0.179 C 
ATOM     13  C   UNL     1      -0.822  17.146  21.286  1.00  0.00     0.202 C 
BRANCH   9  14
ATOM     14  C   UNL     1      -1.866  21.337  21.560  1.00  0.00     0.191 C 
BRANCH  14  15
ATOM     15  O   UNL     1      -1.249  22.275  20.713  1.00  0.00    -0.394 OA
ATOM     16  H   UNL     1      -1.793  22.303  19.883  1.00  0.00     0.210 HD
ENDBRANCH  14  15
ENDBRANCH   9  14
BRANCH  10  17
ATOM     17  O   UNL     1      -0.809  20.207  19.081  1.00  0.00    -0.387 OA
ATOM     18  H   UNL     1      -1.559  20.789  18.794  1.00  0.00     0.211 HD
ENDBRANCH  10  17
BRANCH  12  19
ATOM     19  O   UNL     1      -0.702  17.356  18.836  1.00  0.00    -0.387 OA
ATOM     20  H   UNL     1      -1.648  17.093  18.753  1.00  0.00     0.211 HD
ENDBRANCH  12  19
BRANCH  13  21
ATOM     21  O   UNL     1      -2.030  16.440  21.135  1.00  0.00    -0.385 OA
ATOM     22  H   UNL     1      -1.816  15.467  21.157  1.00  0.00     0.211 HD
ENDBRANCH  13  21
ENDBRANCH   7   8
ENDBRANCH   1   7
BRANCH   2  23
ATOM     23  C   UNL     1      -3.432  17.540  25.720  1.00  0.00     0.191 C 
BRANCH  23  24
ATOM     24  O   UNL     1      -4.021  17.195  24.488  1.00  0.00    -0.394 OA
ATOM     25  H   UNL     1      -4.028  16.195  24.453  1.00  0.00     0.210 HD
ENDBRANCH  23  24
ENDBRANCH   2  23
BRANCH   6  26
ATOM     26  O   UNL     1       0.770  17.088  26.520  1.00  0.00    -0.387 OA
ATOM     27  H   UNL     1       0.110  17.720  26.912  1.00  0.00     0.211 HD
ENDBRANCH   6  26
BRANCH   5  28
ATOM     28  O   UNL     1       1.369  14.604  25.269  1.00  0.00    -0.385 OA
ATOM     29  H   UNL     1       1.352  14.312  26.219  1.00  0.00     0.211 HD
ENDBRANCH   5  28
BRANCH   4  30
ATOM     30  O   UNL     1      -0.813  14.696  27.286  1.00  0.00    -0.341 OA
BRANCH  30  31
ATOM     31  C   UNL     1      -1.633  13.805  28.058  1.00  0.00     0.184 C 
ATOM     32  C   UNL     1      -1.860  12.545  27.153  1.00  0.00     0.178 C 
ATOM     33  C   UNL     1      -1.059  13.401  29.467  1.00  0.00     0.180 C 
ATOM     34  O   UNL     1      -0.762  11.635  27.130  1.00  0.00    -0.342 OA
ATOM     35  C   UNL     1       0.117  12.433  29.278  1.00  0.00     0.201 C 
ATOM     36  C   UNL     1      -0.301  11.226  28.415  1.00  0.00     0.279 C 
BRANCH  32  37
ATOM     37  C   UNL     1      -3.232  11.834  27.270  1.00  0.00     0.191 C 
BRANCH  37  38
ATOM     38  O   UNL     1      -3.249  10.586  26.642  1.00  0.00    -0.394 OA
ATOM     39  H   UNL     1      -4.192  10.264  26.680  1.00  0.00     0.210 HD
ENDBRANCH  37  38
ENDBRANCH  32  37
BRANCH  33  40
ATOM     40  O   UNL     1      -2.067  12.804  30.241  1.00  0.00    -0.387 OA
ATOM     41  H   UNL     1      -2.488  12.093  29.700  1.00  0.00     0.211 HD
ENDBRANCH  33  40
BRANCH  35  42
ATOM     42  O   UNL     1       0.667  12.025  30.509  1.00  0.00    -0.385 OA
ATOM     43  H   UNL     1       1.595  11.707  30.339  1.00  0.00     0.211 HD
ENDBRANCH  35  42
BRANCH  36  44
ATOM     44  O   UNL     1      -1.261  10.412  29.051  1.00  0.00    -0.366 OA
ATOM     45  H   UNL     1      -1.575  10.900  29.854  1.00  0.00     0.213 HD
ENDBRANCH  36  44
ENDBRANCH  30  31
ENDBRANCH   4  30
TORSDOF 18
ENDMDL
MODEL 9
REMARK VINA RESULT:    -7.045      3.521      6.452
REMARK INTER + INTRA:         -13.519
REMARK INTER:                 -11.843
REMARK INTRA:                  -1.676
REMARK UNBOUND:                -1.326
REMARK SMILES OC[C@@H]1O[C@H](O)[C@H](O)[C@H](O)[C@H]1O[C@H]1O[C@H](CO)[C@H](O[C@@H]2O[C@H](CO)[C@@H](O)[C@H](O)[C@@H]2O)[C@@H](O)[C@H]1O
REMARK SMILES IDX 18 1 15 2 14 3 13 4 33 5 31 6 19 7 20 8 22 9 25 10 21 11
REMARK SMILES IDX 27 12 29 13 23 14 24 15 26 17 28 19 30 21 16 23 17 24 32 26
REMARK SMILES IDX 34 28 12 30 11 31 3 32 9 33 4 34 7 35 5 36 2 37 1 38 10 40
REMARK SMILES IDX 8 42 6 44
REMARK H PARENT 24 16 26 18 28 20 30 22 17 25 32 27 34 29 1 39 10 41 8 43 6 45
REMARK Flexibility Score: inf
ROOT
ATOM      1  C   UNL     1      -1.343  13.091  29.576  1.00  0.00     0.184 C 
ATOM      2  C   UNL     1      -2.523  12.389  30.288  1.00  0.00     0.178 C 
ATOM      3  O   UNL     1      -2.939  11.272  29.514  1.00  0.00    -0.341 OA
ATOM      4  C   UNL     1      -1.946  10.257  29.431  1.00  0.00     0.282 C 
ATOM      5  C   UNL     1      -0.647  10.826  28.783  1.00  0.00     0.202 C 
ATOM      6  C   UNL     1      -0.177  12.094  29.517  1.00  0.00     0.180 C 
ENDROOT
BRANCH   1   7
ATOM      7  O   UNL     1      -1.780  13.408  28.262  1.00  0.00    -0.341 OA
BRANCH   7   8
ATOM      8  C   UNL     1      -1.186  14.558  27.702  1.00  0.00     0.282 C 
ATOM      9  C   UNL     1      -1.690  16.287  26.191  1.00  0.00     0.178 C 
ATOM     10  C   UNL     1      -0.593  15.893  25.179  1.00  0.00     0.177 C 
ATOM     11  O   UNL     1      -2.162  15.125  26.842  1.00  0.00    -0.341 OA
ATOM     12  C   UNL     1       0.565  15.236  25.944  1.00  0.00     0.179 C 
ATOM     13  C   UNL     1       0.066  14.110  26.890  1.00  0.00     0.202 C 
BRANCH   9  14
ATOM     14  C   UNL     1      -2.872  16.961  25.484  1.00  0.00     0.191 C 
BRANCH  14  15
ATOM     15  O   UNL     1      -2.484  18.248  25.070  1.00  0.00    -0.394 OA
ATOM     16  H   UNL     1      -3.083  18.492  24.316  1.00  0.00     0.210 HD
ENDBRANCH  14  15
ENDBRANCH   9  14
BRANCH  10  17
ATOM     17  O   UNL     1      -0.114  17.039  24.520  1.00  0.00    -0.387 OA
ATOM     18  H   UNL     1      -0.902  17.573  24.241  1.00  0.00     0.211 HD
ENDBRANCH  10  17
BRANCH  12  19
ATOM     19  O   UNL     1       1.570  14.788  25.062  1.00  0.00    -0.387 OA
ATOM     20  H   UNL     1       2.456  14.943  25.465  1.00  0.00     0.211 HD
ENDBRANCH  12  19
BRANCH  13  21
ATOM     21  O   UNL     1      -0.179  12.908  26.200  1.00  0.00    -0.385 OA
ATOM     22  H   UNL     1       0.617  12.322  26.323  1.00  0.00     0.211 HD
ENDBRANCH  13  21
ENDBRANCH   7   8
ENDBRANCH   1   7
BRANCH   2  23
ATOM     23  C   UNL     1      -3.735  13.331  30.438  1.00  0.00     0.191 C 
BRANCH  23  24
ATOM     24  O   UNL     1      -3.352  14.683  30.348  1.00  0.00    -0.394 OA
ATOM     25  H   UNL     1      -2.390  14.684  30.077  1.00  0.00     0.210 HD
ENDBRANCH  23  24
ENDBRANCH   2  23
BRANCH   6  26
ATOM     26  O   UNL     1       0.263  11.789  30.816  1.00  0.00    -0.387 OA
ATOM     27  H   UNL     1       0.445  10.811  30.842  1.00  0.00     0.211 HD
ENDBRANCH   6  26
BRANCH   5  28
ATOM     28  O   UNL     1       0.387   9.883  28.706  1.00  0.00    -0.385 OA
ATOM     29  H   UNL     1       0.905  10.082  27.881  1.00  0.00     0.211 HD
ENDBRANCH   5  28
BRANCH   4  30
ATOM     30  O   UNL     1      -1.793   9.649  30.714  1.00  0.00    -0.341 OA
BRANCH  30  31
ATOM     31  C   UNL     1      -1.792   8.215  30.780  1.00  0.00     0.184 C 
ATOM     32  C   UNL     1      -0.407   7.818  31.398  1.00  0.00     0.178 C 
ATOM     33  C   UNL     1      -2.983   7.569  31.582  1.00  0.00     0.180 C 
ATOM     34  O   UNL     1      -0.338   7.958  32.816  1.00  0.00    -0.342 OA
ATOM     35  C   UNL     1      -2.773   7.811  33.083  1.00  0.00     0.201 C 
ATOM     36  C   UNL     1      -1.386   7.308  33.530  1.00  0.00     0.279 C 
BRANCH  32  37
ATOM     37  C   UNL     1       0.240   6.506  30.888  1.00  0.00     0.191 C 
BRANCH  37  38
ATOM     38  O   UNL     1      -0.373   6.016  29.732  1.00  0.00    -0.394 OA
ATOM     39  H   UNL     1      -1.321   5.827  29.975  1.00  0.00     0.210 HD
ENDBRANCH  37  38
ENDBRANCH  32  37
BRANCH  33  40
ATOM     40  O   UNL     1      -3.053   6.194  31.312  1.00  0.00    -0.387 OA
ATOM     41  H   UNL     1      -2.187   5.788  31.558  1.00  0.00     0.211 HD
ENDBRANCH  33  40
BRANCH  35  42
ATOM     42  O   UNL     1      -3.804   7.245  33.857  1.00  0.00    -0.385 OA
ATOM     43  H   UNL     1      -4.465   6.835  33.235  1.00  0.00     0.211 HD
ENDBRANCH  35  42
BRANCH  36  44
ATOM     44  O   UNL     1      -1.260   5.907  33.431  1.00  0.00    -0.366 OA
ATOM     45  H   UNL     1      -2.172   5.537  33.318  1.00  0.00     0.213 HD
ENDBRANCH  36  44
ENDBRANCH  30  31
ENDBRANCH   4  30
TORSDOF 18
ENDMDL
