MODEL 1
REMARK VINA RESULT:    -3.572      0.000      0.000
REMARK INTER + INTRA:          -4.692
REMARK INTER:                  -4.616
REMARK INTRA:                  -0.076
REMARK UNBOUND:                -0.076
REMARK SMILES CCCCCCC(=O)[O-]
REMARK SMILES IDX 5 1 6 2 7 3 8 4 9 5 4 6 3 7 2 8 1 9
REMARK H PARENT
REMARK Flexibility Score: inf
ROOT
ATOM      1  C   UNL     1     -30.397 -15.861  13.705  1.00  0.00     0.006 C 
ENDROOT
BRANCH   1   2
ATOM      2  C   UNL     1     -31.090 -14.767  12.882  1.00  0.00     0.053 C 
BRANCH   2   3
ATOM      3  C   UNL     1     -30.750 -13.414  13.425  1.00  0.00     0.041 C 
ATOM      4  O   UNL     1     -30.693 -13.227  14.668  1.00  0.00    -0.550 OA
ATOM      5  O   UNL     1     -30.450 -12.372  12.557  1.00  0.00    -0.550 OA
ENDBRANCH   2   3
ENDBRANCH   1   2
BRANCH   1   6
ATOM      6  C   UNL     1     -30.690 -17.275  13.178  1.00  0.00     0.000 C 
BRANCH   6   7
ATOM      7  C   UNL     1     -30.037 -18.372  14.035  1.00  0.00    -0.000 C 
BRANCH   7   8
ATOM      8  C   UNL     1     -30.923 -19.621  14.169  1.00  0.00    -0.003 C 
ATOM      9  C   UNL     1     -30.576 -20.706  13.148  1.00  0.00     0.004 C 
ENDBRANCH   7   8
ENDBRANCH   6   7
ENDBRANCH   1   6
TORSDOF 5
ENDMDL
MODEL 2
REMARK VINA RESULT:    -3.563      4.395      6.279
REMARK INTER + INTRA:          -4.681
REMARK INTER:                  -4.608
REMARK INTRA:                  -0.073
REMARK UNBOUND:                -0.076
REMARK SMILES CCCCCCC(=O)[O-]
REMARK SMILES IDX 5 1 6 2 7 3 8 4 9 5 4 6 3 7 2 8 1 9
REMARK H PARENT
REMARK Flexibility Score: inf
ROOT
ATOM      1  C   UNL     1     -30.332 -19.192  13.539  1.00  0.00     0.006 C 
ENDROOT
BRANCH   1   2
ATOM      2  C   UNL     1     -31.047 -20.366  14.223  1.00  0.00     0.053 C 
BRANCH   2   3
ATOM      3  C   UNL     1     -30.746 -21.646  13.509  1.00  0.00     0.041 C 
ATOM      4  O   UNL     1     -30.799 -22.743  14.125  1.00  0.00    -0.550 OA
ATOM      5  O   UNL     1     -30.456 -21.633  12.151  1.00  0.00    -0.550 OA
ENDBRANCH   2   3
ENDBRANCH   1   2
BRANCH   1   6
ATOM      6  C   UNL     1     -31.002 -17.839  13.831  1.00  0.00     0.000 C 
BRANCH   6   7
ATOM      7  C   UNL     1     -30.038 -16.654  13.652  1.00  0.00    -0.000 C 
BRANCH   7   8
ATOM      8  C   UNL     1     -30.751 -15.385  13.159  1.00  0.00    -0.003 C 
ATOM      9  C   UNL     1     -30.642 -14.222  14.146  1.00  0.00     0.004 C 
ENDBRANCH   7   8
ENDBRANCH   6   7
ENDBRANCH   1   6
TORSDOF 5
ENDMDL
MODEL 3
REMARK VINA RESULT:    -3.499     17.680     19.229
REMARK INTER + INTRA:          -4.597
REMARK INTER:                  -4.444
REMARK INTRA:                  -0.153
REMARK UNBOUND:                -0.076
REMARK SMILES CCCCCCC(=O)[O-]
REMARK SMILES IDX 5 1 6 2 7 3 8 4 9 5 4 6 3 7 2 8 1 9
REMARK H PARENT
REMARK Flexibility Score: inf
ROOT
ATOM      1  C   UNL     1     -15.208 -26.853  11.640  1.00  0.00     0.006 C 
ENDROOT
BRANCH   1   2
ATOM      2  C   UNL     1     -14.471 -27.986  12.367  1.00  0.00     0.053 C 
BRANCH   2   3
ATOM      3  C   UNL     1     -13.351 -27.433  13.191  1.00  0.00     0.041 C 
ATOM      4  O   UNL     1     -12.366 -26.882  12.633  1.00  0.00    -0.550 OA
ATOM      5  O   UNL     1     -13.417 -27.483  14.578  1.00  0.00    -0.550 OA
ENDBRANCH   2   3
ENDBRANCH   1   2
BRANCH   1   6
ATOM      6  C   UNL     1     -16.127 -27.368  10.520  1.00  0.00     0.000 C 
BRANCH   6   7
ATOM      7  C   UNL     1     -17.402 -28.036  11.064  1.00  0.00    -0.000 C 
BRANCH   7   8
ATOM      8  C   UNL     1     -18.373 -27.026  11.694  1.00  0.00    -0.003 C 
ATOM      9  C   UNL     1     -19.542 -27.699  12.416  1.00  0.00     0.004 C 
ENDBRANCH   7   8
ENDBRANCH   6   7
ENDBRANCH   1   6
TORSDOF 5
ENDMDL
MODEL 4
REMARK VINA RESULT:    -3.409     16.335     18.010
REMARK INTER + INTRA:          -4.481
REMARK INTER:                  -4.322
REMARK INTRA:                  -0.160
REMARK UNBOUND:                -0.076
REMARK SMILES CCCCCCC(=O)[O-]
REMARK SMILES IDX 5 1 6 2 7 3 8 4 9 5 4 6 3 7 2 8 1 9
REMARK H PARENT
REMARK Flexibility Score: inf
ROOT
ATOM      1  C   UNL     1     -17.624 -27.014  11.554  1.00  0.00     0.006 C 
ENDROOT
BRANCH   1   2
ATOM      2  C   UNL     1     -18.268 -28.125  12.395  1.00  0.00     0.053 C 
BRANCH   2   3
ATOM      3  C   UNL     1     -19.631 -27.710  12.851  1.00  0.00     0.041 C 
ATOM      4  O   UNL     1     -20.442 -27.196  12.036  1.00  0.00    -0.550 OA
ATOM      5  O   UNL     1     -20.023 -27.935  14.164  1.00  0.00    -0.550 OA
ENDBRANCH   2   3
ENDBRANCH   1   2
BRANCH   1   6
ATOM      6  C   UNL     1     -16.460 -27.524  10.689  1.00  0.00     0.000 C 
BRANCH   6   7
ATOM      7  C   UNL     1     -15.273 -28.021  11.532  1.00  0.00    -0.000 C 
BRANCH   7   8
ATOM      8  C   UNL     1     -14.654 -26.908  12.392  1.00  0.00    -0.003 C 
ATOM      9  C   UNL     1     -13.252 -27.257  12.894  1.00  0.00     0.004 C 
ENDBRANCH   7   8
ENDBRANCH   6   7
ENDBRANCH   1   6
TORSDOF 5
ENDMDL
MODEL 5
REMARK VINA RESULT:    -3.303      1.737      2.669
REMARK INTER + INTRA:          -4.344
REMARK INTER:                  -4.184
REMARK INTRA:                  -0.160
REMARK UNBOUND:                -0.076
REMARK SMILES CCCCCCC(=O)[O-]
REMARK SMILES IDX 5 1 6 2 7 3 8 4 9 5 4 6 3 7 2 8 1 9
REMARK H PARENT
REMARK Flexibility Score: inf
ROOT
ATOM      1  C   UNL     1     -30.091 -18.515  13.715  1.00  0.00     0.006 C 
ENDROOT
BRANCH   1   2
ATOM      2  C   UNL     1     -30.746 -17.295  14.377  1.00  0.00     0.053 C 
BRANCH   2   3
ATOM      3  C   UNL     1     -30.483 -16.061  13.572  1.00  0.00     0.041 C 
ATOM      4  O   UNL     1     -30.249 -14.967  14.148  1.00  0.00    -0.550 OA
ATOM      5  O   UNL     1     -30.450 -16.131  12.185  1.00  0.00    -0.550 OA
ENDBRANCH   2   3
ENDBRANCH   1   2
BRANCH   1   6
ATOM      6  C   UNL     1     -31.115 -19.576  13.282  1.00  0.00     0.000 C 
BRANCH   6   7
ATOM      7  C   UNL     1     -31.003 -20.873  14.102  1.00  0.00    -0.000 C 
BRANCH   7   8
ATOM      8  C   UNL     1     -31.122 -22.132  13.229  1.00  0.00    -0.003 C 
ATOM      9  C   UNL     1     -31.042 -21.827  11.733  1.00  0.00     0.004 C 
ENDBRANCH   7   8
ENDBRANCH   6   7
ENDBRANCH   1   6
TORSDOF 5
ENDMDL
MODEL 6
REMARK VINA RESULT:    -2.932      2.977      5.226
REMARK INTER + INTRA:          -3.865
REMARK INTER:                  -3.836
REMARK INTRA:                  -0.029
REMARK UNBOUND:                -0.076
REMARK SMILES CCCCCCC(=O)[O-]
REMARK SMILES IDX 5 1 6 2 7 3 8 4 9 5 4 6 3 7 2 8 1 9
REMARK H PARENT
REMARK Flexibility Score: inf
ROOT
ATOM      1  C   UNL     1     -31.121 -17.148  12.354  1.00  0.00     0.006 C 
ENDROOT
BRANCH   1   2
ATOM      2  C   UNL     1     -31.125 -18.584  12.895  1.00  0.00     0.053 C 
BRANCH   2   3
ATOM      3  C   UNL     1     -30.271 -18.681  14.121  1.00  0.00     0.041 C 
ATOM      4  O   UNL     1     -30.771 -19.063  15.212  1.00  0.00    -0.550 OA
ATOM      5  O   UNL     1     -28.914 -18.396  14.047  1.00  0.00    -0.550 OA
ENDBRANCH   2   3
ENDBRANCH   1   2
BRANCH   1   6
ATOM      6  C   UNL     1     -31.125 -16.092  13.472  1.00  0.00     0.000 C 
BRANCH   6   7
ATOM      7  C   UNL     1     -30.479 -14.766  13.034  1.00  0.00    -0.000 C 
BRANCH   7   8
ATOM      8  C   UNL     1     -30.768 -13.619  14.015  1.00  0.00    -0.003 C 
ATOM      9  C   UNL     1     -30.782 -12.248  13.337  1.00  0.00     0.004 C 
ENDBRANCH   7   8
ENDBRANCH   6   7
ENDBRANCH   1   6
TORSDOF 5
ENDMDL
MODEL 7
REMARK VINA RESULT:    -2.880     18.825     19.465
REMARK INTER + INTRA:          -3.798
REMARK INTER:                  -3.713
REMARK INTRA:                  -0.084
REMARK UNBOUND:                -0.076
REMARK SMILES CCCCCCC(=O)[O-]
REMARK SMILES IDX 5 1 6 2 7 3 8 4 9 5 4 6 3 7 2 8 1 9
REMARK H PARENT
REMARK Flexibility Score: inf
ROOT
ATOM      1  C   UNL     1     -12.163 -18.811  18.341  1.00  0.00     0.006 C 
ENDROOT
BRANCH   1   2
ATOM      2  C   UNL     1     -12.899 -18.662  19.680  1.00  0.00     0.053 C 
BRANCH   2   3
ATOM      3  C   UNL     1     -13.511 -19.967  20.085  1.00  0.00     0.041 C 
ATOM      4  O   UNL     1     -13.864 -20.157  21.278  1.00  0.00    -0.550 OA
ATOM      5  O   UNL     1     -13.736 -20.954  19.134  1.00  0.00    -0.550 OA
ENDBRANCH   2   3
ENDBRANCH   1   2
BRANCH   1   6
ATOM      6  C   UNL     1     -11.588 -17.479  17.830  1.00  0.00     0.000 C 
BRANCH   6   7
ATOM      7  C   UNL     1     -11.168 -17.547  16.352  1.00  0.00    -0.000 C 
BRANCH   7   8
ATOM      8  C   UNL     1     -11.966 -16.575  15.468  1.00  0.00    -0.003 C 
ATOM      9  C   UNL     1     -11.526 -16.607  14.004  1.00  0.00     0.004 C 
ENDBRANCH   7   8
ENDBRANCH   6   7
ENDBRANCH   1   6
TORSDOF 5
ENDMDL
MODEL 8
REMARK VINA RESULT:    -2.869     18.627     19.046
REMARK INTER + INTRA:          -3.784
REMARK INTER:                  -3.676
REMARK INTRA:                  -0.107
REMARK UNBOUND:                -0.076
REMARK SMILES CCCCCCC(=O)[O-]
REMARK SMILES IDX 5 1 6 2 7 3 8 4 9 5 4 6 3 7 2 8 1 9
REMARK H PARENT
REMARK Flexibility Score: inf
ROOT
ATOM      1  C   UNL     1     -11.950 -17.640  17.818  1.00  0.00     0.006 C 
ENDROOT
BRANCH   1   2
ATOM      2  C   UNL     1     -11.222 -17.668  16.467  1.00  0.00     0.053 C 
BRANCH   2   3
ATOM      3  C   UNL     1     -11.568 -16.454  15.664  1.00  0.00     0.041 C 
ATOM      4  O   UNL     1     -12.093 -16.576  14.525  1.00  0.00    -0.550 OA
ATOM      5  O   UNL     1     -11.358 -15.187  16.192  1.00  0.00    -0.550 OA
ENDBRANCH   2   3
ENDBRANCH   1   2
BRANCH   1   6
ATOM      6  C   UNL     1     -11.967 -19.013  18.510  1.00  0.00     0.000 C 
BRANCH   6   7
ATOM      7  C   UNL     1     -13.184 -19.192  19.434  1.00  0.00    -0.000 C 
BRANCH   7   8
ATOM      8  C   UNL     1     -13.343 -20.640  19.924  1.00  0.00    -0.003 C 
ATOM      9  C   UNL     1     -13.501 -21.640  18.777  1.00  0.00     0.004 C 
ENDBRANCH   7   8
ENDBRANCH   6   7
ENDBRANCH   1   6
TORSDOF 5
ENDMDL
MODEL 9
REMARK VINA RESULT:    -2.868     18.311     18.809
REMARK INTER + INTRA:          -3.782
REMARK INTER:                  -3.701
REMARK INTRA:                  -0.080
REMARK UNBOUND:                -0.076
REMARK SMILES CCCCCCC(=O)[O-]
REMARK SMILES IDX 5 1 6 2 7 3 8 4 9 5 4 6 3 7 2 8 1 9
REMARK H PARENT
REMARK Flexibility Score: inf
ROOT
ATOM      1  C   UNL     1     -11.626 -16.101  15.745  1.00  0.00     0.006 C 
ENDROOT
BRANCH   1   2
ATOM      2  C   UNL     1     -11.987 -16.209  14.258  1.00  0.00     0.053 C 
BRANCH   2   3
ATOM      3  C   UNL     1     -12.426 -14.879  13.731  1.00  0.00     0.041 C 
ATOM      4  O   UNL     1     -12.395 -14.647  12.493  1.00  0.00    -0.550 OA
ATOM      5  O   UNL     1     -12.916 -13.914  14.601  1.00  0.00    -0.550 OA
ENDBRANCH   2   3
ENDBRANCH   1   2
BRANCH   1   6
ATOM      6  C   UNL     1     -11.325 -17.467  16.383  1.00  0.00     0.000 C 
BRANCH   6   7
ATOM      7  C   UNL     1     -11.653 -17.502  17.886  1.00  0.00    -0.000 C 
BRANCH   7   8
ATOM      8  C   UNL     1     -11.992 -18.917  18.382  1.00  0.00    -0.003 C 
ATOM      9  C   UNL     1     -13.071 -18.922  19.465  1.00  0.00     0.004 C 
ENDBRANCH   7   8
ENDBRANCH   6   7
ENDBRANCH   1   6
TORSDOF 5
ENDMDL
