MODEL 1
REMARK VINA RESULT:    -6.970      0.000      0.000
REMARK INTER + INTRA:          -6.970
REMARK INTER:                  -6.970
REMARK INTRA:                   0.000
REMARK UNBOUND:                 0.000
REMARK SMILES C=C1CCC[C@]2(C)CC(=O)C(=C(C)C)C[C@@H]12
REMARK SMILES IDX 13 1 12 2 11 3 15 4 16 5 2 6 1 7 3 8 4 9 5 10 6 11 8 12 9 13
REMARK SMILES IDX 10 14 7 15 14 16
REMARK H PARENT
REMARK Flexibility Score: inf
ROOT
ATOM      1  C   UNL     1      30.232  19.904  23.833  1.00  0.00     0.039 C 
ATOM      2  C   UNL     1      30.534  18.986  24.996  1.00  0.00    -0.070 C 
ATOM      3  C   UNL     1      29.753  18.980  26.116  1.00  0.00    -0.006 C 
ATOM      4  C   UNL     1      28.557  19.915  26.249  1.00  0.00     0.047 C 
ATOM      5  C   UNL     1      28.272  20.320  27.717  1.00  0.00     0.025 C 
ATOM      6  C   UNL     1      27.058  21.228  27.915  1.00  0.00    -0.073 C 
ATOM      7  C   UNL     1      26.264  21.656  26.916  1.00  0.00     0.008 C 
ATOM      8  C   UNL     1      26.793  21.686  29.330  1.00  0.00     0.031 C 
ATOM      9  C   UNL     1      26.723  20.484  30.276  1.00  0.00     0.005 C 
ATOM     10  C   UNL     1      27.956  19.575  30.129  1.00  0.00     0.008 C 
ATOM     11  C   UNL     1      28.183  19.085  28.667  1.00  0.00    -0.018 C 
ATOM     12  C   UNL     1      29.531  18.325  28.617  1.00  0.00     0.088 C 
ATOM     13  C   UNL     1      29.939  17.985  27.213  1.00  0.00     0.159 C 
ATOM     14  O   UNL     1      30.426  16.846  26.985  1.00  0.00    -0.295 OA
ATOM     15  C   UNL     1      27.035  18.122  28.256  1.00  0.00     0.012 C 
ATOM     16  C   UNL     1      31.757  18.107  24.873  1.00  0.00     0.039 C 
ENDROOT
TORSDOF 0
ENDMDL
MODEL 2
REMARK VINA RESULT:    -6.868      7.506     11.710
REMARK INTER + INTRA:          -6.868
REMARK INTER:                  -6.868
REMARK INTRA:                   0.000
REMARK UNBOUND:                 0.000
REMARK SMILES C=C1CCC[C@]2(C)CC(=O)C(=C(C)C)C[C@@H]12
REMARK SMILES IDX 13 1 12 2 11 3 15 4 16 5 2 6 1 7 3 8 4 9 5 10 6 11 8 12 9 13
REMARK SMILES IDX 10 14 7 15 14 16
REMARK H PARENT
REMARK Flexibility Score: inf
ROOT
ATOM      1  C   UNL     1      31.591  18.836  21.227  1.00  0.00     0.039 C 
ATOM      2  C   UNL     1      32.586  19.951  20.996  1.00  0.00    -0.070 C 
ATOM      3  C   UNL     1      33.115  20.184  19.759  1.00  0.00    -0.006 C 
ATOM      4  C   UNL     1      32.738  19.317  18.564  1.00  0.00     0.047 C 
ATOM      5  C   UNL     1      33.880  19.203  17.523  1.00  0.00     0.025 C 
ATOM      6  C   UNL     1      33.545  18.375  16.282  1.00  0.00    -0.073 C 
ATOM      7  C   UNL     1      32.354  17.783  16.067  1.00  0.00     0.008 C 
ATOM      8  C   UNL     1      34.660  18.197  15.278  1.00  0.00     0.031 C 
ATOM      9  C   UNL     1      35.236  19.557  14.875  1.00  0.00     0.005 C 
ATOM     10  C   UNL     1      35.624  20.396  16.106  1.00  0.00     0.008 C 
ATOM     11  C   UNL     1      34.445  20.596  17.105  1.00  0.00    -0.018 C 
ATOM     12  C   UNL     1      34.997  21.304  18.366  1.00  0.00     0.088 C 
ATOM     13  C   UNL     1      33.982  21.364  19.472  1.00  0.00     0.159 C 
ATOM     14  O   UNL     1      33.877  22.429  20.136  1.00  0.00    -0.295 OA
ATOM     15  C   UNL     1      33.354  21.489  16.451  1.00  0.00     0.012 C 
ATOM     16  C   UNL     1      32.994  20.763  22.202  1.00  0.00     0.039 C 
ENDROOT
TORSDOF 0
ENDMDL
MODEL 3
REMARK VINA RESULT:    -6.371      7.644     10.071
REMARK INTER + INTRA:          -6.371
REMARK INTER:                  -6.371
REMARK INTRA:                   0.000
REMARK UNBOUND:                 0.000
REMARK SMILES C=C1CCC[C@]2(C)CC(=O)C(=C(C)C)C[C@@H]12
REMARK SMILES IDX 13 1 12 2 11 3 15 4 16 5 2 6 1 7 3 8 4 9 5 10 6 11 8 12 9 13
REMARK SMILES IDX 10 14 7 15 14 16
REMARK H PARENT
REMARK Flexibility Score: inf
ROOT
ATOM      1  C   UNL     1      38.752  15.122  24.250  1.00  0.00     0.039 C 
ATOM      2  C   UNL     1      39.671  16.091  24.960  1.00  0.00    -0.070 C 
ATOM      3  C   UNL     1      39.201  17.266  25.475  1.00  0.00    -0.006 C 
ATOM      4  C   UNL     1      37.735  17.658  25.336  1.00  0.00     0.047 C 
ATOM      5  C   UNL     1      37.528  19.192  25.270  1.00  0.00     0.025 C 
ATOM      6  C   UNL     1      36.072  19.646  25.169  1.00  0.00    -0.073 C 
ATOM      7  C   UNL     1      35.018  18.807  25.148  1.00  0.00     0.008 C 
ATOM      8  C   UNL     1      35.845  21.134  25.043  1.00  0.00     0.031 C 
ATOM      9  C   UNL     1      36.561  21.880  26.171  1.00  0.00     0.005 C 
ATOM     10  C   UNL     1      38.042  21.475  26.268  1.00  0.00     0.008 C 
ATOM     11  C   UNL     1      38.246  19.939  26.437  1.00  0.00    -0.018 C 
ATOM     12  C   UNL     1      39.763  19.642  26.355  1.00  0.00     0.088 C 
ATOM     13  C   UNL     1      40.050  18.169  26.306  1.00  0.00     0.159 C 
ATOM     14  O   UNL     1      41.010  17.719  26.987  1.00  0.00    -0.295 OA
ATOM     15  C   UNL     1      37.710  19.492  27.825  1.00  0.00     0.012 C 
ATOM     16  C   UNL     1      41.132  15.716  25.038  1.00  0.00     0.039 C 
ENDROOT
TORSDOF 0
ENDMDL
MODEL 4
REMARK VINA RESULT:    -6.057      7.687     11.256
REMARK INTER + INTRA:          -6.057
REMARK INTER:                  -6.057
REMARK INTRA:                   0.000
REMARK UNBOUND:                 0.000
REMARK SMILES C=C1CCC[C@]2(C)CC(=O)C(=C(C)C)C[C@@H]12
REMARK SMILES IDX 13 1 12 2 11 3 15 4 16 5 2 6 1 7 3 8 4 9 5 10 6 11 8 12 9 13
REMARK SMILES IDX 10 14 7 15 14 16
REMARK H PARENT
REMARK Flexibility Score: inf
ROOT
ATOM      1  C   UNL     1      34.966  18.861  24.349  1.00  0.00     0.039 C 
ATOM      2  C   UNL     1      36.024  19.693  25.039  1.00  0.00    -0.070 C 
ATOM      3  C   UNL     1      37.284  19.209  25.245  1.00  0.00    -0.006 C 
ATOM      4  C   UNL     1      37.669  17.801  24.807  1.00  0.00     0.047 C 
ATOM      5  C   UNL     1      38.758  17.169  25.710  1.00  0.00     0.025 C 
ATOM      6  C   UNL     1      39.213  15.770  25.295  1.00  0.00    -0.073 C 
ATOM      7  C   UNL     1      38.735  15.106  24.224  1.00  0.00     0.008 C 
ATOM      8  C   UNL     1      40.232  15.106  26.192  1.00  0.00     0.031 C 
ATOM      9  C   UNL     1      41.440  16.024  26.397  1.00  0.00     0.005 C 
ATOM     10  C   UNL     1      41.014  17.429  26.858  1.00  0.00     0.008 C 
ATOM     11  C   UNL     1      39.994  18.105  25.894  1.00  0.00    -0.018 C 
ATOM     12  C   UNL     1      39.520  19.428  26.544  1.00  0.00     0.088 C 
ATOM     13  C   UNL     1      38.385  20.057  25.788  1.00  0.00     0.159 C 
ATOM     14  O   UNL     1      38.394  21.305  25.615  1.00  0.00    -0.295 OA
ATOM     15  C   UNL     1      40.687  18.419  24.539  1.00  0.00     0.012 C 
ATOM     16  C   UNL     1      35.609  21.064  25.519  1.00  0.00     0.039 C 
ENDROOT
TORSDOF 0
ENDMDL
MODEL 5
REMARK VINA RESULT:    -5.979      7.785      9.703
REMARK INTER + INTRA:          -5.979
REMARK INTER:                  -5.979
REMARK INTRA:                   0.000
REMARK UNBOUND:                 0.000
REMARK SMILES C=C1CCC[C@]2(C)CC(=O)C(=C(C)C)C[C@@H]12
REMARK SMILES IDX 13 1 12 2 11 3 15 4 16 5 2 6 1 7 3 8 4 9 5 10 6 11 8 12 9 13
REMARK SMILES IDX 10 14 7 15 14 16
REMARK H PARENT
REMARK Flexibility Score: inf
ROOT
ATOM      1  C   UNL     1      35.139  20.310  24.616  1.00  0.00     0.039 C 
ATOM      2  C   UNL     1      36.274  19.523  25.232  1.00  0.00    -0.070 C 
ATOM      3  C   UNL     1      37.026  20.042  26.248  1.00  0.00    -0.006 C 
ATOM      4  C   UNL     1      36.766  21.443  26.786  1.00  0.00     0.047 C 
ATOM      5  C   UNL     1      38.049  22.126  27.324  1.00  0.00     0.025 C 
ATOM      6  C   UNL     1      37.842  23.522  27.913  1.00  0.00    -0.073 C 
ATOM      7  C   UNL     1      36.648  24.141  27.988  1.00  0.00     0.008 C 
ATOM      8  C   UNL     1      39.085  24.235  28.390  1.00  0.00     0.031 C 
ATOM      9  C   UNL     1      39.865  23.351  29.367  1.00  0.00     0.005 C 
ATOM     10  C   UNL     1      40.126  21.953  28.782  1.00  0.00     0.008 C 
ATOM     11  C   UNL     1      38.824  21.224  28.334  1.00  0.00    -0.018 C 
ATOM     12  C   UNL     1      39.227  19.912  27.617  1.00  0.00     0.088 C 
ATOM     13  C   UNL     1      38.052  19.236  26.971  1.00  0.00     0.159 C 
ATOM     14  O   UNL     1      37.952  17.983  27.066  1.00  0.00    -0.295 OA
ATOM     15  C   UNL     1      37.963  20.883  29.582  1.00  0.00     0.012 C 
ATOM     16  C   UNL     1      36.556  18.160  24.648  1.00  0.00     0.039 C 
ENDROOT
TORSDOF 0
ENDMDL
MODEL 6
REMARK VINA RESULT:    -5.873      5.228      7.331
REMARK INTER + INTRA:          -5.873
REMARK INTER:                  -5.873
REMARK INTRA:                   0.000
REMARK UNBOUND:                 0.000
REMARK SMILES C=C1CCC[C@]2(C)CC(=O)C(=C(C)C)C[C@@H]12
REMARK SMILES IDX 13 1 12 2 11 3 15 4 16 5 2 6 1 7 3 8 4 9 5 10 6 11 8 12 9 13
REMARK SMILES IDX 10 14 7 15 14 16
REMARK H PARENT
REMARK Flexibility Score: inf
ROOT
ATOM      1  C   UNL     1      34.353  21.226  18.834  1.00  0.00     0.039 C 
ATOM      2  C   UNL     1      33.195  20.262  18.966  1.00  0.00    -0.070 C 
ATOM      3  C   UNL     1      32.705  19.908  20.190  1.00  0.00    -0.006 C 
ATOM      4  C   UNL     1      33.318  20.453  21.474  1.00  0.00     0.047 C 
ATOM      5  C   UNL     1      33.196  19.467  22.663  1.00  0.00     0.025 C 
ATOM      6  C   UNL     1      33.760  19.977  23.989  1.00  0.00    -0.073 C 
ATOM      7  C   UNL     1      34.320  21.192  24.155  1.00  0.00     0.008 C 
ATOM      8  C   UNL     1      33.708  19.013  25.151  1.00  0.00     0.031 C 
ATOM      9  C   UNL     1      32.284  18.486  25.343  1.00  0.00     0.005 C 
ATOM     10  C   UNL     1      31.705  17.925  24.031  1.00  0.00     0.008 C 
ATOM     11  C   UNL     1      31.736  18.953  22.861  1.00  0.00    -0.018 C 
ATOM     12  C   UNL     1      31.288  18.227  21.569  1.00  0.00     0.088 C 
ATOM     13  C   UNL     1      31.475  19.078  20.346  1.00  0.00     0.159 C 
ATOM     14  O   UNL     1      30.569  19.081  19.471  1.00  0.00    -0.295 OA
ATOM     15  C   UNL     1      30.750  20.116  23.163  1.00  0.00     0.012 C 
ATOM     16  C   UNL     1      32.637  19.685  17.687  1.00  0.00     0.039 C 
ENDROOT
TORSDOF 0
ENDMDL
MODEL 7
REMARK VINA RESULT:    -5.872      8.950     12.722
REMARK INTER + INTRA:          -5.872
REMARK INTER:                  -5.872
REMARK INTRA:                   0.000
REMARK UNBOUND:                 0.000
REMARK SMILES C=C1CCC[C@]2(C)CC(=O)C(=C(C)C)C[C@@H]12
REMARK SMILES IDX 13 1 12 2 11 3 15 4 16 5 2 6 1 7 3 8 4 9 5 10 6 11 8 12 9 13
REMARK SMILES IDX 10 14 7 15 14 16
REMARK H PARENT
REMARK Flexibility Score: inf
ROOT
ATOM      1  C   UNL     1      37.263  20.765  24.620  1.00  0.00     0.039 C 
ATOM      2  C   UNL     1      37.383  19.363  25.173  1.00  0.00    -0.070 C 
ATOM      3  C   UNL     1      38.593  18.733  25.253  1.00  0.00    -0.006 C 
ATOM      4  C   UNL     1      39.868  19.411  24.767  1.00  0.00     0.047 C 
ATOM      5  C   UNL     1      40.920  18.403  24.240  1.00  0.00     0.025 C 
ATOM      6  C   UNL     1      42.238  19.024  23.775  1.00  0.00    -0.073 C 
ATOM      7  C   UNL     1      42.507  20.344  23.814  1.00  0.00     0.008 C 
ATOM      8  C   UNL     1      43.259  18.070  23.201  1.00  0.00     0.031 C 
ATOM      9  C   UNL     1      43.524  16.922  24.178  1.00  0.00     0.005 C 
ATOM     10  C   UNL     1      42.216  16.249  24.630  1.00  0.00     0.008 C 
ATOM     11  C   UNL     1      41.197  17.250  25.254  1.00  0.00    -0.018 C 
ATOM     12  C   UNL     1      39.873  16.490  25.513  1.00  0.00     0.088 C 
ATOM     13  C   UNL     1      38.762  17.413  25.926  1.00  0.00     0.159 C 
ATOM     14  O   UNL     1      37.993  17.051  26.857  1.00  0.00    -0.295 OA
ATOM     15  C   UNL     1      41.753  17.785  26.602  1.00  0.00     0.012 C 
ATOM     16  C   UNL     1      36.103  18.682  25.596  1.00  0.00     0.039 C 
ENDROOT
TORSDOF 0
ENDMDL
MODEL 8
REMARK VINA RESULT:    -5.624      8.637     12.286
REMARK INTER + INTRA:          -5.624
REMARK INTER:                  -5.624
REMARK INTRA:                   0.000
REMARK UNBOUND:                 0.000
REMARK SMILES C=C1CCC[C@]2(C)CC(=O)C(=C(C)C)C[C@@H]12
REMARK SMILES IDX 13 1 12 2 11 3 15 4 16 5 2 6 1 7 3 8 4 9 5 10 6 11 8 12 9 13
REMARK SMILES IDX 10 14 7 15 14 16
REMARK H PARENT
REMARK Flexibility Score: inf
ROOT
ATOM      1  C   UNL     1      36.195  19.153  26.426  1.00  0.00     0.039 C 
ATOM      2  C   UNL     1      37.558  19.492  26.989  1.00  0.00    -0.070 C 
ATOM      3  C   UNL     1      38.665  18.770  26.647  1.00  0.00    -0.006 C 
ATOM      4  C   UNL     1      38.570  17.579  25.701  1.00  0.00     0.047 C 
ATOM      5  C   UNL     1      39.636  16.494  25.994  1.00  0.00     0.025 C 
ATOM      6  C   UNL     1      39.613  15.291  25.050  1.00  0.00    -0.073 C 
ATOM      7  C   UNL     1      38.754  15.154  24.022  1.00  0.00     0.008 C 
ATOM      8  C   UNL     1      40.603  14.190  25.349  1.00  0.00     0.031 C 
ATOM      9  C   UNL     1      42.020  14.761  25.455  1.00  0.00     0.005 C 
ATOM     10  C   UNL     1      42.081  15.947  26.433  1.00  0.00     0.008 C 
ATOM     11  C   UNL     1      41.078  17.085  26.079  1.00  0.00    -0.018 C 
ATOM     12  C   UNL     1      41.116  18.133  27.217  1.00  0.00     0.088 C 
ATOM     13  C   UNL     1      40.039  19.170  27.070  1.00  0.00     0.159 C 
ATOM     14  O   UNL     1      40.328  20.375  27.297  1.00  0.00    -0.295 OA
ATOM     15  C   UNL     1      41.505  17.759  24.746  1.00  0.00     0.012 C 
ATOM     16  C   UNL     1      37.626  20.638  27.971  1.00  0.00     0.039 C 
ENDROOT
TORSDOF 0
ENDMDL
MODEL 9
REMARK VINA RESULT:    -5.610      8.644     10.504
REMARK INTER + INTRA:          -5.610
REMARK INTER:                  -5.610
REMARK INTRA:                   0.000
REMARK UNBOUND:                 0.000
REMARK SMILES C=C1CCC[C@]2(C)CC(=O)C(=C(C)C)C[C@@H]12
REMARK SMILES IDX 13 1 12 2 11 3 15 4 16 5 2 6 1 7 3 8 4 9 5 10 6 11 8 12 9 13
REMARK SMILES IDX 10 14 7 15 14 16
REMARK H PARENT
REMARK Flexibility Score: inf
ROOT
ATOM      1  C   UNL     1      37.117  24.108  28.000  1.00  0.00     0.039 C 
ATOM      2  C   UNL     1      38.217  23.148  28.396  1.00  0.00    -0.070 C 
ATOM      3  C   UNL     1      38.422  21.984  27.712  1.00  0.00    -0.006 C 
ATOM      4  C   UNL     1      37.536  21.593  26.536  1.00  0.00     0.047 C 
ATOM      5  C   UNL     1      37.390  20.059  26.379  1.00  0.00     0.025 C 
ATOM      6  C   UNL     1      36.543  19.607  25.190  1.00  0.00    -0.073 C 
ATOM      7  C   UNL     1      35.958  20.448  24.315  1.00  0.00     0.008 C 
ATOM      8  C   UNL     1      36.335  18.117  25.047  1.00  0.00     0.031 C 
ATOM      9  C   UNL     1      37.681  17.388  25.053  1.00  0.00     0.005 C 
ATOM     10  C   UNL     1      38.539  17.792  26.265  1.00  0.00     0.008 C 
ATOM     11  C   UNL     1      38.770  19.330  26.365  1.00  0.00    -0.018 C 
ATOM     12  C   UNL     1      39.497  19.621  27.701  1.00  0.00     0.088 C 
ATOM     13  C   UNL     1      39.587  21.093  27.987  1.00  0.00     0.159 C 
ATOM     14  O   UNL     1      40.666  21.552  28.448  1.00  0.00    -0.295 OA
ATOM     15  C   UNL     1      39.661  19.801  25.183  1.00  0.00     0.012 C 
ATOM     16  C   UNL     1      39.049  23.522  29.600  1.00  0.00     0.039 C 
ENDROOT
TORSDOF 0
ENDMDL
