MODEL 1
REMARK VINA RESULT:    -7.048      0.000      0.000
REMARK INTER + INTRA:          -8.500
REMARK INTER:                  -8.696
REMARK INTRA:                   0.195
REMARK UNBOUND:                 0.195
REMARK SMILES CC(C)=CCC[C@H](C)[C@H]1C=CC(C)=CC1
REMARK SMILES IDX 6 1 7 2 8 3 9 4 13 5 12 6 14 7 11 8 15 9 10 10 5 11 4 12
REMARK SMILES IDX 2 13 1 14 3 15
REMARK H PARENT
REMARK Flexibility Score: inf
ROOT
ATOM      1  C   UNL     1       3.445  10.187  13.158  1.00  0.00     0.008 C 
ENDROOT
BRANCH   1   2
ATOM      2  C   UNL     1       3.651   8.801  13.827  1.00  0.00    -0.007 C 
ATOM      3  C   UNL     1       3.944   9.001  15.324  1.00  0.00     0.008 C 
BRANCH   2   4
ATOM      4  C   UNL     1       4.742   7.889  13.176  1.00  0.00     0.018 C 
ATOM      5  C   UNL     1       7.759   4.876  12.396  1.00  0.00     0.044 C 
ATOM      6  C   UNL     1       6.641   5.767  12.850  1.00  0.00    -0.055 C 
ATOM      7  C   UNL     1       5.406   5.612  12.347  1.00  0.00    -0.023 C 
ATOM      8  C   UNL     1       6.921   6.880  13.787  1.00  0.00    -0.001 C 
ATOM      9  C   UNL     1       4.262   6.453  12.853  1.00  0.00     0.035 C 
ATOM     10  C   UNL     1       6.023   7.852  13.983  1.00  0.00    -0.023 C 
ENDBRANCH   2   4
ENDBRANCH   1   2
BRANCH   1  11
ATOM     11  C   UNL     1       3.446  10.144  11.624  1.00  0.00     0.027 C 
BRANCH  11  12
ATOM     12  C   UNL     1       2.355  11.015  11.050  1.00  0.00    -0.028 C 
ATOM     13  C   UNL     1       1.090  11.016  11.523  1.00  0.00    -0.080 C 
ATOM     14  C   UNL     1       0.678  10.133  12.677  1.00  0.00     0.039 C 
ATOM     15  C   UNL     1       0.075  11.922  10.875  1.00  0.00     0.039 C 
ENDBRANCH  11  12
ENDBRANCH   1  11
TORSDOF 4
ENDMDL
MODEL 2
REMARK VINA RESULT:    -5.845      1.628      5.912
REMARK INTER + INTRA:          -7.017
REMARK INTER:                  -6.094
REMARK INTRA:                  -0.923
REMARK UNBOUND:                 0.195
REMARK SMILES CC(C)=CCC[C@H](C)[C@H]1C=CC(C)=CC1
REMARK SMILES IDX 6 1 7 2 8 3 9 4 13 5 12 6 14 7 11 8 15 9 10 10 5 11 4 12
REMARK SMILES IDX 2 13 1 14 3 15
REMARK H PARENT
REMARK Flexibility Score: inf
ROOT
ATOM      1  C   UNL     1       5.960   5.712  12.363  1.00  0.00     0.008 C 
ENDROOT
BRANCH   1   2
ATOM      2  C   UNL     1       4.512   6.022  12.829  1.00  0.00    -0.007 C 
ATOM      3  C   UNL     1       3.583   4.878  12.388  1.00  0.00     0.008 C 
BRANCH   2   4
ATOM      4  C   UNL     1       3.932   7.401  12.373  1.00  0.00     0.018 C 
ATOM      5  C   UNL     1       3.276  11.613  11.587  1.00  0.00     0.044 C 
ATOM      6  C   UNL     1       3.744  10.217  11.877  1.00  0.00    -0.055 C 
ATOM      7  C   UNL     1       4.124   9.409  10.875  1.00  0.00    -0.023 C 
ATOM      8  C   UNL     1       3.699   9.700  13.265  1.00  0.00    -0.001 C 
ATOM      9  C   UNL     1       4.666   8.033  11.165  1.00  0.00     0.035 C 
ATOM     10  C   UNL     1       3.833   8.393  13.513  1.00  0.00    -0.023 C 
ENDBRANCH   2   4
ENDBRANCH   1   2
BRANCH   1  11
ATOM     11  C   UNL     1       6.957   5.524  13.515  1.00  0.00     0.027 C 
BRANCH  11  12
ATOM     12  C   UNL     1       8.122   6.477  13.393  1.00  0.00    -0.028 C 
ATOM     13  C   UNL     1       8.143   7.689  13.987  1.00  0.00    -0.080 C 
ATOM     14  C   UNL     1       6.987   8.180  14.825  1.00  0.00     0.039 C 
ATOM     15  C   UNL     1       9.355   8.565  13.799  1.00  0.00     0.039 C 
ENDBRANCH  11  12
ENDBRANCH   1  11
TORSDOF 4
ENDMDL
MODEL 3
REMARK VINA RESULT:    -5.758      1.113      6.503
REMARK INTER + INTRA:          -6.910
REMARK INTER:                  -6.614
REMARK INTRA:                  -0.296
REMARK UNBOUND:                 0.195
REMARK SMILES CC(C)=CCC[C@H](C)[C@H]1C=CC(C)=CC1
REMARK SMILES IDX 6 1 7 2 8 3 9 4 13 5 12 6 14 7 11 8 15 9 10 10 5 11 4 12
REMARK SMILES IDX 2 13 1 14 3 15
REMARK H PARENT
REMARK Flexibility Score: inf
ROOT
ATOM      1  C   UNL     1       4.806   7.365  12.691  1.00  0.00     0.008 C 
ENDROOT
BRANCH   1   2
ATOM      2  C   UNL     1       4.316   8.755  13.179  1.00  0.00    -0.007 C 
ATOM      3  C   UNL     1       3.939   8.664  14.667  1.00  0.00     0.008 C 
BRANCH   2   4
ATOM      4  C   UNL     1       3.145   9.389  12.359  1.00  0.00     0.018 C 
ATOM      5  C   UNL     1      -0.026  11.949  10.883  1.00  0.00     0.044 C 
ATOM      6  C   UNL     1       1.155  11.269  11.509  1.00  0.00    -0.055 C 
ATOM      7  C   UNL     1       2.339  11.249  10.875  1.00  0.00    -0.023 C 
ATOM      8  C   UNL     1       0.991  10.536  12.786  1.00  0.00    -0.001 C 
ATOM      9  C   UNL     1       3.547  10.634  11.530  1.00  0.00     0.035 C 
ATOM     10  C   UNL     1       1.934   9.692  13.217  1.00  0.00    -0.023 C 
ENDBRANCH   2   4
ENDBRANCH   1   2
BRANCH   1  11
ATOM     11  C   UNL     1       5.642   6.602  13.728  1.00  0.00     0.027 C 
BRANCH  11  12
ATOM     12  C   UNL     1       6.909   7.348  14.067  1.00  0.00    -0.028 C 
ATOM     13  C   UNL     1       8.044   7.235  13.344  1.00  0.00    -0.080 C 
ATOM     14  C   UNL     1       8.121   6.341  12.129  1.00  0.00     0.039 C 
ATOM     15  C   UNL     1       9.256   8.022  13.771  1.00  0.00     0.039 C 
ENDBRANCH  11  12
ENDBRANCH   1  11
TORSDOF 4
ENDMDL
MODEL 4
REMARK VINA RESULT:    -5.248      0.902      6.179
REMARK INTER + INTRA:          -6.280
REMARK INTER:                  -6.370
REMARK INTRA:                   0.090
REMARK UNBOUND:                 0.195
REMARK SMILES CC(C)=CCC[C@H](C)[C@H]1C=CC(C)=CC1
REMARK SMILES IDX 6 1 7 2 8 3 9 4 13 5 12 6 14 7 11 8 15 9 10 10 5 11 4 12
REMARK SMILES IDX 2 13 1 14 3 15
REMARK H PARENT
REMARK Flexibility Score: inf
ROOT
ATOM      1  C   UNL     1       4.136   7.652  13.128  1.00  0.00     0.008 C 
ENDROOT
BRANCH   1   2
ATOM      2  C   UNL     1       4.185   9.091  13.709  1.00  0.00    -0.007 C 
ATOM      3  C   UNL     1       4.136   9.017  15.245  1.00  0.00     0.008 C 
BRANCH   2   4
ATOM      4  C   UNL     1       3.094  10.077  13.176  1.00  0.00     0.018 C 
ATOM      5  C   UNL     1      -0.016  12.031  10.875  1.00  0.00     0.044 C 
ATOM      6  C   UNL     1       0.985  11.146  11.557  1.00  0.00    -0.055 C 
ATOM      7  C   UNL     1       0.668  10.524  12.703  1.00  0.00    -0.023 C 
ATOM      8  C   UNL     1       2.358  11.032  11.012  1.00  0.00    -0.001 C 
ATOM      9  C   UNL     1       1.640   9.575  13.354  1.00  0.00     0.035 C 
ATOM     10  C   UNL     1       3.341  10.492  11.740  1.00  0.00    -0.023 C 
ENDBRANCH   2   4
ENDBRANCH   1   2
BRANCH   1  11
ATOM     11  C   UNL     1       4.762   7.524  11.733  1.00  0.00     0.027 C 
BRANCH  11  12
ATOM     12  C   UNL     1       6.124   6.876  11.800  1.00  0.00    -0.028 C 
ATOM     13  C   UNL     1       6.340   5.678  12.382  1.00  0.00    -0.080 C 
ATOM     14  C   UNL     1       5.214   4.892  13.013  1.00  0.00     0.039 C 
ATOM     15  C   UNL     1       7.740   5.121  12.397  1.00  0.00     0.039 C 
ENDBRANCH  11  12
ENDBRANCH   1  11
TORSDOF 4
ENDMDL
MODEL 5
REMARK VINA RESULT:    -4.745      1.317      2.554
REMARK INTER + INTRA:          -5.660
REMARK INTER:                  -5.211
REMARK INTRA:                  -0.449
REMARK UNBOUND:                 0.195
REMARK SMILES CC(C)=CCC[C@H](C)[C@H]1C=CC(C)=CC1
REMARK SMILES IDX 6 1 7 2 8 3 9 4 13 5 12 6 14 7 11 8 15 9 10 10 5 11 4 12
REMARK SMILES IDX 2 13 1 14 3 15
REMARK H PARENT
REMARK Flexibility Score: inf
ROOT
ATOM      1  C   UNL     1       3.209   7.943  13.834  1.00  0.00     0.008 C 
ENDROOT
BRANCH   1   2
ATOM      2  C   UNL     1       4.184   7.232  12.857  1.00  0.00    -0.007 C 
ATOM      3  C   UNL     1       4.054   5.710  13.034  1.00  0.00     0.008 C 
BRANCH   2   4
ATOM      4  C   UNL     1       5.683   7.666  12.957  1.00  0.00     0.018 C 
ATOM      5  C   UNL     1       9.827   8.166  14.125  1.00  0.00     0.044 C 
ATOM      6  C   UNL     1       8.405   7.776  13.846  1.00  0.00    -0.055 C 
ATOM      7  C   UNL     1       8.107   7.034  12.768  1.00  0.00    -0.023 C 
ATOM      8  C   UNL     1       7.318   8.291  14.710  1.00  0.00    -0.001 C 
ATOM      9  C   UNL     1       6.693   6.576  12.521  1.00  0.00     0.035 C 
ATOM     10  C   UNL     1       6.040   8.203  14.328  1.00  0.00    -0.023 C 
ENDBRANCH   2   4
ENDBRANCH   1   2
BRANCH   1  11
ATOM     11  C   UNL     1       3.307   9.475  13.804  1.00  0.00     0.027 C 
BRANCH  11  12
ATOM     12  C   UNL     1       2.222  10.077  12.943  1.00  0.00    -0.028 C 
ATOM     13  C   UNL     1       2.450  10.547  11.697  1.00  0.00    -0.080 C 
ATOM     14  C   UNL     1       3.824  10.499  11.073  1.00  0.00     0.039 C 
ATOM     15  C   UNL     1       1.297  11.131  10.922  1.00  0.00     0.039 C 
ENDBRANCH  11  12
ENDBRANCH   1  11
TORSDOF 4
ENDMDL
