MODEL 1
REMARK VINA RESULT:    -3.950      0.000      0.000
REMARK INTER + INTRA:          -5.185
REMARK INTER:                  -4.759
REMARK INTRA:                  -0.427
REMARK UNBOUND:                -0.427
REMARK SMILES NC(=O)C[C@@H]([NH3+])C(=O)[O-]
REMARK SMILES IDX 4 1 5 2 6 3 7 7 8 8 9 9 2 10 3 11 1 12
REMARK H PARENT 6 4 6 5 6 6 1 13 1 14
REMARK Flexibility Score: inf
ROOT
ATOM      1  C   UNL     1      35.370  -2.374  25.150  1.00  0.00     0.171 C 
ENDROOT
BRANCH   1   2
ATOM      2  C   UNL     1      36.445  -1.536  24.428  1.00  0.00     0.237 C 
BRANCH   2   3
ATOM      3  N   UNL     1      36.793  -2.115  23.124  1.00  0.00    -0.350 N 
ATOM      4  H   UNL     1      36.499  -3.118  23.091  1.00  0.00     0.345 HD
ATOM      5  H   UNL     1      36.286  -1.609  22.361  1.00  0.00     0.345 HD
ATOM      6  H   UNL     1      37.823  -2.053  22.953  1.00  0.00     0.345 HD
ENDBRANCH   2   3
BRANCH   2   7
ATOM      7  C   UNL     1      35.960  -0.121  24.259  1.00  0.00     0.100 C 
ATOM      8  O   UNL     1      36.769   0.843  24.323  1.00  0.00    -0.544 OA
ATOM      9  O   UNL     1      34.617   0.128  24.012  1.00  0.00    -0.544 OA
ENDBRANCH   2   7
ENDBRANCH   1   2
BRANCH   1  10
ATOM     10  C   UNL     1      34.678  -3.318  24.211  1.00  0.00     0.223 C 
ATOM     11  O   UNL     1      35.075  -4.510  24.118  1.00  0.00    -0.275 OA
ATOM     12  N   UNL     1      33.596  -2.867  23.395  1.00  0.00    -0.369 N 
ATOM     13  H   UNL     1      33.125  -3.524  22.734  1.00  0.00     0.159 HD
ATOM     14  H   UNL     1      33.270  -1.877  23.441  1.00  0.00     0.159 HD
ENDBRANCH   1  10
TORSDOF 4
ENDMDL
MODEL 2
REMARK VINA RESULT:    -3.889      1.491      3.850
REMARK INTER + INTRA:          -5.112
REMARK INTER:                  -4.624
REMARK INTRA:                  -0.487
REMARK UNBOUND:                -0.427
REMARK SMILES NC(=O)C[C@@H]([NH3+])C(=O)[O-]
REMARK SMILES IDX 4 1 5 2 6 3 7 7 8 8 9 9 2 10 3 11 1 12
REMARK H PARENT 6 4 6 5 6 6 1 13 1 14
REMARK Flexibility Score: inf
ROOT
ATOM      1  C   UNL     1      34.816  -1.835  25.192  1.00  0.00     0.171 C 
ENDROOT
BRANCH   1   2
ATOM      2  C   UNL     1      34.253  -3.049  24.427  1.00  0.00     0.237 C 
BRANCH   2   3
ATOM      3  N   UNL     1      33.512  -2.634  23.228  1.00  0.00    -0.350 N 
ATOM      4  H   UNL     1      33.859  -1.703  22.900  1.00  0.00     0.345 HD
ATOM      5  H   UNL     1      33.667  -3.322  22.455  1.00  0.00     0.345 HD
ATOM      6  H   UNL     1      32.488  -2.567  23.429  1.00  0.00     0.345 HD
ENDBRANCH   2   3
BRANCH   2   7
ATOM      7  C   UNL     1      35.376  -3.979  24.050  1.00  0.00     0.100 C 
ATOM      8  O   UNL     1      35.219  -5.228  24.116  1.00  0.00    -0.544 OA
ATOM      9  O   UNL     1      36.587  -3.463  23.609  1.00  0.00    -0.544 OA
ENDBRANCH   2   7
ENDBRANCH   1   2
BRANCH   1  10
ATOM     10  C   UNL     1      34.873  -0.610  24.326  1.00  0.00     0.223 C 
ATOM     11  O   UNL     1      33.855   0.123  24.212  1.00  0.00    -0.275 OA
ATOM     12  N   UNL     1      36.061  -0.288  23.603  1.00  0.00    -0.369 N 
ATOM     13  H   UNL     1      36.093   0.559  22.993  1.00  0.00     0.159 HD
ATOM     14  H   UNL     1      36.907  -0.897  23.667  1.00  0.00     0.159 HD
ENDBRANCH   1  10
TORSDOF 4
ENDMDL
MODEL 3
REMARK VINA RESULT:    -3.876      1.667      1.705
REMARK INTER + INTRA:          -5.096
REMARK INTER:                  -4.767
REMARK INTRA:                  -0.328
REMARK UNBOUND:                -0.427
REMARK SMILES NC(=O)C[C@@H]([NH3+])C(=O)[O-]
REMARK SMILES IDX 4 1 5 2 6 3 7 7 8 8 9 9 2 10 3 11 1 12
REMARK H PARENT 6 4 6 5 6 6 1 13 1 14
REMARK Flexibility Score: inf
ROOT
ATOM      1  C   UNL     1      34.512  -2.729  24.496  1.00  0.00     0.171 C 
ENDROOT
BRANCH   1   2
ATOM      2  C   UNL     1      35.199  -1.646  25.350  1.00  0.00     0.237 C 
BRANCH   2   3
ATOM      3  N   UNL     1      36.491  -2.111  25.873  1.00  0.00    -0.350 N 
ATOM      4  H   UNL     1      36.733  -3.036  25.449  1.00  0.00     0.345 HD
ATOM      5  H   UNL     1      37.247  -1.435  25.614  1.00  0.00     0.345 HD
ATOM      6  H   UNL     1      36.458  -2.208  26.914  1.00  0.00     0.345 HD
ENDBRANCH   2   3
BRANCH   2   7
ATOM      7  C   UNL     1      35.386  -0.394  24.534  1.00  0.00     0.100 C 
ATOM      8  O   UNL     1      36.543   0.049  24.302  1.00  0.00    -0.544 OA
ATOM      9  O   UNL     1      34.281   0.268  24.017  1.00  0.00    -0.544 OA
ENDBRANCH   2   7
ENDBRANCH   1   2
BRANCH   1  10
ATOM     10  C   UNL     1      35.473  -3.807  24.085  1.00  0.00     0.223 C 
ATOM     11  O   UNL     1      36.476  -3.514  23.382  1.00  0.00    -0.275 OA
ATOM     12  N   UNL     1      35.241  -5.166  24.455  1.00  0.00    -0.369 N 
ATOM     13  H   UNL     1      35.906  -5.914  24.157  1.00  0.00     0.159 HD
ATOM     14  H   UNL     1      34.402  -5.430  25.017  1.00  0.00     0.159 HD
ENDBRANCH   1  10
TORSDOF 4
ENDMDL
MODEL 4
REMARK VINA RESULT:    -3.824      1.730      3.695
REMARK INTER + INTRA:          -5.034
REMARK INTER:                  -4.774
REMARK INTRA:                  -0.260
REMARK UNBOUND:                -0.427
REMARK SMILES NC(=O)C[C@@H]([NH3+])C(=O)[O-]
REMARK SMILES IDX 4 1 5 2 6 3 7 7 8 8 9 9 2 10 3 11 1 12
REMARK H PARENT 6 4 6 5 6 6 1 13 1 14
REMARK Flexibility Score: inf
ROOT
ATOM      1  C   UNL     1      36.532  -1.884  25.114  1.00  0.00     0.171 C 
ENDROOT
BRANCH   1   2
ATOM      2  C   UNL     1      36.475  -2.909  23.963  1.00  0.00     0.237 C 
BRANCH   2   3
ATOM      3  N   UNL     1      37.615  -3.833  24.008  1.00  0.00    -0.350 N 
ATOM      4  H   UNL     1      38.067  -3.886  23.065  1.00  0.00     0.345 HD
ATOM      5  H   UNL     1      38.332  -3.486  24.686  1.00  0.00     0.345 HD
ATOM      6  H   UNL     1      37.306  -4.791  24.293  1.00  0.00     0.345 HD
ENDBRANCH   2   3
BRANCH   2   7
ATOM      7  C   UNL     1      35.180  -3.674  24.025  1.00  0.00     0.100 C 
ATOM      8  O   UNL     1      34.076  -3.066  23.997  1.00  0.00    -0.544 OA
ATOM      9  O   UNL     1      35.196  -5.060  24.095  1.00  0.00    -0.544 OA
ENDBRANCH   2   7
ENDBRANCH   1   2
BRANCH   1  10
ATOM     10  C   UNL     1      36.394  -0.476  24.612  1.00  0.00     0.223 C 
ATOM     11  O   UNL     1      37.096   0.439  25.118  1.00  0.00    -0.275 OA
ATOM     12  N   UNL     1      35.448  -0.159  23.590  1.00  0.00    -0.369 N 
ATOM     13  H   UNL     1      35.347   0.824  23.252  1.00  0.00     0.159 HD
ATOM     14  H   UNL     1      34.841  -0.901  23.177  1.00  0.00     0.159 HD
ENDBRANCH   1  10
TORSDOF 4
ENDMDL
MODEL 5
REMARK VINA RESULT:    -3.781      5.912      6.615
REMARK INTER + INTRA:          -4.982
REMARK INTER:                  -4.858
REMARK INTRA:                  -0.124
REMARK UNBOUND:                -0.427
REMARK SMILES NC(=O)C[C@@H]([NH3+])C(=O)[O-]
REMARK SMILES IDX 4 1 5 2 6 3 7 7 8 8 9 9 2 10 3 11 1 12
REMARK H PARENT 6 4 6 5 6 6 1 13 1 14
REMARK Flexibility Score: inf
ROOT
ATOM      1  C   UNL     1      36.728   3.122  20.254  1.00  0.00     0.171 C 
ENDROOT
BRANCH   1   2
ATOM      2  C   UNL     1      37.917   3.086  21.235  1.00  0.00     0.237 C 
BRANCH   2   3
ATOM      3  N   UNL     1      39.019   2.265  20.715  1.00  0.00    -0.350 N 
ATOM      4  H   UNL     1      38.818   1.252  20.884  1.00  0.00     0.345 HD
ATOM      5  H   UNL     1      39.113   2.403  19.683  1.00  0.00     0.345 HD
ATOM      6  H   UNL     1      39.921   2.517  21.180  1.00  0.00     0.345 HD
ENDBRANCH   2   3
BRANCH   2   7
ATOM      7  C   UNL     1      38.394   4.486  21.511  1.00  0.00     0.100 C 
ATOM      8  O   UNL     1      38.499   4.904  22.695  1.00  0.00    -0.544 OA
ATOM      9  O   UNL     1      38.741   5.321  20.457  1.00  0.00    -0.544 OA
ENDBRANCH   2   7
ENDBRANCH   1   2
BRANCH   1  10
ATOM     10  C   UNL     1      35.412   3.144  20.977  1.00  0.00     0.223 C 
ATOM     11  O   UNL     1      35.327   2.659  22.136  1.00  0.00    -0.275 OA
ATOM     12  N   UNL     1      34.247   3.679  20.347  1.00  0.00    -0.369 N 
ATOM     13  H   UNL     1      33.331   3.681  20.848  1.00  0.00     0.159 HD
ATOM     14  H   UNL     1      34.294   4.063  19.377  1.00  0.00     0.159 HD
ENDBRANCH   1  10
TORSDOF 4
ENDMDL
MODEL 6
REMARK VINA RESULT:    -3.673      2.268      2.854
REMARK INTER + INTRA:          -4.851
REMARK INTER:                  -4.603
REMARK INTRA:                  -0.248
REMARK UNBOUND:                -0.427
REMARK SMILES NC(=O)C[C@@H]([NH3+])C(=O)[O-]
REMARK SMILES IDX 4 1 5 2 6 3 7 7 8 8 9 9 2 10 3 11 1 12
REMARK H PARENT 6 4 6 5 6 6 1 13 1 14
REMARK Flexibility Score: inf
ROOT
ATOM      1  C   UNL     1      34.077  -3.291  24.003  1.00  0.00     0.171 C 
ENDROOT
BRANCH   1   2
ATOM      2  C   UNL     1      34.294  -1.951  24.733  1.00  0.00     0.237 C 
BRANCH   2   3
ATOM      3  N   UNL     1      35.210  -1.075  23.989  1.00  0.00    -0.350 N 
ATOM      4  H   UNL     1      36.083  -0.920  24.545  1.00  0.00     0.345 HD
ATOM      5  H   UNL     1      35.483  -1.526  23.086  1.00  0.00     0.345 HD
ATOM      6  H   UNL     1      34.762  -0.151  23.791  1.00  0.00     0.345 HD
ENDBRANCH   2   3
BRANCH   2   7
ATOM      7  C   UNL     1      32.971  -1.264  24.943  1.00  0.00     0.100 C 
ATOM      8  O   UNL     1      32.018  -1.871  25.501  1.00  0.00    -0.544 OA
ATOM      9  O   UNL     1      32.801   0.053  24.538  1.00  0.00    -0.544 OA
ENDBRANCH   2   7
ENDBRANCH   1   2
BRANCH   1  10
ATOM     10  C   UNL     1      35.303  -4.156  24.053  1.00  0.00     0.223 C 
ATOM     11  O   UNL     1      36.398  -3.714  23.615  1.00  0.00    -0.275 OA
ATOM     12  N   UNL     1      35.230  -5.490  24.558  1.00  0.00    -0.369 N 
ATOM     13  H   UNL     1      36.082  -6.092  24.580  1.00  0.00     0.159 HD
ATOM     14  H   UNL     1      34.325  -5.881  24.902  1.00  0.00     0.159 HD
ENDBRANCH   1  10
TORSDOF 4
ENDMDL
MODEL 7
REMARK VINA RESULT:    -3.626      2.004      3.054
REMARK INTER + INTRA:          -4.795
REMARK INTER:                  -4.477
REMARK INTRA:                  -0.318
REMARK UNBOUND:                -0.427
REMARK SMILES NC(=O)C[C@@H]([NH3+])C(=O)[O-]
REMARK SMILES IDX 4 1 5 2 6 3 7 7 8 8 9 9 2 10 3 11 1 12
REMARK H PARENT 6 4 6 5 6 6 1 13 1 14
REMARK Flexibility Score: inf
ROOT
ATOM      1  C   UNL     1      34.269  -1.789  25.401  1.00  0.00     0.171 C 
ENDROOT
BRANCH   1   2
ATOM      2  C   UNL     1      34.853  -2.956  24.580  1.00  0.00     0.237 C 
BRANCH   2   3
ATOM      3  N   UNL     1      33.946  -3.360  23.497  1.00  0.00    -0.350 N 
ATOM      4  H   UNL     1      33.842  -2.578  22.810  1.00  0.00     0.345 HD
ATOM      5  H   UNL     1      34.341  -4.182  22.986  1.00  0.00     0.345 HD
ATOM      6  H   UNL     1      33.004  -3.611  23.876  1.00  0.00     0.345 HD
ENDBRANCH   2   3
BRANCH   2   7
ATOM      7  C   UNL     1      36.193  -2.564  24.018  1.00  0.00     0.100 C 
ATOM      8  O   UNL     1      36.509  -1.349  23.909  1.00  0.00    -0.544 OA
ATOM      9  O   UNL     1      37.098  -3.544  23.632  1.00  0.00    -0.544 OA
ENDBRANCH   2   7
ENDBRANCH   1   2
BRANCH   1  10
ATOM     10  C   UNL     1      32.855  -1.480  25.000  1.00  0.00     0.223 C 
ATOM     11  O   UNL     1      32.633  -0.837  23.940  1.00  0.00    -0.275 OA
ATOM     12  N   UNL     1      31.763  -1.877  25.828  1.00  0.00    -0.369 N 
ATOM     13  H   UNL     1      30.782  -1.650  25.551  1.00  0.00     0.159 HD
ATOM     14  H   UNL     1      31.930  -2.390  26.722  1.00  0.00     0.159 HD
ENDBRANCH   1  10
TORSDOF 4
ENDMDL
MODEL 8
REMARK VINA RESULT:    -3.594      2.347      3.351
REMARK INTER + INTRA:          -4.757
REMARK INTER:                  -4.277
REMARK INTRA:                  -0.480
REMARK UNBOUND:                -0.427
REMARK SMILES NC(=O)C[C@@H]([NH3+])C(=O)[O-]
REMARK SMILES IDX 4 1 5 2 6 3 7 7 8 8 9 9 2 10 3 11 1 12
REMARK H PARENT 6 4 6 5 6 6 1 13 1 14
REMARK Flexibility Score: inf
ROOT
ATOM      1  C   UNL     1      35.280  -0.703  24.366  1.00  0.00     0.171 C 
ENDROOT
BRANCH   1   2
ATOM      2  C   UNL     1      33.900  -1.363  24.169  1.00  0.00     0.237 C 
BRANCH   2   3
ATOM      3  N   UNL     1      34.020  -2.682  23.534  1.00  0.00    -0.350 N 
ATOM      4  H   UNL     1      34.198  -2.568  22.509  1.00  0.00     0.345 HD
ATOM      5  H   UNL     1      34.830  -3.204  23.942  1.00  0.00     0.345 HD
ATOM      6  H   UNL     1      33.146  -3.241  23.670  1.00  0.00     0.345 HD
ENDBRANCH   2   3
BRANCH   2   7
ATOM      7  C   UNL     1      33.198  -1.483  25.495  1.00  0.00     0.100 C 
ATOM      8  O   UNL     1      32.004  -1.882  25.551  1.00  0.00    -0.544 OA
ATOM      9  O   UNL     1      33.872  -1.172  26.668  1.00  0.00    -0.544 OA
ENDBRANCH   2   7
ENDBRANCH   1   2
BRANCH   1  10
ATOM     10  C   UNL     1      36.369  -1.725  24.512  1.00  0.00     0.223 C 
ATOM     11  O   UNL     1      36.902  -2.222  23.485  1.00  0.00    -0.275 OA
ATOM     12  N   UNL     1      36.782  -2.165  25.806  1.00  0.00    -0.369 N 
ATOM     13  H   UNL     1      37.532  -2.885  25.903  1.00  0.00     0.159 HD
ATOM     14  H   UNL     1      36.334  -1.782  26.668  1.00  0.00     0.159 HD
ENDBRANCH   1  10
TORSDOF 4
ENDMDL
MODEL 9
REMARK VINA RESULT:    -3.461      2.401      3.794
REMARK INTER + INTRA:          -4.596
REMARK INTER:                  -4.078
REMARK INTRA:                  -0.518
REMARK UNBOUND:                -0.427
REMARK SMILES NC(=O)C[C@@H]([NH3+])C(=O)[O-]
REMARK SMILES IDX 4 1 5 2 6 3 7 7 8 8 9 9 2 10 3 11 1 12
REMARK H PARENT 6 4 6 5 6 6 1 13 1 14
REMARK Flexibility Score: inf
ROOT
ATOM      1  C   UNL     1      34.990  -0.390  26.293  1.00  0.00     0.171 C 
ENDROOT
BRANCH   1   2
ATOM      2  C   UNL     1      33.965  -0.410  25.141  1.00  0.00     0.237 C 
BRANCH   2   3
ATOM      3  N   UNL     1      34.604  -0.133  23.847  1.00  0.00    -0.350 N 
ATOM      4  H   UNL     1      33.910   0.298  23.193  1.00  0.00     0.345 HD
ATOM      5  H   UNL     1      35.388   0.547  23.973  1.00  0.00     0.345 HD
ATOM      6  H   UNL     1      34.977  -1.013  23.420  1.00  0.00     0.345 HD
ENDBRANCH   2   3
BRANCH   2   7
ATOM      7  C   UNL     1      33.266  -1.743  25.102  1.00  0.00     0.100 C 
ATOM      8  O   UNL     1      32.079  -1.853  25.511  1.00  0.00    -0.544 OA
ATOM      9  O   UNL     1      33.923  -2.857  24.597  1.00  0.00    -0.544 OA
ENDBRANCH   2   7
ENDBRANCH   1   2
BRANCH   1  10
ATOM     10  C   UNL     1      36.366  -0.760  25.819  1.00  0.00     0.223 C 
ATOM     11  O   UNL     1      37.152   0.139  25.419  1.00  0.00    -0.275 OA
ATOM     12  N   UNL     1      36.778  -2.127  25.785  1.00  0.00    -0.369 N 
ATOM     13  H   UNL     1      37.732  -2.381  25.444  1.00  0.00     0.159 HD
ATOM     14  H   UNL     1      36.131  -2.887  26.090  1.00  0.00     0.159 HD
ENDBRANCH   1  10
TORSDOF 4
ENDMDL
