MODEL 1
REMARK VINA RESULT:    -6.068      0.000      0.000
REMARK INTER + INTRA:          -6.245
REMARK INTER:                  -6.245
REMARK INTRA:                   0.000
REMARK UNBOUND:                 0.000
REMARK SMILES C=C1[C@H]2C[C@@]3(C[C@@H]1O)[C@H](CC[C@@H]3C)C2(C)C
REMARK SMILES IDX 13 1 12 2 11 3 10 4 9 5 5 6 4 7 3 8 14 9 15 10 16 11 2 12
REMARK SMILES IDX 1 13 7 14 6 15 8 16
REMARK H PARENT 8 17
REMARK Flexibility Score: inf
ROOT
ATOM      1  C   UNL     1      11.670 -15.232  30.080  1.00  0.00     0.008 C 
ATOM      2  C   UNL     1      12.878 -14.338  29.739  1.00  0.00    -0.008 C 
ATOM      3  C   UNL     1      14.174 -15.144  29.845  1.00  0.00     0.004 C 
ATOM      4  C   UNL     1      14.408 -15.736  28.463  1.00  0.00     0.005 C 
ATOM      5  C   UNL     1      13.766 -14.762  27.453  1.00  0.00     0.002 C 
ATOM      6  C   UNL     1      12.884 -13.795  28.282  1.00  0.00    -0.020 C 
ATOM      7  C   UNL     1      13.601 -12.443  28.199  1.00  0.00     0.016 C 
ATOM      8  C   UNL     1      14.074 -12.438  26.759  1.00  0.00     0.023 C 
ATOM      9  C   UNL     1      14.712 -13.848  26.593  1.00  0.00    -0.025 C 
ATOM     10  C   UNL     1      14.757 -14.316  25.118  1.00  0.00     0.012 C 
ATOM     11  C   UNL     1      16.182 -13.792  27.094  1.00  0.00     0.012 C 
ATOM     12  C   UNL     1      12.837 -12.241  25.881  1.00  0.00    -0.045 C 
ATOM     13  C   UNL     1      12.918 -11.482  24.777  1.00  0.00     0.011 C 
ATOM     14  C   UNL     1      11.526 -12.955  26.208  1.00  0.00     0.140 C 
ATOM     15  C   UNL     1      11.483 -13.600  27.630  1.00  0.00     0.044 C 
ENDROOT
BRANCH  14  16
ATOM     16  O   UNL     1      11.288 -13.935  25.231  1.00  0.00    -0.389 OA
ATOM     17  H   UNL     1      12.160 -14.366  25.033  1.00  0.00     0.211 HD
ENDBRANCH  14  16
TORSDOF 1
ENDMDL
MODEL 2
REMARK VINA RESULT:    -5.891      1.666      4.263
REMARK INTER + INTRA:          -6.063
REMARK INTER:                  -6.063
REMARK INTRA:                   0.000
REMARK UNBOUND:                 0.000
REMARK SMILES C=C1[C@H]2C[C@@]3(C[C@@H]1O)[C@H](CC[C@@H]3C)C2(C)C
REMARK SMILES IDX 13 1 12 2 11 3 10 4 9 5 5 6 4 7 3 8 14 9 15 10 16 11 2 12
REMARK SMILES IDX 1 13 7 14 6 15 8 16
REMARK H PARENT 8 17
REMARK Flexibility Score: inf
ROOT
ATOM      1  C   UNL     1      16.942 -12.900  25.963  1.00  0.00     0.008 C 
ATOM      2  C   UNL     1      15.597 -12.187  26.198  1.00  0.00    -0.008 C 
ATOM      3  C   UNL     1      14.951 -11.826  24.859  1.00  0.00     0.004 C 
ATOM      4  C   UNL     1      14.085 -13.019  24.482  1.00  0.00     0.005 C 
ATOM      5  C   UNL     1      13.642 -13.676  25.806  1.00  0.00     0.002 C 
ATOM      6  C   UNL     1      14.526 -13.056  26.916  1.00  0.00    -0.020 C 
ATOM      7  C   UNL     1      13.568 -12.186  27.738  1.00  0.00     0.016 C 
ATOM      8  C   UNL     1      12.323 -13.049  27.766  1.00  0.00     0.023 C 
ATOM      9  C   UNL     1      12.157 -13.475  26.278  1.00  0.00    -0.025 C 
ATOM     10  C   UNL     1      11.334 -14.777  26.116  1.00  0.00     0.012 C 
ATOM     11  C   UNL     1      11.387 -12.357  25.522  1.00  0.00     0.012 C 
ATOM     12  C   UNL     1      12.615 -14.230  28.691  1.00  0.00    -0.045 C 
ATOM     13  C   UNL     1      11.650 -14.702  29.496  1.00  0.00     0.011 C 
ATOM     14  C   UNL     1      13.975 -14.927  28.662  1.00  0.00     0.140 C 
ATOM     15  C   UNL     1      15.080 -14.146  27.881  1.00  0.00     0.044 C 
ENDROOT
BRANCH  14  16
ATOM     16  O   UNL     1      13.816 -16.210  28.112  1.00  0.00    -0.389 OA
ATOM     17  H   UNL     1      14.694 -16.473  27.731  1.00  0.00     0.211 HD
ENDBRANCH  14  16
TORSDOF 1
ENDMDL
MODEL 3
REMARK VINA RESULT:    -5.514      1.735      3.355
REMARK INTER + INTRA:          -5.675
REMARK INTER:                  -5.675
REMARK INTRA:                   0.000
REMARK UNBOUND:                 0.000
REMARK SMILES C=C1[C@H]2C[C@@]3(C[C@@H]1O)[C@H](CC[C@@H]3C)C2(C)C
REMARK SMILES IDX 13 1 12 2 11 3 10 4 9 5 5 6 4 7 3 8 14 9 15 10 16 11 2 12
REMARK SMILES IDX 1 13 7 14 6 15 8 16
REMARK H PARENT 8 17
REMARK Flexibility Score: inf
ROOT
ATOM      1  C   UNL     1      13.735 -15.528  30.720  1.00  0.00     0.008 C 
ATOM      2  C   UNL     1      12.954 -15.581  29.393  1.00  0.00    -0.008 C 
ATOM      3  C   UNL     1      11.702 -14.705  29.484  1.00  0.00     0.004 C 
ATOM      4  C   UNL     1      12.129 -13.324  29.007  1.00  0.00     0.005 C 
ATOM      5  C   UNL     1      13.283 -13.541  28.007  1.00  0.00     0.002 C 
ATOM      6  C   UNL     1      13.728 -15.016  28.169  1.00  0.00    -0.020 C 
ATOM      7  C   UNL     1      13.288 -15.703  26.871  1.00  0.00     0.016 C 
ATOM      8  C   UNL     1      13.598 -14.634  25.842  1.00  0.00     0.023 C 
ATOM      9  C   UNL     1      12.988 -13.349  26.475  1.00  0.00    -0.025 C 
ATOM     10  C   UNL     1      13.636 -12.051  25.936  1.00  0.00     0.012 C 
ATOM     11  C   UNL     1      11.478 -13.284  26.113  1.00  0.00     0.012 C 
ATOM     12  C   UNL     1      15.120 -14.564  25.712  1.00  0.00    -0.045 C 
ATOM     13  C   UNL     1      15.676 -14.358  24.508  1.00  0.00     0.011 C 
ATOM     14  C   UNL     1      16.015 -14.658  26.947  1.00  0.00     0.140 C 
ATOM     15  C   UNL     1      15.279 -15.140  28.238  1.00  0.00     0.044 C 
ENDROOT
BRANCH  14  16
ATOM     16  O   UNL     1      16.607 -13.405  27.173  1.00  0.00    -0.389 OA
ATOM     17  H   UNL     1      17.052 -13.138  26.326  1.00  0.00     0.211 HD
ENDBRANCH  14  16
TORSDOF 1
ENDMDL
MODEL 4
REMARK VINA RESULT:    -5.405      9.694     11.413
REMARK INTER + INTRA:          -5.563
REMARK INTER:                  -5.563
REMARK INTRA:                   0.000
REMARK UNBOUND:                 0.000
REMARK SMILES C=C1[C@H]2C[C@@]3(C[C@@H]1O)[C@H](CC[C@@H]3C)C2(C)C
REMARK SMILES IDX 13 1 12 2 11 3 10 4 9 5 5 6 4 7 3 8 14 9 15 10 16 11 2 12
REMARK SMILES IDX 1 13 7 14 6 15 8 16
REMARK H PARENT 8 17
REMARK Flexibility Score: inf
ROOT
ATOM      1  C   UNL     1       7.774 -19.372  21.216  1.00  0.00     0.008 C 
ATOM      2  C   UNL     1       6.916 -18.121  20.943  1.00  0.00    -0.008 C 
ATOM      3  C   UNL     1       6.135 -18.294  19.639  1.00  0.00     0.004 C 
ATOM      4  C   UNL     1       4.812 -18.936  20.031  1.00  0.00     0.005 C 
ATOM      5  C   UNL     1       4.511 -18.478  21.473  1.00  0.00     0.002 C 
ATOM      6  C   UNL     1       5.821 -17.849  22.012  1.00  0.00    -0.020 C 
ATOM      7  C   UNL     1       5.517 -16.350  22.124  1.00  0.00     0.016 C 
ATOM      8  C   UNL     1       4.090 -16.367  22.633  1.00  0.00     0.023 C 
ATOM      9  C   UNL     1       3.394 -17.394  21.693  1.00  0.00    -0.025 C 
ATOM     10  C   UNL     1       2.124 -18.017  22.324  1.00  0.00     0.012 C 
ATOM     11  C   UNL     1       2.943 -16.662  20.399  1.00  0.00     0.012 C 
ATOM     12  C   UNL     1       4.137 -16.832  24.088  1.00  0.00    -0.045 C 
ATOM     13  C   UNL     1       3.309 -16.282  24.990  1.00  0.00     0.011 C 
ATOM     14  C   UNL     1       5.068 -17.965  24.516  1.00  0.00     0.140 C 
ATOM     15  C   UNL     1       6.144 -18.350  23.451  1.00  0.00     0.044 C 
ENDROOT
BRANCH  14  16
ATOM     16  O   UNL     1       4.292 -19.091  24.841  1.00  0.00    -0.389 OA
ATOM     17  H   UNL     1       4.903 -19.873  24.842  1.00  0.00     0.211 HD
ENDBRANCH  14  16
TORSDOF 1
ENDMDL
MODEL 5
REMARK VINA RESULT:    -5.386      2.038      3.614
REMARK INTER + INTRA:          -5.543
REMARK INTER:                  -5.543
REMARK INTRA:                   0.000
REMARK UNBOUND:                 0.000
REMARK SMILES C=C1[C@H]2C[C@@]3(C[C@@H]1O)[C@H](CC[C@@H]3C)C2(C)C
REMARK SMILES IDX 13 1 12 2 11 3 10 4 9 5 5 6 4 7 3 8 14 9 15 10 16 11 2 12
REMARK SMILES IDX 1 13 7 14 6 15 8 16
REMARK H PARENT 8 17
REMARK Flexibility Score: inf
ROOT
ATOM      1  C   UNL     1      17.025 -17.184  28.554  1.00  0.00     0.008 C 
ATOM      2  C   UNL     1      16.701 -15.935  27.712  1.00  0.00    -0.008 C 
ATOM      3  C   UNL     1      16.844 -16.254  26.223  1.00  0.00     0.004 C 
ATOM      4  C   UNL     1      15.474 -16.735  25.769  1.00  0.00     0.005 C 
ATOM      5  C   UNL     1      14.439 -16.039  26.678  1.00  0.00     0.002 C 
ATOM      6  C   UNL     1      15.239 -15.426  27.856  1.00  0.00    -0.020 C 
ATOM      7  C   UNL     1      15.156 -13.911  27.637  1.00  0.00     0.016 C 
ATOM      8  C   UNL     1      13.727 -13.750  27.159  1.00  0.00     0.023 C 
ATOM      9  C   UNL     1      13.591 -14.861  26.077  1.00  0.00    -0.025 C 
ATOM     10  C   UNL     1      12.122 -15.289  25.841  1.00  0.00     0.012 C 
ATOM     11  C   UNL     1      14.123 -14.309  24.726  1.00  0.00     0.012 C 
ATOM     12  C   UNL     1      12.821 -13.986  28.368  1.00  0.00    -0.045 C 
ATOM     13  C   UNL     1      11.711 -13.247  28.522  1.00  0.00     0.011 C 
ATOM     14  C   UNL     1      13.127 -15.101  29.367  1.00  0.00     0.140 C 
ATOM     15  C   UNL     1      14.554 -15.719  29.224  1.00  0.00     0.044 C 
ENDROOT
BRANCH  14  16
ATOM     16  O   UNL     1      12.155 -16.106  29.236  1.00  0.00    -0.389 OA
ATOM     17  H   UNL     1      11.299 -15.727  29.567  1.00  0.00     0.211 HD
ENDBRANCH  14  16
TORSDOF 1
ENDMDL
MODEL 6
REMARK VINA RESULT:    -5.366      9.444     11.574
REMARK INTER + INTRA:          -5.523
REMARK INTER:                  -5.523
REMARK INTRA:                   0.000
REMARK UNBOUND:                 0.000
REMARK SMILES C=C1[C@H]2C[C@@]3(C[C@@H]1O)[C@H](CC[C@@H]3C)C2(C)C
REMARK SMILES IDX 13 1 12 2 11 3 10 4 9 5 5 6 4 7 3 8 14 9 15 10 16 11 2 12
REMARK SMILES IDX 1 13 7 14 6 15 8 16
REMARK H PARENT 8 17
REMARK Flexibility Score: inf
ROOT
ATOM      1  C   UNL     1       3.379 -19.189  19.157  1.00  0.00     0.008 C 
ATOM      2  C   UNL     1       3.761 -17.780  19.650  1.00  0.00    -0.008 C 
ATOM      3  C   UNL     1       2.506 -17.009  20.063  1.00  0.00     0.004 C 
ATOM      4  C   UNL     1       2.302 -17.311  21.541  1.00  0.00     0.005 C 
ATOM      5  C   UNL     1       3.701 -17.587  22.130  1.00  0.00     0.002 C 
ATOM      6  C   UNL     1       4.655 -17.766  20.922  1.00  0.00    -0.020 C 
ATOM      7  C   UNL     1       5.559 -16.529  20.950  1.00  0.00     0.016 C 
ATOM      8  C   UNL     1       5.792 -16.356  22.437  1.00  0.00     0.023 C 
ATOM      9  C   UNL     1       4.360 -16.483  23.034  1.00  0.00    -0.025 C 
ATOM     10  C   UNL     1       4.368 -16.907  24.523  1.00  0.00     0.012 C 
ATOM     11  C   UNL     1       3.665 -15.094  22.965  1.00  0.00     0.012 C 
ATOM     12  C   UNL     1       6.721 -17.486  22.880  1.00  0.00    -0.045 C 
ATOM     13  C   UNL     1       7.668 -17.248  23.801  1.00  0.00     0.011 C 
ATOM     14  C   UNL     1       6.540 -18.904  22.338  1.00  0.00     0.140 C 
ATOM     15  C   UNL     1       5.583 -19.003  21.107  1.00  0.00     0.044 C 
ENDROOT
BRANCH  14  16
ATOM     16  O   UNL     1       6.074 -19.729  23.374  1.00  0.00    -0.389 OA
ATOM     17  H   UNL     1       5.569 -20.471  22.949  1.00  0.00     0.211 HD
ENDBRANCH  14  16
TORSDOF 1
ENDMDL
MODEL 7
REMARK VINA RESULT:    -5.347      8.388     10.095
REMARK INTER + INTRA:          -5.503
REMARK INTER:                  -5.503
REMARK INTRA:                   0.000
REMARK UNBOUND:                 0.000
REMARK SMILES C=C1[C@H]2C[C@@]3(C[C@@H]1O)[C@H](CC[C@@H]3C)C2(C)C
REMARK SMILES IDX 13 1 12 2 11 3 10 4 9 5 5 6 4 7 3 8 14 9 15 10 16 11 2 12
REMARK SMILES IDX 1 13 7 14 6 15 8 16
REMARK H PARENT 8 17
REMARK Flexibility Score: inf
ROOT
ATOM      1  C   UNL     1       6.108 -19.002  27.149  1.00  0.00     0.008 C 
ATOM      2  C   UNL     1       5.255 -19.337  25.910  1.00  0.00    -0.008 C 
ATOM      3  C   UNL     1       3.786 -19.002  26.177  1.00  0.00     0.004 C 
ATOM      4  C   UNL     1       3.604 -17.558  25.732  1.00  0.00     0.005 C 
ATOM      5  C   UNL     1       4.629 -17.312  24.605  1.00  0.00     0.002 C 
ATOM      6  C   UNL     1       5.612 -18.509  24.643  1.00  0.00    -0.020 C 
ATOM      7  C   UNL     1       5.314 -19.300  23.364  1.00  0.00     0.016 C 
ATOM      8  C   UNL     1       5.077 -18.185  22.366  1.00  0.00     0.023 C 
ATOM      9  C   UNL     1       4.107 -17.233  23.125  1.00  0.00    -0.025 C 
ATOM     10  C   UNL     1       4.152 -15.781  22.590  1.00  0.00     0.012 C 
ATOM     11  C   UNL     1       2.652 -17.742  22.928  1.00  0.00     0.012 C 
ATOM     12  C   UNL     1       6.435 -17.542  22.080  1.00  0.00    -0.045 C 
ATOM     13  C   UNL     1       6.728 -17.130  20.837  1.00  0.00     0.011 C 
ATOM     14  C   UNL     1       7.437 -17.300  23.208  1.00  0.00     0.140 C 
ATOM     15  C   UNL     1       7.093 -18.036  24.542  1.00  0.00     0.044 C 
ENDROOT
BRANCH  14  16
ATOM     16  O   UNL     1       7.537 -15.918  23.436  1.00  0.00    -0.389 OA
ATOM     17  H   UNL     1       7.289 -15.465  22.588  1.00  0.00     0.211 HD
ENDBRANCH  14  16
TORSDOF 1
ENDMDL
MODEL 8
REMARK VINA RESULT:    -5.342      1.552      4.525
REMARK INTER + INTRA:          -5.498
REMARK INTER:                  -5.498
REMARK INTRA:                   0.000
REMARK UNBOUND:                 0.000
REMARK SMILES C=C1[C@H]2C[C@@]3(C[C@@H]1O)[C@H](CC[C@@H]3C)C2(C)C
REMARK SMILES IDX 13 1 12 2 11 3 10 4 9 5 5 6 4 7 3 8 14 9 15 10 16 11 2 12
REMARK SMILES IDX 1 13 7 14 6 15 8 16
REMARK H PARENT 8 17
REMARK Flexibility Score: inf
ROOT
ATOM      1  C   UNL     1      14.951 -13.113  23.736  1.00  0.00     0.008 C 
ATOM      2  C   UNL     1      14.908 -12.542  25.167  1.00  0.00    -0.008 C 
ATOM      3  C   UNL     1      13.782 -11.513  25.289  1.00  0.00     0.004 C 
ATOM      4  C   UNL     1      12.551 -12.296  25.721  1.00  0.00     0.005 C 
ATOM      5  C   UNL     1      13.061 -13.509  26.527  1.00  0.00     0.002 C 
ATOM      6  C   UNL     1      14.586 -13.593  26.267  1.00  0.00    -0.020 C 
ATOM      7  C   UNL     1      15.231 -13.209  27.604  1.00  0.00     0.016 C 
ATOM      8  C   UNL     1      14.309 -13.893  28.593  1.00  0.00     0.023 C 
ATOM      9  C   UNL     1      12.893 -13.491  28.089  1.00  0.00    -0.025 C 
ATOM     10  C   UNL     1      11.792 -14.479  28.547  1.00  0.00     0.012 C 
ATOM     11  C   UNL     1      12.527 -12.102  28.682  1.00  0.00     0.012 C 
ATOM     12  C   UNL     1      14.572 -15.395  28.488  1.00  0.00    -0.045 C 
ATOM     13  C   UNL     1      14.553 -16.154  29.595  1.00  0.00     0.011 C 
ATOM     14  C   UNL     1      14.787 -16.057  27.127  1.00  0.00     0.140 C 
ATOM     15  C   UNL     1      15.033 -15.052  25.956  1.00  0.00     0.044 C 
ENDROOT
BRANCH  14  16
ATOM     16  O   UNL     1      13.679 -16.869  26.837  1.00  0.00    -0.389 OA
ATOM     17  H   UNL     1      13.378 -16.632  25.921  1.00  0.00     0.211 HD
ENDBRANCH  14  16
TORSDOF 1
ENDMDL
MODEL 9
REMARK VINA RESULT:    -5.298      9.062     10.998
REMARK INTER + INTRA:          -5.453
REMARK INTER:                  -5.453
REMARK INTRA:                   0.000
REMARK UNBOUND:                 0.000
REMARK SMILES C=C1[C@H]2C[C@@]3(C[C@@H]1O)[C@H](CC[C@@H]3C)C2(C)C
REMARK SMILES IDX 13 1 12 2 11 3 10 4 9 5 5 6 4 7 3 8 14 9 15 10 16 11 2 12
REMARK SMILES IDX 1 13 7 14 6 15 8 16
REMARK H PARENT 8 17
REMARK Flexibility Score: inf
ROOT
ATOM      1  C   UNL     1       1.649 -17.561  23.304  1.00  0.00     0.008 C 
ATOM      2  C   UNL     1       2.498 -17.170  22.080  1.00  0.00    -0.008 C 
ATOM      3  C   UNL     1       2.533 -15.647  21.928  1.00  0.00     0.004 C 
ATOM      4  C   UNL     1       3.739 -15.179  22.730  1.00  0.00     0.005 C 
ATOM      5  C   UNL     1       4.758 -16.337  22.709  1.00  0.00     0.002 C 
ATOM      6  C   UNL     1       3.995 -17.578  22.179  1.00  0.00    -0.020 C 
ATOM      7  C   UNL     1       4.591 -17.840  20.791  1.00  0.00     0.016 C 
ATOM      8  C   UNL     1       6.059 -17.551  21.031  1.00  0.00     0.023 C 
ATOM      9  C   UNL     1       6.029 -16.195  21.796  1.00  0.00    -0.025 C 
ATOM     10  C   UNL     1       7.305 -15.958  22.642  1.00  0.00     0.012 C 
ATOM     11  C   UNL     1       5.953 -15.039  20.761  1.00  0.00     0.012 C 
ATOM     12  C   UNL     1       6.610 -18.697  21.878  1.00  0.00    -0.045 C 
ATOM     13  C   UNL     1       7.850 -19.158  21.650  1.00  0.00     0.011 C 
ATOM     14  C   UNL     1       5.792 -19.280  23.030  1.00  0.00     0.140 C 
ATOM     15  C   UNL     1       4.293 -18.842  23.040  1.00  0.00     0.044 C 
ENDROOT
BRANCH  14  16
ATOM     16  O   UNL     1       6.403 -18.926  24.244  1.00  0.00    -0.389 OA
ATOM     17  H   UNL     1       7.301 -19.350  24.252  1.00  0.00     0.211 HD
ENDBRANCH  14  16
TORSDOF 1
ENDMDL
