MODEL 1
REMARK VINA RESULT:    -4.238      0.000      0.000
REMARK INTER + INTRA:          -4.785
REMARK INTER:                  -4.733
REMARK INTRA:                  -0.052
REMARK UNBOUND:                -0.052
REMARK SMILES COc1ccc(C(=O)[O-])cc1
REMARK SMILES IDX 6 1 5 2 10 3 4 4 11 5 3 6 7 7 8 8 9 9 2 10 1 11
REMARK H PARENT
REMARK Flexibility Score: inf
ROOT
ATOM      1  C   UNL     1      11.297  -1.441  20.373  1.00  0.00    -0.003 A 
ATOM      2  C   UNL     1      10.680  -2.500  21.063  1.00  0.00     0.014 A 
ATOM      3  C   UNL     1      12.497  -1.687  19.683  1.00  0.00     0.014 A 
ATOM      4  C   UNL     1      11.251  -3.775  21.062  1.00  0.00     0.047 A 
ATOM      5  C   UNL     1      13.066  -2.964  19.684  1.00  0.00     0.047 A 
ATOM      6  C   UNL     1      12.452  -4.017  20.370  1.00  0.00     0.118 A 
ENDROOT
BRANCH   1   7
ATOM      7  C   UNL     1      10.690  -0.092  20.375  1.00  0.00     0.071 C 
ATOM      8  O   UNL     1      11.120   0.803  21.151  1.00  0.00    -0.545 OA
ATOM      9  O   UNL     1       9.637   0.207  19.519  1.00  0.00    -0.545 OA
ENDBRANCH   1   7
BRANCH   6  10
ATOM     10  O   UNL     1      13.063  -5.279  20.341  1.00  0.00    -0.497 OA
ATOM     11  C   UNL     1      12.575  -6.392  19.599  1.00  0.00     0.278 C 
ENDBRANCH   6  10
TORSDOF 2
ENDMDL
MODEL 2
REMARK VINA RESULT:    -3.915      1.173      4.599
REMARK INTER + INTRA:          -4.425
REMARK INTER:                  -4.373
REMARK INTRA:                  -0.052
REMARK UNBOUND:                -0.052
REMARK SMILES COc1ccc(C(=O)[O-])cc1
REMARK SMILES IDX 6 1 5 2 10 3 4 4 11 5 3 6 7 7 8 8 9 9 2 10 1 11
REMARK H PARENT
REMARK Flexibility Score: inf
ROOT
ATOM      1  C   UNL     1      12.260  -2.986  20.338  1.00  0.00    -0.003 A 
ATOM      2  C   UNL     1      11.064  -2.880  21.068  1.00  0.00     0.014 A 
ATOM      3  C   UNL     1      12.606  -1.956  19.445  1.00  0.00     0.014 A 
ATOM      4  C   UNL     1      10.232  -1.768  20.909  1.00  0.00     0.047 A 
ATOM      5  C   UNL     1      11.772  -0.846  19.287  1.00  0.00     0.047 A 
ATOM      6  C   UNL     1      10.582  -0.739  20.014  1.00  0.00     0.118 A 
ENDROOT
BRANCH   1   7
ATOM      7  C   UNL     1      13.139  -4.163  20.508  1.00  0.00     0.071 C 
ATOM      8  O   UNL     1      13.920  -4.243  21.494  1.00  0.00    -0.545 OA
ATOM      9  O   UNL     1      13.114  -5.201  19.583  1.00  0.00    -0.545 OA
ENDBRANCH   1   7
BRANCH   6  10
ATOM     10  O   UNL     1       9.779   0.395  19.820  1.00  0.00    -0.497 OA
ATOM     11  C   UNL     1       8.549   0.396  19.105  1.00  0.00     0.278 C 
ENDBRANCH   6  10
TORSDOF 2
ENDMDL
MODEL 3
REMARK VINA RESULT:    -3.455      6.372      7.722
REMARK INTER + INTRA:          -3.911
REMARK INTER:                  -3.849
REMARK INTRA:                  -0.062
REMARK UNBOUND:                -0.052
REMARK SMILES COc1ccc(C(=O)[O-])cc1
REMARK SMILES IDX 6 1 5 2 10 3 4 4 11 5 3 6 7 7 8 8 9 9 2 10 1 11
REMARK H PARENT
REMARK Flexibility Score: inf
ROOT
ATOM      1  C   UNL     1       8.096  -8.239  19.288  1.00  0.00    -0.003 A 
ATOM      2  C   UNL     1       8.561  -7.129  20.016  1.00  0.00     0.014 A 
ATOM      3  C   UNL     1       7.600  -9.352  19.989  1.00  0.00     0.014 A 
ATOM      4  C   UNL     1       8.530  -7.134  21.413  1.00  0.00     0.047 A 
ATOM      5  C   UNL     1       7.570  -9.354  21.386  1.00  0.00     0.047 A 
ATOM      6  C   UNL     1       8.032  -8.250  22.110  1.00  0.00     0.118 A 
ENDROOT
BRANCH   1   7
ATOM      7  C   UNL     1       8.129  -8.231  17.810  1.00  0.00     0.071 C 
ATOM      8  O   UNL     1       8.596  -7.242  17.184  1.00  0.00    -0.545 OA
ATOM      9  O   UNL     1       7.647  -9.318  17.089  1.00  0.00    -0.545 OA
ENDBRANCH   1   7
BRANCH   6  10
ATOM     10  O   UNL     1       7.981  -8.302  23.511  1.00  0.00    -0.497 OA
ATOM     11  C   UNL     1       8.850  -9.088  24.319  1.00  0.00     0.278 C 
ENDBRANCH   6  10
TORSDOF 2
ENDMDL
MODEL 4
REMARK VINA RESULT:    -3.454      6.410      8.437
REMARK INTER + INTRA:          -3.909
REMARK INTER:                  -3.857
REMARK INTRA:                  -0.053
REMARK UNBOUND:                -0.052
REMARK SMILES COc1ccc(C(=O)[O-])cc1
REMARK SMILES IDX 6 1 5 2 10 3 4 4 11 5 3 6 7 7 8 8 9 9 2 10 1 11
REMARK H PARENT
REMARK Flexibility Score: inf
ROOT
ATOM      1  C   UNL     1       8.608   0.131  15.036  1.00  0.00    -0.003 A 
ATOM      2  C   UNL     1       7.989  -0.176  16.260  1.00  0.00     0.014 A 
ATOM      3  C   UNL     1       8.018   1.093  14.198  1.00  0.00     0.014 A 
ATOM      4  C   UNL     1       6.805   0.465  16.637  1.00  0.00     0.047 A 
ATOM      5  C   UNL     1       6.834   1.732  14.576  1.00  0.00     0.047 A 
ATOM      6  C   UNL     1       6.218   1.427  15.795  1.00  0.00     0.118 A 
ENDROOT
BRANCH   1   7
ATOM      7  C   UNL     1       9.861  -0.549  14.640  1.00  0.00     0.071 C 
ATOM      8  O   UNL     1       9.827  -1.643  14.017  1.00  0.00    -0.545 OA
ATOM      9  O   UNL     1      11.095   0.012  14.950  1.00  0.00    -0.545 OA
ENDBRANCH   1   7
BRANCH   6  10
ATOM     10  O   UNL     1       5.031   2.096  16.129  1.00  0.00    -0.497 OA
ATOM     11  C   UNL     1       4.952   3.481  16.448  1.00  0.00     0.278 C 
ENDBRANCH   6  10
TORSDOF 2
ENDMDL
MODEL 5
REMARK VINA RESULT:    -3.416      6.370      7.785
REMARK INTER + INTRA:          -3.867
REMARK INTER:                  -3.814
REMARK INTRA:                  -0.053
REMARK UNBOUND:                -0.052
REMARK SMILES COc1ccc(C(=O)[O-])cc1
REMARK SMILES IDX 6 1 5 2 10 3 4 4 11 5 3 6 7 7 8 8 9 9 2 10 1 11
REMARK H PARENT
REMARK Flexibility Score: inf
ROOT
ATOM      1  C   UNL     1       6.304   1.442  15.564  1.00  0.00    -0.003 A 
ATOM      2  C   UNL     1       7.045   1.697  14.397  1.00  0.00     0.014 A 
ATOM      3  C   UNL     1       6.786   0.491  16.481  1.00  0.00     0.014 A 
ATOM      4  C   UNL     1       8.241   1.016  14.152  1.00  0.00     0.047 A 
ATOM      5  C   UNL     1       7.982  -0.189  16.234  1.00  0.00     0.047 A 
ATOM      6  C   UNL     1       8.720   0.066  15.072  1.00  0.00     0.118 A 
ENDROOT
BRANCH   1   7
ATOM      7  C   UNL     1       5.039   2.164  15.821  1.00  0.00     0.071 C 
ATOM      8  O   UNL     1       5.016   3.163  16.589  1.00  0.00    -0.545 OA
ATOM      9  O   UNL     1       3.858   1.751  15.216  1.00  0.00    -0.545 OA
ENDBRANCH   1   7
BRANCH   6  10
ATOM     10  O   UNL     1       9.913  -0.643  14.870  1.00  0.00    -0.497 OA
ATOM     11  C   UNL     1      11.187  -0.036  14.688  1.00  0.00     0.278 C 
ENDBRANCH   6  10
TORSDOF 2
ENDMDL
MODEL 6
REMARK VINA RESULT:    -3.413      9.046     11.080
REMARK INTER + INTRA:          -3.863
REMARK INTER:                  -3.804
REMARK INTRA:                  -0.059
REMARK UNBOUND:                -0.052
REMARK SMILES COc1ccc(C(=O)[O-])cc1
REMARK SMILES IDX 6 1 5 2 10 3 4 4 11 5 3 6 7 7 8 8 9 9 2 10 1 11
REMARK H PARENT
REMARK Flexibility Score: inf
ROOT
ATOM      1  C   UNL     1      12.941   7.116  19.971  1.00  0.00    -0.003 A 
ATOM      2  C   UNL     1      13.181   8.502  19.965  1.00  0.00     0.014 A 
ATOM      3  C   UNL     1      12.904   6.427  18.746  1.00  0.00     0.014 A 
ATOM      4  C   UNL     1      13.378   9.182  18.759  1.00  0.00     0.047 A 
ATOM      5  C   UNL     1      13.101   7.109  17.543  1.00  0.00     0.047 A 
ATOM      6  C   UNL     1      13.340   8.488  17.536  1.00  0.00     0.118 A 
ENDROOT
BRANCH   1   7
ATOM      7  C   UNL     1      12.733   6.399  21.248  1.00  0.00     0.071 C 
ATOM      8  O   UNL     1      12.172   5.271  21.265  1.00  0.00    -0.545 OA
ATOM      9  O   UNL     1      13.155   6.960  22.448  1.00  0.00    -0.545 OA
ENDBRANCH   1   7
BRANCH   6  10
ATOM     10  O   UNL     1      13.532   9.126  16.302  1.00  0.00    -0.497 OA
ATOM     11  C   UNL     1      14.804   9.467  15.762  1.00  0.00     0.278 C 
ENDBRANCH   6  10
TORSDOF 2
ENDMDL
MODEL 7
REMARK VINA RESULT:    -3.320      4.976      5.491
REMARK INTER + INTRA:          -3.760
REMARK INTER:                  -3.706
REMARK INTRA:                  -0.054
REMARK UNBOUND:                -0.052
REMARK SMILES COc1ccc(C(=O)[O-])cc1
REMARK SMILES IDX 6 1 5 2 10 3 4 4 11 5 3 6 7 7 8 8 9 9 2 10 1 11
REMARK H PARENT
REMARK Flexibility Score: inf
ROOT
ATOM      1  C   UNL     1      12.119  -0.859  15.090  1.00  0.00    -0.003 A 
ATOM      2  C   UNL     1      12.622  -1.965  14.382  1.00  0.00     0.014 A 
ATOM      3  C   UNL     1      12.771  -0.451  16.267  1.00  0.00     0.014 A 
ATOM      4  C   UNL     1      13.751  -2.647  14.842  1.00  0.00     0.047 A 
ATOM      5  C   UNL     1      13.901  -1.135  16.725  1.00  0.00     0.047 A 
ATOM      6  C   UNL     1      14.401  -2.236  16.020  1.00  0.00     0.118 A 
ENDROOT
BRANCH   1   7
ATOM      7  C   UNL     1      10.924  -0.138  14.601  1.00  0.00     0.071 C 
ATOM      8  O   UNL     1      11.026   1.023  14.122  1.00  0.00    -0.545 OA
ATOM      9  O   UNL     1       9.669  -0.734  14.661  1.00  0.00    -0.545 OA
ENDBRANCH   1   7
BRANCH   6  10
ATOM     10  O   UNL     1      15.537  -2.888  16.522  1.00  0.00    -0.497 OA
ATOM     11  C   UNL     1      15.640  -4.296  16.706  1.00  0.00     0.278 C 
ENDBRANCH   6  10
TORSDOF 2
ENDMDL
MODEL 8
REMARK VINA RESULT:    -3.306      9.167     10.663
REMARK INTER + INTRA:          -3.744
REMARK INTER:                  -3.685
REMARK INTRA:                  -0.059
REMARK UNBOUND:                -0.052
REMARK SMILES COc1ccc(C(=O)[O-])cc1
REMARK SMILES IDX 6 1 5 2 10 3 4 4 11 5 3 6 7 7 8 8 9 9 2 10 1 11
REMARK H PARENT
REMARK Flexibility Score: inf
ROOT
ATOM      1  C   UNL     1      12.910   7.242  19.266  1.00  0.00    -0.003 A 
ATOM      2  C   UNL     1      13.330   8.451  19.848  1.00  0.00     0.014 A 
ATOM      3  C   UNL     1      12.620   6.149  20.101  1.00  0.00     0.014 A 
ATOM      4  C   UNL     1      13.456   8.563  21.236  1.00  0.00     0.047 A 
ATOM      5  C   UNL     1      12.747   6.264  21.488  1.00  0.00     0.047 A 
ATOM      6  C   UNL     1      13.164   7.467  22.068  1.00  0.00     0.118 A 
ENDROOT
BRANCH   1   7
ATOM      7  C   UNL     1      12.777   7.125  17.797  1.00  0.00     0.071 C 
ATOM      8  O   UNL     1      12.039   6.240  17.288  1.00  0.00    -0.545 OA
ATOM      9  O   UNL     1      13.465   7.993  16.957  1.00  0.00    -0.545 OA
ENDBRANCH   1   7
BRANCH   6  10
ATOM     10  O   UNL     1      13.276   7.532  23.465  1.00  0.00    -0.497 OA
ATOM     11  C   UNL     1      12.379   8.243  24.311  1.00  0.00     0.278 C 
ENDBRANCH   6  10
TORSDOF 2
ENDMDL
MODEL 9
REMARK VINA RESULT:    -3.301      6.304      7.637
REMARK INTER + INTRA:          -3.738
REMARK INTER:                  -3.687
REMARK INTRA:                  -0.052
REMARK UNBOUND:                -0.052
REMARK SMILES COc1ccc(C(=O)[O-])cc1
REMARK SMILES IDX 6 1 5 2 10 3 4 4 11 5 3 6 7 7 8 8 9 9 2 10 1 11
REMARK H PARENT
REMARK Flexibility Score: inf
ROOT
ATOM      1  C   UNL     1       6.544   1.277  15.432  1.00  0.00    -0.003 A 
ATOM      2  C   UNL     1       7.103   0.296  16.270  1.00  0.00     0.014 A 
ATOM      3  C   UNL     1       7.229   1.641  14.259  1.00  0.00     0.014 A 
ATOM      4  C   UNL     1       8.321  -0.308  15.941  1.00  0.00     0.047 A 
ATOM      5  C   UNL     1       8.446   1.036  13.933  1.00  0.00     0.047 A 
ATOM      6  C   UNL     1       9.003   0.059  14.766  1.00  0.00     0.118 A 
ENDROOT
BRANCH   1   7
ATOM      7  C   UNL     1       5.256   1.913  15.782  1.00  0.00     0.071 C 
ATOM      8  O   UNL     1       4.169   1.433  15.363  1.00  0.00    -0.545 OA
ATOM      9  O   UNL     1       5.227   3.051  16.580  1.00  0.00    -0.545 OA
ENDBRANCH   1   7
BRANCH   6  10
ATOM     10  O   UNL     1      10.227  -0.517  14.394  1.00  0.00    -0.497 OA
ATOM     11  C   UNL     1      11.460  -0.288  15.067  1.00  0.00     0.278 C 
ENDBRANCH   6  10
TORSDOF 2
ENDMDL
