MODEL 1
REMARK VINA RESULT:    -2.926      0.000      0.000
REMARK INTER + INTRA:          -7.274
REMARK INTER:                  -5.149
REMARK INTRA:                  -2.125
REMARK UNBOUND:                -2.125
REMARK SMILES CCCCCCCCCCCCCCC(=O)[O-]
REMARK SMILES IDX 9 1 10 2 11 3 12 4 13 5 14 6 15 7 16 8 17 9 8 10 7 11 6 12
REMARK SMILES IDX 5 13 4 14 3 15 2 16 1 17
REMARK H PARENT
REMARK Flexibility Score: inf
ROOT
ATOM      1  C   UNL     1      15.426  20.316  49.404  1.00  0.00     0.000 C 
ENDROOT
BRANCH   1   2
ATOM      2  C   UNL     1      16.774  20.092  50.113  1.00  0.00     0.000 C 
BRANCH   2   3
ATOM      3  C   UNL     1      17.390  18.696  49.907  1.00  0.00     0.000 C 
BRANCH   3   4
ATOM      4  C   UNL     1      17.731  17.989  51.227  1.00  0.00     0.000 C 
BRANCH   4   5
ATOM      5  C   UNL     1      16.477  17.811  52.094  1.00  0.00     0.006 C 
BRANCH   5   6
ATOM      6  C   UNL     1      16.772  17.998  53.588  1.00  0.00     0.053 C 
BRANCH   6   7
ATOM      7  C   UNL     1      17.384  19.336  53.870  1.00  0.00     0.041 C 
ATOM      8  O   UNL     1      16.713  20.388  53.704  1.00  0.00    -0.550 OA
ATOM      9  O   UNL     1      18.707  19.422  54.283  1.00  0.00    -0.550 OA
ENDBRANCH   6   7
ENDBRANCH   5   6
ENDBRANCH   4   5
ENDBRANCH   3   4
ENDBRANCH   2   3
ENDBRANCH   1   2
BRANCH   1  10
ATOM     10  C   UNL     1      14.771  19.005  48.936  1.00  0.00     0.000 C 
BRANCH  10  11
ATOM     11  C   UNL     1      14.083  19.145  47.569  1.00  0.00    -0.000 C 
BRANCH  11  12
ATOM     12  C   UNL     1      14.331  17.929  46.658  1.00  0.00    -0.000 C 
BRANCH  12  13
ATOM     13  C   UNL     1      15.823  17.585  46.522  1.00  0.00    -0.000 C 
BRANCH  13  14
ATOM     14  C   UNL     1      16.602  18.646  45.725  1.00  0.00    -0.000 C 
BRANCH  14  15
ATOM     15  C   UNL     1      17.966  18.972  46.354  1.00  0.00    -0.000 C 
BRANCH  15  16
ATOM     16  C   UNL     1      18.194  20.481  46.526  1.00  0.00    -0.003 C 
ATOM     17  C   UNL     1      16.924  21.267  46.214  1.00  0.00     0.004 C 
ENDBRANCH  15  16
ENDBRANCH  14  15
ENDBRANCH  13  14
ENDBRANCH  12  13
ENDBRANCH  11  12
ENDBRANCH  10  11
ENDBRANCH   1  10
TORSDOF 13
ENDMDL
MODEL 2
REMARK VINA RESULT:    -2.912     11.309     13.612
REMARK INTER + INTRA:          -7.250
REMARK INTER:                  -4.833
REMARK INTRA:                  -2.417
REMARK UNBOUND:                -2.125
REMARK SMILES CCCCCCCCCCCCCCC(=O)[O-]
REMARK SMILES IDX 9 1 10 2 11 3 12 4 13 5 14 6 15 7 16 8 17 9 8 10 7 11 6 12
REMARK SMILES IDX 5 13 4 14 3 15 2 16 1 17
REMARK H PARENT
REMARK Flexibility Score: inf
ROOT
ATOM      1  C   UNL     1      21.506  26.771  57.503  1.00  0.00     0.000 C 
ENDROOT
BRANCH   1   2
ATOM      2  C   UNL     1      21.620  26.831  55.969  1.00  0.00     0.000 C 
BRANCH   2   3
ATOM      3  C   UNL     1      20.362  27.346  55.245  1.00  0.00     0.000 C 
BRANCH   3   4
ATOM      4  C   UNL     1      20.546  28.750  54.650  1.00  0.00     0.000 C 
BRANCH   4   5
ATOM      5  C   UNL     1      19.358  29.657  55.003  1.00  0.00     0.006 C 
BRANCH   5   6
ATOM      6  C   UNL     1      18.144  28.858  55.496  1.00  0.00     0.053 C 
BRANCH   6   7
ATOM      7  C   UNL     1      16.902  29.208  54.734  1.00  0.00     0.041 C 
ATOM      8  O   UNL     1      15.879  29.615  55.342  1.00  0.00    -0.550 OA
ATOM      9  O   UNL     1      16.867  29.050  53.354  1.00  0.00    -0.550 OA
ENDBRANCH   6   7
ENDBRANCH   5   6
ENDBRANCH   4   5
ENDBRANCH   3   4
ENDBRANCH   2   3
ENDBRANCH   1   2
BRANCH   1  10
ATOM     10  C   UNL     1      20.049  26.807  57.996  1.00  0.00     0.000 C 
BRANCH  10  11
ATOM     11  C   UNL     1      19.734  28.071  58.810  1.00  0.00    -0.000 C 
BRANCH  11  12
ATOM     12  C   UNL     1      20.987  28.672  59.472  1.00  0.00    -0.000 C 
BRANCH  12  13
ATOM     13  C   UNL     1      21.088  30.194  59.280  1.00  0.00    -0.000 C 
BRANCH  13  14
ATOM     14  C   UNL     1      21.500  30.581  57.849  1.00  0.00    -0.000 C 
BRANCH  14  15
ATOM     15  C   UNL     1      22.906  30.079  57.483  1.00  0.00    -0.000 C 
BRANCH  15  16
ATOM     16  C   UNL     1      23.346  30.520  56.079  1.00  0.00    -0.003 C 
ATOM     17  C   UNL     1      24.207  29.452  55.412  1.00  0.00     0.004 C 
ENDBRANCH  15  16
ENDBRANCH  14  15
ENDBRANCH  13  14
ENDBRANCH  12  13
ENDBRANCH  11  12
ENDBRANCH  10  11
ENDBRANCH   1  10
TORSDOF 13
ENDMDL
MODEL 3
REMARK VINA RESULT:    -2.883      9.985     12.672
REMARK INTER + INTRA:          -7.199
REMARK INTER:                  -5.472
REMARK INTRA:                  -1.727
REMARK UNBOUND:                -2.125
REMARK SMILES CCCCCCCCCCCCCCC(=O)[O-]
REMARK SMILES IDX 9 1 10 2 11 3 12 4 13 5 14 6 15 7 16 8 17 9 8 10 7 11 6 12
REMARK SMILES IDX 5 13 4 14 3 15 2 16 1 17
REMARK H PARENT
REMARK Flexibility Score: inf
ROOT
ATOM      1  C   UNL     1      24.411  19.347  40.821  1.00  0.00     0.000 C 
ENDROOT
BRANCH   1   2
ATOM      2  C   UNL     1      25.664  20.027  41.405  1.00  0.00     0.000 C 
BRANCH   2   3
ATOM      3  C   UNL     1      25.409  21.392  42.070  1.00  0.00     0.000 C 
BRANCH   3   4
ATOM      4  C   UNL     1      26.668  22.269  42.141  1.00  0.00     0.000 C 
BRANCH   4   5
ATOM      5  C   UNL     1      27.916  21.418  42.417  1.00  0.00     0.006 C 
BRANCH   5   6
ATOM      6  C   UNL     1      28.965  21.547  41.305  1.00  0.00     0.053 C 
BRANCH   6   7
ATOM      7  C   UNL     1      29.840  20.334  41.223  1.00  0.00     0.041 C 
ATOM      8  O   UNL     1      30.611  20.043  42.175  1.00  0.00    -0.550 OA
ATOM      9  O   UNL     1      29.829  19.546  40.080  1.00  0.00    -0.550 OA
ENDBRANCH   6   7
ENDBRANCH   5   6
ENDBRANCH   4   5
ENDBRANCH   3   4
ENDBRANCH   2   3
ENDBRANCH   1   2
BRANCH   1  10
ATOM     10  C   UNL     1      23.109  20.085  41.176  1.00  0.00     0.000 C 
BRANCH  10  11
ATOM     11  C   UNL     1      22.122  19.200  41.951  1.00  0.00    -0.000 C 
BRANCH  11  12
ATOM     12  C   UNL     1      22.693  17.800  42.245  1.00  0.00    -0.000 C 
BRANCH  12  13
ATOM     13  C   UNL     1      22.968  17.573  43.739  1.00  0.00    -0.000 C 
BRANCH  13  14
ATOM     14  C   UNL     1      22.533  18.767  44.607  1.00  0.00    -0.000 C 
BRANCH  14  15
ATOM     15  C   UNL     1      23.716  19.437  45.324  1.00  0.00    -0.000 C 
BRANCH  15  16
ATOM     16  C   UNL     1      24.942  18.518  45.432  1.00  0.00    -0.003 C 
ATOM     17  C   UNL     1      26.215  19.250  45.018  1.00  0.00     0.004 C 
ENDBRANCH  15  16
ENDBRANCH  14  15
ENDBRANCH  13  14
ENDBRANCH  12  13
ENDBRANCH  11  12
ENDBRANCH  10  11
ENDBRANCH   1  10
TORSDOF 13
ENDMDL
MODEL 4
REMARK VINA RESULT:    -2.856      2.665      5.984
REMARK INTER + INTRA:          -7.152
REMARK INTER:                  -5.442
REMARK INTRA:                  -1.710
REMARK UNBOUND:                -2.125
REMARK SMILES CCCCCCCCCCCCCCC(=O)[O-]
REMARK SMILES IDX 9 1 10 2 11 3 12 4 13 5 14 6 15 7 16 8 17 9 8 10 7 11 6 12
REMARK SMILES IDX 5 13 4 14 3 15 2 16 1 17
REMARK H PARENT
REMARK Flexibility Score: inf
ROOT
ATOM      1  C   UNL     1      14.530  19.880  49.043  1.00  0.00     0.000 C 
ENDROOT
BRANCH   1   2
ATOM      2  C   UNL     1      13.989  19.047  47.867  1.00  0.00     0.000 C 
BRANCH   2   3
ATOM      3  C   UNL     1      14.864  19.070  46.600  1.00  0.00     0.000 C 
BRANCH   3   4
ATOM      4  C   UNL     1      15.938  17.972  46.594  1.00  0.00     0.000 C 
BRANCH   4   5
ATOM      5  C   UNL     1      17.314  18.551  46.234  1.00  0.00     0.006 C 
BRANCH   5   6
ATOM      6  C   UNL     1      17.502  19.977  46.768  1.00  0.00     0.053 C 
BRANCH   6   7
ATOM      7  C   UNL     1      18.934  20.262  47.101  1.00  0.00     0.041 C 
ATOM      8  O   UNL     1      19.231  20.852  48.172  1.00  0.00    -0.550 OA
ATOM      9  O   UNL     1      19.938  19.906  46.209  1.00  0.00    -0.550 OA
ENDBRANCH   6   7
ENDBRANCH   5   6
ENDBRANCH   4   5
ENDBRANCH   3   4
ENDBRANCH   2   3
ENDBRANCH   1   2
BRANCH   1  10
ATOM     10  C   UNL     1      15.245  19.024  50.103  1.00  0.00     0.000 C 
BRANCH  10  11
ATOM     11  C   UNL     1      16.696  19.469  50.339  1.00  0.00    -0.000 C 
BRANCH  11  12
ATOM     12  C   UNL     1      17.695  18.302  50.226  1.00  0.00    -0.000 C 
BRANCH  12  13
ATOM     13  C   UNL     1      18.317  17.920  51.578  1.00  0.00    -0.000 C 
BRANCH  13  14
ATOM     14  C   UNL     1      17.257  17.569  52.636  1.00  0.00    -0.000 C 
BRANCH  14  15
ATOM     15  C   UNL     1      17.286  18.523  53.841  1.00  0.00    -0.000 C 
BRANCH  15  16
ATOM     16  C   UNL     1      15.896  18.741  54.458  1.00  0.00    -0.003 C 
ATOM     17  C   UNL     1      15.168  19.896  53.778  1.00  0.00     0.004 C 
ENDBRANCH  15  16
ENDBRANCH  14  15
ENDBRANCH  13  14
ENDBRANCH  12  13
ENDBRANCH  11  12
ENDBRANCH  10  11
ENDBRANCH   1  10
TORSDOF 13
ENDMDL
MODEL 5
REMARK VINA RESULT:    -2.837      1.526      2.379
REMARK INTER + INTRA:          -7.119
REMARK INTER:                  -5.160
REMARK INTRA:                  -1.959
REMARK UNBOUND:                -2.125
REMARK SMILES CCCCCCCCCCCCCCC(=O)[O-]
REMARK SMILES IDX 9 1 10 2 11 3 12 4 13 5 14 6 15 7 16 8 17 9 8 10 7 11 6 12
REMARK SMILES IDX 5 13 4 14 3 15 2 16 1 17
REMARK H PARENT
REMARK Flexibility Score: inf
ROOT
ATOM      1  C   UNL     1      17.788  19.780  50.254  1.00  0.00     0.000 C 
ENDROOT
BRANCH   1   2
ATOM      2  C   UNL     1      17.644  18.260  50.460  1.00  0.00     0.000 C 
BRANCH   2   3
ATOM      3  C   UNL     1      17.941  17.769  51.889  1.00  0.00     0.000 C 
BRANCH   3   4
ATOM      4  C   UNL     1      16.671  17.438  52.686  1.00  0.00     0.000 C 
BRANCH   4   5
ATOM      5  C   UNL     1      16.673  18.152  54.045  1.00  0.00     0.006 C 
BRANCH   5   6
ATOM      6  C   UNL     1      16.362  19.649  53.916  1.00  0.00     0.053 C 
BRANCH   6   7
ATOM      7  C   UNL     1      14.912  19.938  54.160  1.00  0.00     0.041 C 
ATOM      8  O   UNL     1      14.222  20.509  53.276  1.00  0.00    -0.550 OA
ATOM      9  O   UNL     1      14.334  19.608  55.379  1.00  0.00    -0.550 OA
ENDBRANCH   6   7
ENDBRANCH   5   6
ENDBRANCH   4   5
ENDBRANCH   3   4
ENDBRANCH   2   3
ENDBRANCH   1   2
BRANCH   1  10
ATOM     10  C   UNL     1      16.439  20.519  50.296  1.00  0.00     0.000 C 
BRANCH  10  11
ATOM     11  C   UNL     1      15.247  19.585  50.041  1.00  0.00    -0.000 C 
BRANCH  11  12
ATOM     12  C   UNL     1      14.548  19.876  48.701  1.00  0.00    -0.000 C 
BRANCH  12  13
ATOM     13  C   UNL     1      14.361  18.615  47.843  1.00  0.00    -0.000 C 
BRANCH  13  14
ATOM     14  C   UNL     1      15.231  18.632  46.574  1.00  0.00    -0.000 C 
BRANCH  14  15
ATOM     15  C   UNL     1      16.645  18.082  46.821  1.00  0.00    -0.000 C 
BRANCH  15  16
ATOM     16  C   UNL     1      17.735  19.148  46.636  1.00  0.00    -0.003 C 
ATOM     17  C   UNL     1      17.291  20.223  45.648  1.00  0.00     0.004 C 
ENDBRANCH  15  16
ENDBRANCH  14  15
ENDBRANCH  13  14
ENDBRANCH  12  13
ENDBRANCH  11  12
ENDBRANCH  10  11
ENDBRANCH   1  10
TORSDOF 13
ENDMDL
MODEL 6
REMARK VINA RESULT:    -2.833     11.175     13.275
REMARK INTER + INTRA:          -7.110
REMARK INTER:                  -5.344
REMARK INTRA:                  -1.767
REMARK UNBOUND:                -2.125
REMARK SMILES CCCCCCCCCCCCCCC(=O)[O-]
REMARK SMILES IDX 9 1 10 2 11 3 12 4 13 5 14 6 15 7 16 8 17 9 8 10 7 11 6 12
REMARK SMILES IDX 5 13 4 14 3 15 2 16 1 17
REMARK H PARENT
REMARK Flexibility Score: inf
ROOT
ATOM      1  C   UNL     1      19.535  27.286  58.564  1.00  0.00     0.000 C 
ENDROOT
BRANCH   1   2
ATOM      2  C   UNL     1      20.031  28.626  59.140  1.00  0.00     0.000 C 
BRANCH   2   3
ATOM      3  C   UNL     1      21.472  29.005  58.750  1.00  0.00     0.000 C 
BRANCH   3   4
ATOM      4  C   UNL     1      21.543  30.259  57.865  1.00  0.00     0.000 C 
BRANCH   4   5
ATOM      5  C   UNL     1      22.815  30.253  57.005  1.00  0.00     0.006 C 
BRANCH   5   6
ATOM      6  C   UNL     1      23.377  28.839  56.808  1.00  0.00     0.053 C 
BRANCH   6   7
ATOM      7  C   UNL     1      24.809  28.746  57.235  1.00  0.00     0.041 C 
ATOM      8  O   UNL     1      25.268  27.663  57.685  1.00  0.00    -0.550 OA
ATOM      9  O   UNL     1      25.628  29.866  57.168  1.00  0.00    -0.550 OA
ENDBRANCH   6   7
ENDBRANCH   5   6
ENDBRANCH   4   5
ENDBRANCH   3   4
ENDBRANCH   2   3
ENDBRANCH   1   2
BRANCH   1  10
ATOM     10  C   UNL     1      18.571  27.466  57.379  1.00  0.00     0.000 C 
BRANCH  10  11
ATOM     11  C   UNL     1      19.167  26.967  56.054  1.00  0.00    -0.000 C 
BRANCH  11  12
ATOM     12  C   UNL     1      19.800  28.103  55.229  1.00  0.00    -0.000 C 
BRANCH  12  13
ATOM     13  C   UNL     1      19.040  29.431  55.367  1.00  0.00    -0.000 C 
BRANCH  13  14
ATOM     14  C   UNL     1      18.416  29.894  54.038  1.00  0.00    -0.000 C 
BRANCH  14  15
ATOM     15  C   UNL     1      16.897  30.108  54.142  1.00  0.00    -0.000 C 
BRANCH  15  16
ATOM     16  C   UNL     1      16.261  29.298  55.282  1.00  0.00    -0.003 C 
ATOM     17  C   UNL     1      15.325  28.223  54.737  1.00  0.00     0.004 C 
ENDBRANCH  15  16
ENDBRANCH  14  15
ENDBRANCH  13  14
ENDBRANCH  12  13
ENDBRANCH  11  12
ENDBRANCH  10  11
ENDBRANCH   1  10
TORSDOF 13
ENDMDL
MODEL 7
REMARK VINA RESULT:    -2.813     10.313     13.379
REMARK INTER + INTRA:          -7.076
REMARK INTER:                  -5.416
REMARK INTRA:                  -1.660
REMARK UNBOUND:                -2.125
REMARK SMILES CCCCCCCCCCCCCCC(=O)[O-]
REMARK SMILES IDX 9 1 10 2 11 3 12 4 13 5 14 6 15 7 16 8 17 9 8 10 7 11 6 12
REMARK SMILES IDX 5 13 4 14 3 15 2 16 1 17
REMARK H PARENT
REMARK Flexibility Score: inf
ROOT
ATOM      1  C   UNL     1      21.666  28.929  56.074  1.00  0.00     0.000 C 
ENDROOT
BRANCH   1   2
ATOM      2  C   UNL     1      20.544  29.913  55.694  1.00  0.00     0.000 C 
BRANCH   2   3
ATOM      3  C   UNL     1      19.260  29.254  55.155  1.00  0.00     0.000 C 
BRANCH   3   4
ATOM      4  C   UNL     1      18.396  30.215  54.326  1.00  0.00     0.000 C 
BRANCH   4   5
ATOM      5  C   UNL     1      17.116  29.522  53.839  1.00  0.00     0.006 C 
BRANCH   5   6
ATOM      6  C   UNL     1      16.078  29.365  54.958  1.00  0.00     0.053 C 
BRANCH   6   7
ATOM      7  C   UNL     1      15.255  28.125  54.783  1.00  0.00     0.041 C 
ATOM      8  O   UNL     1      14.154  28.176  54.175  1.00  0.00    -0.550 OA
ATOM      9  O   UNL     1      15.689  26.921  55.322  1.00  0.00    -0.550 OA
ENDBRANCH   6   7
ENDBRANCH   5   6
ENDBRANCH   4   5
ENDBRANCH   3   4
ENDBRANCH   2   3
ENDBRANCH   1   2
BRANCH   1  10
ATOM     10  C   UNL     1      22.366  29.301  57.392  1.00  0.00     0.000 C 
BRANCH  10  11
ATOM     11  C   UNL     1      21.584  30.349  58.199  1.00  0.00    -0.000 C 
BRANCH  11  12
ATOM     12  C   UNL     1      20.873  29.739  59.421  1.00  0.00    -0.000 C 
BRANCH  12  13
ATOM     13  C   UNL     1      21.067  28.219  59.523  1.00  0.00    -0.000 C 
BRANCH  13  14
ATOM     14  C   UNL     1      19.732  27.459  59.616  1.00  0.00    -0.000 C 
BRANCH  14  15
ATOM     15  C   UNL     1      19.130  27.153  58.236  1.00  0.00    -0.000 C 
BRANCH  15  16
ATOM     16  C   UNL     1      19.903  26.061  57.481  1.00  0.00    -0.003 C 
ATOM     17  C   UNL     1      19.219  25.716  56.161  1.00  0.00     0.004 C 
ENDBRANCH  15  16
ENDBRANCH  14  15
ENDBRANCH  13  14
ENDBRANCH  12  13
ENDBRANCH  11  12
ENDBRANCH  10  11
ENDBRANCH   1  10
TORSDOF 13
ENDMDL
MODEL 8
REMARK VINA RESULT:    -2.789     17.171     18.628
REMARK INTER + INTRA:          -7.033
REMARK INTER:                  -5.348
REMARK INTRA:                  -1.685
REMARK UNBOUND:                -2.125
REMARK SMILES CCCCCCCCCCCCCCC(=O)[O-]
REMARK SMILES IDX 9 1 10 2 11 3 12 4 13 5 14 6 15 7 16 8 17 9 8 10 7 11 6 12
REMARK SMILES IDX 5 13 4 14 3 15 2 16 1 17
REMARK H PARENT
REMARK Flexibility Score: inf
ROOT
ATOM      1  C   UNL     1      25.524  33.676  52.827  1.00  0.00     0.000 C 
ENDROOT
BRANCH   1   2
ATOM      2  C   UNL     1      26.542  34.247  53.832  1.00  0.00     0.000 C 
BRANCH   2   3
ATOM      3  C   UNL     1      27.843  33.436  53.969  1.00  0.00     0.000 C 
BRANCH   3   4
ATOM      4  C   UNL     1      29.106  34.300  53.831  1.00  0.00     0.000 C 
BRANCH   4   5
ATOM      5  C   UNL     1      30.342  33.553  54.352  1.00  0.00     0.006 C 
BRANCH   5   6
ATOM      6  C   UNL     1      29.977  32.227  55.033  1.00  0.00     0.053 C 
BRANCH   6   7
ATOM      7  C   UNL     1      30.327  32.236  56.489  1.00  0.00     0.041 C 
ATOM      8  O   UNL     1      29.542  31.731  57.333  1.00  0.00    -0.550 OA
ATOM      9  O   UNL     1      31.507  32.832  56.916  1.00  0.00    -0.550 OA
ENDBRANCH   6   7
ENDBRANCH   5   6
ENDBRANCH   4   5
ENDBRANCH   3   4
ENDBRANCH   2   3
ENDBRANCH   1   2
BRANCH   1  10
ATOM     10  C   UNL     1      26.191  32.905  51.674  1.00  0.00     0.000 C 
BRANCH  10  11
ATOM     11  C   UNL     1      25.546  33.207  50.313  1.00  0.00    -0.000 C 
BRANCH  11  12
ATOM     12  C   UNL     1      26.590  33.390  49.195  1.00  0.00    -0.000 C 
BRANCH  12  13
ATOM     13  C   UNL     1      27.715  32.346  49.258  1.00  0.00    -0.000 C 
BRANCH  13  14
ATOM     14  C   UNL     1      29.114  32.982  49.181  1.00  0.00    -0.000 C 
BRANCH  14  15
ATOM     15  C   UNL     1      29.888  32.868  50.505  1.00  0.00    -0.000 C 
BRANCH  15  16
ATOM     16  C   UNL     1      29.562  31.577  51.272  1.00  0.00    -0.003 C 
ATOM     17  C   UNL     1      30.658  30.533  51.081  1.00  0.00     0.004 C 
ENDBRANCH  15  16
ENDBRANCH  14  15
ENDBRANCH  13  14
ENDBRANCH  12  13
ENDBRANCH  11  12
ENDBRANCH  10  11
ENDBRANCH   1  10
TORSDOF 13
ENDMDL
MODEL 9
REMARK VINA RESULT:    -2.722     16.826     18.546
REMARK INTER + INTRA:          -6.916
REMARK INTER:                  -4.881
REMARK INTRA:                  -2.035
REMARK UNBOUND:                -2.125
REMARK SMILES CCCCCCCCCCCCCCC(=O)[O-]
REMARK SMILES IDX 9 1 10 2 11 3 12 4 13 5 14 6 15 7 16 8 17 9 8 10 7 11 6 12
REMARK SMILES IDX 5 13 4 14 3 15 2 16 1 17
REMARK H PARENT
REMARK Flexibility Score: inf
ROOT
ATOM      1  C   UNL     1      27.552  33.239  52.396  1.00  0.00     0.000 C 
ENDROOT
BRANCH   1   2
ATOM      2  C   UNL     1      27.664  33.945  53.760  1.00  0.00     0.000 C 
BRANCH   2   3
ATOM      3  C   UNL     1      29.098  34.318  54.180  1.00  0.00     0.000 C 
BRANCH   3   4
ATOM      4  C   UNL     1      30.167  33.741  53.242  1.00  0.00     0.000 C 
BRANCH   4   5
ATOM      5  C   UNL     1      31.034  32.703  53.969  1.00  0.00     0.006 C 
BRANCH   5   6
ATOM      6  C   UNL     1      30.935  32.829  55.495  1.00  0.00     0.053 C 
BRANCH   6   7
ATOM      7  C   UNL     1      31.716  31.758  56.193  1.00  0.00     0.041 C 
ATOM      8  O   UNL     1      31.550  30.549  55.885  1.00  0.00    -0.550 OA
ATOM      9  O   UNL     1      32.603  32.095  57.207  1.00  0.00    -0.550 OA
ENDBRANCH   6   7
ENDBRANCH   5   6
ENDBRANCH   4   5
ENDBRANCH   3   4
ENDBRANCH   2   3
ENDBRANCH   1   2
BRANCH   1  10
ATOM     10  C   UNL     1      26.110  32.825  52.054  1.00  0.00     0.000 C 
BRANCH  10  11
ATOM     11  C   UNL     1      25.242  32.626  53.305  1.00  0.00    -0.000 C 
BRANCH  11  12
ATOM     12  C   UNL     1      24.812  31.160  53.496  1.00  0.00    -0.000 C 
BRANCH  12  13
ATOM     13  C   UNL     1      24.706  30.761  54.976  1.00  0.00    -0.000 C 
BRANCH  13  14
ATOM     14  C   UNL     1      25.646  29.600  55.343  1.00  0.00    -0.000 C 
BRANCH  14  15
ATOM     15  C   UNL     1      26.741  30.018  56.338  1.00  0.00    -0.000 C 
BRANCH  15  16
ATOM     16  C   UNL     1      27.865  30.829  55.676  1.00  0.00    -0.003 C 
ATOM     17  C   UNL     1      28.332  30.168  54.383  1.00  0.00     0.004 C 
ENDBRANCH  15  16
ENDBRANCH  14  15
ENDBRANCH  13  14
ENDBRANCH  12  13
ENDBRANCH  11  12
ENDBRANCH  10  11
ENDBRANCH   1  10
TORSDOF 13
ENDMDL
