MODEL 1
REMARK VINA RESULT:    -7.553      0.000      0.000
REMARK INTER + INTRA:         -12.600
REMARK INTER:                 -11.748
REMARK INTRA:                  -0.852
REMARK UNBOUND:                -0.852
REMARK SMILES COc1cc(CNC(=O)CCCCC=CC(C)C)ccc1O
REMARK SMILES IDX 11 1 12 2 13 3 14 4 15 5 16 6 17 7 18 8 10 9 8 10 9 11 7 12
REMARK SMILES IDX 6 14 5 15 4 16 19 17 3 18 20 19 21 20 2 21 1 22 22 23
REMARK H PARENT 7 13 22 24
REMARK Flexibility Score: inf
ROOT
ATOM      1  C   UNL     1     -13.830 -30.104 -11.702  1.00  0.00     0.010 C 
ENDROOT
BRANCH   1   2
ATOM      2  C   UNL     1     -12.443 -29.800 -11.110  1.00  0.00     0.005 C 
BRANCH   2   3
ATOM      3  C   UNL     1     -11.887 -30.971 -10.284  1.00  0.00     0.027 C 
BRANCH   3   4
ATOM      4  C   UNL     1     -10.639 -30.612  -9.512  1.00  0.00    -0.031 C 
ATOM      5  C   UNL     1      -9.994 -31.423  -8.650  1.00  0.00    -0.028 C 
BRANCH   5   6
ATOM      6  C   UNL     1     -10.407 -32.833  -8.291  1.00  0.00     0.005 C 
ATOM      7  C   UNL     1      -9.643 -33.832  -9.166  1.00  0.00     0.012 C 
ATOM      8  C   UNL     1     -10.122 -33.090  -6.808  1.00  0.00     0.012 C 
ENDBRANCH   5   6
ENDBRANCH   3   4
ENDBRANCH   2   3
ENDBRANCH   1   2
BRANCH   1   9
ATOM      9  C   UNL     1     -14.855 -30.466 -10.621  1.00  0.00     0.100 C 
BRANCH   9  10
ATOM     10  C   UNL     1     -15.435 -31.834 -10.846  1.00  0.00     0.220 C 
ATOM     11  O   UNL     1     -16.451 -32.190 -10.190  1.00  0.00    -0.275 OA
ATOM     12  N   UNL     1     -14.805 -32.743 -11.760  1.00  0.00    -0.352 N 
ATOM     13  H   UNL     1     -13.981 -32.416 -12.315  1.00  0.00     0.163 HD
BRANCH  12  14
ATOM     14  C   UNL     1     -15.223 -34.137 -11.894  1.00  0.00     0.151 C 
BRANCH  14  15
ATOM     15  C   UNL     1     -14.934 -34.645 -13.281  1.00  0.00    -0.025 A 
ATOM     16  C   UNL     1     -14.667 -33.737 -14.319  1.00  0.00     0.056 A 
ATOM     17  C   UNL     1     -14.935 -36.021 -13.550  1.00  0.00     0.009 A 
ATOM     18  C   UNL     1     -14.400 -34.201 -15.622  1.00  0.00     0.160 A 
ATOM     19  C   UNL     1     -14.668 -36.485 -14.839  1.00  0.00     0.050 A 
ATOM     20  C   UNL     1     -14.399 -35.580 -15.874  1.00  0.00     0.157 A 
BRANCH  18  21
ATOM     21  O   UNL     1     -14.134 -33.326 -16.686  1.00  0.00    -0.493 OA
ATOM     22  C   UNL     1     -14.489 -31.948 -16.706  1.00  0.00     0.278 C 
ENDBRANCH  18  21
BRANCH  20  23
ATOM     23  O   UNL     1     -14.132 -36.046 -17.161  1.00  0.00    -0.504 OA
ATOM     24  H   UNL     1     -14.588 -35.646 -17.973  1.00  0.00     0.293 HD
ENDBRANCH  20  23
ENDBRANCH  14  15
ENDBRANCH  12  14
ENDBRANCH   9  10
ENDBRANCH   1   9
TORSDOF 10
ENDMDL
MODEL 2
REMARK VINA RESULT:    -7.497      2.058      3.910
REMARK INTER + INTRA:         -12.512
REMARK INTER:                 -11.720
REMARK INTRA:                  -0.793
REMARK UNBOUND:                -0.852
REMARK SMILES COc1cc(CNC(=O)CCCCC=CC(C)C)ccc1O
REMARK SMILES IDX 11 1 12 2 13 3 14 4 15 5 16 6 17 7 18 8 10 9 8 10 9 11 7 12
REMARK SMILES IDX 6 14 5 15 4 16 19 17 3 18 20 19 21 20 2 21 1 22 22 23
REMARK H PARENT 7 13 22 24
REMARK Flexibility Score: inf
ROOT
ATOM      1  C   UNL     1     -11.108 -33.006  -8.800  1.00  0.00     0.010 C 
ENDROOT
BRANCH   1   2
ATOM      2  C   UNL     1      -9.670 -33.548  -8.733  1.00  0.00     0.005 C 
BRANCH   2   3
ATOM      3  C   UNL     1      -8.879 -32.970  -7.548  1.00  0.00     0.027 C 
BRANCH   3   4
ATOM      4  C   UNL     1      -9.730 -32.749  -6.319  1.00  0.00    -0.031 C 
ATOM      5  C   UNL     1      -9.732 -31.636  -5.561  1.00  0.00    -0.028 C 
BRANCH   5   6
ATOM      6  C   UNL     1      -8.875 -30.411  -5.794  1.00  0.00     0.005 C 
ATOM      7  C   UNL     1      -9.402 -29.637  -7.007  1.00  0.00     0.012 C 
ATOM      8  C   UNL     1      -8.892 -29.526  -4.544  1.00  0.00     0.012 C 
ENDBRANCH   5   6
ENDBRANCH   3   4
ENDBRANCH   2   3
ENDBRANCH   1   2
BRANCH   1   9
ATOM      9  C   UNL     1     -11.182 -31.643  -9.500  1.00  0.00     0.100 C 
BRANCH   9  10
ATOM     10  C   UNL     1     -12.536 -31.408 -10.108  1.00  0.00     0.220 C 
ATOM     11  O   UNL     1     -12.743 -30.353 -10.767  1.00  0.00    -0.275 OA
ATOM     12  N   UNL     1     -13.596 -32.350  -9.894  1.00  0.00    -0.352 N 
ATOM     13  H   UNL     1     -13.394 -33.232  -9.370  1.00  0.00     0.163 HD
BRANCH  12  14
ATOM     14  C   UNL     1     -14.971 -32.094 -10.317  1.00  0.00     0.151 C 
BRANCH  14  15
ATOM     15  C   UNL     1     -15.100 -32.231 -11.810  1.00  0.00    -0.025 A 
ATOM     16  C   UNL     1     -14.783 -33.449 -12.433  1.00  0.00     0.056 A 
ATOM     17  C   UNL     1     -15.530 -31.148 -12.589  1.00  0.00     0.009 A 
ATOM     18  C   UNL     1     -14.895 -33.587 -13.830  1.00  0.00     0.160 A 
ATOM     19  C   UNL     1     -15.645 -31.281 -13.975  1.00  0.00     0.050 A 
ATOM     20  C   UNL     1     -15.331 -32.496 -14.596  1.00  0.00     0.157 A 
BRANCH  18  21
ATOM     21  O   UNL     1     -14.583 -34.785 -14.490  1.00  0.00    -0.493 OA
ATOM     22  C   UNL     1     -14.699 -36.079 -13.909  1.00  0.00     0.278 C 
ENDBRANCH  18  21
BRANCH  20  23
ATOM     23  O   UNL     1     -15.449 -32.628 -15.979  1.00  0.00    -0.504 OA
ATOM     24  H   UNL     1     -15.456 -31.819 -16.589  1.00  0.00     0.293 HD
ENDBRANCH  20  23
ENDBRANCH  14  15
ENDBRANCH  12  14
ENDBRANCH   9  10
ENDBRANCH   1   9
TORSDOF 10
ENDMDL
MODEL 3
REMARK VINA RESULT:    -7.339      2.489      4.665
REMARK INTER + INTRA:         -12.267
REMARK INTER:                 -11.303
REMARK INTRA:                  -0.964
REMARK UNBOUND:                -0.852
REMARK SMILES COc1cc(CNC(=O)CCCCC=CC(C)C)ccc1O
REMARK SMILES IDX 11 1 12 2 13 3 14 4 15 5 16 6 17 7 18 8 10 9 8 10 9 11 7 12
REMARK SMILES IDX 6 14 5 15 4 16 19 17 3 18 20 19 21 20 2 21 1 22 22 23
REMARK H PARENT 7 13 22 24
REMARK Flexibility Score: inf
ROOT
ATOM      1  C   UNL     1     -14.552 -29.751 -12.177  1.00  0.00     0.010 C 
ENDROOT
BRANCH   1   2
ATOM      2  C   UNL     1     -15.216 -28.403 -11.848  1.00  0.00     0.005 C 
BRANCH   2   3
ATOM      3  C   UNL     1     -15.997 -27.826 -13.040  1.00  0.00     0.027 C 
BRANCH   3   4
ATOM      4  C   UNL     1     -15.472 -26.486 -13.500  1.00  0.00    -0.031 C 
ATOM      5  C   UNL     1     -14.353 -26.293 -14.225  1.00  0.00    -0.028 C 
BRANCH   5   6
ATOM      6  C   UNL     1     -13.413 -27.379 -14.700  1.00  0.00     0.005 C 
ATOM      7  C   UNL     1     -14.044 -28.125 -15.880  1.00  0.00     0.012 C 
ATOM      8  C   UNL     1     -12.075 -26.758 -15.110  1.00  0.00     0.012 C 
ENDBRANCH   5   6
ENDBRANCH   3   4
ENDBRANCH   2   3
ENDBRANCH   1   2
BRANCH   1   9
ATOM      9  C   UNL     1     -13.865 -30.372 -10.954  1.00  0.00     0.100 C 
BRANCH   9  10
ATOM     10  C   UNL     1     -14.206 -31.829 -10.812  1.00  0.00     0.220 C 
ATOM     11  O   UNL     1     -13.698 -32.493  -9.868  1.00  0.00    -0.275 OA
ATOM     12  N   UNL     1     -15.058 -32.468 -11.773  1.00  0.00    -0.352 N 
ATOM     13  H   UNL     1     -15.491 -31.892 -12.530  1.00  0.00     0.163 HD
BRANCH  12  14
ATOM     14  C   UNL     1     -15.287 -33.911 -11.782  1.00  0.00     0.151 C 
BRANCH  14  15
ATOM     15  C   UNL     1     -14.975 -34.488 -13.137  1.00  0.00    -0.025 A 
ATOM     16  C   UNL     1     -14.757 -33.634 -14.229  1.00  0.00     0.056 A 
ATOM     17  C   UNL     1     -14.908 -35.876 -13.321  1.00  0.00     0.009 A 
ATOM     18  C   UNL     1     -14.470 -34.162 -15.503  1.00  0.00     0.160 A 
ATOM     19  C   UNL     1     -14.621 -36.404 -14.581  1.00  0.00     0.050 A 
ATOM     20  C   UNL     1     -14.400 -35.553 -15.671  1.00  0.00     0.157 A 
BRANCH  18  21
ATOM     21  O   UNL     1     -14.251 -33.342 -16.620  1.00  0.00    -0.493 OA
ATOM     22  C   UNL     1     -14.462 -31.935 -16.642  1.00  0.00     0.278 C 
ENDBRANCH  18  21
BRANCH  20  23
ATOM     23  O   UNL     1     -14.112 -36.082 -16.928  1.00  0.00    -0.504 OA
ATOM     24  H   UNL     1     -14.604 -36.892 -17.286  1.00  0.00     0.293 HD
ENDBRANCH  20  23
ENDBRANCH  14  15
ENDBRANCH  12  14
ENDBRANCH   9  10
ENDBRANCH   1   9
TORSDOF 10
ENDMDL
MODEL 4
REMARK VINA RESULT:    -7.262      1.473      2.639
REMARK INTER + INTRA:         -12.147
REMARK INTER:                 -11.271
REMARK INTRA:                  -0.876
REMARK UNBOUND:                -0.852
REMARK SMILES COc1cc(CNC(=O)CCCCC=CC(C)C)ccc1O
REMARK SMILES IDX 11 1 12 2 13 3 14 4 15 5 16 6 17 7 18 8 10 9 8 10 9 11 7 12
REMARK SMILES IDX 6 14 5 15 4 16 19 17 3 18 20 19 21 20 2 21 1 22 22 23
REMARK H PARENT 7 13 22 24
REMARK Flexibility Score: inf
ROOT
ATOM      1  C   UNL     1     -12.710 -30.711 -10.644  1.00  0.00     0.010 C 
ENDROOT
BRANCH   1   2
ATOM      2  C   UNL     1     -11.590 -31.766 -10.631  1.00  0.00     0.005 C 
BRANCH   2   3
ATOM      3  C   UNL     1     -11.555 -32.570  -9.322  1.00  0.00     0.027 C 
BRANCH   3   4
ATOM      4  C   UNL     1     -10.196 -33.159  -9.024  1.00  0.00    -0.031 C 
ATOM      5  C   UNL     1      -9.476 -32.937  -7.907  1.00  0.00    -0.028 C 
BRANCH   5   6
ATOM      6  C   UNL     1      -9.892 -32.050  -6.754  1.00  0.00     0.005 C 
ATOM      7  C   UNL     1      -9.883 -32.858  -5.453  1.00  0.00     0.012 C 
ATOM      8  C   UNL     1      -8.937 -30.857  -6.653  1.00  0.00     0.012 C 
ENDBRANCH   5   6
ENDBRANCH   3   4
ENDBRANCH   2   3
ENDBRANCH   1   2
BRANCH   1   9
ATOM      9  C   UNL     1     -14.015 -31.244 -10.039  1.00  0.00     0.100 C 
BRANCH   9  10
ATOM     10  C   UNL     1     -15.075 -31.424 -11.089  1.00  0.00     0.220 C 
ATOM     11  O   UNL     1     -16.205 -31.873 -10.756  1.00  0.00    -0.275 OA
ATOM     12  N   UNL     1     -14.785 -31.140 -12.465  1.00  0.00    -0.352 N 
ATOM     13  H   UNL     1     -13.850 -30.741 -12.715  1.00  0.00     0.163 HD
BRANCH  12  14
ATOM     14  C   UNL     1     -15.716 -31.454 -13.546  1.00  0.00     0.151 C 
BRANCH  14  15
ATOM     15  C   UNL     1     -15.237 -32.648 -14.326  1.00  0.00    -0.025 A 
ATOM     16  C   UNL     1     -15.311 -33.931 -13.761  1.00  0.00     0.056 A 
ATOM     17  C   UNL     1     -14.709 -32.491 -15.615  1.00  0.00     0.009 A 
ATOM     18  C   UNL     1     -14.861 -35.056 -14.481  1.00  0.00     0.160 A 
ATOM     19  C   UNL     1     -14.264 -33.603 -16.333  1.00  0.00     0.050 A 
ATOM     20  C   UNL     1     -14.340 -34.884 -15.771  1.00  0.00     0.157 A 
BRANCH  18  21
ATOM     21  O   UNL     1     -14.914 -36.353 -13.948  1.00  0.00    -0.493 OA
ATOM     22  C   UNL     1     -16.113 -37.085 -13.726  1.00  0.00     0.278 C 
ENDBRANCH  18  21
BRANCH  20  23
ATOM     23  O   UNL     1     -13.897 -35.993 -16.490  1.00  0.00    -0.504 OA
ATOM     24  H   UNL     1     -14.545 -36.597 -16.982  1.00  0.00     0.293 HD
ENDBRANCH  20  23
ENDBRANCH  14  15
ENDBRANCH  12  14
ENDBRANCH   9  10
ENDBRANCH   1   9
TORSDOF 10
ENDMDL
MODEL 5
REMARK VINA RESULT:    -7.257      3.130      8.034
REMARK INTER + INTRA:         -12.139
REMARK INTER:                 -12.067
REMARK INTRA:                  -0.073
REMARK UNBOUND:                -0.852
REMARK SMILES COc1cc(CNC(=O)CCCCC=CC(C)C)ccc1O
REMARK SMILES IDX 11 1 12 2 13 3 14 4 15 5 16 6 17 7 18 8 10 9 8 10 9 11 7 12
REMARK SMILES IDX 6 14 5 15 4 16 19 17 3 18 20 19 21 20 2 21 1 22 22 23
REMARK H PARENT 7 13 22 24
REMARK Flexibility Score: inf
ROOT
ATOM      1  C   UNL     1     -16.021 -31.787 -10.812  1.00  0.00     0.010 C 
ENDROOT
BRANCH   1   2
ATOM      2  C   UNL     1     -15.821 -31.617 -12.329  1.00  0.00     0.005 C 
BRANCH   2   3
ATOM      3  C   UNL     1     -15.019 -32.773 -12.948  1.00  0.00     0.027 C 
BRANCH   3   4
ATOM      4  C   UNL     1     -15.250 -32.926 -14.433  1.00  0.00    -0.031 C 
ATOM      5  C   UNL     1     -14.910 -34.001 -15.171  1.00  0.00    -0.028 C 
BRANCH   5   6
ATOM      6  C   UNL     1     -14.224 -35.244 -14.648  1.00  0.00     0.005 C 
ATOM      7  C   UNL     1     -15.205 -36.055 -13.797  1.00  0.00     0.012 C 
ATOM      8  C   UNL     1     -13.713 -36.082 -15.825  1.00  0.00     0.012 C 
ENDBRANCH   5   6
ENDBRANCH   3   4
ENDBRANCH   2   3
ENDBRANCH   1   2
BRANCH   1   9
ATOM      9  C   UNL     1     -14.902 -31.123 -10.002  1.00  0.00     0.100 C 
BRANCH   9  10
ATOM     10  C   UNL     1     -13.606 -31.872 -10.136  1.00  0.00     0.220 C 
ATOM     11  O   UNL     1     -13.571 -33.101  -9.858  1.00  0.00    -0.275 OA
ATOM     12  N   UNL     1     -12.409 -31.182 -10.524  1.00  0.00    -0.352 N 
ATOM     13  H   UNL     1     -12.467 -30.169 -10.778  1.00  0.00     0.163 HD
BRANCH  12  14
ATOM     14  C   UNL     1     -11.095 -31.819 -10.508  1.00  0.00     0.151 C 
BRANCH  14  15
ATOM     15  C   UNL     1     -10.530 -31.831  -9.113  1.00  0.00    -0.025 A 
ATOM     16  C   UNL     1      -9.978 -30.660  -8.569  1.00  0.00     0.056 A 
ATOM     17  C   UNL     1     -10.544 -33.007  -8.349  1.00  0.00     0.009 A 
ATOM     18  C   UNL     1      -9.442 -30.661  -7.266  1.00  0.00     0.160 A 
ATOM     19  C   UNL     1     -10.017 -33.011  -7.056  1.00  0.00     0.050 A 
ATOM     20  C   UNL     1      -9.468 -31.843  -6.513  1.00  0.00     0.157 A 
BRANCH  18  21
ATOM     21  O   UNL     1      -8.878 -29.513  -6.690  1.00  0.00    -0.493 OA
ATOM     22  C   UNL     1      -9.373 -28.870  -5.521  1.00  0.00     0.278 C 
ENDBRANCH  18  21
BRANCH  20  23
ATOM     23  O   UNL     1      -8.944 -31.849  -5.221  1.00  0.00    -0.504 OA
ATOM     24  H   UNL     1      -8.761 -32.716  -4.728  1.00  0.00     0.293 HD
ENDBRANCH  20  23
ENDBRANCH  14  15
ENDBRANCH  12  14
ENDBRANCH   9  10
ENDBRANCH   1   9
TORSDOF 10
ENDMDL
MODEL 6
REMARK VINA RESULT:    -7.217      2.033      2.851
REMARK INTER + INTRA:         -12.077
REMARK INTER:                 -11.109
REMARK INTRA:                  -0.967
REMARK UNBOUND:                -0.852
REMARK SMILES COc1cc(CNC(=O)CCCCC=CC(C)C)ccc1O
REMARK SMILES IDX 11 1 12 2 13 3 14 4 15 5 16 6 17 7 18 8 10 9 8 10 9 11 7 12
REMARK SMILES IDX 6 14 5 15 4 16 19 17 3 18 20 19 21 20 2 21 1 22 22 23
REMARK H PARENT 7 13 22 24
REMARK Flexibility Score: inf
ROOT
ATOM      1  C   UNL     1     -12.200 -28.799 -11.764  1.00  0.00     0.010 C 
ENDROOT
BRANCH   1   2
ATOM      2  C   UNL     1     -12.824 -29.940 -10.941  1.00  0.00     0.005 C 
BRANCH   2   3
ATOM      3  C   UNL     1     -11.820 -31.065 -10.641  1.00  0.00     0.027 C 
BRANCH   3   4
ATOM      4  C   UNL     1     -10.688 -30.626  -9.743  1.00  0.00    -0.031 C 
ATOM      5  C   UNL     1     -10.091 -31.391  -8.808  1.00  0.00    -0.028 C 
BRANCH   5   6
ATOM      6  C   UNL     1     -10.453 -32.823  -8.481  1.00  0.00     0.005 C 
ATOM      7  C   UNL     1      -9.578 -33.775  -9.301  1.00  0.00     0.012 C 
ATOM      8  C   UNL     1     -10.258 -33.072  -6.982  1.00  0.00     0.012 C 
ENDBRANCH   5   6
ENDBRANCH   3   4
ENDBRANCH   2   3
ENDBRANCH   1   2
BRANCH   1   9
ATOM      9  C   UNL     1     -13.253 -27.807 -12.270  1.00  0.00     0.100 C 
BRANCH   9  10
ATOM     10  C   UNL     1     -14.579 -28.478 -12.494  1.00  0.00     0.220 C 
ATOM     11  O   UNL     1     -15.556 -28.178 -11.755  1.00  0.00    -0.275 OA
ATOM     12  N   UNL     1     -14.716 -29.488 -13.503  1.00  0.00    -0.352 N 
ATOM     13  H   UNL     1     -13.901 -29.700 -14.123  1.00  0.00     0.163 HD
BRANCH  12  14
ATOM     14  C   UNL     1     -15.928 -30.290 -13.653  1.00  0.00     0.151 C 
BRANCH  14  15
ATOM     15  C   UNL     1     -15.644 -31.738 -13.358  1.00  0.00    -0.025 A 
ATOM     16  C   UNL     1     -15.459 -32.645 -14.414  1.00  0.00     0.056 A 
ATOM     17  C   UNL     1     -15.570 -32.194 -12.035  1.00  0.00     0.009 A 
ATOM     18  C   UNL     1     -15.197 -34.004 -14.150  1.00  0.00     0.160 A 
ATOM     19  C   UNL     1     -15.308 -33.540 -11.769  1.00  0.00     0.050 A 
ATOM     20  C   UNL     1     -15.120 -34.444 -12.821  1.00  0.00     0.157 A 
BRANCH  18  21
ATOM     21  O   UNL     1     -15.010 -34.942 -15.177  1.00  0.00    -0.493 OA
ATOM     22  C   UNL     1     -14.383 -34.659 -16.423  1.00  0.00     0.278 C 
ENDBRANCH  18  21
BRANCH  20  23
ATOM     23  O   UNL     1     -14.857 -35.787 -12.554  1.00  0.00    -0.504 OA
ATOM     24  H   UNL     1     -15.531 -36.512 -12.773  1.00  0.00     0.293 HD
ENDBRANCH  20  23
ENDBRANCH  14  15
ENDBRANCH  12  14
ENDBRANCH   9  10
ENDBRANCH   1   9
TORSDOF 10
ENDMDL
MODEL 7
REMARK VINA RESULT:    -7.192      3.333      5.466
REMARK INTER + INTRA:         -12.038
REMARK INTER:                 -11.205
REMARK INTRA:                  -0.833
REMARK UNBOUND:                -0.852
REMARK SMILES COc1cc(CNC(=O)CCCCC=CC(C)C)ccc1O
REMARK SMILES IDX 11 1 12 2 13 3 14 4 15 5 16 6 17 7 18 8 10 9 8 10 9 11 7 12
REMARK SMILES IDX 6 14 5 15 4 16 19 17 3 18 20 19 21 20 2 21 1 22 22 23
REMARK H PARENT 7 13 22 24
REMARK Flexibility Score: inf
ROOT
ATOM      1  C   UNL     1     -13.353 -32.355  -9.990  1.00  0.00     0.010 C 
ENDROOT
BRANCH   1   2
ATOM      2  C   UNL     1     -12.722 -30.962 -10.155  1.00  0.00     0.005 C 
BRANCH   2   3
ATOM      3  C   UNL     1     -11.234 -31.032 -10.535  1.00  0.00     0.027 C 
BRANCH   3   4
ATOM      4  C   UNL     1     -10.318 -30.549  -9.434  1.00  0.00    -0.031 C 
ATOM      5  C   UNL     1      -9.921 -31.278  -8.372  1.00  0.00    -0.028 C 
BRANCH   5   6
ATOM      6  C   UNL     1     -10.329 -32.707  -8.084  1.00  0.00     0.005 C 
ATOM      7  C   UNL     1      -9.563 -33.657  -9.010  1.00  0.00     0.012 C 
ATOM      8  C   UNL     1     -10.040 -33.037  -6.617  1.00  0.00     0.012 C 
ENDBRANCH   5   6
ENDBRANCH   3   4
ENDBRANCH   2   3
ENDBRANCH   1   2
BRANCH   1   9
ATOM      9  C   UNL     1     -14.859 -32.347 -10.278  1.00  0.00     0.100 C 
BRANCH   9  10
ATOM     10  C   UNL     1     -15.139 -32.120 -11.737  1.00  0.00     0.220 C 
ATOM     11  O   UNL     1     -15.056 -33.088 -12.540  1.00  0.00    -0.275 OA
ATOM     12  N   UNL     1     -15.446 -30.803 -12.216  1.00  0.00    -0.352 N 
ATOM     13  H   UNL     1     -15.539 -30.021 -11.528  1.00  0.00     0.163 HD
BRANCH  12  14
ATOM     14  C   UNL     1     -15.562 -30.492 -13.639  1.00  0.00     0.151 C 
BRANCH  14  15
ATOM     15  C   UNL     1     -15.016 -29.120 -13.927  1.00  0.00    -0.025 A 
ATOM     16  C   UNL     1     -15.024 -28.137 -12.925  1.00  0.00     0.056 A 
ATOM     17  C   UNL     1     -14.503 -28.809 -15.194  1.00  0.00     0.009 A 
ATOM     18  C   UNL     1     -14.520 -26.847 -13.184  1.00  0.00     0.160 A 
ATOM     19  C   UNL     1     -13.999 -27.533 -15.455  1.00  0.00     0.050 A 
ATOM     20  C   UNL     1     -14.005 -26.553 -14.455  1.00  0.00     0.157 A 
BRANCH  18  21
ATOM     21  O   UNL     1     -14.516 -25.837 -12.211  1.00  0.00    -0.493 OA
ATOM     22  C   UNL     1     -15.113 -25.954 -10.924  1.00  0.00     0.278 C 
ENDBRANCH  18  21
BRANCH  20  23
ATOM     23  O   UNL     1     -13.501 -25.280 -14.716  1.00  0.00    -0.504 OA
ATOM     24  H   UNL     1     -13.787 -24.475 -14.171  1.00  0.00     0.293 HD
ENDBRANCH  20  23
ENDBRANCH  14  15
ENDBRANCH  12  14
ENDBRANCH   9  10
ENDBRANCH   1   9
TORSDOF 10
ENDMDL
MODEL 8
REMARK VINA RESULT:    -7.016      3.593      7.241
REMARK INTER + INTRA:         -11.765
REMARK INTER:                 -11.082
REMARK INTRA:                  -0.683
REMARK UNBOUND:                -0.852
REMARK SMILES COc1cc(CNC(=O)CCCCC=CC(C)C)ccc1O
REMARK SMILES IDX 11 1 12 2 13 3 14 4 15 5 16 6 17 7 18 8 10 9 8 10 9 11 7 12
REMARK SMILES IDX 6 14 5 15 4 16 19 17 3 18 20 19 21 20 2 21 1 22 22 23
REMARK H PARENT 7 13 22 24
REMARK Flexibility Score: inf
ROOT
ATOM      1  C   UNL     1     -15.441 -29.842 -13.089  1.00  0.00     0.010 C 
ENDROOT
BRANCH   1   2
ATOM      2  C   UNL     1     -15.254 -28.955 -11.845  1.00  0.00     0.005 C 
BRANCH   2   3
ATOM      3  C   UNL     1     -14.706 -27.562 -12.193  1.00  0.00     0.027 C 
BRANCH   3   4
ATOM      4  C   UNL     1     -13.230 -27.568 -12.513  1.00  0.00    -0.031 C 
ATOM      5  C   UNL     1     -12.687 -27.245 -13.703  1.00  0.00    -0.028 C 
BRANCH   5   6
ATOM      6  C   UNL     1     -13.456 -26.828 -14.937  1.00  0.00     0.005 C 
ATOM      7  C   UNL     1     -14.093 -28.059 -15.588  1.00  0.00     0.012 C 
ATOM      8  C   UNL     1     -14.533 -25.808 -14.551  1.00  0.00     0.012 C 
ENDBRANCH   5   6
ENDBRANCH   3   4
ENDBRANCH   2   3
ENDBRANCH   1   2
BRANCH   1   9
ATOM      9  C   UNL     1     -16.192 -31.139 -12.768  1.00  0.00     0.100 C 
BRANCH   9  10
ATOM     10  C   UNL     1     -15.649 -31.798 -11.530  1.00  0.00     0.220 C 
ATOM     11  O   UNL     1     -16.399 -31.941 -10.527  1.00  0.00    -0.275 OA
ATOM     12  N   UNL     1     -14.276 -32.210 -11.474  1.00  0.00    -0.352 N 
ATOM     13  H   UNL     1     -13.680 -32.108 -12.328  1.00  0.00     0.163 HD
BRANCH  12  14
ATOM     14  C   UNL     1     -13.652 -32.699 -10.247  1.00  0.00     0.151 C 
BRANCH  14  15
ATOM     15  C   UNL     1     -12.405 -31.914  -9.939  1.00  0.00    -0.025 A 
ATOM     16  C   UNL     1     -11.421 -32.461  -9.101  1.00  0.00     0.056 A 
ATOM     17  C   UNL     1     -12.220 -30.633 -10.477  1.00  0.00     0.009 A 
ATOM     18  C   UNL     1     -10.253 -31.734  -8.801  1.00  0.00     0.160 A 
ATOM     19  C   UNL     1     -11.061 -29.909 -10.185  1.00  0.00     0.050 A 
ATOM     20  C   UNL     1     -10.078 -30.456  -9.351  1.00  0.00     0.157 A 
BRANCH  18  21
ATOM     21  O   UNL     1      -9.249 -32.244  -7.965  1.00  0.00    -0.493 OA
ATOM     22  C   UNL     1      -9.277 -32.188  -6.543  1.00  0.00     0.278 C 
ENDBRANCH  18  21
BRANCH  20  23
ATOM     23  O   UNL     1      -8.922 -29.733  -9.063  1.00  0.00    -0.504 OA
ATOM     24  H   UNL     1      -8.807 -28.774  -9.370  1.00  0.00     0.293 HD
ENDBRANCH  20  23
ENDBRANCH  14  15
ENDBRANCH  12  14
ENDBRANCH   9  10
ENDBRANCH   1   9
TORSDOF 10
ENDMDL
MODEL 9
REMARK VINA RESULT:    -6.968      3.105      7.095
REMARK INTER + INTRA:         -11.691
REMARK INTER:                 -10.861
REMARK INTRA:                  -0.829
REMARK UNBOUND:                -0.852
REMARK SMILES COc1cc(CNC(=O)CCCCC=CC(C)C)ccc1O
REMARK SMILES IDX 11 1 12 2 13 3 14 4 15 5 16 6 17 7 18 8 10 9 8 10 9 11 7 12
REMARK SMILES IDX 6 14 5 15 4 16 19 17 3 18 20 19 21 20 2 21 1 22 22 23
REMARK H PARENT 7 13 22 24
REMARK Flexibility Score: inf
ROOT
ATOM      1  C   UNL     1     -15.792 -31.178 -13.552  1.00  0.00     0.010 C 
ENDROOT
BRANCH   1   2
ATOM      2  C   UNL     1     -15.632 -32.131 -12.355  1.00  0.00     0.005 C 
BRANCH   2   3
ATOM      3  C   UNL     1     -14.902 -33.430 -12.731  1.00  0.00     0.027 C 
BRANCH   3   4
ATOM      4  C   UNL     1     -14.526 -33.496 -14.193  1.00  0.00    -0.031 C 
ATOM      5  C   UNL     1     -14.323 -34.628 -14.896  1.00  0.00    -0.028 C 
BRANCH   5   6
ATOM      6  C   UNL     1     -14.424 -36.034 -14.348  1.00  0.00     0.005 C 
ATOM      7  C   UNL     1     -15.867 -36.532 -14.472  1.00  0.00     0.012 C 
ATOM      8  C   UNL     1     -13.471 -36.954 -15.117  1.00  0.00     0.012 C 
ENDBRANCH   5   6
ENDBRANCH   3   4
ENDBRANCH   2   3
ENDBRANCH   1   2
BRANCH   1   9
ATOM      9  C   UNL     1     -16.034 -29.729 -13.112  1.00  0.00     0.100 C 
BRANCH   9  10
ATOM     10  C   UNL     1     -14.979 -29.263 -12.147  1.00  0.00     0.220 C 
ATOM     11  O   UNL     1     -15.240 -28.317 -11.356  1.00  0.00    -0.275 OA
ATOM     12  N   UNL     1     -13.672 -29.854 -12.166  1.00  0.00    -0.352 N 
ATOM     13  H   UNL     1     -13.487 -30.657 -12.811  1.00  0.00     0.163 HD
BRANCH  12  14
ATOM     14  C   UNL     1     -12.562 -29.332 -11.373  1.00  0.00     0.151 C 
BRANCH  14  15
ATOM     15  C   UNL     1     -11.981 -30.412 -10.500  1.00  0.00    -0.025 A 
ATOM     16  C   UNL     1     -10.772 -30.190  -9.822  1.00  0.00     0.056 A 
ATOM     17  C   UNL     1     -12.634 -31.644 -10.363  1.00  0.00     0.009 A 
ATOM     18  C   UNL     1     -10.217 -31.196  -9.006  1.00  0.00     0.160 A 
ATOM     19  C   UNL     1     -12.089 -32.643  -9.553  1.00  0.00     0.050 A 
ATOM     20  C   UNL     1     -10.884 -32.422  -8.874  1.00  0.00     0.157 A 
BRANCH  18  21
ATOM     21  O   UNL     1      -9.009 -31.014  -8.315  1.00  0.00    -0.493 OA
ATOM     22  C   UNL     1      -8.875 -30.283  -7.102  1.00  0.00     0.278 C 
ENDBRANCH  18  21
BRANCH  20  23
ATOM     23  O   UNL     1     -10.342 -33.418  -8.065  1.00  0.00    -0.504 OA
ATOM     24  H   UNL     1     -10.630 -33.532  -7.100  1.00  0.00     0.293 HD
ENDBRANCH  20  23
ENDBRANCH  14  15
ENDBRANCH  12  14
ENDBRANCH   9  10
ENDBRANCH   1   9
TORSDOF 10
ENDMDL
