MODEL 1
REMARK VINA RESULT:    -6.168      0.000      0.000
REMARK INTER + INTRA:          -7.930
REMARK INTER:                  -7.610
REMARK INTRA:                  -0.320
REMARK UNBOUND:                -0.320
REMARK SMILES Oc1cc(O)c2cc(O)c(-c3cc(O)c(O)c(O)c3)[o+]c2c1
REMARK SMILES IDX 10 1 20 2 21 3 22 4 2 5 3 6 4 7 6 8 7 9 8 10 11 11 12 12
REMARK SMILES IDX 13 13 19 14 15 15 17 16 14 17 16 19 18 21 9 23 1 25 5 27
REMARK H PARENT 14 18 16 20 18 22 9 24 1 26 5 28
REMARK Flexibility Score: inf
ROOT
ATOM      1  C   UNL     1     -13.190 -15.558  32.404  1.00  0.00     0.402 A 
ATOM      2  O   UNL     1     -12.177 -15.564  33.266  1.00  0.00    -0.202 OA
ATOM      3  C   UNL     1     -12.157 -14.833  34.376  1.00  0.00     0.368 A 
ATOM      4  C   UNL     1     -11.045 -14.905  35.219  1.00  0.00     0.162 A 
ATOM      5  C   UNL     1     -10.997 -14.147  36.389  1.00  0.00     0.128 A 
ATOM      6  C   UNL     1     -12.067 -13.310  36.722  1.00  0.00     0.093 A 
ATOM      7  C   UNL     1     -13.194 -13.220  35.895  1.00  0.00     0.136 A 
ATOM      8  C   UNL     1     -13.248 -13.992  34.704  1.00  0.00     0.125 A 
ATOM      9  C   UNL     1     -14.341 -13.975  33.822  1.00  0.00     0.078 A 
ATOM     10  C   UNL     1     -14.324 -14.767  32.671  1.00  0.00     0.223 A 
ENDROOT
BRANCH   1  11
ATOM     11  C   UNL     1     -13.088 -16.408  31.196  1.00  0.00     0.091 A 
ATOM     12  C   UNL     1     -12.891 -15.850  29.923  1.00  0.00     0.068 A 
ATOM     13  C   UNL     1     -12.775 -16.673  28.794  1.00  0.00     0.162 A 
ATOM     14  C   UNL     1     -13.132 -17.804  31.331  1.00  0.00     0.068 A 
ATOM     15  C   UNL     1     -12.844 -18.069  28.936  1.00  0.00     0.200 A 
ATOM     16  C   UNL     1     -13.019 -18.633  30.206  1.00  0.00     0.162 A 
BRANCH  13  17
ATOM     17  O   UNL     1     -12.586 -16.109  27.533  1.00  0.00    -0.504 OA
ATOM     18  H   UNL     1     -13.360 -15.963  26.894  1.00  0.00     0.293 HD
ENDBRANCH  13  17
BRANCH  15  19
ATOM     19  O   UNL     1     -12.735 -18.909  27.827  1.00  0.00    -0.502 OA
ATOM     20  H   UNL     1     -13.007 -19.884  27.861  1.00  0.00     0.293 HD
ENDBRANCH  15  19
BRANCH  16  21
ATOM     21  O   UNL     1     -13.078 -20.019  30.343  1.00  0.00    -0.504 OA
ATOM     22  H   UNL     1     -12.699 -20.488  31.158  1.00  0.00     0.293 HD
ENDBRANCH  16  21
ENDBRANCH   1  11
BRANCH  10  23
ATOM     23  O   UNL     1     -15.429 -14.789  31.820  1.00  0.00    -0.500 OA
ATOM     24  H   UNL     1     -15.327 -14.764  30.813  1.00  0.00     0.294 HD
ENDBRANCH  10  23
BRANCH   5  25
ATOM     25  O   UNL     1      -9.878 -14.232  37.216  1.00  0.00    -0.507 OA
ATOM     26  H   UNL     1      -9.902 -14.750  38.087  1.00  0.00     0.293 HD
ENDBRANCH   5  25
BRANCH   7  27
ATOM     27  O   UNL     1     -14.219 -12.359  36.294  1.00  0.00    -0.507 OA
ATOM     28  H   UNL     1     -14.254 -11.373  36.076  1.00  0.00     0.293 HD
ENDBRANCH   7  27
TORSDOF 7
ENDMDL
MODEL 2
REMARK VINA RESULT:    -6.117      0.097      1.791
REMARK INTER + INTRA:          -7.867
REMARK INTER:                  -7.570
REMARK INTRA:                  -0.297
REMARK UNBOUND:                -0.320
REMARK SMILES Oc1cc(O)c2cc(O)c(-c3cc(O)c(O)c(O)c3)[o+]c2c1
REMARK SMILES IDX 10 1 20 2 21 3 22 4 2 5 3 6 4 7 6 8 7 9 8 10 11 11 12 12
REMARK SMILES IDX 13 13 19 14 15 15 17 16 14 17 16 19 18 21 9 23 1 25 5 27
REMARK H PARENT 14 18 16 20 18 22 9 24 1 26 5 28
REMARK Flexibility Score: inf
ROOT
ATOM      1  C   UNL     1     -13.151 -15.602  32.451  1.00  0.00     0.402 A 
ATOM      2  O   UNL     1     -12.137 -15.553  33.311  1.00  0.00    -0.202 OA
ATOM      3  C   UNL     1     -12.138 -14.788  34.397  1.00  0.00     0.368 A 
ATOM      4  C   UNL     1     -11.023 -14.802  35.241  1.00  0.00     0.162 A 
ATOM      5  C   UNL     1     -10.996 -14.007  36.386  1.00  0.00     0.128 A 
ATOM      6  C   UNL     1     -12.089 -13.190  36.694  1.00  0.00     0.093 A 
ATOM      7  C   UNL     1     -13.218 -13.157  35.866  1.00  0.00     0.136 A 
ATOM      8  C   UNL     1     -13.251 -13.967  34.700  1.00  0.00     0.125 A 
ATOM      9  C   UNL     1     -14.344 -14.008  33.819  1.00  0.00     0.078 A 
ATOM     10  C   UNL     1     -14.306 -14.835  32.693  1.00  0.00     0.223 A 
ENDROOT
BRANCH   1  11
ATOM     11  C   UNL     1     -13.026 -16.487  31.270  1.00  0.00     0.091 A 
ATOM     12  C   UNL     1     -13.116 -17.883  31.389  1.00  0.00     0.068 A 
ATOM     13  C   UNL     1     -13.017 -18.704  30.256  1.00  0.00     0.162 A 
ATOM     14  C   UNL     1     -12.872 -15.918  29.996  1.00  0.00     0.068 A 
ATOM     15  C   UNL     1     -12.840 -18.125  28.988  1.00  0.00     0.200 A 
ATOM     16  C   UNL     1     -12.771 -16.733  28.860  1.00  0.00     0.162 A 
BRANCH  13  17
ATOM     17  O   UNL     1     -13.101 -20.089  30.385  1.00  0.00    -0.504 OA
ATOM     18  H   UNL     1     -13.386 -20.679  29.611  1.00  0.00     0.293 HD
ENDBRANCH  13  17
BRANCH  15  19
ATOM     19  O   UNL     1     -12.735 -18.920  27.846  1.00  0.00    -0.502 OA
ATOM     20  H   UNL     1     -12.352 -19.858  27.874  1.00  0.00     0.293 HD
ENDBRANCH  15  19
BRANCH  16  21
ATOM     21  O   UNL     1     -12.604 -16.164  27.598  1.00  0.00    -0.504 OA
ATOM     22  H   UNL     1     -11.685 -16.038  27.190  1.00  0.00     0.293 HD
ENDBRANCH  16  21
ENDBRANCH   1  11
BRANCH  10  23
ATOM     23  O   UNL     1     -15.411 -14.914  31.845  1.00  0.00    -0.500 OA
ATOM     24  H   UNL     1     -15.496 -15.645  31.149  1.00  0.00     0.294 HD
ENDBRANCH  10  23
BRANCH   5  25
ATOM     25  O   UNL     1      -9.875 -14.036  37.214  1.00  0.00    -0.507 OA
ATOM     26  H   UNL     1      -9.625 -14.867  37.738  1.00  0.00     0.293 HD
ENDBRANCH   5  25
BRANCH   7  27
ATOM     27  O   UNL     1     -14.266 -12.312  36.240  1.00  0.00    -0.507 OA
ATOM     28  H   UNL     1     -15.032 -12.584  36.839  1.00  0.00     0.293 HD
ENDBRANCH   7  27
TORSDOF 7
ENDMDL
MODEL 3
REMARK VINA RESULT:    -5.802      1.066      2.604
REMARK INTER + INTRA:          -7.480
REMARK INTER:                  -7.164
REMARK INTRA:                  -0.316
REMARK UNBOUND:                -0.320
REMARK SMILES Oc1cc(O)c2cc(O)c(-c3cc(O)c(O)c(O)c3)[o+]c2c1
REMARK SMILES IDX 10 1 20 2 21 3 22 4 2 5 3 6 4 7 6 8 7 9 8 10 11 11 12 12
REMARK SMILES IDX 13 13 19 14 15 15 17 16 14 17 16 19 18 21 9 23 1 25 5 27
REMARK H PARENT 14 18 16 20 18 22 9 24 1 26 5 28
REMARK Flexibility Score: inf
ROOT
ATOM      1  C   UNL     1     -12.056 -16.266  32.502  1.00  0.00     0.402 A 
ATOM      2  O   UNL     1     -12.884 -15.380  33.050  1.00  0.00    -0.202 OA
ATOM      3  C   UNL     1     -12.592 -14.689  34.147  1.00  0.00     0.368 A 
ATOM      4  C   UNL     1     -13.529 -13.781  34.648  1.00  0.00     0.162 A 
ATOM      5  C   UNL     1     -13.251 -13.044  35.799  1.00  0.00     0.128 A 
ATOM      6  C   UNL     1     -12.027 -13.213  36.456  1.00  0.00     0.093 A 
ATOM      7  C   UNL     1     -11.070 -14.115  35.974  1.00  0.00     0.136 A 
ATOM      8  C   UNL     1     -11.350 -14.866  34.801  1.00  0.00     0.125 A 
ATOM      9  C   UNL     1     -10.447 -15.783  34.239  1.00  0.00     0.078 A 
ATOM     10  C   UNL     1     -10.790 -16.482  33.078  1.00  0.00     0.223 A 
ENDROOT
BRANCH   1  11
ATOM     11  C   UNL     1     -12.501 -16.983  31.285  1.00  0.00     0.091 A 
ATOM     12  C   UNL     1     -12.520 -16.351  30.031  1.00  0.00     0.068 A 
ATOM     13  C   UNL     1     -12.923 -17.053  28.885  1.00  0.00     0.162 A 
ATOM     14  C   UNL     1     -12.858 -18.337  31.374  1.00  0.00     0.068 A 
ATOM     15  C   UNL     1     -13.301 -18.403  28.989  1.00  0.00     0.200 A 
ATOM     16  C   UNL     1     -13.264 -19.043  30.233  1.00  0.00     0.162 A 
BRANCH  13  17
ATOM     17  O   UNL     1     -12.944 -16.416  27.645  1.00  0.00    -0.504 OA
ATOM     18  H   UNL     1     -12.399 -15.580  27.468  1.00  0.00     0.293 HD
ENDBRANCH  13  17
BRANCH  15  19
ATOM     19  O   UNL     1     -13.710 -19.121  27.865  1.00  0.00    -0.502 OA
ATOM     20  H   UNL     1     -13.625 -20.129  27.809  1.00  0.00     0.293 HD
ENDBRANCH  15  19
BRANCH  16  21
ATOM     21  O   UNL     1     -13.631 -20.385  30.330  1.00  0.00    -0.504 OA
ATOM     22  H   UNL     1     -14.309 -20.702  31.014  1.00  0.00     0.293 HD
ENDBRANCH  16  21
ENDBRANCH   1  11
BRANCH  10  23
ATOM     23  O   UNL     1      -9.875 -17.356  32.491  1.00  0.00    -0.500 OA
ATOM     24  H   UNL     1      -9.677 -17.332  31.498  1.00  0.00     0.294 HD
ENDBRANCH  10  23
BRANCH   5  25
ATOM     25  O   UNL     1     -14.198 -12.145  36.283  1.00  0.00    -0.507 OA
ATOM     26  H   UNL     1     -14.545 -12.202  37.234  1.00  0.00     0.293 HD
ENDBRANCH   5  25
BRANCH   7  27
ATOM     27  O   UNL     1      -9.875 -14.230  36.688  1.00  0.00    -0.507 OA
ATOM     28  H   UNL     1      -9.779 -14.724  37.563  1.00  0.00     0.293 HD
ENDBRANCH   7  27
TORSDOF 7
ENDMDL
MODEL 4
REMARK VINA RESULT:    -5.421      1.087      3.153
REMARK INTER + INTRA:          -7.009
REMARK INTER:                  -6.649
REMARK INTRA:                  -0.360
REMARK UNBOUND:                -0.320
REMARK SMILES Oc1cc(O)c2cc(O)c(-c3cc(O)c(O)c(O)c3)[o+]c2c1
REMARK SMILES IDX 10 1 20 2 21 3 22 4 2 5 3 6 4 7 6 8 7 9 8 10 11 11 12 12
REMARK SMILES IDX 13 13 19 14 15 15 17 16 14 17 16 19 18 21 9 23 1 25 5 27
REMARK H PARENT 14 18 16 20 18 22 9 24 1 26 5 28
REMARK Flexibility Score: inf
ROOT
ATOM      1  C   UNL     1     -12.108 -16.228  32.475  1.00  0.00     0.402 A 
ATOM      2  O   UNL     1     -12.959 -15.376  33.040  1.00  0.00    -0.202 OA
ATOM      3  C   UNL     1     -12.661 -14.651  34.114  1.00  0.00     0.368 A 
ATOM      4  C   UNL     1     -13.624 -13.783  34.638  1.00  0.00     0.162 A 
ATOM      5  C   UNL     1     -13.339 -13.012  35.764  1.00  0.00     0.128 A 
ATOM      6  C   UNL     1     -12.084 -13.107  36.375  1.00  0.00     0.093 A 
ATOM      7  C   UNL     1     -11.101 -13.968  35.870  1.00  0.00     0.136 A 
ATOM      8  C   UNL     1     -11.386 -14.752  34.722  1.00  0.00     0.125 A 
ATOM      9  C   UNL     1     -10.460 -15.632  34.139  1.00  0.00     0.078 A 
ATOM     10  C   UNL     1     -10.811 -16.369  33.004  1.00  0.00     0.223 A 
ENDROOT
BRANCH   1  11
ATOM     11  C   UNL     1     -12.561 -16.988  31.288  1.00  0.00     0.091 A 
ATOM     12  C   UNL     1     -12.953 -18.333  31.385  1.00  0.00     0.068 A 
ATOM     13  C   UNL     1     -13.400 -19.029  30.254  1.00  0.00     0.162 A 
ATOM     14  C   UNL     1     -12.658 -16.336  30.048  1.00  0.00     0.068 A 
ATOM     15  C   UNL     1     -13.471 -18.374  29.012  1.00  0.00     0.200 A 
ATOM     16  C   UNL     1     -13.103 -17.027  28.913  1.00  0.00     0.162 A 
BRANCH  13  17
ATOM     17  O   UNL     1     -13.781 -20.367  30.359  1.00  0.00    -0.504 OA
ATOM     18  H   UNL     1     -14.072 -20.768  31.244  1.00  0.00     0.293 HD
ENDBRANCH  13  17
BRANCH  15  19
ATOM     19  O   UNL     1     -13.910 -19.046  27.871  1.00  0.00    -0.502 OA
ATOM     20  H   UNL     1     -13.696 -20.023  27.704  1.00  0.00     0.293 HD
ENDBRANCH  15  19
BRANCH  16  21
ATOM     21  O   UNL     1     -13.184 -16.379  27.681  1.00  0.00    -0.504 OA
ATOM     22  H   UNL     1     -13.911 -16.601  27.011  1.00  0.00     0.293 HD
ENDBRANCH  16  21
ENDBRANCH   1  11
BRANCH  10  23
ATOM     23  O   UNL     1      -9.875 -17.205  32.395  1.00  0.00    -0.500 OA
ATOM     24  H   UNL     1     -10.154 -18.038  31.890  1.00  0.00     0.294 HD
ENDBRANCH  10  23
BRANCH   5  25
ATOM     25  O   UNL     1     -14.313 -12.154  36.271  1.00  0.00    -0.507 OA
ATOM     26  H   UNL     1     -14.393 -11.196  35.950  1.00  0.00     0.293 HD
ENDBRANCH   5  25
BRANCH   7  27
ATOM     27  O   UNL     1      -9.875 -14.008  36.538  1.00  0.00    -0.507 OA
ATOM     28  H   UNL     1      -9.474 -13.230  37.041  1.00  0.00     0.293 HD
ENDBRANCH   7  27
TORSDOF 7
ENDMDL
MODEL 5
REMARK VINA RESULT:    -5.160      1.390      7.056
REMARK INTER + INTRA:          -6.687
REMARK INTER:                  -6.464
REMARK INTRA:                  -0.224
REMARK UNBOUND:                -0.320
REMARK SMILES Oc1cc(O)c2cc(O)c(-c3cc(O)c(O)c(O)c3)[o+]c2c1
REMARK SMILES IDX 10 1 20 2 21 3 22 4 2 5 3 6 4 7 6 8 7 9 8 10 11 11 12 12
REMARK SMILES IDX 13 13 19 14 15 15 17 16 14 17 16 19 18 21 9 23 1 25 5 27
REMARK H PARENT 14 18 16 20 18 22 9 24 1 26 5 28
REMARK Flexibility Score: inf
ROOT
ATOM      1  C   UNL     1     -12.630 -15.944  32.714  1.00  0.00     0.402 A 
ATOM      2  O   UNL     1     -11.851 -15.783  31.648  1.00  0.00    -0.202 OA
ATOM      3  C   UNL     1     -11.932 -16.546  30.563  1.00  0.00     0.368 A 
ATOM      4  C   UNL     1     -11.066 -16.301  29.492  1.00  0.00     0.162 A 
ATOM      5  C   UNL     1     -11.127 -17.087  28.343  1.00  0.00     0.128 A 
ATOM      6  C   UNL     1     -12.058 -18.128  28.258  1.00  0.00     0.093 A 
ATOM      7  C   UNL     1     -12.937 -18.395  29.316  1.00  0.00     0.136 A 
ATOM      8  C   UNL     1     -12.880 -17.594  30.487  1.00  0.00     0.125 A 
ATOM      9  C   UNL     1     -13.728 -17.780  31.591  1.00  0.00     0.078 A 
ATOM     10  C   UNL     1     -13.616 -16.948  32.709  1.00  0.00     0.223 A 
ENDROOT
BRANCH   1  11
ATOM     11  C   UNL     1     -12.436 -15.035  33.867  1.00  0.00     0.091 A 
ATOM     12  C   UNL     1     -13.433 -14.127  34.259  1.00  0.00     0.068 A 
ATOM     13  C   UNL     1     -13.240 -13.291  35.368  1.00  0.00     0.162 A 
ATOM     14  C   UNL     1     -11.256 -15.122  34.622  1.00  0.00     0.068 A 
ATOM     15  C   UNL     1     -12.044 -13.369  36.102  1.00  0.00     0.200 A 
ATOM     16  C   UNL     1     -11.056 -14.287  35.730  1.00  0.00     0.162 A 
BRANCH  13  17
ATOM     17  O   UNL     1     -14.233 -12.388  35.746  1.00  0.00    -0.504 OA
ATOM     18  H   UNL     1     -15.217 -12.623  35.681  1.00  0.00     0.293 HD
ENDBRANCH  13  17
BRANCH  15  19
ATOM     19  O   UNL     1     -11.827 -12.544  37.207  1.00  0.00    -0.502 OA
ATOM     20  H   UNL     1     -12.475 -12.502  37.984  1.00  0.00     0.293 HD
ENDBRANCH  15  19
BRANCH  16  21
ATOM     21  O   UNL     1      -9.875 -14.367  36.467  1.00  0.00    -0.504 OA
ATOM     22  H   UNL     1      -9.046 -14.815  36.094  1.00  0.00     0.293 HD
ENDBRANCH  16  21
ENDBRANCH   1  11
BRANCH  10  23
ATOM     23  O   UNL     1     -14.492 -17.099  33.784  1.00  0.00    -0.500 OA
ATOM     24  H   UNL     1     -15.288 -17.724  33.739  1.00  0.00     0.294 HD
ENDBRANCH  10  23
BRANCH   5  25
ATOM     25  O   UNL     1     -10.256 -16.827  27.287  1.00  0.00    -0.507 OA
ATOM     26  H   UNL     1      -9.920 -17.569  26.682  1.00  0.00     0.293 HD
ENDBRANCH   5  25
BRANCH   7  27
ATOM     27  O   UNL     1     -13.834 -19.454  29.157  1.00  0.00    -0.507 OA
ATOM     28  H   UNL     1     -14.839 -19.364  29.215  1.00  0.00     0.293 HD
ENDBRANCH   7  27
TORSDOF 7
ENDMDL
MODEL 6
REMARK VINA RESULT:    -3.604      2.071      7.534
REMARK INTER + INTRA:          -4.767
REMARK INTER:                  -4.971
REMARK INTRA:                   0.204
REMARK UNBOUND:                -0.320
REMARK SMILES Oc1cc(O)c2cc(O)c(-c3cc(O)c(O)c(O)c3)[o+]c2c1
REMARK SMILES IDX 10 1 20 2 21 3 22 4 2 5 3 6 4 7 6 8 7 9 8 10 11 11 12 12
REMARK SMILES IDX 13 13 19 14 15 15 17 16 14 17 16 19 18 21 9 23 1 25 5 27
REMARK H PARENT 14 18 16 20 18 22 9 24 1 26 5 28
REMARK Flexibility Score: inf
ROOT
ATOM      1  C   UNL     1     -11.828 -15.976  31.127  1.00  0.00     0.402 A 
ATOM      2  O   UNL     1     -12.702 -15.547  30.221  1.00  0.00    -0.202 OA
ATOM      3  C   UNL     1     -12.675 -15.922  28.946  1.00  0.00     0.368 A 
ATOM      4  C   UNL     1     -13.636 -15.415  28.067  1.00  0.00     0.162 A 
ATOM      5  C   UNL     1     -13.630 -15.790  26.724  1.00  0.00     0.128 A 
ATOM      6  C   UNL     1     -12.658 -16.678  26.252  1.00  0.00     0.093 A 
ATOM      7  C   UNL     1     -11.684 -17.202  27.112  1.00  0.00     0.136 A 
ATOM      8  C   UNL     1     -11.689 -16.824  28.481  1.00  0.00     0.125 A 
ATOM      9  C   UNL     1     -10.760 -17.308  29.417  1.00  0.00     0.078 A 
ATOM     10  C   UNL     1     -10.830 -16.894  30.751  1.00  0.00     0.223 A 
ENDROOT
BRANCH   1  11
ATOM     11  C   UNL     1     -11.955 -15.475  32.515  1.00  0.00     0.091 A 
ATOM     12  C   UNL     1     -10.845 -15.407  33.373  1.00  0.00     0.068 A 
ATOM     13  C   UNL     1     -10.982 -14.910  34.677  1.00  0.00     0.162 A 
ATOM     14  C   UNL     1     -13.198 -15.005  32.967  1.00  0.00     0.068 A 
ATOM     15  C   UNL     1     -12.236 -14.463  35.128  1.00  0.00     0.200 A 
ATOM     16  C   UNL     1     -13.341 -14.509  34.270  1.00  0.00     0.162 A 
BRANCH  13  17
ATOM     17  O   UNL     1      -9.875 -14.852  35.524  1.00  0.00    -0.504 OA
ATOM     18  H   UNL     1      -9.394 -15.691  35.827  1.00  0.00     0.293 HD
ENDBRANCH  13  17
BRANCH  15  19
ATOM     19  O   UNL     1     -12.398 -13.968  36.422  1.00  0.00    -0.502 OA
ATOM     20  H   UNL     1     -12.214 -14.533  37.243  1.00  0.00     0.293 HD
ENDBRANCH  15  19
BRANCH  16  21
ATOM     21  O   UNL     1     -14.582 -14.057  34.719  1.00  0.00    -0.504 OA
ATOM     22  H   UNL     1     -14.779 -13.942  35.706  1.00  0.00     0.293 HD
ENDBRANCH  16  21
ENDBRANCH   1  11
BRANCH  10  23
ATOM     23  O   UNL     1      -9.940 -17.412  31.692  1.00  0.00    -0.500 OA
ATOM     24  H   UNL     1     -10.176 -18.216  32.262  1.00  0.00     0.294 HD
ENDBRANCH  10  23
BRANCH   5  25
ATOM     25  O   UNL     1     -14.597 -15.272  25.863  1.00  0.00    -0.507 OA
ATOM     26  H   UNL     1     -14.513 -15.363  24.857  1.00  0.00     0.293 HD
ENDBRANCH   5  25
BRANCH   7  27
ATOM     27  O   UNL     1     -10.746 -18.080  26.564  1.00  0.00    -0.507 OA
ATOM     28  H   UNL     1     -10.146 -18.685  27.106  1.00  0.00     0.293 HD
ENDBRANCH   7  27
TORSDOF 7
ENDMDL
MODEL 7
REMARK VINA RESULT:    -3.592      1.370      6.956
REMARK INTER + INTRA:          -4.753
REMARK INTER:                  -4.653
REMARK INTRA:                  -0.100
REMARK UNBOUND:                -0.320
REMARK SMILES Oc1cc(O)c2cc(O)c(-c3cc(O)c(O)c(O)c3)[o+]c2c1
REMARK SMILES IDX 10 1 20 2 21 3 22 4 2 5 3 6 4 7 6 8 7 9 8 10 11 11 12 12
REMARK SMILES IDX 13 13 19 14 15 15 17 16 14 17 16 19 18 21 9 23 1 25 5 27
REMARK H PARENT 14 18 16 20 18 22 9 24 1 26 5 28
REMARK Flexibility Score: inf
ROOT
ATOM      1  C   UNL     1     -12.819 -16.039  32.546  1.00  0.00     0.402 A 
ATOM      2  O   UNL     1     -12.532 -17.330  32.692  1.00  0.00    -0.202 OA
ATOM      3  C   UNL     1     -12.719 -18.233  31.734  1.00  0.00     0.368 A 
ATOM      4  C   UNL     1     -12.389 -19.568  31.984  1.00  0.00     0.162 A 
ATOM      5  C   UNL     1     -12.577 -20.536  30.998  1.00  0.00     0.128 A 
ATOM      6  C   UNL     1     -13.100 -20.171  29.753  1.00  0.00     0.093 A 
ATOM      7  C   UNL     1     -13.439 -18.840  29.477  1.00  0.00     0.136 A 
ATOM      8  C   UNL     1     -13.246 -17.851  30.477  1.00  0.00     0.125 A 
ATOM      9  C   UNL     1     -13.546 -16.492  30.286  1.00  0.00     0.078 A 
ATOM     10  C   UNL     1     -13.324 -15.575  31.317  1.00  0.00     0.223 A 
ENDROOT
BRANCH   1  11
ATOM     11  C   UNL     1     -12.576 -15.133  33.691  1.00  0.00     0.091 A 
ATOM     12  C   UNL     1     -13.567 -14.251  34.150  1.00  0.00     0.068 A 
ATOM     13  C   UNL     1     -13.326 -13.416  35.250  1.00  0.00     0.162 A 
ATOM     14  C   UNL     1     -11.349 -15.195  34.371  1.00  0.00     0.068 A 
ATOM     15  C   UNL     1     -12.086 -13.470  35.909  1.00  0.00     0.200 A 
ATOM     16  C   UNL     1     -11.101 -14.362  35.470  1.00  0.00     0.162 A 
BRANCH  13  17
ATOM     17  O   UNL     1     -14.314 -12.539  35.695  1.00  0.00    -0.504 OA
ATOM     18  H   UNL     1     -15.291 -12.809  35.721  1.00  0.00     0.293 HD
ENDBRANCH  13  17
BRANCH  15  19
ATOM     19  O   UNL     1     -11.820 -12.646  37.004  1.00  0.00    -0.502 OA
ATOM     20  H   UNL     1     -12.544 -12.103  37.459  1.00  0.00     0.293 HD
ENDBRANCH  15  19
BRANCH  16  21
ATOM     21  O   UNL     1      -9.875 -14.418  36.133  1.00  0.00    -0.504 OA
ATOM     22  H   UNL     1      -9.804 -14.261  37.132  1.00  0.00     0.293 HD
ENDBRANCH  16  21
ENDBRANCH   1  11
BRANCH  10  23
ATOM     23  O   UNL     1     -13.573 -14.217  31.111  1.00  0.00    -0.500 OA
ATOM     24  H   UNL     1     -12.823 -13.556  30.950  1.00  0.00     0.294 HD
ENDBRANCH  10  23
BRANCH   5  25
ATOM     25  O   UNL     1     -12.242 -21.862  31.267  1.00  0.00    -0.507 OA
ATOM     26  H   UNL     1     -11.299 -22.127  31.528  1.00  0.00     0.293 HD
ENDBRANCH   5  25
BRANCH   7  27
ATOM     27  O   UNL     1     -13.959 -18.557  28.212  1.00  0.00    -0.507 OA
ATOM     28  H   UNL     1     -13.563 -18.890  27.345  1.00  0.00     0.293 HD
ENDBRANCH   7  27
TORSDOF 7
ENDMDL
MODEL 8
REMARK VINA RESULT:    -3.331      1.647      7.385
REMARK INTER + INTRA:          -4.430
REMARK INTER:                  -4.273
REMARK INTRA:                  -0.157
REMARK UNBOUND:                -0.320
REMARK SMILES Oc1cc(O)c2cc(O)c(-c3cc(O)c(O)c(O)c3)[o+]c2c1
REMARK SMILES IDX 10 1 20 2 21 3 22 4 2 5 3 6 4 7 6 8 7 9 8 10 11 11 12 12
REMARK SMILES IDX 13 13 19 14 15 15 17 16 14 17 16 19 18 21 9 23 1 25 5 27
REMARK H PARENT 14 18 16 20 18 22 9 24 1 26 5 28
REMARK Flexibility Score: inf
ROOT
ATOM      1  C   UNL     1     -11.840 -16.123  32.024  1.00  0.00     0.402 A 
ATOM      2  O   UNL     1     -12.718 -17.092  31.776  1.00  0.00    -0.202 OA
ATOM      3  C   UNL     1     -12.737 -17.787  30.643  1.00  0.00     0.368 A 
ATOM      4  C   UNL     1     -13.701 -18.785  30.474  1.00  0.00     0.162 A 
ATOM      5  C   UNL     1     -13.746 -19.528  29.295  1.00  0.00     0.128 A 
ATOM      6  C   UNL     1     -12.823 -19.274  28.275  1.00  0.00     0.093 A 
ATOM      7  C   UNL     1     -11.847 -18.280  28.419  1.00  0.00     0.136 A 
ATOM      8  C   UNL     1     -11.796 -17.523  29.619  1.00  0.00     0.125 A 
ATOM      9  C   UNL     1     -10.846 -16.517  29.857  1.00  0.00     0.078 A 
ATOM     10  C   UNL     1     -10.855 -15.817  31.067  1.00  0.00     0.223 A 
ENDROOT
BRANCH   1  11
ATOM     11  C   UNL     1     -11.928 -15.413  33.321  1.00  0.00     0.091 A 
ATOM     12  C   UNL     1     -10.852 -15.403  34.223  1.00  0.00     0.068 A 
ATOM     13  C   UNL     1     -10.946 -14.706  35.437  1.00  0.00     0.162 A 
ATOM     14  C   UNL     1     -13.088 -14.687  33.631  1.00  0.00     0.068 A 
ATOM     15  C   UNL     1     -12.121 -14.001  35.749  1.00  0.00     0.200 A 
ATOM     16  C   UNL     1     -13.189 -13.990  34.843  1.00  0.00     0.162 A 
BRANCH  13  17
ATOM     17  O   UNL     1      -9.875 -14.707  36.330  1.00  0.00    -0.504 OA
ATOM     18  H   UNL     1      -9.976 -14.368  37.280  1.00  0.00     0.293 HD
ENDBRANCH  13  17
BRANCH  15  19
ATOM     19  O   UNL     1     -12.240 -13.304  36.951  1.00  0.00    -0.502 OA
ATOM     20  H   UNL     1     -13.141 -13.074  37.355  1.00  0.00     0.293 HD
ENDBRANCH  15  19
BRANCH  16  21
ATOM     21  O   UNL     1     -14.349 -13.282  35.154  1.00  0.00    -0.504 OA
ATOM     22  H   UNL     1     -14.408 -12.278  35.027  1.00  0.00     0.293 HD
ENDBRANCH  16  21
ENDBRANCH   1  11
BRANCH  10  23
ATOM     23  O   UNL     1      -9.881 -14.852  31.324  1.00  0.00    -0.500 OA
ATOM     24  H   UNL     1      -9.599 -14.179  30.622  1.00  0.00     0.294 HD
ENDBRANCH  10  23
BRANCH   5  25
ATOM     25  O   UNL     1     -14.715 -20.518  29.145  1.00  0.00    -0.507 OA
ATOM     26  H   UNL     1     -14.814 -21.269  29.819  1.00  0.00     0.293 HD
ENDBRANCH   5  25
BRANCH   7  27
ATOM     27  O   UNL     1     -10.964 -18.085  27.354  1.00  0.00    -0.507 OA
ATOM     28  H   UNL     1     -11.068 -17.368  26.651  1.00  0.00     0.293 HD
ENDBRANCH   7  27
TORSDOF 7
ENDMDL
MODEL 9
REMARK VINA RESULT:    -3.315      1.446      7.318
REMARK INTER + INTRA:          -4.411
REMARK INTER:                  -4.512
REMARK INTRA:                   0.101
REMARK UNBOUND:                -0.320
REMARK SMILES Oc1cc(O)c2cc(O)c(-c3cc(O)c(O)c(O)c3)[o+]c2c1
REMARK SMILES IDX 10 1 20 2 21 3 22 4 2 5 3 6 4 7 6 8 7 9 8 10 11 11 12 12
REMARK SMILES IDX 13 13 19 14 15 15 17 16 14 17 16 19 18 21 9 23 1 25 5 27
REMARK H PARENT 14 18 16 20 18 22 9 24 1 26 5 28
REMARK Flexibility Score: inf
ROOT
ATOM      1  C   UNL     1     -12.349 -15.863  32.056  1.00  0.00     0.402 A 
ATOM      2  O   UNL     1     -12.912 -15.244  31.022  1.00  0.00    -0.202 OA
ATOM      3  C   UNL     1     -13.028 -15.793  29.817  1.00  0.00     0.368 A 
ATOM      4  C   UNL     1     -13.635 -15.062  28.792  1.00  0.00     0.162 A 
ATOM      5  C   UNL     1     -13.767 -15.612  27.517  1.00  0.00     0.128 A 
ATOM      6  C   UNL     1     -13.291 -16.902  27.262  1.00  0.00     0.093 A 
ATOM      7  C   UNL     1     -12.680 -17.656  28.272  1.00  0.00     0.136 A 
ATOM      8  C   UNL     1     -12.546 -17.101  29.571  1.00  0.00     0.125 A 
ATOM      9  C   UNL     1     -11.959 -17.787  30.647  1.00  0.00     0.078 A 
ATOM     10  C   UNL     1     -11.866 -17.176  31.901  1.00  0.00     0.223 A 
ENDROOT
BRANCH   1  11
ATOM     11  C   UNL     1     -12.269 -15.141  33.347  1.00  0.00     0.091 A 
ATOM     12  C   UNL     1     -13.343 -14.371  33.822  1.00  0.00     0.068 A 
ATOM     13  C   UNL     1     -13.257 -13.713  35.057  1.00  0.00     0.162 A 
ATOM     14  C   UNL     1     -11.119 -15.273  34.140  1.00  0.00     0.068 A 
ATOM     15  C   UNL     1     -12.091 -13.833  35.833  1.00  0.00     0.200 A 
ATOM     16  C   UNL     1     -11.026 -14.616  35.375  1.00  0.00     0.162 A 
BRANCH  13  17
ATOM     17  O   UNL     1     -14.326 -12.946  35.518  1.00  0.00    -0.504 OA
ATOM     18  H   UNL     1     -15.280 -13.141  35.237  1.00  0.00     0.293 HD
ENDBRANCH  13  17
BRANCH  15  19
ATOM     19  O   UNL     1     -11.980 -13.184  37.064  1.00  0.00    -0.502 OA
ATOM     20  H   UNL     1     -12.720 -12.600  37.435  1.00  0.00     0.293 HD
ENDBRANCH  15  19
BRANCH  16  21
ATOM     21  O   UNL     1      -9.875 -14.739  36.153  1.00  0.00    -0.504 OA
ATOM     22  H   UNL     1      -9.766 -14.231  37.023  1.00  0.00     0.293 HD
ENDBRANCH  16  21
ENDBRANCH   1  11
BRANCH  10  23
ATOM     23  O   UNL     1     -11.329 -17.875  32.982  1.00  0.00    -0.500 OA
ATOM     24  H   UNL     1     -11.858 -18.588  33.470  1.00  0.00     0.294 HD
ENDBRANCH  10  23
BRANCH   5  25
ATOM     25  O   UNL     1     -14.374 -14.866  26.508  1.00  0.00    -0.507 OA
ATOM     26  H   UNL     1     -15.318 -14.510  26.608  1.00  0.00     0.293 HD
ENDBRANCH   5  25
BRANCH   7  27
ATOM     27  O   UNL     1     -12.228 -18.935  27.936  1.00  0.00    -0.507 OA
ATOM     28  H   UNL     1     -12.433 -19.770  28.466  1.00  0.00     0.293 HD
ENDBRANCH   7  27
TORSDOF 7
ENDMDL
