MODEL 1
REMARK VINA RESULT:    -2.482      0.000      0.000
REMARK INTER + INTRA:          -2.482
REMARK INTER:                  -2.482
REMARK INTRA:                   0.000
REMARK UNBOUND:                 0.000
REMARK SMILES CC(=O)[O-]
REMARK SMILES IDX 1 1 2 2 3 3 4 4
REMARK H PARENT
REMARK Flexibility Score: inf
ROOT
ATOM      1  C   UNL     1      50.647  31.961  42.226  1.00  0.00     0.063 C 
ATOM      2  C   UNL     1      50.874  30.495  42.381  1.00  0.00     0.038 C 
ATOM      3  O   UNL     1      50.346  29.872  43.338  1.00  0.00    -0.550 OA
ATOM      4  O   UNL     1      51.625  29.803  41.439  1.00  0.00    -0.550 OA
ENDROOT
TORSDOF 0
ENDMDL
MODEL 2
REMARK VINA RESULT:    -2.448      0.082      1.621
REMARK INTER + INTRA:          -2.448
REMARK INTER:                  -2.448
REMARK INTRA:                   0.000
REMARK UNBOUND:                 0.000
REMARK SMILES CC(=O)[O-]
REMARK SMILES IDX 1 1 2 2 3 3 4 4
REMARK H PARENT
REMARK Flexibility Score: inf
ROOT
ATOM      1  C   UNL     1      50.699  31.963  42.175  1.00  0.00     0.063 C 
ATOM      2  C   UNL     1      50.866  30.486  42.308  1.00  0.00     0.038 C 
ATOM      3  O   UNL     1      51.541  29.849  41.458  1.00  0.00    -0.550 OA
ATOM      4  O   UNL     1      50.324  29.819  43.398  1.00  0.00    -0.550 OA
ENDROOT
TORSDOF 0
ENDMDL
MODEL 3
REMARK VINA RESULT:    -2.316     13.097     13.562
REMARK INTER + INTRA:          -2.316
REMARK INTER:                  -2.316
REMARK INTRA:                   0.000
REMARK UNBOUND:                 0.000
REMARK SMILES CC(=O)[O-]
REMARK SMILES IDX 1 1 2 2 3 3 4 4
REMARK H PARENT
REMARK Flexibility Score: inf
ROOT
ATOM      1  C   UNL     1      54.250  41.959  41.221  1.00  0.00     0.063 C 
ATOM      2  C   UNL     1      54.430  43.421  41.453  1.00  0.00     0.038 C 
ATOM      3  O   UNL     1      55.078  44.116  40.628  1.00  0.00    -0.550 OA
ATOM      4  O   UNL     1      53.836  44.030  42.551  1.00  0.00    -0.550 OA
ENDROOT
TORSDOF 0
ENDMDL
MODEL 4
REMARK VINA RESULT:    -2.293      4.056      4.471
REMARK INTER + INTRA:          -2.293
REMARK INTER:                  -2.293
REMARK INTRA:                   0.000
REMARK UNBOUND:                 0.000
REMARK SMILES CC(=O)[O-]
REMARK SMILES IDX 1 1 2 2 3 3 4 4
REMARK H PARENT
REMARK Flexibility Score: inf
ROOT
ATOM      1  C   UNL     1      55.262  31.687  43.572  1.00  0.00     0.063 C 
ATOM      2  C   UNL     1      54.950  30.331  43.033  1.00  0.00     0.038 C 
ATOM      3  O   UNL     1      55.603  29.875  42.058  1.00  0.00    -0.550 OA
ATOM      4  O   UNL     1      53.978  29.547  43.639  1.00  0.00    -0.550 OA
ENDROOT
TORSDOF 0
ENDMDL
MODEL 5
REMARK VINA RESULT:    -2.237     11.399     12.094
REMARK INTER + INTRA:          -2.237
REMARK INTER:                  -2.237
REMARK INTRA:                   0.000
REMARK UNBOUND:                 0.000
REMARK SMILES CC(=O)[O-]
REMARK SMILES IDX 1 1 2 2 3 3 4 4
REMARK H PARENT
REMARK Flexibility Score: inf
ROOT
ATOM      1  C   UNL     1      45.805  36.252  50.069  1.00  0.00     0.063 C 
ATOM      2  C   UNL     1      44.431  36.825  50.160  1.00  0.00     0.038 C 
ATOM      3  O   UNL     1      43.528  36.426  49.379  1.00  0.00    -0.550 OA
ATOM      4  O   UNL     1      44.130  37.760  51.142  1.00  0.00    -0.550 OA
ENDROOT
TORSDOF 0
ENDMDL
MODEL 6
REMARK VINA RESULT:    -2.221     10.577     11.134
REMARK INTER + INTRA:          -2.221
REMARK INTER:                  -2.221
REMARK INTRA:                   0.000
REMARK UNBOUND:                 0.000
REMARK SMILES CC(=O)[O-]
REMARK SMILES IDX 1 1 2 2 3 3 4 4
REMARK H PARENT
REMARK Flexibility Score: inf
ROOT
ATOM      1  C   UNL     1      43.501  35.130  48.138  1.00  0.00     0.063 C 
ATOM      2  C   UNL     1      44.135  35.831  49.291  1.00  0.00     0.038 C 
ATOM      3  O   UNL     1      43.669  36.927  49.697  1.00  0.00    -0.550 OA
ATOM      4  O   UNL     1      45.208  35.250  49.955  1.00  0.00    -0.550 OA
ENDROOT
TORSDOF 0
ENDMDL
MODEL 7
REMARK VINA RESULT:    -2.172      1.767      2.543
REMARK INTER + INTRA:          -2.172
REMARK INTER:                  -2.172
REMARK INTRA:                   0.000
REMARK UNBOUND:                 0.000
REMARK SMILES CC(=O)[O-]
REMARK SMILES IDX 1 1 2 2 3 3 4 4
REMARK H PARENT
REMARK Flexibility Score: inf
ROOT
ATOM      1  C   UNL     1      52.112  28.912  43.487  1.00  0.00     0.063 C 
ATOM      2  C   UNL     1      51.892  29.662  42.217  1.00  0.00     0.038 C 
ATOM      3  O   UNL     1      52.282  29.177  41.123  1.00  0.00    -0.550 OA
ATOM      4  O   UNL     1      51.209  30.871  42.230  1.00  0.00    -0.550 OA
ENDROOT
TORSDOF 0
ENDMDL
MODEL 8
REMARK VINA RESULT:    -2.165     10.837     11.192
REMARK INTER + INTRA:          -2.165
REMARK INTER:                  -2.165
REMARK INTRA:                   0.000
REMARK UNBOUND:                 0.000
REMARK SMILES CC(=O)[O-]
REMARK SMILES IDX 1 1 2 2 3 3 4 4
REMARK H PARENT
REMARK Flexibility Score: inf
ROOT
ATOM      1  C   UNL     1      44.324  37.277  50.646  1.00  0.00     0.063 C 
ATOM      2  C   UNL     1      45.124  36.264  49.899  1.00  0.00     0.038 C 
ATOM      3  O   UNL     1      44.544  35.381  49.214  1.00  0.00    -0.550 OA
ATOM      4  O   UNL     1      46.511  36.325  49.912  1.00  0.00    -0.550 OA
ENDROOT
TORSDOF 0
ENDMDL
