MODEL 1
REMARK VINA RESULT:    -4.922      0.000      0.000
REMARK INTER + INTRA:         -10.477
REMARK INTER:                  -8.663
REMARK INTRA:                  -1.814
REMARK UNBOUND:                -1.814
REMARK SMILES CCCCCCC=CCCCCCCCC(=O)[O-]
REMARK SMILES IDX 10 1 11 2 12 3 13 4 14 5 15 6 16 7 17 8 18 9 9 10 8 11 7 12
REMARK SMILES IDX 6 13 5 14 4 15 3 16 2 17 1 18
REMARK H PARENT
REMARK Flexibility Score: inf
ROOT
ATOM      1  C   UNL     1     -27.017 -35.085 -13.519  1.00  0.00     0.004 C 
ENDROOT
BRANCH   1   2
ATOM      2  C   UNL     1     -25.679 -35.826 -13.399  1.00  0.00     0.000 C 
BRANCH   2   3
ATOM      3  C   UNL     1     -24.811 -35.217 -12.290  1.00  0.00     0.000 C 
BRANCH   3   4
ATOM      4  C   UNL     1     -23.349 -35.687 -12.356  1.00  0.00     0.000 C 
BRANCH   4   5
ATOM      5  C   UNL     1     -22.405 -34.612 -12.912  1.00  0.00     0.006 C 
BRANCH   5   6
ATOM      6  C   UNL     1     -20.949 -35.085 -12.869  1.00  0.00     0.053 C 
BRANCH   6   7
ATOM      7  C   UNL     1     -20.370 -34.874 -11.506  1.00  0.00     0.041 C 
ATOM      8  O   UNL     1     -20.021 -35.863 -10.806  1.00  0.00    -0.550 OA
ATOM      9  O   UNL     1     -20.167 -33.587 -11.027  1.00  0.00    -0.550 OA
ENDBRANCH   6   7
ENDBRANCH   5   6
ENDBRANCH   4   5
ENDBRANCH   3   4
ENDBRANCH   2   3
ENDBRANCH   1   2
BRANCH   1  10
ATOM     10  C   UNL     1     -27.627 -34.824 -12.136  1.00  0.00     0.027 C 
BRANCH  10  11
ATOM     11  C   UNL     1     -28.056 -33.390 -11.993  1.00  0.00    -0.031 C 
ATOM     12  C   UNL     1     -27.976 -32.527 -13.018  1.00  0.00    -0.031 C 
BRANCH  12  13
ATOM     13  C   UNL     1     -28.415 -31.094 -12.879  1.00  0.00     0.027 C 
BRANCH  13  14
ATOM     14  C   UNL     1     -28.069 -30.506 -11.504  1.00  0.00     0.004 C 
BRANCH  14  15
ATOM     15  C   UNL     1     -26.572 -30.176 -11.374  1.00  0.00     0.000 C 
BRANCH  15  16
ATOM     16  C   UNL     1     -25.871 -31.055 -10.315  1.00  0.00    -0.000 C 
BRANCH  16  17
ATOM     17  C   UNL     1     -24.643 -31.807 -10.854  1.00  0.00    -0.003 C 
ATOM     18  C   UNL     1     -24.393 -31.557 -12.340  1.00  0.00     0.004 C 
ENDBRANCH  16  17
ENDBRANCH  15  16
ENDBRANCH  14  15
ENDBRANCH  13  14
ENDBRANCH  12  13
ENDBRANCH  10  11
ENDBRANCH   1  10
TORSDOF 13
ENDMDL
MODEL 2
REMARK VINA RESULT:    -4.839      2.744      6.336
REMARK INTER + INTRA:         -10.330
REMARK INTER:                  -8.541
REMARK INTRA:                  -1.789
REMARK UNBOUND:                -1.814
REMARK SMILES CCCCCCC=CCCCCCCCC(=O)[O-]
REMARK SMILES IDX 10 1 11 2 12 3 13 4 14 5 15 6 16 7 17 8 18 9 9 10 8 11 7 12
REMARK SMILES IDX 6 13 5 14 4 15 3 16 2 17 1 18
REMARK H PARENT
REMARK Flexibility Score: inf
ROOT
ATOM      1  C   UNL     1     -24.968 -31.657 -12.248  1.00  0.00     0.004 C 
ENDROOT
BRANCH   1   2
ATOM      2  C   UNL     1     -25.826 -31.589 -10.979  1.00  0.00     0.000 C 
BRANCH   2   3
ATOM      3  C   UNL     1     -27.260 -31.150 -11.308  1.00  0.00     0.000 C 
BRANCH   3   4
ATOM      4  C   UNL     1     -27.677 -31.513 -12.743  1.00  0.00     0.000 C 
BRANCH   4   5
ATOM      5  C   UNL     1     -28.438 -32.843 -12.820  1.00  0.00     0.006 C 
BRANCH   5   6
ATOM      6  C   UNL     1     -27.736 -33.822 -13.766  1.00  0.00     0.053 C 
BRANCH   6   7
ATOM      7  C   UNL     1     -26.920 -34.808 -12.990  1.00  0.00     0.041 C 
ATOM      8  O   UNL     1     -26.989 -34.836 -11.732  1.00  0.00    -0.550 OA
ATOM      9  O   UNL     1     -26.123 -35.729 -13.657  1.00  0.00    -0.550 OA
ENDBRANCH   6   7
ENDBRANCH   5   6
ENDBRANCH   4   5
ENDBRANCH   3   4
ENDBRANCH   2   3
ENDBRANCH   1   2
BRANCH   1  10
ATOM     10  C   UNL     1     -23.478 -31.511 -11.913  1.00  0.00     0.027 C 
BRANCH  10  11
ATOM     11  C   UNL     1     -22.757 -32.823 -12.055  1.00  0.00    -0.031 C 
ATOM     12  C   UNL     1     -23.384 -33.924 -12.497  1.00  0.00    -0.031 C 
BRANCH  12  13
ATOM     13  C   UNL     1     -22.661 -35.236 -12.649  1.00  0.00     0.027 C 
BRANCH  13  14
ATOM     14  C   UNL     1     -21.179 -35.137 -12.260  1.00  0.00     0.004 C 
BRANCH  14  15
ATOM     15  C   UNL     1     -20.247 -35.364 -13.463  1.00  0.00     0.000 C 
BRANCH  15  16
ATOM     16  C   UNL     1     -19.687 -34.040 -14.024  1.00  0.00    -0.000 C 
BRANCH  16  17
ATOM     17  C   UNL     1     -20.597 -33.384 -15.076  1.00  0.00    -0.003 C 
ATOM     18  C   UNL     1     -20.548 -31.858 -15.042  1.00  0.00     0.004 C 
ENDBRANCH  16  17
ENDBRANCH  15  16
ENDBRANCH  14  15
ENDBRANCH  13  14
ENDBRANCH  12  13
ENDBRANCH  10  11
ENDBRANCH   1  10
TORSDOF 13
ENDMDL
MODEL 3
REMARK VINA RESULT:    -4.782      2.039      5.107
REMARK INTER + INTRA:         -10.230
REMARK INTER:                  -8.710
REMARK INTRA:                  -1.520
REMARK UNBOUND:                -1.814
REMARK SMILES CCCCCCC=CCCCCCCCC(=O)[O-]
REMARK SMILES IDX 10 1 11 2 12 3 13 4 14 5 15 6 16 7 17 8 18 9 9 10 8 11 7 12
REMARK SMILES IDX 6 13 5 14 4 15 3 16 2 17 1 18
REMARK H PARENT
REMARK Flexibility Score: inf
ROOT
ATOM      1  C   UNL     1     -28.239 -33.486 -12.782  1.00  0.00     0.004 C 
ENDROOT
BRANCH   1   2
ATOM      2  C   UNL     1     -28.373 -31.975 -13.002  1.00  0.00     0.000 C 
BRANCH   2   3
ATOM      3  C   UNL     1     -27.000 -31.289 -12.958  1.00  0.00     0.000 C 
BRANCH   3   4
ATOM      4  C   UNL     1     -26.858 -30.321 -11.773  1.00  0.00     0.000 C 
BRANCH   4   5
ATOM      5  C   UNL     1     -26.452 -31.030 -10.474  1.00  0.00     0.006 C 
BRANCH   5   6
ATOM      6  C   UNL     1     -25.169 -31.842 -10.670  1.00  0.00     0.053 C 
BRANCH   6   7
ATOM      7  C   UNL     1     -23.967 -30.957 -10.566  1.00  0.00     0.041 C 
ATOM      8  O   UNL     1     -23.624 -30.483  -9.450  1.00  0.00    -0.550 OA
ATOM      9  O   UNL     1     -23.195 -30.697 -11.691  1.00  0.00    -0.550 OA
ENDBRANCH   6   7
ENDBRANCH   5   6
ENDBRANCH   4   5
ENDBRANCH   3   4
ENDBRANCH   2   3
ENDBRANCH   1   2
BRANCH   1  10
ATOM     10  C   UNL     1     -28.030 -34.219 -14.113  1.00  0.00     0.027 C 
BRANCH  10  11
ATOM     11  C   UNL     1     -26.963 -35.273 -13.992  1.00  0.00    -0.031 C 
ATOM     12  C   UNL     1     -25.977 -35.173 -13.086  1.00  0.00    -0.031 C 
BRANCH  12  13
ATOM     13  C   UNL     1     -24.915 -36.232 -12.957  1.00  0.00     0.027 C 
BRANCH  13  14
ATOM     14  C   UNL     1     -23.623 -35.691 -12.325  1.00  0.00     0.004 C 
BRANCH  14  15
ATOM     15  C   UNL     1     -23.354 -34.228 -12.717  1.00  0.00     0.000 C 
BRANCH  15  16
ATOM     16  C   UNL     1     -21.858 -33.863 -12.611  1.00  0.00    -0.000 C 
BRANCH  16  17
ATOM     17  C   UNL     1     -20.984 -34.530 -13.686  1.00  0.00    -0.003 C 
ATOM     18  C   UNL     1     -20.615 -33.586 -14.828  1.00  0.00     0.004 C 
ENDBRANCH  16  17
ENDBRANCH  15  16
ENDBRANCH  14  15
ENDBRANCH  13  14
ENDBRANCH  12  13
ENDBRANCH  10  11
ENDBRANCH   1  10
TORSDOF 13
ENDMDL
MODEL 4
REMARK VINA RESULT:    -4.705      2.535      6.135
REMARK INTER + INTRA:         -10.095
REMARK INTER:                  -8.546
REMARK INTRA:                  -1.548
REMARK UNBOUND:                -1.814
REMARK SMILES CCCCCCC=CCCCCCCCC(=O)[O-]
REMARK SMILES IDX 10 1 11 2 12 3 13 4 14 5 15 6 16 7 17 8 18 9 9 10 8 11 7 12
REMARK SMILES IDX 6 13 5 14 4 15 3 16 2 17 1 18
REMARK H PARENT
REMARK Flexibility Score: inf
ROOT
ATOM      1  C   UNL     1     -25.999 -31.453 -10.417  1.00  0.00     0.004 C 
ENDROOT
BRANCH   1   2
ATOM      2  C   UNL     1     -27.172 -30.635 -10.970  1.00  0.00     0.000 C 
BRANCH   2   3
ATOM      3  C   UNL     1     -27.213 -30.701 -12.503  1.00  0.00     0.000 C 
BRANCH   3   4
ATOM      4  C   UNL     1     -28.461 -31.427 -13.032  1.00  0.00     0.000 C 
BRANCH   4   5
ATOM      5  C   UNL     1     -28.422 -32.939 -12.772  1.00  0.00     0.006 C 
BRANCH   5   6
ATOM      6  C   UNL     1     -27.247 -33.592 -13.507  1.00  0.00     0.053 C 
BRANCH   6   7
ATOM      7  C   UNL     1     -26.635 -34.667 -12.666  1.00  0.00     0.041 C 
ATOM      8  O   UNL     1     -26.868 -34.714 -11.429  1.00  0.00    -0.550 OA
ATOM      9  O   UNL     1     -25.848 -35.648 -13.256  1.00  0.00    -0.550 OA
ENDBRANCH   6   7
ENDBRANCH   5   6
ENDBRANCH   4   5
ENDBRANCH   3   4
ENDBRANCH   2   3
ENDBRANCH   1   2
BRANCH   1  10
ATOM     10  C   UNL     1     -24.701 -30.635 -10.432  1.00  0.00     0.027 C 
BRANCH  10  11
ATOM     11  C   UNL     1     -23.617 -31.348 -11.192  1.00  0.00    -0.031 C 
ATOM     12  C   UNL     1     -23.849 -32.511 -11.822  1.00  0.00    -0.031 C 
BRANCH  12  13
ATOM     13  C   UNL     1     -22.767 -33.220 -12.592  1.00  0.00     0.027 C 
BRANCH  13  14
ATOM     14  C   UNL     1     -21.702 -32.253 -13.131  1.00  0.00     0.004 C 
BRANCH  14  15
ATOM     15  C   UNL     1     -20.594 -32.985 -13.908  1.00  0.00     0.000 C 
BRANCH  15  16
ATOM     16  C   UNL     1     -20.895 -34.490 -14.074  1.00  0.00    -0.000 C 
BRANCH  16  17
ATOM     17  C   UNL     1     -19.808 -35.404 -13.484  1.00  0.00    -0.003 C 
ATOM     18  C   UNL     1     -20.102 -35.834 -12.049  1.00  0.00     0.004 C 
ENDBRANCH  16  17
ENDBRANCH  15  16
ENDBRANCH  14  15
ENDBRANCH  13  14
ENDBRANCH  12  13
ENDBRANCH  10  11
ENDBRANCH   1  10
TORSDOF 13
ENDMDL
MODEL 5
REMARK VINA RESULT:    -4.701      1.782      3.544
REMARK INTER + INTRA:         -10.088
REMARK INTER:                  -8.344
REMARK INTRA:                  -1.744
REMARK UNBOUND:                -1.814
REMARK SMILES CCCCCCC=CCCCCCCCC(=O)[O-]
REMARK SMILES IDX 10 1 11 2 12 3 13 4 14 5 15 6 16 7 17 8 18 9 9 10 8 11 7 12
REMARK SMILES IDX 6 13 5 14 4 15 3 16 2 17 1 18
REMARK H PARENT
REMARK Flexibility Score: inf
ROOT
ATOM      1  C   UNL     1     -23.230 -32.982 -12.243  1.00  0.00     0.004 C 
ENDROOT
BRANCH   1   2
ATOM      2  C   UNL     1     -23.931 -34.332 -12.435  1.00  0.00     0.000 C 
BRANCH   2   3
ATOM      3  C   UNL     1     -22.911 -35.449 -12.697  1.00  0.00     0.000 C 
BRANCH   3   4
ATOM      4  C   UNL     1     -21.464 -35.005 -12.430  1.00  0.00     0.000 C 
BRANCH   4   5
ATOM      5  C   UNL     1     -20.550 -35.200 -13.648  1.00  0.00     0.006 C 
BRANCH   5   6
ATOM      6  C   UNL     1     -19.538 -34.056 -13.762  1.00  0.00     0.053 C 
BRANCH   6   7
ATOM      7  C   UNL     1     -20.175 -32.851 -14.379  1.00  0.00     0.041 C 
ATOM      8  O   UNL     1     -20.181 -31.752 -13.762  1.00  0.00    -0.550 OA
ATOM      9  O   UNL     1     -20.717 -32.927 -15.655  1.00  0.00    -0.550 OA
ENDBRANCH   6   7
ENDBRANCH   5   6
ENDBRANCH   4   5
ENDBRANCH   3   4
ENDBRANCH   2   3
ENDBRANCH   1   2
BRANCH   1  10
ATOM     10  C   UNL     1     -23.952 -32.131 -11.191  1.00  0.00     0.027 C 
BRANCH  10  11
ATOM     11  C   UNL     1     -25.312 -31.709 -11.674  1.00  0.00    -0.031 C 
ATOM     12  C   UNL     1     -26.263 -31.295 -10.820  1.00  0.00    -0.031 C 
BRANCH  12  13
ATOM     13  C   UNL     1     -27.622 -30.862 -11.302  1.00  0.00     0.027 C 
BRANCH  13  14
ATOM     14  C   UNL     1     -27.820 -31.120 -12.803  1.00  0.00     0.004 C 
BRANCH  14  15
ATOM     15  C   UNL     1     -28.569 -32.437 -13.073  1.00  0.00     0.000 C 
BRANCH  15  16
ATOM     16  C   UNL     1     -27.692 -33.462 -13.823  1.00  0.00    -0.000 C 
BRANCH  16  17
ATOM     17  C   UNL     1     -27.537 -34.799 -13.080  1.00  0.00    -0.003 C 
ATOM     18  C   UNL     1     -27.664 -34.660 -11.564  1.00  0.00     0.004 C 
ENDBRANCH  16  17
ENDBRANCH  15  16
ENDBRANCH  14  15
ENDBRANCH  13  14
ENDBRANCH  12  13
ENDBRANCH  10  11
ENDBRANCH   1  10
TORSDOF 13
ENDMDL
MODEL 6
REMARK VINA RESULT:    -4.689      2.198      4.661
REMARK INTER + INTRA:         -10.066
REMARK INTER:                  -8.174
REMARK INTRA:                  -1.892
REMARK UNBOUND:                -1.814
REMARK SMILES CCCCCCC=CCCCCCCCC(=O)[O-]
REMARK SMILES IDX 10 1 11 2 12 3 13 4 14 5 15 6 16 7 17 8 18 9 9 10 8 11 7 12
REMARK SMILES IDX 6 13 5 14 4 15 3 16 2 17 1 18
REMARK H PARENT
REMARK Flexibility Score: inf
ROOT
ATOM      1  C   UNL     1     -27.748 -30.808 -12.633  1.00  0.00     0.004 C 
ENDROOT
BRANCH   1   2
ATOM      2  C   UNL     1     -28.578 -32.044 -13.002  1.00  0.00     0.000 C 
BRANCH   2   3
ATOM      3  C   UNL     1     -27.672 -33.252 -13.276  1.00  0.00     0.000 C 
BRANCH   3   4
ATOM      4  C   UNL     1     -27.857 -34.378 -12.246  1.00  0.00     0.000 C 
BRANCH   4   5
ATOM      5  C   UNL     1     -26.597 -34.625 -11.405  1.00  0.00     0.006 C 
BRANCH   5   6
ATOM      6  C   UNL     1     -25.332 -34.289 -12.200  1.00  0.00     0.053 C 
BRANCH   6   7
ATOM      7  C   UNL     1     -24.648 -35.541 -12.649  1.00  0.00     0.041 C 
ATOM      8  O   UNL     1     -25.255 -36.368 -13.382  1.00  0.00    -0.550 OA
ATOM      9  O   UNL     1     -23.323 -35.773 -12.302  1.00  0.00    -0.550 OA
ENDBRANCH   6   7
ENDBRANCH   5   6
ENDBRANCH   4   5
ENDBRANCH   3   4
ENDBRANCH   2   3
ENDBRANCH   1   2
BRANCH   1  10
ATOM     10  C   UNL     1     -27.303 -30.862 -11.166  1.00  0.00     0.027 C 
BRANCH  10  11
ATOM     11  C   UNL     1     -25.815 -30.686 -11.042  1.00  0.00    -0.031 C 
ATOM     12  C   UNL     1     -25.004 -30.788 -12.108  1.00  0.00    -0.031 C 
BRANCH  12  13
ATOM     13  C   UNL     1     -23.515 -30.602 -11.987  1.00  0.00     0.027 C 
BRANCH  13  14
ATOM     14  C   UNL     1     -22.860 -31.681 -11.112  1.00  0.00     0.004 C 
BRANCH  14  15
ATOM     15  C   UNL     1     -21.929 -32.599 -11.923  1.00  0.00     0.000 C 
BRANCH  15  16
ATOM     16  C   UNL     1     -21.009 -31.804 -12.874  1.00  0.00    -0.000 C 
BRANCH  16  17
ATOM     17  C   UNL     1     -20.812 -32.475 -14.243  1.00  0.00    -0.003 C 
ATOM     18  C   UNL     1     -20.953 -33.994 -14.191  1.00  0.00     0.004 C 
ENDBRANCH  16  17
ENDBRANCH  15  16
ENDBRANCH  14  15
ENDBRANCH  13  14
ENDBRANCH  12  13
ENDBRANCH  10  11
ENDBRANCH   1  10
TORSDOF 13
ENDMDL
MODEL 7
REMARK VINA RESULT:    -4.656      2.832      5.806
REMARK INTER + INTRA:         -10.009
REMARK INTER:                  -8.183
REMARK INTRA:                  -1.827
REMARK UNBOUND:                -1.814
REMARK SMILES CCCCCCC=CCCCCCCCC(=O)[O-]
REMARK SMILES IDX 10 1 11 2 12 3 13 4 14 5 15 6 16 7 17 8 18 9 9 10 8 11 7 12
REMARK SMILES IDX 6 13 5 14 4 15 3 16 2 17 1 18
REMARK H PARENT
REMARK Flexibility Score: inf
ROOT
ATOM      1  C   UNL     1     -26.079 -34.779 -11.116  1.00  0.00     0.004 C 
ENDROOT
BRANCH   1   2
ATOM      2  C   UNL     1     -27.536 -34.763 -11.595  1.00  0.00     0.000 C 
BRANCH   2   3
ATOM      3  C   UNL     1     -27.611 -34.793 -13.128  1.00  0.00     0.000 C 
BRANCH   3   4
ATOM      4  C   UNL     1     -27.737 -33.390 -13.743  1.00  0.00     0.000 C 
BRANCH   4   5
ATOM      5  C   UNL     1     -28.573 -32.436 -12.878  1.00  0.00     0.006 C 
BRANCH   5   6
ATOM      6  C   UNL     1     -28.083 -30.993 -13.021  1.00  0.00     0.053 C 
BRANCH   6   7
ATOM      7  C   UNL     1     -26.890 -30.755 -12.150  1.00  0.00     0.041 C 
ATOM      8  O   UNL     1     -25.937 -30.042 -12.562  1.00  0.00    -0.550 OA
ATOM      9  O   UNL     1     -26.853 -31.278 -10.864  1.00  0.00    -0.550 OA
ENDBRANCH   6   7
ENDBRANCH   5   6
ENDBRANCH   4   5
ENDBRANCH   3   4
ENDBRANCH   2   3
ENDBRANCH   1   2
BRANCH   1  10
ATOM     10  C   UNL     1     -25.140 -35.267 -12.227  1.00  0.00     0.027 C 
BRANCH  10  11
ATOM     11  C   UNL     1     -24.120 -34.220 -12.576  1.00  0.00    -0.031 C 
ATOM     12  C   UNL     1     -24.000 -33.090 -11.861  1.00  0.00    -0.031 C 
BRANCH  12  13
ATOM     13  C   UNL     1     -22.972 -32.045 -12.203  1.00  0.00     0.027 C 
BRANCH  13  14
ATOM     14  C   UNL     1     -21.738 -32.116 -11.293  1.00  0.00     0.004 C 
BRANCH  14  15
ATOM     15  C   UNL     1     -20.683 -33.103 -11.822  1.00  0.00     0.000 C 
BRANCH  15  16
ATOM     16  C   UNL     1     -20.432 -32.933 -13.335  1.00  0.00    -0.000 C 
BRANCH  16  17
ATOM     17  C   UNL     1     -20.728 -34.200 -14.154  1.00  0.00    -0.003 C 
ATOM     18  C   UNL     1     -20.339 -35.486 -13.428  1.00  0.00     0.004 C 
ENDBRANCH  16  17
ENDBRANCH  15  16
ENDBRANCH  14  15
ENDBRANCH  13  14
ENDBRANCH  12  13
ENDBRANCH  10  11
ENDBRANCH   1  10
TORSDOF 13
ENDMDL
MODEL 8
REMARK VINA RESULT:    -4.656      1.567      3.609
REMARK INTER + INTRA:         -10.008
REMARK INTER:                  -8.304
REMARK INTRA:                  -1.704
REMARK UNBOUND:                -1.814
REMARK SMILES CCCCCCC=CCCCCCCCC(=O)[O-]
REMARK SMILES IDX 10 1 11 2 12 3 13 4 14 5 15 6 16 7 17 8 18 9 9 10 8 11 7 12
REMARK SMILES IDX 6 13 5 14 4 15 3 16 2 17 1 18
REMARK H PARENT
REMARK Flexibility Score: inf
ROOT
ATOM      1  C   UNL     1     -23.650 -32.116 -11.491  1.00  0.00     0.004 C 
ENDROOT
BRANCH   1   2
ATOM      2  C   UNL     1     -22.128 -31.943 -11.571  1.00  0.00     0.000 C 
BRANCH   2   3
ATOM      3  C   UNL     1     -21.668 -31.795 -13.028  1.00  0.00     0.000 C 
BRANCH   3   4
ATOM      4  C   UNL     1     -20.470 -32.697 -13.366  1.00  0.00     0.000 C 
BRANCH   4   5
ATOM      5  C   UNL     1     -20.842 -33.847 -14.312  1.00  0.00     0.006 C 
BRANCH   5   6
ATOM      6  C   UNL     1     -20.448 -35.199 -13.713  1.00  0.00     0.053 C 
BRANCH   6   7
ATOM      7  C   UNL     1     -21.218 -35.461 -12.457  1.00  0.00     0.041 C 
ATOM      8  O   UNL     1     -20.612 -35.614 -11.363  1.00  0.00    -0.550 OA
ATOM      9  O   UNL     1     -22.606 -35.486 -12.484  1.00  0.00    -0.550 OA
ENDBRANCH   6   7
ENDBRANCH   5   6
ENDBRANCH   4   5
ENDBRANCH   3   4
ENDBRANCH   2   3
ENDBRANCH   1   2
BRANCH   1  10
ATOM     10  C   UNL     1     -24.246 -31.239 -10.382  1.00  0.00     0.027 C 
BRANCH  10  11
ATOM     11  C   UNL     1     -25.745 -31.185 -10.479  1.00  0.00    -0.031 C 
ATOM     12  C   UNL     1     -26.369 -31.056 -11.661  1.00  0.00    -0.031 C 
BRANCH  12  13
ATOM     13  C   UNL     1     -27.870 -31.012 -11.760  1.00  0.00     0.027 C 
BRANCH  13  14
ATOM     14  C   UNL     1     -28.400 -31.787 -12.976  1.00  0.00     0.004 C 
BRANCH  14  15
ATOM     15  C   UNL     1     -27.453 -32.924 -13.397  1.00  0.00     0.000 C 
BRANCH  15  16
ATOM     16  C   UNL     1     -27.974 -34.309 -12.957  1.00  0.00    -0.000 C 
BRANCH  16  17
ATOM     17  C   UNL     1     -27.603 -34.674 -11.510  1.00  0.00    -0.003 C 
ATOM     18  C   UNL     1     -26.098 -34.821 -11.297  1.00  0.00     0.004 C 
ENDBRANCH  16  17
ENDBRANCH  15  16
ENDBRANCH  14  15
ENDBRANCH  13  14
ENDBRANCH  12  13
ENDBRANCH  10  11
ENDBRANCH   1  10
TORSDOF 13
ENDMDL
MODEL 9
REMARK VINA RESULT:    -4.589      1.468      3.887
REMARK INTER + INTRA:          -9.891
REMARK INTER:                  -8.034
REMARK INTRA:                  -1.857
REMARK UNBOUND:                -1.814
REMARK SMILES CCCCCCC=CCCCCCCCC(=O)[O-]
REMARK SMILES IDX 10 1 11 2 12 3 13 4 14 5 15 6 16 7 17 8 18 9 9 10 8 11 7 12
REMARK SMILES IDX 6 13 5 14 4 15 3 16 2 17 1 18
REMARK H PARENT
REMARK Flexibility Score: inf
ROOT
ATOM      1  C   UNL     1     -27.483 -30.597 -11.143  1.00  0.00     0.004 C 
ENDROOT
BRANCH   1   2
ATOM      2  C   UNL     1     -26.258 -31.068 -10.351  1.00  0.00     0.000 C 
BRANCH   2   3
ATOM      3  C   UNL     1     -25.019 -30.235 -10.709  1.00  0.00     0.000 C 
BRANCH   3   4
ATOM      4  C   UNL     1     -23.704 -30.932 -10.325  1.00  0.00     0.000 C 
BRANCH   4   5
ATOM      5  C   UNL     1     -23.146 -31.810 -11.454  1.00  0.00     0.006 C 
BRANCH   5   6
ATOM      6  C   UNL     1     -21.656 -32.093 -11.243  1.00  0.00     0.053 C 
BRANCH   6   7
ATOM      7  C   UNL     1     -21.203 -33.211 -12.127  1.00  0.00     0.041 C 
ATOM      8  O   UNL     1     -20.504 -34.148 -11.657  1.00  0.00    -0.550 OA
ATOM      9  O   UNL     1     -21.595 -33.246 -13.459  1.00  0.00    -0.550 OA
ENDBRANCH   6   7
ENDBRANCH   5   6
ENDBRANCH   4   5
ENDBRANCH   3   4
ENDBRANCH   2   3
ENDBRANCH   1   2
BRANCH   1  10
ATOM     10  C   UNL     1     -27.131 -30.369 -12.619  1.00  0.00     0.027 C 
BRANCH  10  11
ATOM     11  C   UNL     1     -27.124 -31.664 -13.383  1.00  0.00    -0.031 C 
ATOM     12  C   UNL     1     -28.034 -32.623 -13.149  1.00  0.00    -0.031 C 
BRANCH  12  13
ATOM     13  C   UNL     1     -28.035 -33.915 -13.920  1.00  0.00     0.027 C 
BRANCH  13  14
ATOM     14  C   UNL     1     -27.440 -35.079 -13.114  1.00  0.00     0.004 C 
BRANCH  14  15
ATOM     15  C   UNL     1     -27.358 -34.762 -11.611  1.00  0.00     0.000 C 
BRANCH  15  16
ATOM     16  C   UNL     1     -25.901 -34.723 -11.102  1.00  0.00    -0.000 C 
BRANCH  16  17
ATOM     17  C   UNL     1     -24.868 -34.474 -12.213  1.00  0.00    -0.003 C 
ATOM     18  C   UNL     1     -23.938 -35.663 -12.443  1.00  0.00     0.004 C 
ENDBRANCH  16  17
ENDBRANCH  15  16
ENDBRANCH  14  15
ENDBRANCH  13  14
ENDBRANCH  12  13
ENDBRANCH  10  11
ENDBRANCH   1  10
TORSDOF 13
ENDMDL
