MODEL 1
REMARK VINA RESULT:    -5.326      0.000      0.000
REMARK INTER + INTRA:          -6.540
REMARK INTER:                  -6.261
REMARK INTRA:                  -0.279
REMARK UNBOUND:                -0.279
REMARK SMILES C=CC(C)=CCC=C(C)C
REMARK SMILES IDX 5 1 3 2 4 3 6 4 7 5 9 6 8 7 10 8 2 9 1 10
REMARK H PARENT
REMARK Flexibility Score: inf
ROOT
ATOM      1  C   UNL     1       5.475   7.964  12.169  1.00  0.00    -0.020 C 
ATOM      2  C   UNL     1       5.536   6.722  12.696  1.00  0.00    -0.055 C 
ATOM      3  C   UNL     1       4.472   5.681  12.424  1.00  0.00     0.044 C 
ENDROOT
BRANCH   1   4
ATOM      4  C   UNL     1       4.368   8.471  11.283  1.00  0.00     0.055 C 
BRANCH   4   5
ATOM      5  C   UNL     1       4.526   9.943  10.983  1.00  0.00    -0.024 C 
ATOM      6  C   UNL     1       3.940  12.327  11.101  1.00  0.00     0.039 C 
ATOM      7  C   UNL     1       3.689  10.886  11.462  1.00  0.00    -0.080 C 
ATOM      8  C   UNL     1       2.517  10.528  12.346  1.00  0.00     0.039 C 
ENDBRANCH   4   5
ENDBRANCH   1   4
BRANCH   2   9
ATOM      9  C   UNL     1       6.730   6.372  13.509  1.00  0.00    -0.005 C 
ATOM     10  C   UNL     1       7.441   7.265  14.199  1.00  0.00     0.009 C 
ENDBRANCH   2   9
TORSDOF 3
ENDMDL
MODEL 2
REMARK VINA RESULT:    -5.044      0.765      5.044
REMARK INTER + INTRA:          -6.208
REMARK INTER:                  -5.923
REMARK INTRA:                  -0.285
REMARK UNBOUND:                -0.279
REMARK SMILES C=CC(C)=CCC=C(C)C
REMARK SMILES IDX 5 1 3 2 4 3 6 4 7 5 9 6 8 7 10 8 2 9 1 10
REMARK H PARENT
REMARK Flexibility Score: inf
ROOT
ATOM      1  C   UNL     1       4.394  10.296  11.256  1.00  0.00    -0.020 C 
ATOM      2  C   UNL     1       3.481  11.066  11.886  1.00  0.00    -0.055 C 
ATOM      3  C   UNL     1       2.352  10.472  12.699  1.00  0.00     0.044 C 
ENDROOT
BRANCH   1   4
ATOM      4  C   UNL     1       4.402   8.789  11.262  1.00  0.00     0.055 C 
BRANCH   4   5
ATOM      5  C   UNL     1       5.576   8.243  12.038  1.00  0.00    -0.024 C 
ATOM      6  C   UNL     1       6.821   6.558  13.324  1.00  0.00     0.039 C 
ATOM      7  C   UNL     1       5.596   7.002  12.568  1.00  0.00    -0.080 C 
ATOM      8  C   UNL     1       4.424   6.060  12.418  1.00  0.00     0.039 C 
ENDBRANCH   4   5
ENDBRANCH   1   4
BRANCH   2   9
ATOM      9  C   UNL     1       3.654  12.541  11.818  1.00  0.00    -0.005 C 
ATOM     10  C   UNL     1       3.991  13.294  12.865  1.00  0.00     0.009 C 
ENDBRANCH   2   9
TORSDOF 3
ENDMDL
MODEL 3
REMARK VINA RESULT:    -4.968      1.077      2.025
REMARK INTER + INTRA:          -6.119
REMARK INTER:                  -5.889
REMARK INTRA:                  -0.230
REMARK UNBOUND:                -0.279
REMARK SMILES C=CC(C)=CCC=C(C)C
REMARK SMILES IDX 5 1 3 2 4 3 6 4 7 5 9 6 8 7 10 8 2 9 1 10
REMARK H PARENT
REMARK Flexibility Score: inf
ROOT
ATOM      1  C   UNL     1       5.181   7.537  12.022  1.00  0.00    -0.020 C 
ATOM      2  C   UNL     1       6.313   7.202  12.678  1.00  0.00    -0.055 C 
ATOM      3  C   UNL     1       7.395   8.215  12.980  1.00  0.00     0.044 C 
ENDROOT
BRANCH   1   4
ATOM      4  C   UNL     1       4.860   8.914  11.503  1.00  0.00     0.055 C 
BRANCH   4   5
ATOM      5  C   UNL     1       3.512   9.391  11.988  1.00  0.00    -0.024 C 
ATOM      6  C   UNL     1       1.741  11.041  12.412  1.00  0.00     0.039 C 
ATOM      7  C   UNL     1       3.108  10.674  11.896  1.00  0.00    -0.080 C 
ATOM      8  C   UNL     1       3.992  11.740  11.291  1.00  0.00     0.039 C 
ENDBRANCH   4   5
ENDBRANCH   1   4
BRANCH   2   9
ATOM      9  C   UNL     1       6.443   5.805  13.167  1.00  0.00    -0.005 C 
ATOM     10  C   UNL     1       7.336   4.936  12.692  1.00  0.00     0.009 C 
ENDBRANCH   2   9
TORSDOF 3
ENDMDL
MODEL 4
REMARK VINA RESULT:    -4.857      0.921      5.095
REMARK INTER + INTRA:          -5.988
REMARK INTER:                  -5.773
REMARK INTRA:                  -0.215
REMARK UNBOUND:                -0.279
REMARK SMILES C=CC(C)=CCC=C(C)C
REMARK SMILES IDX 5 1 3 2 4 3 6 4 7 5 9 6 8 7 10 8 2 9 1 10
REMARK H PARENT
REMARK Flexibility Score: inf
ROOT
ATOM      1  C   UNL     1       3.797   9.191  11.974  1.00  0.00    -0.020 C 
ATOM      2  C   UNL     1       3.330  10.452  11.856  1.00  0.00    -0.055 C 
ATOM      3  C   UNL     1       3.972  11.464  10.932  1.00  0.00     0.044 C 
ENDROOT
BRANCH   1   4
ATOM      4  C   UNL     1       4.994   8.643  11.242  1.00  0.00     0.055 C 
BRANCH   4   5
ATOM      5  C   UNL     1       6.105   8.270  12.194  1.00  0.00    -0.024 C 
ATOM      6  C   UNL     1       7.327   6.806  13.745  1.00  0.00     0.039 C 
ATOM      7  C   UNL     1       6.173   7.074  12.813  1.00  0.00    -0.080 C 
ATOM      8  C   UNL     1       5.125   6.008  12.593  1.00  0.00     0.039 C 
ENDBRANCH   4   5
ENDBRANCH   1   4
BRANCH   2   9
ATOM      9  C   UNL     1       2.103  10.810  12.615  1.00  0.00    -0.005 C 
ATOM     10  C   UNL     1       1.992  11.908  13.363  1.00  0.00     0.009 C 
ENDBRANCH   2   9
TORSDOF 3
ENDMDL
MODEL 5
REMARK VINA RESULT:    -4.589      0.937      1.488
REMARK INTER + INTRA:          -5.673
REMARK INTER:                  -5.365
REMARK INTRA:                  -0.308
REMARK UNBOUND:                -0.279
REMARK SMILES C=CC(C)=CCC=C(C)C
REMARK SMILES IDX 5 1 3 2 4 3 6 4 7 5 9 6 8 7 10 8 2 9 1 10
REMARK H PARENT
REMARK Flexibility Score: inf
ROOT
ATOM      1  C   UNL     1       5.900   7.890  12.308  1.00  0.00    -0.020 C 
ATOM      2  C   UNL     1       6.420   6.733  12.769  1.00  0.00    -0.055 C 
ATOM      3  C   UNL     1       5.759   5.397  12.514  1.00  0.00     0.044 C 
ENDROOT
BRANCH   1   4
ATOM      4  C   UNL     1       4.622   8.007  11.518  1.00  0.00     0.055 C 
BRANCH   4   5
ATOM      5  C   UNL     1       3.599   8.852  12.239  1.00  0.00    -0.024 C 
ATOM      6  C   UNL     1       2.339  10.903  12.736  1.00  0.00     0.039 C 
ATOM      7  C   UNL     1       3.386  10.153  11.954  1.00  0.00    -0.080 C 
ATOM      8  C   UNL     1       4.172  10.865  10.878  1.00  0.00     0.039 C 
ENDBRANCH   4   5
ENDBRANCH   1   4
BRANCH   2   9
ATOM      9  C   UNL     1       7.720   6.796  13.489  1.00  0.00    -0.005 C 
ATOM     10  C   UNL     1       8.241   7.924  13.973  1.00  0.00     0.009 C 
ENDBRANCH   2   9
TORSDOF 3
ENDMDL
MODEL 6
REMARK VINA RESULT:    -3.664      3.864      6.775
REMARK INTER + INTRA:          -4.586
REMARK INTER:                  -4.131
REMARK INTRA:                  -0.456
REMARK UNBOUND:                -0.279
REMARK SMILES C=CC(C)=CCC=C(C)C
REMARK SMILES IDX 5 1 3 2 4 3 6 4 7 5 9 6 8 7 10 8 2 9 1 10
REMARK H PARENT
REMARK Flexibility Score: inf
ROOT
ATOM      1  C   UNL     1       3.633  14.250  13.276  1.00  0.00    -0.020 C 
ATOM      2  C   UNL     1       3.977  14.776  12.081  1.00  0.00    -0.055 C 
ATOM      3  C   UNL     1       4.265  13.908  10.875  1.00  0.00     0.044 C 
ENDROOT
BRANCH   1   4
ATOM      4  C   UNL     1       3.511  12.778  13.567  1.00  0.00     0.055 C 
BRANCH   4   5
ATOM      5  C   UNL     1       2.101  12.283  13.348  1.00  0.00    -0.024 C 
ATOM      6  C   UNL     1       0.359  10.844  12.380  1.00  0.00     0.039 C 
ATOM      7  C   UNL     1       1.800  11.257  12.526  1.00  0.00    -0.080 C 
ATOM      8  C   UNL     1       2.872  10.521  11.755  1.00  0.00     0.039 C 
ENDBRANCH   4   5
ENDBRANCH   1   4
BRANCH   2   9
ATOM      9  C   UNL     1       3.999  16.257  11.956  1.00  0.00    -0.005 C 
ATOM     10  C   UNL     1       5.086  16.953  11.620  1.00  0.00     0.009 C 
ENDBRANCH   2   9
TORSDOF 3
ENDMDL
MODEL 7
REMARK VINA RESULT:    -3.615      2.124      4.143
REMARK INTER + INTRA:          -4.528
REMARK INTER:                  -4.290
REMARK INTRA:                  -0.238
REMARK UNBOUND:                -0.279
REMARK SMILES C=CC(C)=CCC=C(C)C
REMARK SMILES IDX 5 1 3 2 4 3 6 4 7 5 9 6 8 7 10 8 2 9 1 10
REMARK H PARENT
REMARK Flexibility Score: inf
ROOT
ATOM      1  C   UNL     1       4.194  11.441  11.413  1.00  0.00    -0.020 C 
ATOM      2  C   UNL     1       3.460  10.350  11.108  1.00  0.00    -0.055 C 
ATOM      3  C   UNL     1       1.967  10.424  10.875  1.00  0.00     0.044 C 
ENDROOT
BRANCH   1   4
ATOM      4  C   UNL     1       3.641  12.833  11.578  1.00  0.00     0.055 C 
BRANCH   4   5
ATOM      5  C   UNL     1       3.869  13.360  12.975  1.00  0.00    -0.024 C 
ATOM      6  C   UNL     1       3.409  13.609  15.376  1.00  0.00     0.039 C 
ATOM      7  C   UNL     1       3.091  13.025  14.025  1.00  0.00    -0.080 C 
ATOM      8  C   UNL     1       1.918  12.085  13.871  1.00  0.00     0.039 C 
ENDBRANCH   4   5
ENDBRANCH   1   4
BRANCH   2   9
ATOM      9  C   UNL     1       4.178   9.060  10.933  1.00  0.00    -0.005 C 
ATOM     10  C   UNL     1       5.216   8.685  11.681  1.00  0.00     0.009 C 
ENDBRANCH   2   9
TORSDOF 3
ENDMDL
MODEL 8
REMARK VINA RESULT:    -3.164      2.736      5.448
REMARK INTER + INTRA:          -3.998
REMARK INTER:                  -3.769
REMARK INTRA:                  -0.230
REMARK UNBOUND:                -0.279
REMARK SMILES C=CC(C)=CCC=C(C)C
REMARK SMILES IDX 5 1 3 2 4 3 6 4 7 5 9 6 8 7 10 8 2 9 1 10
REMARK H PARENT
REMARK Flexibility Score: inf
ROOT
ATOM      1  C   UNL     1       3.297  12.563  11.387  1.00  0.00    -0.020 C 
ATOM      2  C   UNL     1       2.874  11.398  11.922  1.00  0.00    -0.055 C 
ATOM      3  C   UNL     1       1.952  11.351  13.120  1.00  0.00     0.044 C 
ENDROOT
BRANCH   1   4
ATOM      4  C   UNL     1       2.935  13.930  11.904  1.00  0.00     0.055 C 
BRANCH   4   5
ATOM      5  C   UNL     1       4.101  14.886  11.812  1.00  0.00    -0.024 C 
ATOM      6  C   UNL     1       5.214  17.017  11.303  1.00  0.00     0.039 C 
ATOM      7  C   UNL     1       3.985  16.148  11.352  1.00  0.00    -0.080 C 
ATOM      8  C   UNL     1       2.657  16.701  10.889  1.00  0.00     0.039 C 
ENDBRANCH   4   5
ENDBRANCH   1   4
BRANCH   2   9
ATOM      9  C   UNL     1       3.288  10.137  11.251  1.00  0.00    -0.005 C 
ATOM     10  C   UNL     1       4.444   9.518  11.490  1.00  0.00     0.009 C 
ENDBRANCH   2   9
TORSDOF 3
ENDMDL
