MODEL 1
REMARK VINA RESULT:    -5.595      0.000      0.000
REMARK INTER + INTRA:          -6.121
REMARK INTER:                  -6.086
REMARK INTRA:                  -0.035
REMARK UNBOUND:                -0.035
REMARK SMILES O=C([O-])c1ccc(O)cc1
REMARK SMILES IDX 4 1 5 2 10 3 6 4 9 5 7 6 2 7 1 8 3 9 8 10
REMARK H PARENT 8 11
REMARK Flexibility Score: inf
ROOT
ATOM      1  C   UNL     1     -13.154   1.168  -9.659  1.00  0.00    -0.003 A 
ATOM      2  C   UNL     1     -11.861   0.622  -9.749  1.00  0.00     0.014 A 
ATOM      3  C   UNL     1     -13.297   2.539  -9.378  1.00  0.00     0.014 A 
ATOM      4  C   UNL     1     -10.735   1.430  -9.561  1.00  0.00     0.047 A 
ATOM      5  C   UNL     1     -12.168   3.344  -9.190  1.00  0.00     0.047 A 
ATOM      6  C   UNL     1     -10.885   2.791  -9.281  1.00  0.00     0.115 A 
ENDROOT
BRANCH   1   7
ATOM      7  C   UNL     1     -14.349   0.318  -9.857  1.00  0.00     0.071 C 
ATOM      8  O   UNL     1     -15.465   0.836 -10.125  1.00  0.00    -0.545 OA
ATOM      9  O   UNL     1     -14.255  -1.065  -9.749  1.00  0.00    -0.545 OA
ENDBRANCH   1   7
BRANCH   6  10
ATOM     10  O   UNL     1      -9.754   3.584  -9.096  1.00  0.00    -0.508 OA
ATOM     11  H   UNL     1      -9.050   3.678  -9.818  1.00  0.00     0.293 HD
ENDBRANCH   6  10
TORSDOF 2
ENDMDL
MODEL 2
REMARK VINA RESULT:    -4.500     15.558     16.612
REMARK INTER + INTRA:          -4.930
REMARK INTER:                  -4.902
REMARK INTRA:                  -0.028
REMARK UNBOUND:                -0.035
REMARK SMILES O=C([O-])c1ccc(O)cc1
REMARK SMILES IDX 4 1 5 2 10 3 6 4 9 5 7 6 2 7 1 8 3 9 8 10
REMARK H PARENT 8 11
REMARK Flexibility Score: inf
ROOT
ATOM      1  C   UNL     1     -11.101   5.467   5.858  1.00  0.00    -0.003 A 
ATOM      2  C   UNL     1     -10.545   4.724   6.914  1.00  0.00     0.014 A 
ATOM      3  C   UNL     1     -12.369   5.109   5.365  1.00  0.00     0.014 A 
ATOM      4  C   UNL     1     -11.243   3.644   7.466  1.00  0.00     0.047 A 
ATOM      5  C   UNL     1     -13.064   4.028   5.919  1.00  0.00     0.047 A 
ATOM      6  C   UNL     1     -12.502   3.294   6.971  1.00  0.00     0.115 A 
ENDROOT
BRANCH   1   7
ATOM      7  C   UNL     1     -10.367   6.610   5.270  1.00  0.00     0.071 C 
ATOM      8  O   UNL     1      -9.363   6.416   4.535  1.00  0.00    -0.545 OA
ATOM      9  O   UNL     1     -10.777   7.914   5.521  1.00  0.00    -0.545 OA
ENDBRANCH   1   7
BRANCH   6  10
ATOM     10  O   UNL     1     -13.186   2.216   7.530  1.00  0.00    -0.508 OA
ATOM     11  H   UNL     1     -14.078   2.339   7.993  1.00  0.00     0.293 HD
ENDBRANCH   6  10
TORSDOF 2
ENDMDL
MODEL 3
REMARK VINA RESULT:    -4.494     15.879     16.494
REMARK INTER + INTRA:          -4.923
REMARK INTER:                  -4.896
REMARK INTRA:                  -0.027
REMARK UNBOUND:                -0.035
REMARK SMILES O=C([O-])c1ccc(O)cc1
REMARK SMILES IDX 4 1 5 2 10 3 6 4 9 5 7 6 2 7 1 8 3 9 8 10
REMARK H PARENT 8 11
REMARK Flexibility Score: inf
ROOT
ATOM      1  C   UNL     1     -11.820   3.994   5.837  1.00  0.00    -0.003 A 
ATOM      2  C   UNL     1     -10.808   4.933   6.104  1.00  0.00     0.014 A 
ATOM      3  C   UNL     1     -12.455   3.351   6.915  1.00  0.00     0.014 A 
ATOM      4  C   UNL     1     -10.440   5.224   7.422  1.00  0.00     0.047 A 
ATOM      5  C   UNL     1     -12.084   3.644   8.232  1.00  0.00     0.047 A 
ATOM      6  C   UNL     1     -11.076   4.581   8.488  1.00  0.00     0.115 A 
ENDROOT
BRANCH   1   7
ATOM      7  C   UNL     1     -12.213   3.682   4.445  1.00  0.00     0.071 C 
ATOM      8  O   UNL     1     -11.508   2.915   3.738  1.00  0.00    -0.545 OA
ATOM      9  O   UNL     1     -13.366   4.233   3.898  1.00  0.00    -0.545 OA
ENDBRANCH   1   7
BRANCH   6  10
ATOM     10  O   UNL     1     -10.699   4.880   9.796  1.00  0.00    -0.508 OA
ATOM     11  H   UNL     1     -11.295   4.651  10.583  1.00  0.00     0.293 HD
ENDBRANCH   6  10
TORSDOF 2
ENDMDL
MODEL 4
REMARK VINA RESULT:    -4.490     15.938     16.550
REMARK INTER + INTRA:          -4.919
REMARK INTER:                  -4.892
REMARK INTRA:                  -0.027
REMARK UNBOUND:                -0.035
REMARK SMILES O=C([O-])c1ccc(O)cc1
REMARK SMILES IDX 4 1 5 2 10 3 6 4 9 5 7 6 2 7 1 8 3 9 8 10
REMARK H PARENT 8 11
REMARK Flexibility Score: inf
ROOT
ATOM      1  C   UNL     1     -11.810   4.003   5.898  1.00  0.00    -0.003 A 
ATOM      2  C   UNL     1     -12.448   3.374   6.982  1.00  0.00     0.014 A 
ATOM      3  C   UNL     1     -10.788   4.935   6.155  1.00  0.00     0.014 A 
ATOM      4  C   UNL     1     -12.071   3.671   8.296  1.00  0.00     0.047 A 
ATOM      5  C   UNL     1     -10.414   5.230   7.471  1.00  0.00     0.047 A 
ATOM      6  C   UNL     1     -11.055   4.598   8.544  1.00  0.00     0.115 A 
ENDROOT
BRANCH   1   7
ATOM      7  C   UNL     1     -12.205   3.694   4.506  1.00  0.00     0.071 C 
ATOM      8  O   UNL     1     -11.494   2.939   3.792  1.00  0.00    -0.545 OA
ATOM      9  O   UNL     1     -13.367   4.233   3.967  1.00  0.00    -0.545 OA
ENDBRANCH   1   7
BRANCH   6  10
ATOM     10  O   UNL     1     -10.689   4.884   9.858  1.00  0.00    -0.508 OA
ATOM     11  H   UNL     1     -11.253   4.578  10.642  1.00  0.00     0.293 HD
ENDBRANCH   6  10
TORSDOF 2
ENDMDL
MODEL 5
REMARK VINA RESULT:    -4.421     16.140     16.858
REMARK INTER + INTRA:          -4.844
REMARK INTER:                  -4.812
REMARK INTRA:                  -0.032
REMARK UNBOUND:                -0.035
REMARK SMILES O=C([O-])c1ccc(O)cc1
REMARK SMILES IDX 4 1 5 2 10 3 6 4 9 5 7 6 2 7 1 8 3 9 8 10
REMARK H PARENT 8 11
REMARK Flexibility Score: inf
ROOT
ATOM      1  C   UNL     1     -11.869   3.937   7.446  1.00  0.00    -0.003 A 
ATOM      2  C   UNL     1     -11.729   2.680   6.831  1.00  0.00     0.014 A 
ATOM      3  C   UNL     1     -12.262   5.038   6.663  1.00  0.00     0.014 A 
ATOM      4  C   UNL     1     -11.976   2.528   5.462  1.00  0.00     0.047 A 
ATOM      5  C   UNL     1     -12.508   4.883   5.295  1.00  0.00     0.047 A 
ATOM      6  C   UNL     1     -12.366   3.627   4.692  1.00  0.00     0.115 A 
ENDROOT
BRANCH   1   7
ATOM      7  C   UNL     1     -11.609   4.104   8.892  1.00  0.00     0.071 C 
ATOM      8  O   UNL     1     -10.989   5.114   9.318  1.00  0.00    -0.545 OA
ATOM      9  O   UNL     1     -12.045   3.147   9.802  1.00  0.00    -0.545 OA
ENDBRANCH   1   7
BRANCH   6  10
ATOM     10  O   UNL     1     -12.609   3.461   3.330  1.00  0.00    -0.508 OA
ATOM     11  H   UNL     1     -11.864   3.533   2.647  1.00  0.00     0.293 HD
ENDBRANCH   6  10
TORSDOF 2
ENDMDL
MODEL 6
REMARK VINA RESULT:    -4.343      1.488      4.321
REMARK INTER + INTRA:          -4.759
REMARK INTER:                  -4.724
REMARK INTRA:                  -0.035
REMARK UNBOUND:                -0.035
REMARK SMILES O=C([O-])c1ccc(O)cc1
REMARK SMILES IDX 4 1 5 2 10 3 6 4 9 5 7 6 2 7 1 8 3 9 8 10
REMARK H PARENT 8 11
REMARK Flexibility Score: inf
ROOT
ATOM      1  C   UNL     1     -12.258   1.396  -9.608  1.00  0.00    -0.003 A 
ATOM      2  C   UNL     1     -13.651   1.206  -9.638  1.00  0.00     0.014 A 
ATOM      3  C   UNL     1     -11.414   0.280  -9.753  1.00  0.00     0.014 A 
ATOM      4  C   UNL     1     -14.188  -0.074  -9.811  1.00  0.00     0.047 A 
ATOM      5  C   UNL     1     -11.955  -0.999  -9.925  1.00  0.00     0.047 A 
ATOM      6  C   UNL     1     -13.343  -1.178  -9.954  1.00  0.00     0.115 A 
ENDROOT
BRANCH   1   7
ATOM      7  C   UNL     1     -11.684   2.748  -9.425  1.00  0.00     0.071 C 
ATOM      8  O   UNL     1     -12.377   3.773  -9.655  1.00  0.00    -0.545 OA
ATOM      9  O   UNL     1     -10.370   2.903  -8.998  1.00  0.00    -0.545 OA
ENDBRANCH   1   7
BRANCH   6  10
ATOM     10  O   UNL     1     -13.892  -2.448 -10.125  1.00  0.00    -0.508 OA
ATOM     11  H   UNL     1     -14.115  -3.038  -9.333  1.00  0.00     0.293 HD
ENDBRANCH   6  10
TORSDOF 2
ENDMDL
MODEL 7
REMARK VINA RESULT:    -4.296     14.996     15.736
REMARK INTER + INTRA:          -4.708
REMARK INTER:                  -4.679
REMARK INTRA:                  -0.029
REMARK UNBOUND:                -0.035
REMARK SMILES O=C([O-])c1ccc(O)cc1
REMARK SMILES IDX 4 1 5 2 10 3 6 4 9 5 7 6 2 7 1 8 3 9 8 10
REMARK H PARENT 8 11
REMARK Flexibility Score: inf
ROOT
ATOM      1  C   UNL     1     -13.209   5.151   5.547  1.00  0.00    -0.003 A 
ATOM      2  C   UNL     1     -12.806   4.447   6.696  1.00  0.00     0.014 A 
ATOM      3  C   UNL     1     -13.003   4.568   4.283  1.00  0.00     0.014 A 
ATOM      4  C   UNL     1     -12.210   3.187   6.583  1.00  0.00     0.047 A 
ATOM      5  C   UNL     1     -12.406   3.308   4.174  1.00  0.00     0.047 A 
ATOM      6  C   UNL     1     -12.009   2.615   5.324  1.00  0.00     0.115 A 
ENDROOT
BRANCH   1   7
ATOM      7  C   UNL     1     -13.840   6.485   5.660  1.00  0.00     0.071 C 
ATOM      8  O   UNL     1     -14.993   6.689   5.196  1.00  0.00    -0.545 OA
ATOM      9  O   UNL     1     -13.168   7.531   6.281  1.00  0.00    -0.545 OA
ENDBRANCH   1   7
BRANCH   6  10
ATOM     10  O   UNL     1     -11.413   1.358   5.226  1.00  0.00    -0.508 OA
ATOM     11  H   UNL     1     -11.661   0.605   5.856  1.00  0.00     0.293 HD
ENDBRANCH   6  10
TORSDOF 2
ENDMDL
MODEL 8
REMARK VINA RESULT:    -4.055      5.350      6.787
REMARK INTER + INTRA:          -4.446
REMARK INTER:                  -4.410
REMARK INTRA:                  -0.036
REMARK UNBOUND:                -0.035
REMARK SMILES O=C([O-])c1ccc(O)cc1
REMARK SMILES IDX 4 1 5 2 10 3 6 4 9 5 7 6 2 7 1 8 3 9 8 10
REMARK H PARENT 8 11
REMARK Flexibility Score: inf
ROOT
ATOM      1  C   UNL     1     -10.140  -3.022  -9.756  1.00  0.00    -0.003 A 
ATOM      2  C   UNL     1     -10.841  -4.214 -10.016  1.00  0.00     0.014 A 
ATOM      3  C   UNL     1      -8.793  -3.097  -9.358  1.00  0.00     0.014 A 
ATOM      4  C   UNL     1     -10.207  -5.453  -9.880  1.00  0.00     0.047 A 
ATOM      5  C   UNL     1      -8.162  -4.338  -9.223  1.00  0.00     0.047 A 
ATOM      6  C   UNL     1      -8.868  -5.519  -9.485  1.00  0.00     0.115 A 
ENDROOT
BRANCH   1   7
ATOM      7  C   UNL     1     -10.805  -1.708  -9.897  1.00  0.00     0.071 C 
ATOM      8  O   UNL     1     -10.141  -0.642  -9.813  1.00  0.00    -0.545 OA
ATOM      9  O   UNL     1     -12.175  -1.633 -10.125  1.00  0.00    -0.545 OA
ENDBRANCH   1   7
BRANCH   6  10
ATOM     10  O   UNL     1      -8.249  -6.761  -9.353  1.00  0.00    -0.508 OA
ATOM     11  H   UNL     1      -7.499  -6.910  -8.689  1.00  0.00     0.293 HD
ENDBRANCH   6  10
TORSDOF 2
ENDMDL
