MODEL 1
REMARK VINA RESULT:    -4.004      0.000      0.000
REMARK INTER + INTRA:          -5.667
REMARK INTER:                  -5.408
REMARK INTRA:                  -0.258
REMARK UNBOUND:                -0.258
REMARK SMILES CCCCCCCC(=O)[O-]
REMARK SMILES IDX 5 1 6 2 7 3 8 4 9 5 10 6 4 7 3 8 2 9 1 10
REMARK H PARENT
REMARK Flexibility Score: inf
ROOT
ATOM      1  C   UNL     1       4.865   8.069  -9.631  1.00  0.00     0.000 C 
ENDROOT
BRANCH   1   2
ATOM      2  C   UNL     1       4.733   8.124 -11.158  1.00  0.00     0.006 C 
BRANCH   2   3
ATOM      3  C   UNL     1       4.175   6.810 -11.710  1.00  0.00     0.053 C 
BRANCH   3   4
ATOM      4  C   UNL     1       3.635   7.009 -13.091  1.00  0.00     0.041 C 
ATOM      5  O   UNL     1       2.472   6.622 -13.378  1.00  0.00    -0.550 OA
ATOM      6  O   UNL     1       4.398   7.664 -14.048  1.00  0.00    -0.550 OA
ENDBRANCH   3   4
ENDBRANCH   2   3
ENDBRANCH   1   2
BRANCH   1   7
ATOM      7  C   UNL     1       4.381   6.720  -9.085  1.00  0.00     0.000 C 
BRANCH   7   8
ATOM      8  C   UNL     1       4.160   6.791  -7.566  1.00  0.00    -0.000 C 
BRANCH   8   9
ATOM      9  C   UNL     1       3.541   8.125  -7.121  1.00  0.00    -0.003 C 
ATOM     10  C   UNL     1       2.768   8.010  -5.807  1.00  0.00     0.004 C 
ENDBRANCH   8   9
ENDBRANCH   7   8
ENDBRANCH   1   7
TORSDOF 6
ENDMDL
MODEL 2
REMARK VINA RESULT:    -3.653      3.512      5.703
REMARK INTER + INTRA:          -5.193
REMARK INTER:                  -5.048
REMARK INTRA:                  -0.145
REMARK UNBOUND:                -0.258
REMARK SMILES CCCCCCCC(=O)[O-]
REMARK SMILES IDX 5 1 6 2 7 3 8 4 9 5 10 6 4 7 3 8 2 9 1 10
REMARK H PARENT
REMARK Flexibility Score: inf
ROOT
ATOM      1  C   UNL     1       4.554   6.968 -10.193  1.00  0.00     0.000 C 
ENDROOT
BRANCH   1   2
ATOM      2  C   UNL     1       4.546   7.687  -8.838  1.00  0.00     0.006 C 
BRANCH   2   3
ATOM      3  C   UNL     1       4.160   6.729  -7.708  1.00  0.00     0.053 C 
BRANCH   3   4
ATOM      4  C   UNL     1       3.544   7.481  -6.571  1.00  0.00     0.041 C 
ATOM      5  O   UNL     1       2.476   8.124  -6.741  1.00  0.00    -0.550 OA
ATOM      6  O   UNL     1       4.125   7.433  -5.311  1.00  0.00    -0.550 OA
ENDBRANCH   3   4
ENDBRANCH   2   3
ENDBRANCH   1   2
BRANCH   1   7
ATOM      7  C   UNL     1       4.658   7.970 -11.348  1.00  0.00     0.000 C 
BRANCH   7   8
ATOM      8  C   UNL     1       4.180   7.339 -12.666  1.00  0.00    -0.000 C 
BRANCH   8   9
ATOM      9  C   UNL     1       2.889   7.984 -13.194  1.00  0.00    -0.003 C 
ATOM     10  C   UNL     1       1.936   6.970 -13.826  1.00  0.00     0.004 C 
ENDBRANCH   8   9
ENDBRANCH   7   8
ENDBRANCH   1   7
TORSDOF 6
ENDMDL
MODEL 3
REMARK VINA RESULT:    -2.781     21.135     22.052
REMARK INTER + INTRA:          -4.015
REMARK INTER:                  -3.704
REMARK INTRA:                  -0.310
REMARK UNBOUND:                -0.258
REMARK SMILES CCCCCCCC(=O)[O-]
REMARK SMILES IDX 5 1 6 2 7 3 8 4 9 5 10 6 4 7 3 8 2 9 1 10
REMARK H PARENT
REMARK Flexibility Score: inf
ROOT
ATOM      1  C   UNL     1      -9.374  -8.401  -0.551  1.00  0.00     0.000 C 
ENDROOT
BRANCH   1   2
ATOM      2  C   UNL     1      -7.892  -8.009  -0.614  1.00  0.00     0.006 C 
BRANCH   2   3
ATOM      3  C   UNL     1      -7.172  -8.760  -1.737  1.00  0.00     0.053 C 
BRANCH   3   4
ATOM      4  C   UNL     1      -5.752  -9.037  -1.355  1.00  0.00     0.041 C 
ATOM      5  O   UNL     1      -5.122  -8.225  -0.629  1.00  0.00    -0.550 OA
ATOM      6  O   UNL     1      -5.141 -10.216  -1.761  1.00  0.00    -0.550 OA
ENDBRANCH   3   4
ENDBRANCH   2   3
ENDBRANCH   1   2
BRANCH   1   7
ATOM      7  C   UNL     1      -9.843  -8.999  -1.882  1.00  0.00     0.000 C 
BRANCH   7   8
ATOM      8  C   UNL     1     -10.968  -8.153  -2.498  1.00  0.00    -0.000 C 
BRANCH   8   9
ATOM      9  C   UNL     1     -10.874  -6.671  -2.104  1.00  0.00    -0.003 C 
ATOM     10  C   UNL     1     -11.125  -5.728  -3.281  1.00  0.00     0.004 C 
ENDBRANCH   8   9
ENDBRANCH   7   8
ENDBRANCH   1   7
TORSDOF 6
ENDMDL
MODEL 4
REMARK VINA RESULT:    -2.607     21.000     22.299
REMARK INTER + INTRA:          -3.779
REMARK INTER:                  -3.389
REMARK INTRA:                  -0.390
REMARK UNBOUND:                -0.258
REMARK SMILES CCCCCCCC(=O)[O-]
REMARK SMILES IDX 5 1 6 2 7 3 8 4 9 5 10 6 4 7 3 8 2 9 1 10
REMARK H PARENT
REMARK Flexibility Score: inf
ROOT
ATOM      1  C   UNL     1      -8.860  -7.673  -2.640  1.00  0.00     0.000 C 
ENDROOT
BRANCH   1   2
ATOM      2  C   UNL     1      -7.488  -8.357  -2.692  1.00  0.00     0.006 C 
BRANCH   2   3
ATOM      3  C   UNL     1      -7.012  -8.738  -1.287  1.00  0.00     0.053 C 
BRANCH   3   4
ATOM      4  C   UNL     1      -5.542  -9.018  -1.292  1.00  0.00     0.041 C 
ATOM      5  O   UNL     1      -5.090 -10.016  -1.913  1.00  0.00    -0.550 OA
ATOM      6  O   UNL     1      -4.667  -8.152  -0.651  1.00  0.00    -0.550 OA
ENDBRANCH   3   4
ENDBRANCH   2   3
ENDBRANCH   1   2
BRANCH   1   7
ATOM      7  C   UNL     1      -9.558  -7.937  -1.301  1.00  0.00     0.000 C 
BRANCH   7   8
ATOM      8  C   UNL     1     -10.982  -8.473  -1.521  1.00  0.00    -0.000 C 
BRANCH   8   9
ATOM      9  C   UNL     1     -11.107  -9.305  -2.807  1.00  0.00    -0.003 C 
ATOM     10  C   UNL     1     -11.066 -10.810  -2.544  1.00  0.00     0.004 C 
ENDBRANCH   8   9
ENDBRANCH   7   8
ENDBRANCH   1   7
TORSDOF 6
ENDMDL
MODEL 5
REMARK VINA RESULT:    -2.583     21.163     22.284
REMARK INTER + INTRA:          -3.748
REMARK INTER:                  -3.419
REMARK INTRA:                  -0.329
REMARK UNBOUND:                -0.258
REMARK SMILES CCCCCCCC(=O)[O-]
REMARK SMILES IDX 5 1 6 2 7 3 8 4 9 5 10 6 4 7 3 8 2 9 1 10
REMARK H PARENT
REMARK Flexibility Score: inf
ROOT
ATOM      1  C   UNL     1      -7.832 -10.257 -12.804  1.00  0.00     0.000 C 
ENDROOT
BRANCH   1   2
ATOM      2  C   UNL     1      -8.160 -11.745 -12.621  1.00  0.00     0.006 C 
BRANCH   2   3
ATOM      3  C   UNL     1      -8.405 -12.076 -11.146  1.00  0.00     0.053 C 
BRANCH   3   4
ATOM      4  C   UNL     1      -9.797 -11.697 -10.749  1.00  0.00     0.041 C 
ATOM      5  O   UNL     1     -10.760 -11.917 -11.530  1.00  0.00    -0.550 OA
ATOM      6  O   UNL     1     -10.037 -11.145  -9.498  1.00  0.00    -0.550 OA
ENDBRANCH   3   4
ENDBRANCH   2   3
ENDBRANCH   1   2
BRANCH   1   7
ATOM      7  C   UNL     1      -6.977 -10.032 -14.057  1.00  0.00     0.000 C 
BRANCH   7   8
ATOM      8  C   UNL     1      -5.780 -10.994 -14.084  1.00  0.00    -0.000 C 
BRANCH   8   9
ATOM      9  C   UNL     1      -4.461 -10.306 -13.698  1.00  0.00    -0.003 C 
ATOM     10  C   UNL     1      -4.508  -8.790 -13.885  1.00  0.00     0.004 C 
ENDBRANCH   8   9
ENDBRANCH   7   8
ENDBRANCH   1   7
TORSDOF 6
ENDMDL
MODEL 6
REMARK VINA RESULT:    -2.491     11.120     12.432
REMARK INTER + INTRA:          -3.623
REMARK INTER:                  -3.252
REMARK INTRA:                  -0.371
REMARK UNBOUND:                -0.258
REMARK SMILES CCCCCCCC(=O)[O-]
REMARK SMILES IDX 5 1 6 2 7 3 8 4 9 5 10 6 4 7 3 8 2 9 1 10
REMARK H PARENT
REMARK Flexibility Score: inf
ROOT
ATOM      1  C   UNL     1       6.536  -4.219 -12.060  1.00  0.00     0.000 C 
ENDROOT
BRANCH   1   2
ATOM      2  C   UNL     1       5.658  -2.990 -11.789  1.00  0.00     0.006 C 
BRANCH   2   3
ATOM      3  C   UNL     1       5.530  -2.119 -13.042  1.00  0.00     0.053 C 
BRANCH   3   4
ATOM      4  C   UNL     1       4.112  -2.091 -13.517  1.00  0.00     0.041 C 
ATOM      5  O   UNL     1       3.518  -3.164 -13.802  1.00  0.00    -0.550 OA
ATOM      6  O   UNL     1       3.430  -0.884 -13.599  1.00  0.00    -0.550 OA
ENDBRANCH   3   4
ENDBRANCH   2   3
ENDBRANCH   1   2
BRANCH   1   7
ATOM      7  C   UNL     1       6.900  -4.319 -13.546  1.00  0.00     0.000 C 
BRANCH   7   8
ATOM      8  C   UNL     1       6.651  -5.739 -14.077  1.00  0.00    -0.000 C 
BRANCH   8   9
ATOM      9  C   UNL     1       5.158  -6.098 -14.125  1.00  0.00    -0.003 C 
ATOM     10  C   UNL     1       4.906  -7.601 -14.010  1.00  0.00     0.004 C 
ENDBRANCH   8   9
ENDBRANCH   7   8
ENDBRANCH   1   7
TORSDOF 6
ENDMDL
MODEL 7
REMARK VINA RESULT:    -2.154     22.231     23.484
REMARK INTER + INTRA:          -3.168
REMARK INTER:                  -2.999
REMARK INTRA:                  -0.168
REMARK UNBOUND:                -0.258
REMARK SMILES CCCCCCCC(=O)[O-]
REMARK SMILES IDX 5 1 6 2 7 3 8 4 9 5 10 6 4 7 3 8 2 9 1 10
REMARK H PARENT
REMARK Flexibility Score: inf
ROOT
ATOM      1  C   UNL     1     -11.125  -9.020  -2.280  1.00  0.00     0.000 C 
ENDROOT
BRANCH   1   2
ATOM      2  C   UNL     1      -9.930  -8.561  -1.434  1.00  0.00     0.006 C 
BRANCH   2   3
ATOM      3  C   UNL     1      -8.717  -8.256  -2.317  1.00  0.00     0.053 C 
BRANCH   3   4
ATOM      4  C   UNL     1      -7.448  -8.459  -1.551  1.00  0.00     0.041 C 
ATOM      5  O   UNL     1      -7.419  -8.258  -0.308  1.00  0.00    -0.550 OA
ATOM      6  O   UNL     1      -6.309  -8.916  -2.200  1.00  0.00    -0.550 OA
ENDBRANCH   3   4
ENDBRANCH   2   3
ENDBRANCH   1   2
BRANCH   1   7
ATOM      7  C   UNL     1     -10.966 -10.482  -2.709  1.00  0.00     0.000 C 
BRANCH   7   8
ATOM      8  C   UNL     1     -10.774 -10.590  -4.230  1.00  0.00    -0.000 C 
BRANCH   8   9
ATOM      9  C   UNL     1     -11.101 -11.992  -4.767  1.00  0.00    -0.003 C 
ATOM     10  C   UNL     1     -11.125 -12.050  -6.294  1.00  0.00     0.004 C 
ENDBRANCH   8   9
ENDBRANCH   7   8
ENDBRANCH   1   7
TORSDOF 6
ENDMDL
MODEL 8
REMARK VINA RESULT:    -2.030     11.549     12.673
REMARK INTER + INTRA:          -3.000
REMARK INTER:                  -3.115
REMARK INTRA:                   0.115
REMARK UNBOUND:                -0.258
REMARK SMILES CCCCCCCC(=O)[O-]
REMARK SMILES IDX 5 1 6 2 7 3 8 4 9 5 10 6 4 7 3 8 2 9 1 10
REMARK H PARENT
REMARK Flexibility Score: inf
ROOT
ATOM      1  C   UNL     1       6.516  -4.373 -11.924  1.00  0.00     0.000 C 
ENDROOT
BRANCH   1   2
ATOM      2  C   UNL     1       7.014  -4.555 -13.364  1.00  0.00     0.006 C 
BRANCH   2   3
ATOM      3  C   UNL     1       6.861  -6.009 -13.818  1.00  0.00     0.053 C 
BRANCH   3   4
ATOM      4  C   UNL     1       5.416  -6.346 -14.015  1.00  0.00     0.041 C 
ATOM      5  O   UNL     1       4.561  -5.429 -14.125  1.00  0.00    -0.550 OA
ATOM      6  O   UNL     1       5.021  -7.673 -14.125  1.00  0.00    -0.550 OA
ENDBRANCH   3   4
ENDBRANCH   2   3
ENDBRANCH   1   2
BRANCH   1   7
ATOM      7  C   UNL     1       5.800  -3.028 -11.755  1.00  0.00     0.000 C 
BRANCH   7   8
ATOM      8  C   UNL     1       5.491  -2.395 -13.121  1.00  0.00    -0.000 C 
BRANCH   8   9
ATOM      9  C   UNL     1       4.003  -2.493 -13.493  1.00  0.00    -0.003 C 
ATOM     10  C   UNL     1       3.453  -1.193 -14.078  1.00  0.00     0.004 C 
ENDBRANCH   8   9
ENDBRANCH   7   8
ENDBRANCH   1   7
TORSDOF 6
ENDMDL
