MODEL 1
REMARK VINA RESULT:    -3.756      0.000      0.000
REMARK INTER + INTRA:          -5.597
REMARK INTER:                  -5.074
REMARK INTRA:                  -0.523
REMARK UNBOUND:                -0.523
REMARK SMILES CCCCCCCC(=O)[O-]
REMARK SMILES IDX 5 1 6 2 7 3 8 4 9 5 10 6 4 7 3 8 2 9 1 10
REMARK H PARENT
REMARK Flexibility Score: inf
ROOT
ATOM      1  C   UNL     1     183.042 184.204 181.018  1.00  0.00     0.000 C 
ENDROOT
BRANCH   1   2
ATOM      2  C   UNL     1     181.628 184.715 181.318  1.00  0.00     0.006 C 
BRANCH   2   3
ATOM      3  C   UNL     1     180.639 183.554 181.443  1.00  0.00     0.053 C 
BRANCH   3   4
ATOM      4  C   UNL     1     180.000 183.551 182.796  1.00  0.00     0.041 C 
ATOM      5  O   UNL     1     178.746 183.581 182.904  1.00  0.00    -0.550 OA
ATOM      6  O   UNL     1     180.788 183.468 183.936  1.00  0.00    -0.550 OA
ENDBRANCH   3   4
ENDBRANCH   2   3
ENDBRANCH   1   2
BRANCH   1   7
ATOM      7  C   UNL     1     183.112 182.677 181.136  1.00  0.00     0.000 C 
BRANCH   7   8
ATOM      8  C   UNL     1     183.785 182.060 179.904  1.00  0.00    -0.000 C 
BRANCH   8   9
ATOM      9  C   UNL     1     183.105 182.530 178.613  1.00  0.00    -0.003 C 
ATOM     10  C   UNL     1     181.831 181.737 178.341  1.00  0.00     0.004 C 
ENDBRANCH   8   9
ENDBRANCH   7   8
ENDBRANCH   1   7
TORSDOF 6
ENDMDL
MODEL 2
REMARK VINA RESULT:    -3.725      1.570      2.582
REMARK INTER + INTRA:          -5.555
REMARK INTER:                  -5.063
REMARK INTRA:                  -0.491
REMARK UNBOUND:                -0.523
REMARK SMILES CCCCCCCC(=O)[O-]
REMARK SMILES IDX 5 1 6 2 7 3 8 4 9 5 10 6 4 7 3 8 2 9 1 10
REMARK H PARENT
REMARK Flexibility Score: inf
ROOT
ATOM      1  C   UNL     1     180.111 181.002 181.268  1.00  0.00     0.000 C 
ENDROOT
BRANCH   1   2
ATOM      2  C   UNL     1     179.258 182.238 180.960  1.00  0.00     0.006 C 
BRANCH   2   3
ATOM      3  C   UNL     1     179.078 183.107 182.208  1.00  0.00     0.053 C 
BRANCH   3   4
ATOM      4  C   UNL     1     180.395 183.649 182.663  1.00  0.00     0.041 C 
ATOM      5  O   UNL     1     180.779 183.470 183.849  1.00  0.00    -0.550 OA
ATOM      6  O   UNL     1     181.222 184.311 181.766  1.00  0.00    -0.550 OA
ENDBRANCH   3   4
ENDBRANCH   2   3
ENDBRANCH   1   2
BRANCH   1   7
ATOM      7  C   UNL     1     181.282 180.882 180.284  1.00  0.00     0.000 C 
BRANCH   7   8
ATOM      8  C   UNL     1     180.871 181.340 178.880  1.00  0.00    -0.000 C 
BRANCH   8   9
ATOM      9  C   UNL     1     181.986 182.158 178.220  1.00  0.00    -0.003 C 
ATOM     10  C   UNL     1     183.114 182.447 179.205  1.00  0.00     0.004 C 
ENDBRANCH   8   9
ENDBRANCH   7   8
ENDBRANCH   1   7
TORSDOF 6
ENDMDL
MODEL 3
REMARK VINA RESULT:    -3.722      3.290      4.502
REMARK INTER + INTRA:          -5.550
REMARK INTER:                  -4.980
REMARK INTRA:                  -0.570
REMARK UNBOUND:                -0.523
REMARK SMILES CCCCCCCC(=O)[O-]
REMARK SMILES IDX 5 1 6 2 7 3 8 4 9 5 10 6 4 7 3 8 2 9 1 10
REMARK H PARENT
REMARK Flexibility Score: inf
ROOT
ATOM      1  C   UNL     1     182.305 182.972 180.601  1.00  0.00     0.000 C 
ENDROOT
BRANCH   1   2
ATOM      2  C   UNL     1     183.744 182.967 181.129  1.00  0.00     0.006 C 
BRANCH   2   3
ATOM      3  C   UNL     1     184.525 181.767 180.586  1.00  0.00     0.053 C 
BRANCH   3   4
ATOM      4  C   UNL     1     185.253 181.071 181.692  1.00  0.00     0.041 C 
ATOM      5  O   UNL     1     186.512 181.030 181.694  1.00  0.00    -0.550 OA
ATOM      6  O   UNL     1     184.545 180.511 182.746  1.00  0.00    -0.550 OA
ENDBRANCH   3   4
ENDBRANCH   2   3
ENDBRANCH   1   2
BRANCH   1   7
ATOM      7  C   UNL     1     182.051 181.770 179.684  1.00  0.00     0.000 C 
BRANCH   7   8
ATOM      8  C   UNL     1     180.759 181.042 180.075  1.00  0.00    -0.000 C 
BRANCH   8   9
ATOM      9  C   UNL     1     180.971 180.176 181.321  1.00  0.00    -0.003 C 
ATOM     10  C   UNL     1     181.930 179.024 181.035  1.00  0.00     0.004 C 
ENDBRANCH   8   9
ENDBRANCH   7   8
ENDBRANCH   1   7
TORSDOF 6
ENDMDL
MODEL 4
REMARK VINA RESULT:    -3.707      2.894      4.703
REMARK INTER + INTRA:          -5.530
REMARK INTER:                  -4.958
REMARK INTRA:                  -0.572
REMARK UNBOUND:                -0.523
REMARK SMILES CCCCCCCC(=O)[O-]
REMARK SMILES IDX 5 1 6 2 7 3 8 4 9 5 10 6 4 7 3 8 2 9 1 10
REMARK H PARENT
REMARK Flexibility Score: inf
ROOT
ATOM      1  C   UNL     1     180.700 179.972 180.982  1.00  0.00     0.000 C 
ENDROOT
BRANCH   1   2
ATOM      2  C   UNL     1     182.112 179.385 181.078  1.00  0.00     0.006 C 
BRANCH   2   3
ATOM      3  C   UNL     1     183.158 180.492 181.239  1.00  0.00     0.053 C 
BRANCH   3   4
ATOM      4  C   UNL     1     183.688 180.514 182.638  1.00  0.00     0.041 C 
ATOM      5  O   UNL     1     184.917 180.343 182.852  1.00  0.00    -0.550 OA
ATOM      6  O   UNL     1     182.833 180.770 183.701  1.00  0.00    -0.550 OA
ENDBRANCH   3   4
ENDBRANCH   2   3
ENDBRANCH   1   2
BRANCH   1   7
ATOM      7  C   UNL     1     180.657 181.150 180.000  1.00  0.00     0.000 C 
BRANCH   7   8
ATOM      8  C   UNL     1     179.925 182.350 180.610  1.00  0.00    -0.000 C 
BRANCH   8   9
ATOM      9  C   UNL     1     179.996 182.318 182.141  1.00  0.00    -0.003 C 
ATOM     10  C   UNL     1     180.769 183.516 182.682  1.00  0.00     0.004 C 
ENDBRANCH   8   9
ENDBRANCH   7   8
ENDBRANCH   1   7
TORSDOF 6
ENDMDL
MODEL 5
REMARK VINA RESULT:    -3.686      1.663      2.894
REMARK INTER + INTRA:          -5.503
REMARK INTER:                  -4.916
REMARK INTRA:                  -0.586
REMARK UNBOUND:                -0.523
REMARK SMILES CCCCCCCC(=O)[O-]
REMARK SMILES IDX 5 1 6 2 7 3 8 4 9 5 10 6 4 7 3 8 2 9 1 10
REMARK H PARENT
REMARK Flexibility Score: inf
ROOT
ATOM      1  C   UNL     1     181.703 180.965 180.562  1.00  0.00     0.000 C 
ENDROOT
BRANCH   1   2
ATOM      2  C   UNL     1     180.307 180.915 181.192  1.00  0.00     0.006 C 
BRANCH   2   3
ATOM      3  C   UNL     1     179.410 182.021 180.628  1.00  0.00     0.053 C 
BRANCH   3   4
ATOM      4  C   UNL     1     178.780 182.801 181.738  1.00  0.00     0.041 C 
ATOM      5  O   UNL     1     179.491 183.275 182.663  1.00  0.00    -0.550 OA
ATOM      6  O   UNL     1     177.413 183.048 181.726  1.00  0.00    -0.550 OA
ENDBRANCH   3   4
ENDBRANCH   2   3
ENDBRANCH   1   2
BRANCH   1   7
ATOM      7  C   UNL     1     181.789 182.065 179.497  1.00  0.00     0.000 C 
BRANCH   7   8
ATOM      8  C   UNL     1     183.041 182.926 179.694  1.00  0.00    -0.000 C 
BRANCH   8   9
ATOM      9  C   UNL     1     183.003 183.651 181.044  1.00  0.00    -0.003 C 
ATOM     10  C   UNL     1     182.085 184.869 180.990  1.00  0.00     0.004 C 
ENDBRANCH   8   9
ENDBRANCH   7   8
ENDBRANCH   1   7
TORSDOF 6
ENDMDL
MODEL 6
REMARK VINA RESULT:    -3.679      2.291      4.003
REMARK INTER + INTRA:          -5.492
REMARK INTER:                  -4.856
REMARK INTRA:                  -0.636
REMARK UNBOUND:                -0.523
REMARK SMILES CCCCCCCC(=O)[O-]
REMARK SMILES IDX 5 1 6 2 7 3 8 4 9 5 10 6 4 7 3 8 2 9 1 10
REMARK H PARENT
REMARK Flexibility Score: inf
ROOT
ATOM      1  C   UNL     1     183.018 184.160 180.701  1.00  0.00     0.000 C 
ENDROOT
BRANCH   1   2
ATOM      2  C   UNL     1     183.129 182.632 180.650  1.00  0.00     0.006 C 
BRANCH   2   3
ATOM      3  C   UNL     1     183.901 182.095 181.859  1.00  0.00     0.053 C 
BRANCH   3   4
ATOM      4  C   UNL     1     183.168 180.949 182.481  1.00  0.00     0.041 C 
ATOM      5  O   UNL     1     183.503 180.527 183.619  1.00  0.00    -0.550 OA
ATOM      6  O   UNL     1     182.085 180.379 181.827  1.00  0.00    -0.550 OA
ENDBRANCH   3   4
ENDBRANCH   2   3
ENDBRANCH   1   2
BRANCH   1   7
ATOM      7  C   UNL     1     181.636 184.595 181.205  1.00  0.00     0.000 C 
BRANCH   7   8
ATOM      8  C   UNL     1     180.601 183.483 181.004  1.00  0.00    -0.000 C 
BRANCH   8   9
ATOM      9  C   UNL     1     179.813 183.224 182.293  1.00  0.00    -0.003 C 
ATOM     10  C   UNL     1     180.692 183.416 183.524  1.00  0.00     0.004 C 
ENDBRANCH   8   9
ENDBRANCH   7   8
ENDBRANCH   1   7
TORSDOF 6
ENDMDL
MODEL 7
REMARK VINA RESULT:    -3.677      1.084      2.168
REMARK INTER + INTRA:          -5.491
REMARK INTER:                  -4.872
REMARK INTRA:                  -0.619
REMARK UNBOUND:                -0.523
REMARK SMILES CCCCCCCC(=O)[O-]
REMARK SMILES IDX 5 1 6 2 7 3 8 4 9 5 10 6 4 7 3 8 2 9 1 10
REMARK H PARENT
REMARK Flexibility Score: inf
ROOT
ATOM      1  C   UNL     1     183.207 184.057 180.899  1.00  0.00     0.000 C 
ENDROOT
BRANCH   1   2
ATOM      2  C   UNL     1     181.804 184.628 181.133  1.00  0.00     0.006 C 
BRANCH   2   3
ATOM      3  C   UNL     1     180.745 183.524 181.079  1.00  0.00     0.053 C 
BRANCH   3   4
ATOM      4  C   UNL     1     180.054 183.395 182.400  1.00  0.00     0.041 C 
ATOM      5  O   UNL     1     180.719 183.437 183.469  1.00  0.00    -0.550 OA
ATOM      6  O   UNL     1     178.672 183.278 182.453  1.00  0.00    -0.550 OA
ENDBRANCH   3   4
ENDBRANCH   2   3
ENDBRANCH   1   2
BRANCH   1   7
ATOM      7  C   UNL     1     183.149 182.785 180.044  1.00  0.00     0.000 C 
BRANCH   7   8
ATOM      8  C   UNL     1     184.030 181.680 180.639  1.00  0.00    -0.000 C 
BRANCH   8   9
ATOM      9  C   UNL     1     183.856 181.597 182.159  1.00  0.00    -0.003 C 
ATOM     10  C   UNL     1     182.743 180.623 182.534  1.00  0.00     0.004 C 
ENDBRANCH   8   9
ENDBRANCH   7   8
ENDBRANCH   1   7
TORSDOF 6
ENDMDL
MODEL 8
REMARK VINA RESULT:    -3.632      1.842      2.904
REMARK INTER + INTRA:          -5.429
REMARK INTER:                  -4.826
REMARK INTRA:                  -0.602
REMARK UNBOUND:                -0.523
REMARK SMILES CCCCCCCC(=O)[O-]
REMARK SMILES IDX 5 1 6 2 7 3 8 4 9 5 10 6 4 7 3 8 2 9 1 10
REMARK H PARENT
REMARK Flexibility Score: inf
ROOT
ATOM      1  C   UNL     1     180.850 181.149 180.984  1.00  0.00     0.000 C 
ENDROOT
BRANCH   1   2
ATOM      2  C   UNL     1     180.891 182.631 180.594  1.00  0.00     0.006 C 
BRANCH   2   3
ATOM      3  C   UNL     1     181.513 183.476 181.710  1.00  0.00     0.053 C 
BRANCH   3   4
ATOM      4  C   UNL     1     180.698 183.375 182.960  1.00  0.00     0.041 C 
ATOM      5  O   UNL     1     181.235 183.004 184.037  1.00  0.00    -0.550 OA
ATOM      6  O   UNL     1     179.359 183.738 182.948  1.00  0.00    -0.550 OA
ENDBRANCH   3   4
ENDBRANCH   2   3
ENDBRANCH   1   2
BRANCH   1   7
ATOM      7  C   UNL     1     182.210 180.480 180.752  1.00  0.00     0.000 C 
BRANCH   7   8
ATOM      8  C   UNL     1     182.797 179.954 182.067  1.00  0.00    -0.000 C 
BRANCH   8   9
ATOM      9  C   UNL     1     184.044 180.750 182.470  1.00  0.00    -0.003 C 
ATOM     10  C   UNL     1     184.830 181.201 181.243  1.00  0.00     0.004 C 
ENDBRANCH   8   9
ENDBRANCH   7   8
ENDBRANCH   1   7
TORSDOF 6
ENDMDL
MODEL 9
REMARK VINA RESULT:    -3.617      2.714      3.749
REMARK INTER + INTRA:          -5.409
REMARK INTER:                  -4.778
REMARK INTRA:                  -0.631
REMARK UNBOUND:                -0.523
REMARK SMILES CCCCCCCC(=O)[O-]
REMARK SMILES IDX 5 1 6 2 7 3 8 4 9 5 10 6 4 7 3 8 2 9 1 10
REMARK H PARENT
REMARK Flexibility Score: inf
ROOT
ATOM      1  C   UNL     1     180.028 182.761 181.550  1.00  0.00     0.000 C 
ENDROOT
BRANCH   1   2
ATOM      2  C   UNL     1     180.913 183.880 182.112  1.00  0.00     0.006 C 
BRANCH   2   3
ATOM      3  C   UNL     1     181.699 184.573 180.996  1.00  0.00     0.053 C 
BRANCH   3   4
ATOM      4  C   UNL     1     182.916 183.780 180.641  1.00  0.00     0.041 C 
ATOM      5  O   UNL     1     183.926 183.800 181.393  1.00  0.00    -0.550 OA
ATOM      6  O   UNL     1     182.918 182.979 179.507  1.00  0.00    -0.550 OA
ENDBRANCH   3   4
ENDBRANCH   2   3
ENDBRANCH   1   2
BRANCH   1   7
ATOM      7  C   UNL     1     180.436 181.397 182.121  1.00  0.00     0.000 C 
BRANCH   7   8
ATOM      8  C   UNL     1     180.911 180.454 181.009  1.00  0.00    -0.000 C 
BRANCH   8   9
ATOM      9  C   UNL     1     182.219 179.757 181.401  1.00  0.00    -0.003 C 
ATOM     10  C   UNL     1     182.940 180.519 182.507  1.00  0.00     0.004 C 
ENDBRANCH   8   9
ENDBRANCH   7   8
ENDBRANCH   1   7
TORSDOF 6
ENDMDL
