MODEL 1
REMARK VINA RESULT:    -4.235      0.000      0.000
REMARK INTER + INTRA:          -5.023
REMARK INTER:                  -5.102
REMARK INTRA:                   0.078
REMARK UNBOUND:                 0.078
REMARK SMILES O=c1c(O)c(-c2ccc(O)c(O)c2)oc2cc(O)cc(O)c12
REMARK SMILES IDX 5 1 3 2 2 3 1 4 22 5 20 6 19 7 17 8 16 9 15 10 14 11 6 12
REMARK SMILES IDX 7 13 8 14 9 15 13 16 11 17 10 18 12 20 4 22 21 24 18 26
REMARK H PARENT 10 19 12 21 4 23 21 25 18 27
REMARK Flexibility Score: inf
ROOT
ATOM      1  C   UNL     1      72.897  41.400  20.290  1.00  0.00     0.180 A 
ATOM      2  C   UNL     1      73.521  41.617  19.046  1.00  0.00     0.208 A 
ATOM      3  C   UNL     1      74.918  41.746  19.001  1.00  0.00     0.238 A 
ATOM      4  O   UNL     1      75.487  41.951  17.894  1.00  0.00    -0.285 OA
ATOM      5  C   UNL     1      75.667  41.636  20.191  1.00  0.00     0.111 A 
ATOM      6  C   UNL     1      77.077  41.750  20.231  1.00  0.00     0.134 A 
ATOM      7  C   UNL     1      77.751  41.620  21.456  1.00  0.00     0.093 A 
ATOM      8  C   UNL     1      77.042  41.377  22.637  1.00  0.00     0.123 A 
ATOM      9  C   UNL     1      75.650  41.265  22.602  1.00  0.00     0.094 A 
ATOM     10  C   UNL     1      74.961  41.394  21.393  1.00  0.00     0.146 A 
ATOM     11  O   UNL     1      73.637  41.287  21.389  1.00  0.00    -0.452 OA
ENDROOT
BRANCH   1  12
ATOM     12  C   UNL     1      71.428  41.273  20.422  1.00  0.00     0.025 A 
ATOM     13  C   UNL     1      70.555  42.125  19.727  1.00  0.00     0.016 A 
ATOM     14  C   UNL     1      69.173  42.000  19.885  1.00  0.00     0.051 A 
ATOM     15  C   UNL     1      68.636  41.038  20.748  1.00  0.00     0.157 A 
ATOM     16  C   UNL     1      70.893  40.321  21.305  1.00  0.00     0.062 A 
ATOM     17  C   UNL     1      69.508  40.189  21.470  1.00  0.00     0.158 A 
BRANCH  15  18
ATOM     18  O   UNL     1      67.247  40.964  20.858  1.00  0.00    -0.504 OA
ATOM     19  H   UNL     1      66.606  41.525  20.316  1.00  0.00     0.293 HD
ENDBRANCH  15  18
BRANCH  17  20
ATOM     20  O   UNL     1      69.048  39.213  22.356  1.00  0.00    -0.504 OA
ATOM     21  H   UNL     1      68.076  38.968  22.471  1.00  0.00     0.293 HD
ENDBRANCH  17  20
ENDBRANCH   1  12
BRANCH   2  22
ATOM     22  O   UNL     1      72.760  41.673  17.875  1.00  0.00    -0.502 OA
ATOM     23  H   UNL     1      72.417  42.545  17.493  1.00  0.00     0.293 HD
ENDBRANCH   2  22
BRANCH   6  24
ATOM     24  O   UNL     1      77.813  41.990  19.070  1.00  0.00    -0.507 OA
ATOM     25  H   UNL     1      78.803  42.199  19.100  1.00  0.00     0.293 HD
ENDBRANCH   6  24
BRANCH   8  26
ATOM     26  O   UNL     1      77.711  41.247  23.852  1.00  0.00    -0.508 OA
ATOM     27  H   UNL     1      78.511  41.825  24.081  1.00  0.00     0.293 HD
ENDBRANCH   8  26
TORSDOF 6
ENDMDL
MODEL 2
REMARK VINA RESULT:    -3.872      1.243      2.838
REMARK INTER + INTRA:          -4.585
REMARK INTER:                  -4.938
REMARK INTRA:                   0.353
REMARK UNBOUND:                 0.078
REMARK SMILES O=c1c(O)c(-c2ccc(O)c(O)c2)oc2cc(O)cc(O)c12
REMARK SMILES IDX 5 1 3 2 2 3 1 4 22 5 20 6 19 7 17 8 16 9 15 10 14 11 6 12
REMARK SMILES IDX 7 13 8 14 9 15 13 16 11 17 10 18 12 20 4 22 21 24 18 26
REMARK H PARENT 10 19 12 21 4 23 21 25 18 27
REMARK Flexibility Score: inf
ROOT
ATOM      1  C   UNL     1      72.500  41.362  20.650  1.00  0.00     0.180 A 
ATOM      2  C   UNL     1      72.947  41.144  21.968  1.00  0.00     0.208 A 
ATOM      3  C   UNL     1      74.328  41.142  22.224  1.00  0.00     0.238 A 
ATOM      4  O   UNL     1      74.740  40.937  23.398  1.00  0.00    -0.285 OA
ATOM      5  C   UNL     1      75.233  41.376  21.169  1.00  0.00     0.111 A 
ATOM      6  C   UNL     1      76.637  41.394  21.344  1.00  0.00     0.134 A 
ATOM      7  C   UNL     1      77.473  41.643  20.243  1.00  0.00     0.093 A 
ATOM      8  C   UNL     1      76.929  41.875  18.975  1.00  0.00     0.123 A 
ATOM      9  C   UNL     1      75.544  41.858  18.797  1.00  0.00     0.094 A 
ATOM     10  C   UNL     1      74.696  41.610  19.880  1.00  0.00     0.146 A 
ATOM     11  O   UNL     1      73.383  41.594  19.683  1.00  0.00    -0.452 OA
ENDROOT
BRANCH   1  12
ATOM     12  C   UNL     1      71.062  41.360  20.297  1.00  0.00     0.025 A 
ATOM     13  C   UNL     1      70.572  42.118  19.222  1.00  0.00     0.016 A 
ATOM     14  C   UNL     1      69.208  42.117  18.923  1.00  0.00     0.051 A 
ATOM     15  C   UNL     1      68.307  41.375  19.695  1.00  0.00     0.157 A 
ATOM     16  C   UNL     1      70.159  40.631  21.086  1.00  0.00     0.062 A 
ATOM     17  C   UNL     1      68.788  40.625  20.794  1.00  0.00     0.158 A 
BRANCH  15  18
ATOM     18  O   UNL     1      66.957  41.414  19.341  1.00  0.00    -0.504 OA
ATOM     19  H   UNL     1      66.528  40.782  18.679  1.00  0.00     0.293 HD
ENDBRANCH  15  18
BRANCH  17  20
ATOM     20  O   UNL     1      67.951  39.868  21.616  1.00  0.00    -0.504 OA
ATOM     21  H   UNL     1      67.022  39.571  21.354  1.00  0.00     0.293 HD
ENDBRANCH  17  20
ENDBRANCH   1  12
BRANCH   2  22
ATOM     22  O   UNL     1      72.028  40.963  23.005  1.00  0.00    -0.502 OA
ATOM     23  H   UNL     1      72.166  41.357  23.926  1.00  0.00     0.293 HD
ENDBRANCH   2  22
BRANCH   6  24
ATOM     24  O   UNL     1      77.209  41.167  22.596  1.00  0.00    -0.507 OA
ATOM     25  H   UNL     1      77.591  40.265  22.852  1.00  0.00     0.293 HD
ENDBRANCH   6  24
BRANCH   8  26
ATOM     26  O   UNL     1      77.758  42.124  17.883  1.00  0.00    -0.508 OA
ATOM     27  H   UNL     1      77.530  42.834  17.197  1.00  0.00     0.293 HD
ENDBRANCH   8  26
TORSDOF 6
ENDMDL
MODEL 3
REMARK VINA RESULT:    -3.405      1.612      7.163
REMARK INTER + INTRA:          -4.023
REMARK INTER:                  -4.499
REMARK INTRA:                   0.476
REMARK UNBOUND:                 0.078
REMARK SMILES O=c1c(O)c(-c2ccc(O)c(O)c2)oc2cc(O)cc(O)c12
REMARK SMILES IDX 5 1 3 2 2 3 1 4 22 5 20 6 19 7 17 8 16 9 15 10 14 11 6 12
REMARK SMILES IDX 7 13 8 14 9 15 13 16 11 17 10 18 12 20 4 22 21 24 18 26
REMARK H PARENT 10 19 12 21 4 23 21 25 18 27
REMARK Flexibility Score: inf
ROOT
ATOM      1  C   UNL     1      73.925  41.132  20.108  1.00  0.00     0.180 A 
ATOM      2  C   UNL     1      73.670  40.445  21.312  1.00  0.00     0.208 A 
ATOM      3  C   UNL     1      72.339  40.235  21.704  1.00  0.00     0.238 A 
ATOM      4  O   UNL     1      72.099  39.630  22.784  1.00  0.00    -0.285 OA
ATOM      5  C   UNL     1      71.289  40.694  20.882  1.00  0.00     0.111 A 
ATOM      6  C   UNL     1      69.922  40.518  21.203  1.00  0.00     0.134 A 
ATOM      7  C   UNL     1      68.934  40.997  20.327  1.00  0.00     0.093 A 
ATOM      8  C   UNL     1      69.290  41.645  19.139  1.00  0.00     0.123 A 
ATOM      9  C   UNL     1      70.637  41.821  18.819  1.00  0.00     0.094 A 
ATOM     10  C   UNL     1      71.635  41.353  19.678  1.00  0.00     0.146 A 
ATOM     11  O   UNL     1      72.909  41.537  19.352  1.00  0.00    -0.452 OA
ENDROOT
BRANCH   1  12
ATOM     12  C   UNL     1      75.301  41.410  19.637  1.00  0.00     0.025 A 
ATOM     13  C   UNL     1      75.562  41.749  18.300  1.00  0.00     0.016 A 
ATOM     14  C   UNL     1      76.871  41.984  17.875  1.00  0.00     0.051 A 
ATOM     15  C   UNL     1      77.943  41.872  18.767  1.00  0.00     0.157 A 
ATOM     16  C   UNL     1      76.376  41.276  20.529  1.00  0.00     0.062 A 
ATOM     17  C   UNL     1      77.693  41.510  20.112  1.00  0.00     0.158 A 
BRANCH  15  18
ATOM     18  O   UNL     1      79.227  42.124  18.279  1.00  0.00    -0.504 OA
ATOM     19  H   UNL     1      79.654  43.039  18.260  1.00  0.00     0.293 HD
ENDBRANCH  15  18
BRANCH  17  20
ATOM     20  O   UNL     1      78.711  41.369  21.058  1.00  0.00    -0.504 OA
ATOM     21  H   UNL     1      78.985  42.095  21.703  1.00  0.00     0.293 HD
ENDBRANCH  17  20
ENDBRANCH   1  12
BRANCH   2  22
ATOM     22  O   UNL     1      74.728  39.957  22.083  1.00  0.00    -0.502 OA
ATOM     23  H   UNL     1      75.466  40.556  22.432  1.00  0.00     0.293 HD
ENDBRANCH   2  22
BRANCH   6  24
ATOM     24  O   UNL     1      69.536  39.875  22.380  1.00  0.00    -0.507 OA
ATOM     25  H   UNL     1      68.568  39.648  22.570  1.00  0.00     0.293 HD
ENDBRANCH   6  24
BRANCH   8  26
ATOM     26  O   UNL     1      68.310  42.119  18.269  1.00  0.00    -0.508 OA
ATOM     27  H   UNL     1      67.324  42.021  18.478  1.00  0.00     0.293 HD
ENDBRANCH   8  26
TORSDOF 6
ENDMDL
MODEL 4
REMARK VINA RESULT:    -2.654      1.440      3.190
REMARK INTER + INTRA:          -3.118
REMARK INTER:                  -3.497
REMARK INTRA:                   0.378
REMARK UNBOUND:                 0.078
REMARK SMILES O=c1c(O)c(-c2ccc(O)c(O)c2)oc2cc(O)cc(O)c12
REMARK SMILES IDX 5 1 3 2 2 3 1 4 22 5 20 6 19 7 17 8 16 9 15 10 14 11 6 12
REMARK SMILES IDX 7 13 8 14 9 15 13 16 11 17 10 18 12 20 4 22 21 24 18 26
REMARK H PARENT 10 19 12 21 4 23 21 25 18 27
REMARK Flexibility Score: inf
ROOT
ATOM      1  C   UNL     1      74.319  41.269  21.228  1.00  0.00     0.180 A 
ATOM      2  C   UNL     1      74.905  40.989  22.478  1.00  0.00     0.208 A 
ATOM      3  C   UNL     1      76.305  40.967  22.581  1.00  0.00     0.238 A 
ATOM      4  O   UNL     1      76.841  40.707  23.693  1.00  0.00    -0.285 OA
ATOM      5  C   UNL     1      77.092  41.243  21.444  1.00  0.00     0.111 A 
ATOM      6  C   UNL     1      78.507  41.246  21.465  1.00  0.00     0.134 A 
ATOM      7  C   UNL     1      79.220  41.539  20.292  1.00  0.00     0.093 A 
ATOM      8  C   UNL     1      78.544  41.832  19.102  1.00  0.00     0.123 A 
ATOM      9  C   UNL     1      77.148  41.830  19.077  1.00  0.00     0.094 A 
ATOM     10  C   UNL     1      76.420  41.538  20.234  1.00  0.00     0.146 A 
ATOM     11  O   UNL     1      75.093  41.539  20.181  1.00  0.00    -0.452 OA
ENDROOT
BRANCH   1  12
ATOM     12  C   UNL     1      72.851  41.291  21.034  1.00  0.00     0.025 A 
ATOM     13  C   UNL     1      72.257  42.074  20.033  1.00  0.00     0.016 A 
ATOM     14  C   UNL     1      70.868  42.095  19.885  1.00  0.00     0.051 A 
ATOM     15  C   UNL     1      70.047  41.351  20.739  1.00  0.00     0.157 A 
ATOM     16  C   UNL     1      72.029  40.560  21.907  1.00  0.00     0.062 A 
ATOM     17  C   UNL     1      70.635  40.575  21.766  1.00  0.00     0.158 A 
BRANCH  15  18
ATOM     18  O   UNL     1      68.667  41.413  20.536  1.00  0.00    -0.504 OA
ATOM     19  H   UNL     1      68.040  40.634  20.674  1.00  0.00     0.293 HD
ENDBRANCH  15  18
BRANCH  17  20
ATOM     20  O   UNL     1      69.882  39.814  22.663  1.00  0.00    -0.504 OA
ATOM     21  H   UNL     1      70.282  39.235  23.386  1.00  0.00     0.293 HD
ENDBRANCH  17  20
ENDBRANCH   1  12
BRANCH   2  22
ATOM     22  O   UNL     1      74.102  40.767  23.600  1.00  0.00    -0.502 OA
ATOM     23  H   UNL     1      74.268  40.002  24.242  1.00  0.00     0.293 HD
ENDBRANCH   2  22
BRANCH   6  24
ATOM     24  O   UNL     1      79.210  40.959  22.636  1.00  0.00    -0.507 OA
ATOM     25  H   UNL     1      79.506  40.018  22.863  1.00  0.00     0.293 HD
ENDBRANCH   6  24
BRANCH   8  26
ATOM     26  O   UNL     1      79.251  42.125  17.938  1.00  0.00    -0.508 OA
ATOM     27  H   UNL     1      79.409  43.081  17.641  1.00  0.00     0.293 HD
ENDBRANCH   8  26
TORSDOF 6
ENDMDL
MODEL 5
REMARK VINA RESULT:    -2.501      1.332      6.502
REMARK INTER + INTRA:          -2.935
REMARK INTER:                  -3.378
REMARK INTRA:                   0.443
REMARK UNBOUND:                 0.078
REMARK SMILES O=c1c(O)c(-c2ccc(O)c(O)c2)oc2cc(O)cc(O)c12
REMARK SMILES IDX 5 1 3 2 2 3 1 4 22 5 20 6 19 7 17 8 16 9 15 10 14 11 6 12
REMARK SMILES IDX 7 13 8 14 9 15 13 16 11 17 10 18 12 20 4 22 21 24 18 26
REMARK H PARENT 10 19 12 21 4 23 21 25 18 27
REMARK Flexibility Score: inf
ROOT
ATOM      1  C   UNL     1      73.503  41.188  21.054  1.00  0.00     0.180 A 
ATOM      2  C   UNL     1      73.440  41.667  19.731  1.00  0.00     0.208 A 
ATOM      3  C   UNL     1      72.195  41.706  19.082  1.00  0.00     0.238 A 
ATOM      4  O   UNL     1      72.128  42.125  17.894  1.00  0.00    -0.285 OA
ATOM      5  C   UNL     1      71.038  41.285  19.769  1.00  0.00     0.111 A 
ATOM      6  C   UNL     1      69.747  41.296  19.188  1.00  0.00     0.134 A 
ATOM      7  C   UNL     1      68.642  40.869  19.941  1.00  0.00     0.093 A 
ATOM      8  C   UNL     1      68.805  40.434  21.261  1.00  0.00     0.123 A 
ATOM      9  C   UNL     1      70.077  40.420  21.837  1.00  0.00     0.094 A 
ATOM     10  C   UNL     1      71.190  40.840  21.104  1.00  0.00     0.146 A 
ATOM     11  O   UNL     1      72.388  40.813  21.674  1.00  0.00    -0.452 OA
ENDROOT
BRANCH   1  12
ATOM     12  C   UNL     1      74.780  41.098  21.798  1.00  0.00     0.025 A 
ATOM     13  C   UNL     1      75.961  41.667  21.295  1.00  0.00     0.016 A 
ATOM     14  C   UNL     1      77.158  41.549  22.005  1.00  0.00     0.051 A 
ATOM     15  C   UNL     1      77.205  40.852  23.217  1.00  0.00     0.157 A 
ATOM     16  C   UNL     1      74.828  40.379  23.003  1.00  0.00     0.062 A 
ATOM     17  C   UNL     1      76.025  40.256  23.722  1.00  0.00     0.158 A 
BRANCH  15  18
ATOM     18  O   UNL     1      78.432  40.774  23.878  1.00  0.00    -0.504 OA
ATOM     19  H   UNL     1      78.730  39.978  24.423  1.00  0.00     0.293 HD
ENDBRANCH  15  18
BRANCH  17  20
ATOM     20  O   UNL     1      75.994  39.537  24.918  1.00  0.00    -0.504 OA
ATOM     21  H   UNL     1      76.640  39.682  25.680  1.00  0.00     0.293 HD
ENDBRANCH  17  20
ENDBRANCH   1  12
BRANCH   2  22
ATOM     22  O   UNL     1      74.595  42.125  19.090  1.00  0.00    -0.502 OA
ATOM     23  H   UNL     1      74.581  42.493  18.147  1.00  0.00     0.293 HD
ENDBRANCH   2  22
BRANCH   6  24
ATOM     24  O   UNL     1      69.553  41.726  17.875  1.00  0.00    -0.507 OA
ATOM     25  H   UNL     1      70.208  42.344  17.414  1.00  0.00     0.293 HD
ENDBRANCH   6  24
BRANCH   8  26
ATOM     26  O   UNL     1      67.708  40.011  22.009  1.00  0.00    -0.508 OA
ATOM     27  H   UNL     1      66.759  40.148  21.682  1.00  0.00     0.293 HD
ENDBRANCH   8  26
TORSDOF 6
ENDMDL
