MODEL 1
REMARK VINA RESULT:    -4.467      0.000      0.000
REMARK INTER + INTRA:          -8.517
REMARK INTER:                  -7.079
REMARK INTRA:                  -1.438
REMARK UNBOUND:                -1.438
REMARK SMILES CCCCCCCCCCCC(=O)[O-]
REMARK SMILES IDX 7 1 8 2 9 3 10 4 11 5 12 6 13 7 14 8 6 9 5 10 4 11 3 12 2 13
REMARK SMILES IDX 1 14
REMARK H PARENT
REMARK Flexibility Score: inf
ROOT
ATOM      1  C   UNL     1      43.207  -9.967 -41.633  1.00  0.00     0.000 C 
ENDROOT
BRANCH   1   2
ATOM      2  C   UNL     1      43.458 -11.411 -42.097  1.00  0.00     0.000 C 
BRANCH   2   3
ATOM      3  C   UNL     1      43.955 -12.318 -40.961  1.00  0.00     0.000 C 
BRANCH   3   4
ATOM      4  C   UNL     1      44.897 -11.554 -40.021  1.00  0.00     0.006 C 
BRANCH   4   5
ATOM      5  C   UNL     1      45.126 -12.297 -38.697  1.00  0.00     0.053 C 
BRANCH   5   6
ATOM      6  C   UNL     1      46.400 -13.085 -38.715  1.00  0.00     0.041 C 
ATOM      7  O   UNL     1      47.406 -12.650 -39.334  1.00  0.00    -0.550 OA
ATOM      8  O   UNL     1      46.485 -14.286 -38.022  1.00  0.00    -0.550 OA
ENDBRANCH   5   6
ENDBRANCH   4   5
ENDBRANCH   3   4
ENDBRANCH   2   3
ENDBRANCH   1   2
BRANCH   1   9
ATOM      9  C   UNL     1      41.710  -9.612 -41.589  1.00  0.00     0.000 C 
BRANCH   9  10
ATOM     10  C   UNL     1      41.147  -9.597 -40.158  1.00  0.00    -0.000 C 
BRANCH  10  11
ATOM     11  C   UNL     1      42.151  -9.039 -39.134  1.00  0.00    -0.000 C 
BRANCH  11  12
ATOM     12  C   UNL     1      42.209  -9.878 -37.848  1.00  0.00    -0.000 C 
BRANCH  12  13
ATOM     13  C   UNL     1      41.690 -11.310 -38.051  1.00  0.00    -0.003 C 
ATOM     14  C   UNL     1      41.707 -12.091 -36.739  1.00  0.00     0.004 C 
ENDBRANCH  12  13
ENDBRANCH  11  12
ENDBRANCH  10  11
ENDBRANCH   9  10
ENDBRANCH   1   9
TORSDOF 10
ENDMDL
MODEL 2
REMARK VINA RESULT:    -4.389      4.199      6.996
REMARK INTER + INTRA:          -8.392
REMARK INTER:                  -6.895
REMARK INTRA:                  -1.497
REMARK UNBOUND:                -1.438
REMARK SMILES CCCCCCCCCCCC(=O)[O-]
REMARK SMILES IDX 7 1 8 2 9 3 10 4 11 5 12 6 13 7 14 8 6 9 5 10 4 11 3 12 2 13
REMARK SMILES IDX 1 14
REMARK H PARENT
REMARK Flexibility Score: inf
ROOT
ATOM      1  C   UNL     1      43.121 -14.183 -35.086  1.00  0.00     0.000 C 
ENDROOT
BRANCH   1   2
ATOM      2  C   UNL     1      43.116 -12.939 -34.183  1.00  0.00     0.000 C 
BRANCH   2   3
ATOM      3  C   UNL     1      43.791 -11.727 -34.843  1.00  0.00     0.000 C 
BRANCH   3   4
ATOM      4  C   UNL     1      44.027 -11.978 -36.339  1.00  0.00     0.006 C 
BRANCH   4   5
ATOM      5  C   UNL     1      43.433 -10.867 -37.215  1.00  0.00     0.053 C 
BRANCH   5   6
ATOM      6  C   UNL     1      42.135 -11.284 -37.838  1.00  0.00     0.041 C 
ATOM      7  O   UNL     1      41.189 -11.692 -37.115  1.00  0.00    -0.550 OA
ATOM      8  O   UNL     1      41.962 -11.192 -39.213  1.00  0.00    -0.550 OA
ENDBRANCH   5   6
ENDBRANCH   4   5
ENDBRANCH   3   4
ENDBRANCH   2   3
ENDBRANCH   1   2
BRANCH   1   9
ATOM      9  C   UNL     1      43.873 -15.368 -34.454  1.00  0.00     0.000 C 
BRANCH   9  10
ATOM     10  C   UNL     1      44.571 -14.993 -33.137  1.00  0.00    -0.000 C 
BRANCH  10  11
ATOM     11  C   UNL     1      46.102 -14.933 -33.277  1.00  0.00    -0.000 C 
BRANCH  11  12
ATOM     12  C   UNL     1      46.649 -13.501 -33.179  1.00  0.00    -0.000 C 
BRANCH  12  13
ATOM     13  C   UNL     1      47.435 -13.081 -34.431  1.00  0.00    -0.003 C 
ATOM     14  C   UNL     1      47.137 -14.011 -35.604  1.00  0.00     0.004 C 
ENDBRANCH  12  13
ENDBRANCH  11  12
ENDBRANCH  10  11
ENDBRANCH   9  10
ENDBRANCH   1   9
TORSDOF 10
ENDMDL
MODEL 3
REMARK VINA RESULT:    -4.357      3.478      5.121
REMARK INTER + INTRA:          -8.341
REMARK INTER:                  -7.080
REMARK INTRA:                  -1.261
REMARK UNBOUND:                -1.438
REMARK SMILES CCCCCCCCCCCC(=O)[O-]
REMARK SMILES IDX 7 1 8 2 9 3 10 4 11 5 12 6 13 7 14 8 6 9 5 10 4 11 3 12 2 13
REMARK SMILES IDX 1 14
REMARK H PARENT
REMARK Flexibility Score: inf
ROOT
ATOM      1  C   UNL     1      43.125 -11.532 -41.364  1.00  0.00     0.000 C 
ENDROOT
BRANCH   1   2
ATOM      2  C   UNL     1      43.331 -10.022 -41.564  1.00  0.00     0.000 C 
BRANCH   2   3
ATOM      3  C   UNL     1      42.071  -9.319 -42.091  1.00  0.00     0.000 C 
BRANCH   3   4
ATOM      4  C   UNL     1      40.978 -10.340 -42.439  1.00  0.00     0.006 C 
BRANCH   4   5
ATOM      5  C   UNL     1      40.626 -10.327 -43.933  1.00  0.00     0.053 C 
BRANCH   5   6
ATOM      6  C   UNL     1      40.995 -11.616 -44.602  1.00  0.00     0.041 C 
ATOM      7  O   UNL     1      40.097 -12.387 -45.032  1.00  0.00    -0.550 OA
ATOM      8  O   UNL     1      42.332 -11.950 -44.780  1.00  0.00    -0.550 OA
ENDBRANCH   5   6
ENDBRANCH   4   5
ENDBRANCH   3   4
ENDBRANCH   2   3
ENDBRANCH   1   2
BRANCH   1   9
ATOM      9  C   UNL     1      44.379 -12.231 -40.809  1.00  0.00     0.000 C 
BRANCH   9  10
ATOM     10  C   UNL     1      44.991 -11.487 -39.611  1.00  0.00    -0.000 C 
BRANCH  10  11
ATOM     11  C   UNL     1      44.226 -11.746 -38.301  1.00  0.00    -0.000 C 
BRANCH  11  12
ATOM     12  C   UNL     1      43.875 -10.449 -37.556  1.00  0.00    -0.000 C 
BRANCH  12  13
ATOM     13  C   UNL     1      42.471  -9.929 -37.901  1.00  0.00    -0.003 C 
ATOM     14  C   UNL     1      41.474 -11.080 -38.019  1.00  0.00     0.004 C 
ENDBRANCH  12  13
ENDBRANCH  11  12
ENDBRANCH  10  11
ENDBRANCH   9  10
ENDBRANCH   1   9
TORSDOF 10
ENDMDL
MODEL 4
REMARK VINA RESULT:    -4.338      1.801      3.795
REMARK INTER + INTRA:          -8.312
REMARK INTER:                  -7.371
REMARK INTRA:                  -0.942
REMARK UNBOUND:                -1.438
REMARK SMILES CCCCCCCCCCCC(=O)[O-]
REMARK SMILES IDX 7 1 8 2 9 3 10 4 11 5 12 6 13 7 14 8 6 9 5 10 4 11 3 12 2 13
REMARK SMILES IDX 1 14
REMARK H PARENT
REMARK Flexibility Score: inf
ROOT
ATOM      1  C   UNL     1      41.605  -9.528 -40.807  1.00  0.00     0.000 C 
ENDROOT
BRANCH   1   2
ATOM      2  C   UNL     1      42.300 -10.869 -40.521  1.00  0.00     0.000 C 
BRANCH   2   3
ATOM      3  C   UNL     1      43.826 -10.730 -40.405  1.00  0.00     0.000 C 
BRANCH   3   4
ATOM      4  C   UNL     1      44.494 -12.106 -40.278  1.00  0.00     0.006 C 
BRANCH   4   5
ATOM      5  C   UNL     1      45.113 -12.326 -38.891  1.00  0.00     0.053 C 
BRANCH   5   6
ATOM      6  C   UNL     1      46.573 -12.652 -38.979  1.00  0.00     0.041 C 
ATOM      7  O   UNL     1      47.227 -12.353 -40.012  1.00  0.00    -0.550 OA
ATOM      8  O   UNL     1      47.217 -13.258 -37.907  1.00  0.00    -0.550 OA
ENDBRANCH   5   6
ENDBRANCH   4   5
ENDBRANCH   3   4
ENDBRANCH   2   3
ENDBRANCH   1   2
BRANCH   1   9
ATOM      9  C   UNL     1      40.601  -9.619 -41.970  1.00  0.00     0.000 C 
BRANCH   9  10
ATOM     10  C   UNL     1      41.174  -9.077 -43.290  1.00  0.00    -0.000 C 
BRANCH  10  11
ATOM     11  C   UNL     1      40.827  -9.969 -44.495  1.00  0.00    -0.000 C 
BRANCH  11  12
ATOM     12  C   UNL     1      41.127 -11.453 -44.236  1.00  0.00    -0.000 C 
BRANCH  12  13
ATOM     13  C   UNL     1      42.443 -11.913 -44.881  1.00  0.00    -0.003 C 
ATOM     14  C   UNL     1      43.487 -12.249 -43.818  1.00  0.00     0.004 C 
ENDBRANCH  12  13
ENDBRANCH  11  12
ENDBRANCH  10  11
ENDBRANCH   9  10
ENDBRANCH   1   9
TORSDOF 10
ENDMDL
MODEL 5
REMARK VINA RESULT:    -4.284      2.081      4.205
REMARK INTER + INTRA:          -8.226
REMARK INTER:                  -7.038
REMARK INTRA:                  -1.188
REMARK UNBOUND:                -1.438
REMARK SMILES CCCCCCCCCCCC(=O)[O-]
REMARK SMILES IDX 7 1 8 2 9 3 10 4 11 5 12 6 13 7 14 8 6 9 5 10 4 11 3 12 2 13
REMARK SMILES IDX 1 14
REMARK H PARENT
REMARK Flexibility Score: inf
ROOT
ATOM      1  C   UNL     1      41.410 -10.274 -40.163  1.00  0.00     0.000 C 
ENDROOT
BRANCH   1   2
ATOM      2  C   UNL     1      41.755  -9.008 -39.361  1.00  0.00     0.000 C 
BRANCH   2   3
ATOM      3  C   UNL     1      42.340  -9.327 -37.977  1.00  0.00     0.000 C 
BRANCH   3   4
ATOM      4  C   UNL     1      42.069 -10.789 -37.591  1.00  0.00     0.006 C 
BRANCH   4   5
ATOM      5  C   UNL     1      43.106 -11.328 -36.595  1.00  0.00     0.053 C 
BRANCH   5   6
ATOM      6  C   UNL     1      42.657 -12.611 -35.966  1.00  0.00     0.041 C 
ATOM      7  O   UNL     1      43.401 -13.627 -35.999  1.00  0.00    -0.550 OA
ATOM      8  O   UNL     1      41.431 -12.676 -35.315  1.00  0.00    -0.550 OA
ENDBRANCH   5   6
ENDBRANCH   4   5
ENDBRANCH   3   4
ENDBRANCH   2   3
ENDBRANCH   1   2
BRANCH   1   9
ATOM      9  C   UNL     1      42.090 -10.303 -41.543  1.00  0.00     0.000 C 
BRANCH   9  10
ATOM     10  C   UNL     1      43.619 -10.439 -41.448  1.00  0.00    -0.000 C 
BRANCH  10  11
ATOM     11  C   UNL     1      44.078 -11.905 -41.375  1.00  0.00    -0.000 C 
BRANCH  11  12
ATOM     12  C   UNL     1      44.467 -12.331 -39.951  1.00  0.00    -0.000 C 
BRANCH  12  13
ATOM     13  C   UNL     1      45.686 -11.564 -39.415  1.00  0.00    -0.003 C 
ATOM     14  C   UNL     1      46.980 -12.323 -39.700  1.00  0.00     0.004 C 
ENDBRANCH  12  13
ENDBRANCH  11  12
ENDBRANCH  10  11
ENDBRANCH   9  10
ENDBRANCH   1   9
TORSDOF 10
ENDMDL
MODEL 6
REMARK VINA RESULT:    -4.280      3.565      6.163
REMARK INTER + INTRA:          -8.220
REMARK INTER:                  -6.654
REMARK INTRA:                  -1.565
REMARK UNBOUND:                -1.438
REMARK SMILES CCCCCCCCCCCC(=O)[O-]
REMARK SMILES IDX 7 1 8 2 9 3 10 4 11 5 12 6 13 7 14 8 6 9 5 10 4 11 3 12 2 13
REMARK SMILES IDX 1 14
REMARK H PARENT
REMARK Flexibility Score: inf
ROOT
ATOM      1  C   UNL     1      47.104 -13.105 -34.499  1.00  0.00     0.000 C 
ENDROOT
BRANCH   1   2
ATOM      2  C   UNL     1      47.426 -13.142 -36.002  1.00  0.00     0.000 C 
BRANCH   2   3
ATOM      3  C   UNL     1      47.251 -14.543 -36.609  1.00  0.00     0.000 C 
BRANCH   3   4
ATOM      4  C   UNL     1      46.259 -14.513 -37.780  1.00  0.00     0.006 C 
BRANCH   4   5
ATOM      5  C   UNL     1      45.685 -13.110 -38.020  1.00  0.00     0.053 C 
BRANCH   5   6
ATOM      6  C   UNL     1      46.031 -12.594 -39.383  1.00  0.00     0.041 C 
ATOM      7  O   UNL     1      45.118 -12.293 -40.197  1.00  0.00    -0.550 OA
ATOM      8  O   UNL     1      47.361 -12.414 -39.744  1.00  0.00    -0.550 OA
ENDBRANCH   5   6
ENDBRANCH   4   5
ENDBRANCH   3   4
ENDBRANCH   2   3
ENDBRANCH   1   2
BRANCH   1   9
ATOM      9  C   UNL     1      46.866 -14.508 -33.911  1.00  0.00     0.000 C 
BRANCH   9  10
ATOM     10  C   UNL     1      45.560 -14.598 -33.105  1.00  0.00    -0.000 C 
BRANCH  10  11
ATOM     11  C   UNL     1      44.445 -15.336 -33.867  1.00  0.00    -0.000 C 
BRANCH  11  12
ATOM     12  C   UNL     1      43.741 -14.439 -34.897  1.00  0.00    -0.000 C 
BRANCH  12  13
ATOM     13  C   UNL     1      43.230 -13.125 -34.287  1.00  0.00    -0.003 C 
ATOM     14  C   UNL     1      43.578 -11.935 -35.178  1.00  0.00     0.004 C 
ENDBRANCH  12  13
ENDBRANCH  11  12
ENDBRANCH  10  11
ENDBRANCH   9  10
ENDBRANCH   1   9
TORSDOF 10
ENDMDL
MODEL 7
REMARK VINA RESULT:    -4.264      3.643      6.433
REMARK INTER + INTRA:          -8.195
REMARK INTER:                  -6.846
REMARK INTRA:                  -1.349
REMARK UNBOUND:                -1.438
REMARK SMILES CCCCCCCCCCCC(=O)[O-]
REMARK SMILES IDX 7 1 8 2 9 3 10 4 11 5 12 6 13 7 14 8 6 9 5 10 4 11 3 12 2 13
REMARK SMILES IDX 1 14
REMARK H PARENT
REMARK Flexibility Score: inf
ROOT
ATOM      1  C   UNL     1      43.332 -12.097 -33.858  1.00  0.00     0.000 C 
ENDROOT
BRANCH   1   2
ATOM      2  C   UNL     1      42.614 -12.938 -34.925  1.00  0.00     0.000 C 
BRANCH   2   3
ATOM      3  C   UNL     1      42.736 -12.335 -36.333  1.00  0.00     0.000 C 
BRANCH   3   4
ATOM      4  C   UNL     1      44.135 -11.742 -36.555  1.00  0.00     0.006 C 
BRANCH   4   5
ATOM      5  C   UNL     1      44.936 -12.521 -37.607  1.00  0.00     0.053 C 
BRANCH   5   6
ATOM      6  C   UNL     1      45.065 -11.756 -38.888  1.00  0.00     0.041 C 
ATOM      7  O   UNL     1      45.821 -12.174 -39.804  1.00  0.00    -0.550 OA
ATOM      8  O   UNL     1      44.324 -10.596 -39.084  1.00  0.00    -0.550 OA
ENDBRANCH   5   6
ENDBRANCH   4   5
ENDBRANCH   3   4
ENDBRANCH   2   3
ENDBRANCH   1   2
BRANCH   1   9
ATOM      9  C   UNL     1      43.944 -12.960 -32.740  1.00  0.00     0.000 C 
BRANCH   9  10
ATOM     10  C   UNL     1      44.210 -14.407 -33.187  1.00  0.00    -0.000 C 
BRANCH  10  11
ATOM     11  C   UNL     1      45.711 -14.716 -33.326  1.00  0.00    -0.000 C 
BRANCH  11  12
ATOM     12  C   UNL     1      46.265 -14.341 -34.709  1.00  0.00    -0.000 C 
BRANCH  12  13
ATOM     13  C   UNL     1      47.217 -13.136 -34.659  1.00  0.00    -0.003 C 
ATOM     14  C   UNL     1      47.916 -13.046 -33.305  1.00  0.00     0.004 C 
ENDBRANCH  12  13
ENDBRANCH  11  12
ENDBRANCH  10  11
ENDBRANCH   9  10
ENDBRANCH   1   9
TORSDOF 10
ENDMDL
MODEL 8
REMARK VINA RESULT:    -4.247      2.588      4.572
REMARK INTER + INTRA:          -8.167
REMARK INTER:                  -6.709
REMARK INTRA:                  -1.457
REMARK UNBOUND:                -1.438
REMARK SMILES CCCCCCCCCCCC(=O)[O-]
REMARK SMILES IDX 7 1 8 2 9 3 10 4 11 5 12 6 13 7 14 8 6 9 5 10 4 11 3 12 2 13
REMARK SMILES IDX 1 14
REMARK H PARENT
REMARK Flexibility Score: inf
ROOT
ATOM      1  C   UNL     1      41.981 -11.427 -37.325  1.00  0.00     0.000 C 
ENDROOT
BRANCH   1   2
ATOM      2  C   UNL     1      42.850 -12.401 -36.513  1.00  0.00     0.000 C 
BRANCH   2   3
ATOM      3  C   UNL     1      43.957 -11.686 -35.723  1.00  0.00     0.000 C 
BRANCH   3   4
ATOM      4  C   UNL     1      45.296 -12.424 -35.866  1.00  0.00     0.006 C 
BRANCH   4   5
ATOM      5  C   UNL     1      45.119 -13.948 -35.902  1.00  0.00     0.053 C 
BRANCH   5   6
ATOM      6  C   UNL     1      45.204 -14.550 -34.533  1.00  0.00     0.041 C 
ATOM      7  O   UNL     1      44.169 -14.993 -33.970  1.00  0.00    -0.550 OA
ATOM      8  O   UNL     1      46.433 -14.651 -33.892  1.00  0.00    -0.550 OA
ENDBRANCH   5   6
ENDBRANCH   4   5
ENDBRANCH   3   4
ENDBRANCH   2   3
ENDBRANCH   1   2
BRANCH   1   9
ATOM      9  C   UNL     1      42.721 -10.122 -37.670  1.00  0.00     0.000 C 
BRANCH   9  10
ATOM     10  C   UNL     1      43.150 -10.057 -39.145  1.00  0.00    -0.000 C 
BRANCH  10  11
ATOM     11  C   UNL     1      44.550 -10.652 -39.380  1.00  0.00    -0.000 C 
BRANCH  11  12
ATOM     12  C   UNL     1      44.504 -11.986 -40.140  1.00  0.00    -0.000 C 
BRANCH  12  13
ATOM     13  C   UNL     1      45.480 -13.026 -39.570  1.00  0.00    -0.003 C 
ATOM     14  C   UNL     1      46.862 -12.417 -39.347  1.00  0.00     0.004 C 
ENDBRANCH  12  13
ENDBRANCH  11  12
ENDBRANCH  10  11
ENDBRANCH   9  10
ENDBRANCH   1   9
TORSDOF 10
ENDMDL
MODEL 9
REMARK VINA RESULT:    -4.245      2.183      4.175
REMARK INTER + INTRA:          -8.164
REMARK INTER:                  -6.696
REMARK INTRA:                  -1.468
REMARK UNBOUND:                -1.438
REMARK SMILES CCCCCCCCCCCC(=O)[O-]
REMARK SMILES IDX 7 1 8 2 9 3 10 4 11 5 12 6 13 7 14 8 6 9 5 10 4 11 3 12 2 13
REMARK SMILES IDX 1 14
REMARK H PARENT
REMARK Flexibility Score: inf
ROOT
ATOM      1  C   UNL     1      41.811 -10.870 -39.134  1.00  0.00     0.000 C 
ENDROOT
BRANCH   1   2
ATOM      2  C   UNL     1      41.992 -11.153 -37.634  1.00  0.00     0.000 C 
BRANCH   2   3
ATOM      3  C   UNL     1      43.319 -10.606 -37.086  1.00  0.00     0.000 C 
BRANCH   3   4
ATOM      4  C   UNL     1      44.041 -11.665 -36.241  1.00  0.00     0.006 C 
BRANCH   4   5
ATOM      5  C   UNL     1      43.221 -12.956 -36.102  1.00  0.00     0.053 C 
BRANCH   5   6
ATOM      6  C   UNL     1      43.995 -14.033 -35.406  1.00  0.00     0.041 C 
ATOM      7  O   UNL     1      43.796 -15.243 -35.694  1.00  0.00    -0.550 OA
ATOM      8  O   UNL     1      44.958 -13.700 -34.461  1.00  0.00    -0.550 OA
ENDBRANCH   5   6
ENDBRANCH   4   5
ENDBRANCH   3   4
ENDBRANCH   2   3
ENDBRANCH   1   2
BRANCH   1   9
ATOM      9  C   UNL     1      43.070 -10.263 -39.777  1.00  0.00     0.000 C 
BRANCH   9  10
ATOM     10  C   UNL     1      43.673 -11.166 -40.866  1.00  0.00    -0.000 C 
BRANCH  10  11
ATOM     11  C   UNL     1      44.573 -12.271 -40.286  1.00  0.00    -0.000 C 
BRANCH  11  12
ATOM     12  C   UNL     1      45.822 -11.709 -39.588  1.00  0.00    -0.000 C 
BRANCH  12  13
ATOM     13  C   UNL     1      46.592 -12.780 -38.801  1.00  0.00    -0.003 C 
ATOM     14  C   UNL     1      45.767 -14.058 -38.662  1.00  0.00     0.004 C 
ENDBRANCH  12  13
ENDBRANCH  11  12
ENDBRANCH  10  11
ENDBRANCH   9  10
ENDBRANCH   1   9
TORSDOF 10
ENDMDL
