MODEL 1
REMARK VINA RESULT:    -5.009      0.000      0.000
REMARK INTER + INTRA:          -6.040
REMARK INTER:                  -5.741
REMARK INTRA:                  -0.300
REMARK UNBOUND:                -0.300
REMARK SMILES COc1ccc(C(C)=O)c(O)c1
REMARK SMILES IDX 6 1 10 2 12 3 3 4 4 5 5 6 7 7 8 8 9 9 11 10 2 12 1 13
REMARK H PARENT 11 11
REMARK Flexibility Score: inf
ROOT
ATOM      1  C   UNL     1       3.387  51.874   7.236  1.00  0.00     0.059 A 
ATOM      2  C   UNL     1       2.506  52.612   6.408  1.00  0.00     0.130 A 
ATOM      3  C   UNL     1       3.024  53.498   5.456  1.00  0.00     0.093 A 
ATOM      4  C   UNL     1       4.412  53.694   5.333  1.00  0.00     0.122 A 
ATOM      5  C   UNL     1       5.274  52.986   6.174  1.00  0.00     0.047 A 
ATOM      6  C   UNL     1       4.772  52.086   7.114  1.00  0.00     0.019 A 
ENDROOT
BRANCH   1   7
ATOM      7  C   UNL     1       2.896  50.861   8.200  1.00  0.00     0.163 C 
ATOM      8  C   UNL     1       3.769  49.730   8.648  1.00  0.00     0.093 C 
ATOM      9  O   UNL     1       1.698  50.895   8.593  1.00  0.00    -0.294 OA
ENDBRANCH   1   7
BRANCH   2  10
ATOM     10  O   UNL     1       1.117  52.514   6.519  1.00  0.00    -0.507 OA
ATOM     11  H   UNL     1       0.587  51.716   6.195  1.00  0.00     0.293 HD
ENDBRANCH   2  10
BRANCH   4  12
ATOM     12  O   UNL     1       4.969  54.578   4.398  1.00  0.00    -0.497 OA
ATOM     13  C   UNL     1       6.209  54.364   3.729  1.00  0.00     0.278 C 
ENDBRANCH   4  12
TORSDOF 3
ENDMDL
MODEL 2
REMARK VINA RESULT:    -4.930      1.596      2.566
REMARK INTER + INTRA:          -5.950
REMARK INTER:                  -5.622
REMARK INTRA:                  -0.328
REMARK UNBOUND:                -0.300
REMARK SMILES COc1ccc(C(C)=O)c(O)c1
REMARK SMILES IDX 6 1 10 2 12 3 3 4 4 5 5 6 7 7 8 8 9 9 11 10 2 12 1 13
REMARK H PARENT 11 11
REMARK Flexibility Score: inf
ROOT
ATOM      1  C   UNL     1       2.796  53.233   6.458  1.00  0.00     0.059 A 
ATOM      2  C   UNL     1       4.076  52.629   6.510  1.00  0.00     0.130 A 
ATOM      3  C   UNL     1       5.108  53.113   5.699  1.00  0.00     0.093 A 
ATOM      4  C   UNL     1       4.884  54.174   4.803  1.00  0.00     0.122 A 
ATOM      5  C   UNL     1       3.611  54.747   4.734  1.00  0.00     0.047 A 
ATOM      6  C   UNL     1       2.578  54.285   5.550  1.00  0.00     0.019 A 
ENDROOT
BRANCH   1   7
ATOM      7  C   UNL     1       1.692  52.816   7.355  1.00  0.00     0.163 C 
ATOM      8  C   UNL     1       0.764  53.823   7.961  1.00  0.00     0.093 C 
ATOM      9  O   UNL     1       1.574  51.605   7.685  1.00  0.00    -0.294 OA
ENDBRANCH   1   7
BRANCH   2  10
ATOM     10  O   UNL     1       4.351  51.531   7.330  1.00  0.00    -0.507 OA
ATOM     11  H   UNL     1       5.120  51.505   7.986  1.00  0.00     0.293 HD
ENDBRANCH   2  10
BRANCH   4  12
ATOM     12  O   UNL     1       5.890  54.683   3.969  1.00  0.00    -0.497 OA
ATOM     13  C   UNL     1       5.793  54.767   2.550  1.00  0.00     0.278 C 
ENDBRANCH   4  12
TORSDOF 3
ENDMDL
MODEL 3
REMARK VINA RESULT:    -4.900     15.259     16.891
REMARK INTER + INTRA:          -5.915
REMARK INTER:                  -5.688
REMARK INTRA:                  -0.227
REMARK UNBOUND:                -0.300
REMARK SMILES COc1ccc(C(C)=O)c(O)c1
REMARK SMILES IDX 6 1 10 2 12 3 3 4 4 5 5 6 7 7 8 8 9 9 11 10 2 12 1 13
REMARK H PARENT 11 11
REMARK Flexibility Score: inf
ROOT
ATOM      1  C   UNL     1      -8.359  64.723   3.224  1.00  0.00     0.059 A 
ATOM      2  C   UNL     1      -8.166  63.320   3.174  1.00  0.00     0.130 A 
ATOM      3  C   UNL     1      -7.099  62.739   3.871  1.00  0.00     0.093 A 
ATOM      4  C   UNL     1      -6.193  63.535   4.594  1.00  0.00     0.122 A 
ATOM      5  C   UNL     1      -6.371  64.920   4.615  1.00  0.00     0.047 A 
ATOM      6  C   UNL     1      -7.440  65.510   3.939  1.00  0.00     0.019 A 
ENDROOT
BRANCH   1   7
ATOM      7  C   UNL     1      -9.519  65.379   2.576  1.00  0.00     0.163 C 
ATOM      8  C   UNL     1     -10.744  65.737   3.360  1.00  0.00     0.093 C 
ATOM      9  O   UNL     1      -9.519  65.570   1.330  1.00  0.00    -0.294 OA
ENDBRANCH   1   7
BRANCH   2  10
ATOM     10  O   UNL     1      -8.991  62.478   2.424  1.00  0.00    -0.507 OA
ATOM     11  H   UNL     1      -9.925  62.730   2.132  1.00  0.00     0.293 HD
ENDBRANCH   2  10
BRANCH   4  12
ATOM     12  O   UNL     1      -5.108  62.991   5.299  1.00  0.00    -0.497 OA
ATOM     13  C   UNL     1      -4.291  61.927   4.821  1.00  0.00     0.278 C 
ENDBRANCH   4  12
TORSDOF 3
ENDMDL
MODEL 4
REMARK VINA RESULT:    -4.840     13.449     15.038
REMARK INTER + INTRA:          -5.847
REMARK INTER:                  -5.523
REMARK INTRA:                  -0.324
REMARK UNBOUND:                -0.300
REMARK SMILES COc1ccc(C(C)=O)c(O)c1
REMARK SMILES IDX 6 1 10 2 12 3 3 4 4 5 5 6 7 7 8 8 9 9 11 10 2 12 1 13
REMARK H PARENT 11 11
REMARK Flexibility Score: inf
ROOT
ATOM      1  C   UNL     1      -6.373  61.766   3.483  1.00  0.00     0.059 A 
ATOM      2  C   UNL     1      -5.272  62.519   3.961  1.00  0.00     0.130 A 
ATOM      3  C   UNL     1      -5.491  63.758   4.577  1.00  0.00     0.093 A 
ATOM      4  C   UNL     1      -6.790  64.283   4.697  1.00  0.00     0.122 A 
ATOM      5  C   UNL     1      -7.869  63.549   4.196  1.00  0.00     0.047 A 
ATOM      6  C   UNL     1      -7.666  62.306   3.596  1.00  0.00     0.019 A 
ENDROOT
BRANCH   1   7
ATOM      7  C   UNL     1      -6.205  60.414   2.901  1.00  0.00     0.163 C 
ATOM      8  C   UNL     1      -7.250  59.820   2.007  1.00  0.00     0.093 C 
ATOM      9  O   UNL     1      -5.210  59.709   3.222  1.00  0.00    -0.294 OA
ENDBRANCH   1   7
BRANCH   2  10
ATOM     10  O   UNL     1      -3.952  62.087   3.818  1.00  0.00    -0.507 OA
ATOM     11  H   UNL     1      -3.390  62.277   2.999  1.00  0.00     0.293 HD
ENDBRANCH   2  10
BRANCH   4  12
ATOM     12  O   UNL     1      -7.050  65.522   5.300  1.00  0.00    -0.497 OA
ATOM     13  C   UNL     1      -8.352  66.073   5.478  1.00  0.00     0.278 C 
ENDBRANCH   4  12
TORSDOF 3
ENDMDL
MODEL 5
REMARK VINA RESULT:    -4.796      1.298      4.403
REMARK INTER + INTRA:          -5.796
REMARK INTER:                  -5.495
REMARK INTRA:                  -0.301
REMARK UNBOUND:                -0.300
REMARK SMILES COc1ccc(C(C)=O)c(O)c1
REMARK SMILES IDX 6 1 10 2 12 3 3 4 4 5 5 6 7 7 8 8 9 9 11 10 2 12 1 13
REMARK H PARENT 11 11
REMARK Flexibility Score: inf
ROOT
ATOM      1  C   UNL     1       4.193  53.364   5.724  1.00  0.00     0.059 A 
ATOM      2  C   UNL     1       3.035  52.975   6.442  1.00  0.00     0.130 A 
ATOM      3  C   UNL     1       3.131  51.999   7.442  1.00  0.00     0.093 A 
ATOM      4  C   UNL     1       4.359  51.372   7.721  1.00  0.00     0.122 A 
ATOM      5  C   UNL     1       5.491  51.738   6.989  1.00  0.00     0.047 A 
ATOM      6  C   UNL     1       5.412  52.721   6.002  1.00  0.00     0.019 A 
ENDROOT
BRANCH   1   7
ATOM      7  C   UNL     1       4.165  54.450   4.717  1.00  0.00     0.163 C 
ATOM      8  C   UNL     1       5.292  54.639   3.749  1.00  0.00     0.093 C 
ATOM      9  O   UNL     1       3.219  55.285   4.718  1.00  0.00    -0.294 OA
ENDBRANCH   1   7
BRANCH   2  10
ATOM     10  O   UNL     1       1.774  53.511   6.173  1.00  0.00    -0.507 OA
ATOM     11  H   UNL     1       1.592  54.152   5.413  1.00  0.00     0.293 HD
ENDBRANCH   2  10
BRANCH   4  12
ATOM     12  O   UNL     1       4.494  50.386   8.709  1.00  0.00    -0.497 OA
ATOM     13  C   UNL     1       4.561  48.987   8.446  1.00  0.00     0.278 C 
ENDBRANCH   4  12
TORSDOF 3
ENDMDL
MODEL 6
REMARK VINA RESULT:    -4.768      1.589      5.082
REMARK INTER + INTRA:          -5.765
REMARK INTER:                  -5.451
REMARK INTRA:                  -0.314
REMARK UNBOUND:                -0.300
REMARK SMILES COc1ccc(C(C)=O)c(O)c1
REMARK SMILES IDX 6 1 10 2 12 3 3 4 4 5 5 6 7 7 8 8 9 9 11 10 2 12 1 13
REMARK H PARENT 11 11
REMARK Flexibility Score: inf
ROOT
ATOM      1  C   UNL     1       4.070  52.958   6.235  1.00  0.00     0.059 A 
ATOM      2  C   UNL     1       5.027  52.182   6.935  1.00  0.00     0.130 A 
ATOM      3  C   UNL     1       4.601  51.204   7.842  1.00  0.00     0.093 A 
ATOM      4  C   UNL     1       3.232  51.003   8.094  1.00  0.00     0.122 A 
ATOM      5  C   UNL     1       2.294  51.792   7.423  1.00  0.00     0.047 A 
ATOM      6  C   UNL     1       2.705  52.758   6.504  1.00  0.00     0.019 A 
ENDROOT
BRANCH   1   7
ATOM      7  C   UNL     1       4.464  53.947   5.203  1.00  0.00     0.163 C 
ATOM      8  C   UNL     1       3.510  55.004   4.740  1.00  0.00     0.093 C 
ATOM      9  O   UNL     1       5.589  53.854   4.640  1.00  0.00    -0.294 OA
ENDBRANCH   1   7
BRANCH   2  10
ATOM     10  O   UNL     1       6.402  52.373   6.780  1.00  0.00    -0.507 OA
ATOM     11  H   UNL     1       6.803  53.152   6.275  1.00  0.00     0.293 HD
ENDBRANCH   2  10
BRANCH   4  12
ATOM     12  O   UNL     1       2.766  50.038   9.000  1.00  0.00    -0.497 OA
ATOM     13  C   UNL     1       1.514  50.109   9.676  1.00  0.00     0.278 C 
ENDBRANCH   4  12
TORSDOF 3
ENDMDL
MODEL 7
REMARK VINA RESULT:    -4.758     15.029     16.557
REMARK INTER + INTRA:          -5.753
REMARK INTER:                  -5.449
REMARK INTRA:                  -0.304
REMARK UNBOUND:                -0.300
REMARK SMILES COc1ccc(C(C)=O)c(O)c1
REMARK SMILES IDX 6 1 10 2 12 3 3 4 4 5 5 6 7 7 8 8 9 9 11 10 2 12 1 13
REMARK H PARENT 11 11
REMARK Flexibility Score: inf
ROOT
ATOM      1  C   UNL     1      -6.717  63.295   4.128  1.00  0.00     0.059 A 
ATOM      2  C   UNL     1      -6.720  64.708   4.235  1.00  0.00     0.130 A 
ATOM      3  C   UNL     1      -7.805  65.441   3.741  1.00  0.00     0.093 A 
ATOM      4  C   UNL     1      -8.881  64.796   3.106  1.00  0.00     0.122 A 
ATOM      5  C   UNL     1      -8.859  63.405   2.977  1.00  0.00     0.047 A 
ATOM      6  C   UNL     1      -7.792  62.661   3.481  1.00  0.00     0.019 A 
ENDROOT
BRANCH   1   7
ATOM      7  C   UNL     1      -5.636  62.465   4.710  1.00  0.00     0.163 C 
ATOM      8  C   UNL     1      -4.865  61.497   3.867  1.00  0.00     0.093 C 
ATOM      9  O   UNL     1      -5.407  62.508   5.949  1.00  0.00    -0.294 OA
ENDBRANCH   1   7
BRANCH   2  10
ATOM     10  O   UNL     1      -5.655  65.417   4.796  1.00  0.00    -0.507 OA
ATOM     11  H   UNL     1      -5.730  66.373   5.115  1.00  0.00     0.293 HD
ENDBRANCH   2  10
BRANCH   4  12
ATOM     12  O   UNL     1      -9.983  65.496   2.592  1.00  0.00    -0.497 OA
ATOM     13  C   UNL     1     -11.125  65.872   3.356  1.00  0.00     0.278 C 
ENDBRANCH   4  12
TORSDOF 3
ENDMDL
MODEL 8
REMARK VINA RESULT:    -4.753      1.753      2.357
REMARK INTER + INTRA:          -5.747
REMARK INTER:                  -5.417
REMARK INTRA:                  -0.330
REMARK UNBOUND:                -0.300
REMARK SMILES COc1ccc(C(C)=O)c(O)c1
REMARK SMILES IDX 6 1 10 2 12 3 3 4 4 5 5 6 7 7 8 8 9 9 11 10 2 12 1 13
REMARK H PARENT 11 11
REMARK Flexibility Score: inf
ROOT
ATOM      1  C   UNL     1       3.946  52.049   7.226  1.00  0.00     0.059 A 
ATOM      2  C   UNL     1       5.234  52.263   6.677  1.00  0.00     0.130 A 
ATOM      3  C   UNL     1       5.398  53.162   5.617  1.00  0.00     0.093 A 
ATOM      4  C   UNL     1       4.293  53.834   5.064  1.00  0.00     0.122 A 
ATOM      5  C   UNL     1       3.021  53.596   5.590  1.00  0.00     0.047 A 
ATOM      6  C   UNL     1       2.846  52.715   6.658  1.00  0.00     0.019 A 
ENDROOT
BRANCH   1   7
ATOM      7  C   UNL     1       3.729  51.173   8.403  1.00  0.00     0.163 C 
ATOM      8  C   UNL     1       2.429  50.457   8.606  1.00  0.00     0.093 C 
ATOM      9  O   UNL     1       4.615  51.088   9.295  1.00  0.00    -0.294 OA
ENDBRANCH   1   7
BRANCH   2  10
ATOM     10  O   UNL     1       6.365  51.582   7.136  1.00  0.00    -0.507 OA
ATOM     11  H   UNL     1       6.737  50.756   6.687  1.00  0.00     0.293 HD
ENDBRANCH   2  10
BRANCH   4  12
ATOM     12  O   UNL     1       4.415  54.737   3.998  1.00  0.00    -0.497 OA
ATOM     13  C   UNL     1       5.439  54.680   3.009  1.00  0.00     0.278 C 
ENDBRANCH   4  12
TORSDOF 3
ENDMDL
MODEL 9
REMARK VINA RESULT:    -4.669     13.646     15.083
REMARK INTER + INTRA:          -5.651
REMARK INTER:                  -5.346
REMARK INTRA:                  -0.306
REMARK UNBOUND:                -0.300
REMARK SMILES COc1ccc(C(C)=O)c(O)c1
REMARK SMILES IDX 6 1 10 2 12 3 3 4 4 5 5 6 7 7 8 8 9 9 11 10 2 12 1 13
REMARK H PARENT 11 11
REMARK Flexibility Score: inf
ROOT
ATOM      1  C   UNL     1      -6.764  61.927   3.376  1.00  0.00     0.059 A 
ATOM      2  C   UNL     1      -7.767  62.921   3.484  1.00  0.00     0.130 A 
ATOM      3  C   UNL     1      -7.470  64.147   4.092  1.00  0.00     0.093 A 
ATOM      4  C   UNL     1      -6.195  64.393   4.631  1.00  0.00     0.122 A 
ATOM      5  C   UNL     1      -5.218  63.397   4.549  1.00  0.00     0.047 A 
ATOM      6  C   UNL     1      -5.496  62.179   3.930  1.00  0.00     0.019 A 
ENDROOT
BRANCH   1   7
ATOM      7  C   UNL     1      -6.999  60.647   2.667  1.00  0.00     0.163 C 
ATOM      8  C   UNL     1      -6.046  59.500   2.802  1.00  0.00     0.093 C 
ATOM      9  O   UNL     1      -7.971  60.539   1.870  1.00  0.00    -0.294 OA
ENDBRANCH   1   7
BRANCH   2  10
ATOM     10  O   UNL     1      -9.072  62.719   3.027  1.00  0.00    -0.507 OA
ATOM     11  H   UNL     1      -9.294  62.200   2.189  1.00  0.00     0.293 HD
ENDBRANCH   2  10
BRANCH   4  12
ATOM     12  O   UNL     1      -5.860  65.605   5.255  1.00  0.00    -0.497 OA
ATOM     13  C   UNL     1      -4.813  65.756   6.209  1.00  0.00     0.278 C 
ENDBRANCH   4  12
TORSDOF 3
ENDMDL
