MODEL 1
REMARK VINA RESULT:    -3.225      0.000      0.000
REMARK INTER + INTRA:          -4.108
REMARK INTER:                  -3.979
REMARK INTRA:                  -0.129
REMARK UNBOUND:                -0.129
REMARK SMILES CCCCCC(C)=O
REMARK SMILES IDX 4 1 3 2 2 3 1 4 5 5 6 6 8 7 7 8
REMARK H PARENT
REMARK Flexibility Score: inf
ROOT
ATOM      1  C   UNL     1     161.155 164.454 167.701  1.00  0.00     0.008 C 
ENDROOT
BRANCH   1   2
ATOM      2  C   UNL     1     161.969 164.531 169.002  1.00  0.00     0.000 C 
BRANCH   2   3
ATOM      3  C   UNL     1     163.426 164.957 168.761  1.00  0.00    -0.003 C 
ATOM      4  C   UNL     1     163.749 165.147 167.280  1.00  0.00     0.004 C 
ENDBRANCH   2   3
ENDBRANCH   1   2
BRANCH   1   5
ATOM      5  C   UNL     1     159.751 163.889 167.965  1.00  0.00     0.075 C 
BRANCH   5   6
ATOM      6  C   UNL     1     158.672 164.945 167.932  1.00  0.00     0.129 C 
ATOM      7  O   UNL     1     158.179 165.374 168.964  1.00  0.00    -0.300 OA
ATOM      8  C   UNL     1     158.183 165.474 166.617  1.00  0.00     0.087 C 
ENDBRANCH   5   6
ENDBRANCH   1   5
TORSDOF 4
ENDMDL
MODEL 2
REMARK VINA RESULT:    -3.220      6.562      7.876
REMARK INTER + INTRA:          -4.102
REMARK INTER:                  -3.950
REMARK INTRA:                  -0.151
REMARK UNBOUND:                -0.129
REMARK SMILES CCCCCC(C)=O
REMARK SMILES IDX 4 1 3 2 2 3 1 4 5 5 6 6 8 7 7 8
REMARK H PARENT
REMARK Flexibility Score: inf
ROOT
ATOM      1  C   UNL     1     167.467 160.339 168.615  1.00  0.00     0.008 C 
ENDROOT
BRANCH   1   2
ATOM      2  C   UNL     1     166.807 161.635 169.111  1.00  0.00     0.000 C 
BRANCH   2   3
ATOM      3  C   UNL     1     166.415 162.575 167.961  1.00  0.00    -0.003 C 
ATOM      4  C   UNL     1     166.253 164.026 168.412  1.00  0.00     0.004 C 
ENDBRANCH   2   3
ENDBRANCH   1   2
BRANCH   1   5
ATOM      5  C   UNL     1     166.810 159.851 167.315  1.00  0.00     0.075 C 
BRANCH   5   6
ATOM      6  C   UNL     1     166.006 158.586 167.498  1.00  0.00     0.129 C 
ATOM      7  O   UNL     1     165.755 158.155 168.614  1.00  0.00    -0.300 OA
ATOM      8  C   UNL     1     165.513 157.833 166.300  1.00  0.00     0.087 C 
ENDBRANCH   5   6
ENDBRANCH   1   5
TORSDOF 4
ENDMDL
MODEL 3
REMARK VINA RESULT:    -3.212      6.493      7.783
REMARK INTER + INTRA:          -4.092
REMARK INTER:                  -3.955
REMARK INTRA:                  -0.136
REMARK UNBOUND:                -0.129
REMARK SMILES CCCCCC(C)=O
REMARK SMILES IDX 4 1 3 2 2 3 1 4 5 5 6 6 8 7 7 8
REMARK H PARENT
REMARK Flexibility Score: inf
ROOT
ATOM      1  C   UNL     1     164.466 170.058 167.695  1.00  0.00     0.008 C 
ENDROOT
BRANCH   1   2
ATOM      2  C   UNL     1     164.526 169.374 169.070  1.00  0.00     0.000 C 
BRANCH   2   3
ATOM      3  C   UNL     1     164.895 167.886 168.973  1.00  0.00    -0.003 C 
ATOM      4  C   UNL     1     165.181 167.440 167.540  1.00  0.00     0.004 C 
ENDBRANCH   2   3
ENDBRANCH   1   2
BRANCH   1   5
ATOM      5  C   UNL     1     163.898 171.480 167.813  1.00  0.00     0.075 C 
BRANCH   5   6
ATOM      6  C   UNL     1     164.970 172.543 167.859  1.00  0.00     0.129 C 
ATOM      7  O   UNL     1     165.391 172.967 168.926  1.00  0.00    -0.300 OA
ATOM      8  C   UNL     1     165.526 173.102 166.584  1.00  0.00     0.087 C 
ENDBRANCH   5   6
ENDBRANCH   1   5
TORSDOF 4
ENDMDL
MODEL 4
REMARK VINA RESULT:    -3.136      8.668     11.278
REMARK INTER + INTRA:          -3.998
REMARK INTER:                  -3.881
REMARK INTRA:                  -0.117
REMARK UNBOUND:                -0.129
REMARK SMILES CCCCCC(C)=O
REMARK SMILES IDX 4 1 3 2 2 3 1 4 5 5 6 6 8 7 7 8
REMARK H PARENT
REMARK Flexibility Score: inf
ROOT
ATOM      1  C   UNL     1     170.683 167.088 167.056  1.00  0.00     0.008 C 
ENDROOT
BRANCH   1   2
ATOM      2  C   UNL     1     169.745 166.722 168.216  1.00  0.00     0.000 C 
BRANCH   2   3
ATOM      3  C   UNL     1     168.340 166.325 167.736  1.00  0.00    -0.003 C 
ATOM      4  C   UNL     1     167.324 166.253 168.875  1.00  0.00     0.004 C 
ENDBRANCH   2   3
ENDBRANCH   1   2
BRANCH   1   5
ATOM      5  C   UNL     1     172.020 166.341 167.174  1.00  0.00     0.075 C 
BRANCH   5   6
ATOM      6  C   UNL     1     172.715 166.576 168.493  1.00  0.00     0.129 C 
ATOM      7  O   UNL     1     172.990 165.643 169.234  1.00  0.00    -0.300 OA
ATOM      8  C   UNL     1     173.067 167.969 168.917  1.00  0.00     0.087 C 
ENDBRANCH   5   6
ENDBRANCH   1   5
TORSDOF 4
ENDMDL
MODEL 5
REMARK VINA RESULT:    -2.987      7.385      8.632
REMARK INTER + INTRA:          -3.814
REMARK INTER:                  -3.523
REMARK INTRA:                  -0.291
REMARK UNBOUND:                -0.129
REMARK SMILES CCCCCC(C)=O
REMARK SMILES IDX 4 1 3 2 2 3 1 4 5 5 6 6 8 7 7 8
REMARK H PARENT
REMARK Flexibility Score: inf
ROOT
ATOM      1  C   UNL     1     163.300 171.317 168.855  1.00  0.00     0.008 C 
ENDROOT
BRANCH   1   2
ATOM      2  C   UNL     1     164.229 170.298 168.175  1.00  0.00     0.000 C 
BRANCH   2   3
ATOM      3  C   UNL     1     164.567 170.684 166.727  1.00  0.00    -0.003 C 
ATOM      4  C   UNL     1     165.208 172.066 166.617  1.00  0.00     0.004 C 
ENDBRANCH   2   3
ENDBRANCH   1   2
BRANCH   1   5
ATOM      5  C   UNL     1     163.700 171.530 170.323  1.00  0.00     0.075 C 
BRANCH   5   6
ATOM      6  C   UNL     1     165.041 172.205 170.479  1.00  0.00     0.129 C 
ATOM      7  O   UNL     1     165.302 173.233 169.872  1.00  0.00    -0.300 OA
ATOM      8  C   UNL     1     166.079 171.610 171.381  1.00  0.00     0.087 C 
ENDBRANCH   5   6
ENDBRANCH   1   5
TORSDOF 4
ENDMDL
MODEL 6
REMARK VINA RESULT:    -2.985      8.329      9.217
REMARK INTER + INTRA:          -3.813
REMARK INTER:                  -3.530
REMARK INTRA:                  -0.283
REMARK UNBOUND:                -0.129
REMARK SMILES CCCCCC(C)=O
REMARK SMILES IDX 4 1 3 2 2 3 1 4 5 5 6 6 8 7 7 8
REMARK H PARENT
REMARK Flexibility Score: inf
ROOT
ATOM      1  C   UNL     1     167.416 160.281 168.736  1.00  0.00     0.008 C 
ENDROOT
BRANCH   1   2
ATOM      2  C   UNL     1     168.808 159.685 168.994  1.00  0.00     0.000 C 
BRANCH   2   3
ATOM      3  C   UNL     1     168.778 158.536 170.014  1.00  0.00    -0.003 C 
ATOM      4  C   UNL     1     169.135 157.185 169.393  1.00  0.00     0.004 C 
ENDBRANCH   2   3
ENDBRANCH   1   2
BRANCH   1   5
ATOM      5  C   UNL     1     166.864 159.821 167.379  1.00  0.00     0.075 C 
BRANCH   5   6
ATOM      6  C   UNL     1     166.008 158.581 167.478  1.00  0.00     0.129 C 
ATOM      7  O   UNL     1     165.646 158.151 168.563  1.00  0.00    -0.300 OA
ATOM      8  C   UNL     1     165.599 157.852 166.234  1.00  0.00     0.087 C 
ENDBRANCH   5   6
ENDBRANCH   1   5
TORSDOF 4
ENDMDL
MODEL 7
REMARK VINA RESULT:    -2.961      6.521      7.854
REMARK INTER + INTRA:          -3.782
REMARK INTER:                  -3.661
REMARK INTRA:                  -0.121
REMARK UNBOUND:                -0.129
REMARK SMILES CCCCCC(C)=O
REMARK SMILES IDX 4 1 3 2 2 3 1 4 5 5 6 6 8 7 7 8
REMARK H PARENT
REMARK Flexibility Score: inf
ROOT
ATOM      1  C   UNL     1     164.357 170.380 167.453  1.00  0.00     0.008 C 
ENDROOT
BRANCH   1   2
ATOM      2  C   UNL     1     164.575 169.213 168.428  1.00  0.00     0.000 C 
BRANCH   2   3
ATOM      3  C   UNL     1     164.966 167.911 167.712  1.00  0.00    -0.003 C 
ATOM      4  C   UNL     1     164.967 166.701 168.645  1.00  0.00     0.004 C 
ENDBRANCH   2   3
ENDBRANCH   1   2
BRANCH   1   5
ATOM      5  C   UNL     1     163.829 171.621 168.190  1.00  0.00     0.075 C 
BRANCH   5   6
ATOM      6  C   UNL     1     164.928 172.470 168.782  1.00  0.00     0.129 C 
ATOM      7  O   UNL     1     165.666 173.133 168.068  1.00  0.00    -0.300 OA
ATOM      8  C   UNL     1     165.134 172.498 170.267  1.00  0.00     0.087 C 
ENDBRANCH   5   6
ENDBRANCH   1   5
TORSDOF 4
ENDMDL
MODEL 8
REMARK VINA RESULT:    -2.942     10.066     11.557
REMARK INTER + INTRA:          -3.759
REMARK INTER:                  -3.569
REMARK INTRA:                  -0.190
REMARK UNBOUND:                -0.129
REMARK SMILES CCCCCC(C)=O
REMARK SMILES IDX 4 1 3 2 2 3 1 4 5 5 6 6 8 7 7 8
REMARK H PARENT
REMARK Flexibility Score: inf
ROOT
ATOM      1  C   UNL     1     170.857 167.450 168.535  1.00  0.00     0.008 C 
ENDROOT
BRANCH   1   2
ATOM      2  C   UNL     1     169.563 166.802 169.050  1.00  0.00     0.000 C 
BRANCH   2   3
ATOM      3  C   UNL     1     169.523 166.701 170.583  1.00  0.00    -0.003 C 
ATOM      4  C   UNL     1     170.681 165.883 171.152  1.00  0.00     0.004 C 
ENDBRANCH   2   3
ENDBRANCH   1   2
BRANCH   1   5
ATOM      5  C   UNL     1     171.356 166.746 167.264  1.00  0.00     0.075 C 
BRANCH   5   6
ATOM      6  C   UNL     1     172.648 165.995 167.473  1.00  0.00     0.129 C 
ATOM      7  O   UNL     1     173.086 165.794 168.597  1.00  0.00    -0.300 OA
ATOM      8  C   UNL     1     173.421 165.492 166.292  1.00  0.00     0.087 C 
ENDBRANCH   5   6
ENDBRANCH   1   5
TORSDOF 4
ENDMDL
MODEL 9
REMARK VINA RESULT:    -2.858      7.965      8.973
REMARK INTER + INTRA:          -3.655
REMARK INTER:                  -3.309
REMARK INTRA:                  -0.345
REMARK UNBOUND:                -0.129
REMARK SMILES CCCCCC(C)=O
REMARK SMILES IDX 4 1 3 2 2 3 1 4 5 5 6 6 8 7 7 8
REMARK H PARENT
REMARK Flexibility Score: inf
ROOT
ATOM      1  C   UNL     1     163.290 171.131 169.815  1.00  0.00     0.008 C 
ENDROOT
BRANCH   1   2
ATOM      2  C   UNL     1     161.928 171.683 169.368  1.00  0.00     0.000 C 
BRANCH   2   3
ATOM      3  C   UNL     1     161.550 172.982 170.096  1.00  0.00    -0.003 C 
ATOM      4  C   UNL     1     161.945 174.235 169.315  1.00  0.00     0.004 C 
ENDBRANCH   2   3
ENDBRANCH   1   2
BRANCH   1   5
ATOM      5  C   UNL     1     164.259 171.032 168.628  1.00  0.00     0.075 C 
BRANCH   5   6
ATOM      6  C   UNL     1     164.982 172.326 168.343  1.00  0.00     0.129 C 
ATOM      7  O   UNL     1     165.405 173.024 169.254  1.00  0.00    -0.300 OA
ATOM      8  C   UNL     1     165.179 172.779 166.928  1.00  0.00     0.087 C 
ENDBRANCH   5   6
ENDBRANCH   1   5
TORSDOF 4
ENDMDL
