MODEL 1
REMARK VINA RESULT:    -7.524      0.000      0.000
REMARK INTER + INTRA:          -9.410
REMARK INTER:                  -9.064
REMARK INTRA:                  -0.347
REMARK UNBOUND:                -0.347
REMARK SMILES Oc1cc(O)c2cc(O)c(-c3ccc(O)c(O)c3)[o+]c2c1
REMARK SMILES IDX 10 1 19 2 20 3 21 4 2 5 3 6 4 7 6 8 7 9 8 10 11 11 12 12
REMARK SMILES IDX 13 13 14 14 18 15 16 16 15 17 17 19 9 21 1 23 5 25
REMARK H PARENT 15 18 17 20 9 22 1 24 5 26
REMARK Flexibility Score: inf
ROOT
ATOM      1  C   UNL     1      60.367  -2.032   2.888  1.00  0.00     0.402 A 
ATOM      2  O   UNL     1      59.127  -2.503   2.769  1.00  0.00    -0.202 OA
ATOM      3  C   UNL     1      58.262  -2.539   3.778  1.00  0.00     0.368 A 
ATOM      4  C   UNL     1      56.976  -3.046   3.569  1.00  0.00     0.162 A 
ATOM      5  C   UNL     1      56.055  -3.085   4.623  1.00  0.00     0.128 A 
ATOM      6  C   UNL     1      56.422  -2.616   5.889  1.00  0.00     0.093 A 
ATOM      7  C   UNL     1      57.709  -2.106   6.114  1.00  0.00     0.136 A 
ATOM      8  C   UNL     1      58.636  -2.066   5.054  1.00  0.00     0.125 A 
ATOM      9  C   UNL     1      59.935  -1.575   5.222  1.00  0.00     0.078 A 
ATOM     10  C   UNL     1      60.819  -1.564   4.139  1.00  0.00     0.223 A 
ENDROOT
BRANCH   1  11
ATOM     11  C   UNL     1      61.236  -2.035   1.689  1.00  0.00     0.087 A 
ATOM     12  C   UNL     1      61.866  -3.228   1.297  1.00  0.00     0.022 A 
ATOM     13  C   UNL     1      62.674  -3.260   0.157  1.00  0.00     0.051 A 
ATOM     14  C   UNL     1      62.852  -2.105  -0.615  1.00  0.00     0.157 A 
ATOM     15  C   UNL     1      61.402  -0.883   0.900  1.00  0.00     0.068 A 
ATOM     16  C   UNL     1      62.212  -0.915  -0.245  1.00  0.00     0.158 A 
BRANCH  14  17
ATOM     17  O   UNL     1      63.660  -2.131  -1.749  1.00  0.00    -0.504 OA
ATOM     18  H   UNL     1      64.476  -1.536  -1.834  1.00  0.00     0.293 HD
ENDBRANCH  14  17
BRANCH  16  19
ATOM     19  O   UNL     1      62.380   0.229  -1.023  1.00  0.00    -0.504 OA
ATOM     20  H   UNL     1      63.151   0.320  -1.673  1.00  0.00     0.293 HD
ENDBRANCH  16  19
ENDBRANCH   1  11
BRANCH  10  21
ATOM     21  O   UNL     1      62.131  -1.124   4.312  1.00  0.00    -0.500 OA
ATOM     22  H   UNL     1      62.476  -0.289   3.854  1.00  0.00     0.294 HD
ENDBRANCH  10  21
BRANCH   5  23
ATOM     23  O   UNL     1      54.770  -3.588   4.424  1.00  0.00    -0.507 OA
ATOM     24  H   UNL     1      53.985  -2.975   4.234  1.00  0.00     0.293 HD
ENDBRANCH   5  23
BRANCH   7  25
ATOM     25  O   UNL     1      58.064  -1.643   7.381  1.00  0.00    -0.507 OA
ATOM     26  H   UNL     1      58.231  -0.659   7.559  1.00  0.00     0.293 HD
ENDBRANCH   7  25
TORSDOF 6
ENDMDL
MODEL 2
REMARK VINA RESULT:    -7.069      2.677      4.209
REMARK INTER + INTRA:          -8.862
REMARK INTER:                  -8.513
REMARK INTRA:                  -0.349
REMARK UNBOUND:                -0.347
REMARK SMILES Oc1cc(O)c2cc(O)c(-c3ccc(O)c(O)c3)[o+]c2c1
REMARK SMILES IDX 10 1 19 2 20 3 21 4 2 5 3 6 4 7 6 8 7 9 8 10 11 11 12 12
REMARK SMILES IDX 13 13 14 14 18 15 16 16 15 17 17 19 9 21 1 23 5 25
REMARK H PARENT 15 18 17 20 9 22 1 24 5 26
REMARK Flexibility Score: inf
ROOT
ATOM      1  C   UNL     1      59.974  -1.588   4.233  1.00  0.00     0.402 A 
ATOM      2  O   UNL     1      59.072  -1.594   5.214  1.00  0.00    -0.202 OA
ATOM      3  C   UNL     1      57.859  -2.121   5.082  1.00  0.00     0.368 A 
ATOM      4  C   UNL     1      56.971  -2.091   6.162  1.00  0.00     0.162 A 
ATOM      5  C   UNL     1      55.692  -2.647   6.037  1.00  0.00     0.128 A 
ATOM      6  C   UNL     1      55.299  -3.232   4.828  1.00  0.00     0.093 A 
ATOM      7  C   UNL     1      56.178  -3.267   3.736  1.00  0.00     0.136 A 
ATOM      8  C   UNL     1      57.465  -2.709   3.861  1.00  0.00     0.125 A 
ATOM      9  C   UNL     1      58.381  -2.710   2.803  1.00  0.00     0.078 A 
ATOM     10  C   UNL     1      59.644  -2.136   2.977  1.00  0.00     0.223 A 
ENDROOT
BRANCH   1  11
ATOM     11  C   UNL     1      61.297  -0.979   4.502  1.00  0.00     0.087 A 
ATOM     12  C   UNL     1      61.439   0.418   4.445  1.00  0.00     0.022 A 
ATOM     13  C   UNL     1      62.673   1.015   4.716  1.00  0.00     0.051 A 
ATOM     14  C   UNL     1      63.778   0.227   5.062  1.00  0.00     0.157 A 
ATOM     15  C   UNL     1      62.405  -1.764   4.870  1.00  0.00     0.068 A 
ATOM     16  C   UNL     1      63.643  -1.165   5.143  1.00  0.00     0.158 A 
BRANCH  14  17
ATOM     17  O   UNL     1      65.011   0.818   5.329  1.00  0.00    -0.504 OA
ATOM     18  H   UNL     1      65.869   0.463   4.923  1.00  0.00     0.293 HD
ENDBRANCH  14  17
BRANCH  16  19
ATOM     19  O   UNL     1      64.741  -1.945   5.501  1.00  0.00    -0.504 OA
ATOM     20  H   UNL     1      65.296  -2.430   4.806  1.00  0.00     0.293 HD
ENDBRANCH  16  19
ENDBRANCH   1  11
BRANCH  10  21
ATOM     21  O   UNL     1      60.543  -2.088   1.912  1.00  0.00    -0.500 OA
ATOM     22  H   UNL     1      60.299  -2.440   0.994  1.00  0.00     0.294 HD
ENDBRANCH  10  21
BRANCH   5  23
ATOM     23  O   UNL     1      54.801  -2.623   7.109  1.00  0.00    -0.507 OA
ATOM     24  H   UNL     1      55.126  -2.611   8.068  1.00  0.00     0.293 HD
ENDBRANCH   5  23
BRANCH   7  25
ATOM     25  O   UNL     1      55.775  -3.852   2.535  1.00  0.00    -0.507 OA
ATOM     26  H   UNL     1      54.795  -3.936   2.289  1.00  0.00     0.293 HD
ENDBRANCH   7  25
TORSDOF 6
ENDMDL
MODEL 3
REMARK VINA RESULT:    -7.062      1.868      7.195
REMARK INTER + INTRA:          -8.854
REMARK INTER:                  -8.827
REMARK INTRA:                  -0.027
REMARK UNBOUND:                -0.347
REMARK SMILES Oc1cc(O)c2cc(O)c(-c3ccc(O)c(O)c3)[o+]c2c1
REMARK SMILES IDX 10 1 19 2 20 3 21 4 2 5 3 6 4 7 6 8 7 9 8 10 11 11 12 12
REMARK SMILES IDX 13 13 14 14 18 15 16 16 15 17 17 19 9 21 1 23 5 25
REMARK H PARENT 15 18 17 20 9 22 1 24 5 26
REMARK Flexibility Score: inf
ROOT
ATOM      1  C   UNL     1      59.223  -1.988   4.210  1.00  0.00     0.402 A 
ATOM      2  O   UNL     1      59.971  -0.978   4.654  1.00  0.00    -0.202 OA
ATOM      3  C   UNL     1      61.014  -0.497   3.985  1.00  0.00     0.368 A 
ATOM      4  C   UNL     1      61.745   0.570   4.518  1.00  0.00     0.162 A 
ATOM      5  C   UNL     1      62.843   1.088   3.821  1.00  0.00     0.128 A 
ATOM      6  C   UNL     1      63.212   0.537   2.588  1.00  0.00     0.093 A 
ATOM      7  C   UNL     1      62.488  -0.533   2.042  1.00  0.00     0.136 A 
ATOM      8  C   UNL     1      61.383  -1.055   2.742  1.00  0.00     0.125 A 
ATOM      9  C   UNL     1      60.630  -2.126   2.250  1.00  0.00     0.078 A 
ATOM     10  C   UNL     1      59.547  -2.611   2.988  1.00  0.00     0.223 A 
ENDROOT
BRANCH   1  11
ATOM     11  C   UNL     1      58.080  -2.431   5.041  1.00  0.00     0.087 A 
ATOM     12  C   UNL     1      58.249  -2.573   6.428  1.00  0.00     0.022 A 
ATOM     13  C   UNL     1      57.179  -2.969   7.234  1.00  0.00     0.051 A 
ATOM     14  C   UNL     1      55.921  -3.215   6.668  1.00  0.00     0.157 A 
ATOM     15  C   UNL     1      56.810  -2.659   4.480  1.00  0.00     0.068 A 
ATOM     16  C   UNL     1      55.736  -3.055   5.289  1.00  0.00     0.158 A 
BRANCH  14  17
ATOM     17  O   UNL     1      54.853  -3.614   7.468  1.00  0.00    -0.504 OA
ATOM     18  H   UNL     1      54.324  -2.947   8.019  1.00  0.00     0.293 HD
ENDBRANCH  14  17
BRANCH  16  19
ATOM     19  O   UNL     1      54.480  -3.287   4.730  1.00  0.00    -0.504 OA
ATOM     20  H   UNL     1      54.090  -4.220   4.671  1.00  0.00     0.293 HD
ENDBRANCH  16  19
ENDBRANCH   1  11
BRANCH  10  21
ATOM     21  O   UNL     1      58.823  -3.711   2.527  1.00  0.00    -0.500 OA
ATOM     22  H   UNL     1      59.243  -4.410   1.926  1.00  0.00     0.294 HD
ENDBRANCH  10  21
BRANCH   5  23
ATOM     23  O   UNL     1      63.577   2.151   4.343  1.00  0.00    -0.507 OA
ATOM     24  H   UNL     1      64.545   2.040   4.623  1.00  0.00     0.293 HD
ENDBRANCH   5  23
BRANCH   7  25
ATOM     25  O   UNL     1      62.866  -1.075   0.813  1.00  0.00    -0.507 OA
ATOM     26  H   UNL     1      63.168  -2.039   0.729  1.00  0.00     0.293 HD
ENDBRANCH   7  25
TORSDOF 6
ENDMDL
MODEL 4
REMARK VINA RESULT:    -6.601      4.211      7.459
REMARK INTER + INTRA:          -8.299
REMARK INTER:                  -8.020
REMARK INTRA:                  -0.279
REMARK UNBOUND:                -0.347
REMARK SMILES Oc1cc(O)c2cc(O)c(-c3ccc(O)c(O)c3)[o+]c2c1
REMARK SMILES IDX 10 1 19 2 20 3 21 4 2 5 3 6 4 7 6 8 7 9 8 10 11 11 12 12
REMARK SMILES IDX 13 13 14 14 18 15 16 16 15 17 17 19 9 21 1 23 5 25
REMARK H PARENT 15 18 17 20 9 22 1 24 5 26
REMARK Flexibility Score: inf
ROOT
ATOM      1  C   UNL     1      62.016   1.984   4.093  1.00  0.00     0.402 A 
ATOM      2  O   UNL     1      61.791   0.671   4.036  1.00  0.00    -0.202 OA
ATOM      3  C   UNL     1      61.686   0.001   2.893  1.00  0.00     0.368 A 
ATOM      4  C   UNL     1      61.454  -1.378   2.918  1.00  0.00     0.162 A 
ATOM      5  C   UNL     1      61.346  -2.096   1.721  1.00  0.00     0.128 A 
ATOM      6  C   UNL     1      61.469  -1.432   0.495  1.00  0.00     0.093 A 
ATOM      7  C   UNL     1      61.701  -0.050   0.454  1.00  0.00     0.136 A 
ATOM      8  C   UNL     1      61.810   0.673   1.658  1.00  0.00     0.125 A 
ATOM      9  C   UNL     1      62.034   2.054   1.677  1.00  0.00     0.078 A 
ATOM     10  C   UNL     1      62.127   2.725   2.900  1.00  0.00     0.223 A 
ENDROOT
BRANCH   1  11
ATOM     11  C   UNL     1      62.122   2.618   5.427  1.00  0.00     0.087 A 
ATOM     12  C   UNL     1      61.047   3.377   5.919  1.00  0.00     0.022 A 
ATOM     13  C   UNL     1      61.117   3.968   7.183  1.00  0.00     0.051 A 
ATOM     14  C   UNL     1      62.256   3.796   7.980  1.00  0.00     0.157 A 
ATOM     15  C   UNL     1      63.256   2.432   6.240  1.00  0.00     0.068 A 
ATOM     16  C   UNL     1      63.325   3.024   7.509  1.00  0.00     0.158 A 
BRANCH  14  17
ATOM     17  O   UNL     1      62.332   4.387   9.240  1.00  0.00    -0.504 OA
ATOM     18  H   UNL     1      61.498   4.604   9.774  1.00  0.00     0.293 HD
ENDBRANCH  14  17
BRANCH  16  19
ATOM     19  O   UNL     1      64.452   2.844   8.311  1.00  0.00    -0.504 OA
ATOM     20  H   UNL     1      64.380   2.471   9.250  1.00  0.00     0.293 HD
ENDBRANCH  16  19
ENDBRANCH   1  11
BRANCH  10  21
ATOM     21  O   UNL     1      62.299   4.110   2.926  1.00  0.00    -0.500 OA
ATOM     22  H   UNL     1      62.459   4.642   2.079  1.00  0.00     0.294 HD
ENDBRANCH  10  21
BRANCH   5  23
ATOM     23  O   UNL     1      61.115  -3.470   1.737  1.00  0.00    -0.507 OA
ATOM     24  H   UNL     1      61.361  -4.057   0.948  1.00  0.00     0.293 HD
ENDBRANCH   5  23
BRANCH   7  25
ATOM     25  O   UNL     1      61.821   0.601  -0.774  1.00  0.00    -0.507 OA
ATOM     26  H   UNL     1      61.053   0.631  -1.436  1.00  0.00     0.293 HD
ENDBRANCH   7  25
TORSDOF 6
ENDMDL
MODEL 5
REMARK VINA RESULT:    -6.485      1.634      1.981
REMARK INTER + INTRA:          -8.158
REMARK INTER:                  -7.868
REMARK INTRA:                  -0.290
REMARK UNBOUND:                -0.347
REMARK SMILES Oc1cc(O)c2cc(O)c(-c3ccc(O)c(O)c3)[o+]c2c1
REMARK SMILES IDX 10 1 19 2 20 3 21 4 2 5 3 6 4 7 6 8 7 9 8 10 11 11 12 12
REMARK SMILES IDX 13 13 14 14 18 15 16 16 15 17 17 19 9 21 1 23 5 25
REMARK H PARENT 15 18 17 20 9 22 1 24 5 26
REMARK Flexibility Score: inf
ROOT
ATOM      1  C   UNL     1      59.443  -2.244   3.419  1.00  0.00     0.402 A 
ATOM      2  O   UNL     1      58.314  -2.430   2.736  1.00  0.00    -0.202 OA
ATOM      3  C   UNL     1      57.156  -2.733   3.315  1.00  0.00     0.368 A 
ATOM      4  C   UNL     1      56.014  -2.907   2.527  1.00  0.00     0.162 A 
ATOM      5  C   UNL     1      54.787  -3.222   3.125  1.00  0.00     0.128 A 
ATOM      6  C   UNL     1      54.704  -3.365   4.515  1.00  0.00     0.093 A 
ATOM      7  C   UNL     1      55.842  -3.194   5.317  1.00  0.00     0.136 A 
ATOM      8  C   UNL     1      57.075  -2.877   4.716  1.00  0.00     0.125 A 
ATOM      9  C   UNL     1      58.244  -2.703   5.467  1.00  0.00     0.078 A 
ATOM     10  C   UNL     1      59.445  -2.395   4.820  1.00  0.00     0.223 A 
ENDROOT
BRANCH   1  11
ATOM     11  C   UNL     1      60.670  -1.901   2.663  1.00  0.00     0.087 A 
ATOM     12  C   UNL     1      61.262  -2.867   1.832  1.00  0.00     0.022 A 
ATOM     13  C   UNL     1      62.408  -2.559   1.095  1.00  0.00     0.051 A 
ATOM     14  C   UNL     1      62.969  -1.278   1.164  1.00  0.00     0.157 A 
ATOM     15  C   UNL     1      61.226  -0.610   2.714  1.00  0.00     0.068 A 
ATOM     16  C   UNL     1      62.374  -0.300   1.972  1.00  0.00     0.158 A 
BRANCH  14  17
ATOM     17  O   UNL     1      64.113  -0.968   0.432  1.00  0.00    -0.504 OA
ATOM     18  H   UNL     1      64.062  -0.693  -0.542  1.00  0.00     0.293 HD
ENDBRANCH  14  17
BRANCH  16  19
ATOM     19  O   UNL     1      62.928   0.979   2.028  1.00  0.00    -0.504 OA
ATOM     20  H   UNL     1      62.437   1.749   2.465  1.00  0.00     0.293 HD
ENDBRANCH  16  19
ENDBRANCH   1  11
BRANCH  10  21
ATOM     21  O   UNL     1      60.623  -2.271   5.556  1.00  0.00    -0.500 OA
ATOM     22  H   UNL     1      61.457  -1.856   5.158  1.00  0.00     0.294 HD
ENDBRANCH  10  21
BRANCH   5  23
ATOM     23  O   UNL     1      53.644  -3.397   2.348  1.00  0.00    -0.507 OA
ATOM     24  H   UNL     1      52.721  -3.184   2.709  1.00  0.00     0.293 HD
ENDBRANCH   5  23
BRANCH   7  25
ATOM     25  O   UNL     1      55.747  -3.341   6.702  1.00  0.00    -0.507 OA
ATOM     26  H   UNL     1      54.999  -3.876   7.128  1.00  0.00     0.293 HD
ENDBRANCH   7  25
TORSDOF 6
ENDMDL
MODEL 6
REMARK VINA RESULT:    -6.407      1.853      7.240
REMARK INTER + INTRA:          -8.065
REMARK INTER:                  -7.802
REMARK INTRA:                  -0.263
REMARK UNBOUND:                -0.347
REMARK SMILES Oc1cc(O)c2cc(O)c(-c3ccc(O)c(O)c3)[o+]c2c1
REMARK SMILES IDX 10 1 19 2 20 3 21 4 2 5 3 6 4 7 6 8 7 9 8 10 11 11 12 12
REMARK SMILES IDX 13 13 14 14 18 15 16 16 15 17 17 19 9 21 1 23 5 25
REMARK H PARENT 15 18 17 20 9 22 1 24 5 26
REMARK Flexibility Score: inf
ROOT
ATOM      1  C   UNL     1      60.999  -1.505   2.122  1.00  0.00     0.402 A 
ATOM      2  O   UNL     1      61.154  -0.203   1.881  1.00  0.00    -0.202 OA
ATOM      3  C   UNL     1      61.947   0.271   0.925  1.00  0.00     0.368 A 
ATOM      4  C   UNL     1      62.051   1.652   0.734  1.00  0.00     0.162 A 
ATOM      5  C   UNL     1      62.880   2.163  -0.272  1.00  0.00     0.128 A 
ATOM      6  C   UNL     1      63.607   1.289  -1.089  1.00  0.00     0.093 A 
ATOM      7  C   UNL     1      63.513  -0.098  -0.908  1.00  0.00     0.136 A 
ATOM      8  C   UNL     1      62.679  -0.613   0.104  1.00  0.00     0.125 A 
ATOM      9  C   UNL     1      62.553  -1.987   0.334  1.00  0.00     0.078 A 
ATOM     10  C   UNL     1      61.717  -2.446   1.357  1.00  0.00     0.223 A 
ENDROOT
BRANCH   1  11
ATOM     11  C   UNL     1      60.080  -1.911   3.209  1.00  0.00     0.087 A 
ATOM     12  C   UNL     1      60.395  -1.583   4.538  1.00  0.00     0.022 A 
ATOM     13  C   UNL     1      59.533  -1.938   5.578  1.00  0.00     0.051 A 
ATOM     14  C   UNL     1      58.336  -2.614   5.304  1.00  0.00     0.157 A 
ATOM     15  C   UNL     1      58.868  -2.572   2.937  1.00  0.00     0.068 A 
ATOM     16  C   UNL     1      58.002  -2.927   3.981  1.00  0.00     0.158 A 
BRANCH  14  17
ATOM     17  O   UNL     1      57.476  -2.973   6.339  1.00  0.00    -0.504 OA
ATOM     18  H   UNL     1      57.689  -2.756   7.306  1.00  0.00     0.293 HD
ENDBRANCH  14  17
BRANCH  16  19
ATOM     19  O   UNL     1      56.804  -3.587   3.710  1.00  0.00    -0.504 OA
ATOM     20  H   UNL     1      56.699  -4.182   2.897  1.00  0.00     0.293 HD
ENDBRANCH  16  19
ENDBRANCH   1  11
BRANCH  10  21
ATOM     21  O   UNL     1      61.626  -3.812   1.625  1.00  0.00    -0.500 OA
ATOM     22  H   UNL     1      62.451  -4.393   1.712  1.00  0.00     0.294 HD
ENDBRANCH  10  21
BRANCH   5  23
ATOM     23  O   UNL     1      62.989   3.538  -0.471  1.00  0.00    -0.507 OA
ATOM     24  H   UNL     1      63.889   3.984  -0.606  1.00  0.00     0.293 HD
ENDBRANCH   5  23
BRANCH   7  25
ATOM     25  O   UNL     1      64.244  -0.959  -1.728  1.00  0.00    -0.507 OA
ATOM     26  H   UNL     1      65.214  -1.179  -1.535  1.00  0.00     0.293 HD
ENDBRANCH   7  25
TORSDOF 6
ENDMDL
MODEL 7
REMARK VINA RESULT:    -6.318      1.346      6.722
REMARK INTER + INTRA:          -7.958
REMARK INTER:                  -8.366
REMARK INTRA:                   0.408
REMARK UNBOUND:                -0.347
REMARK SMILES Oc1cc(O)c2cc(O)c(-c3ccc(O)c(O)c3)[o+]c2c1
REMARK SMILES IDX 10 1 19 2 20 3 21 4 2 5 3 6 4 7 6 8 7 9 8 10 11 11 12 12
REMARK SMILES IDX 13 13 14 14 18 15 16 16 15 17 17 19 9 21 1 23 5 25
REMARK H PARENT 15 18 17 20 9 22 1 24 5 26
REMARK Flexibility Score: inf
ROOT
ATOM      1  C   UNL     1      58.821  -2.154   4.042  1.00  0.00     0.402 A 
ATOM      2  O   UNL     1      59.468  -2.179   2.877  1.00  0.00    -0.202 OA
ATOM      3  C   UNL     1      60.748  -1.845   2.749  1.00  0.00     0.368 A 
ATOM      4  C   UNL     1      61.356  -1.903   1.491  1.00  0.00     0.162 A 
ATOM      5  C   UNL     1      62.705  -1.558   1.344  1.00  0.00     0.128 A 
ATOM      6  C   UNL     1      63.448  -1.153   2.459  1.00  0.00     0.093 A 
ATOM      7  C   UNL     1      62.852  -1.089   3.726  1.00  0.00     0.136 A 
ATOM      8  C   UNL     1      61.495  -1.437   3.875  1.00  0.00     0.125 A 
ATOM      9  C   UNL     1      60.846  -1.385   5.114  1.00  0.00     0.078 A 
ATOM     10  C   UNL     1      59.496  -1.733   5.206  1.00  0.00     0.223 A 
ENDROOT
BRANCH   1  11
ATOM     11  C   UNL     1      57.396  -2.557   4.060  1.00  0.00     0.087 A 
ATOM     12  C   UNL     1      56.763  -2.908   2.856  1.00  0.00     0.022 A 
ATOM     13  C   UNL     1      55.425  -3.311   2.852  1.00  0.00     0.051 A 
ATOM     14  C   UNL     1      54.706  -3.384   4.052  1.00  0.00     0.157 A 
ATOM     15  C   UNL     1      56.676  -2.651   5.264  1.00  0.00     0.068 A 
ATOM     16  C   UNL     1      55.334  -3.058   5.261  1.00  0.00     0.158 A 
BRANCH  14  17
ATOM     17  O   UNL     1      53.371  -3.782   4.052  1.00  0.00    -0.504 OA
ATOM     18  H   UNL     1      52.863  -3.936   4.916  1.00  0.00     0.293 HD
ENDBRANCH  14  17
BRANCH  16  19
ATOM     19  O   UNL     1      54.619  -3.145   6.455  1.00  0.00    -0.504 OA
ATOM     20  H   UNL     1      54.332  -4.038   6.837  1.00  0.00     0.293 HD
ENDBRANCH  16  19
ENDBRANCH   1  11
BRANCH  10  21
ATOM     21  O   UNL     1      58.830  -1.635   6.427  1.00  0.00    -0.500 OA
ATOM     22  H   UNL     1      58.793  -2.412   7.077  1.00  0.00     0.294 HD
ENDBRANCH  10  21
BRANCH   5  23
ATOM     23  O   UNL     1      63.319  -1.613   0.094  1.00  0.00    -0.507 OA
ATOM     24  H   UNL     1      63.678  -2.483  -0.282  1.00  0.00     0.293 HD
ENDBRANCH   5  23
BRANCH   7  25
ATOM     25  O   UNL     1      63.602  -0.683   4.830  1.00  0.00    -0.507 OA
ATOM     26  H   UNL     1      64.523  -1.065   5.015  1.00  0.00     0.293 HD
ENDBRANCH   7  25
TORSDOF 6
ENDMDL
MODEL 8
REMARK VINA RESULT:    -6.292      4.331      8.359
REMARK INTER + INTRA:          -7.927
REMARK INTER:                  -7.577
REMARK INTRA:                  -0.350
REMARK UNBOUND:                -0.347
REMARK SMILES Oc1cc(O)c2cc(O)c(-c3ccc(O)c(O)c3)[o+]c2c1
REMARK SMILES IDX 10 1 19 2 20 3 21 4 2 5 3 6 4 7 6 8 7 9 8 10 11 11 12 12
REMARK SMILES IDX 13 13 14 14 18 15 16 16 15 17 17 19 9 21 1 23 5 25
REMARK H PARENT 15 18 17 20 9 22 1 24 5 26
REMARK Flexibility Score: inf
ROOT
ATOM      1  C   UNL     1      62.177   2.070   3.879  1.00  0.00     0.402 A 
ATOM      2  O   UNL     1      62.683   2.777   2.869  1.00  0.00    -0.202 OA
ATOM      3  C   UNL     1      62.713   2.334   1.616  1.00  0.00     0.368 A 
ATOM      4  C   UNL     1      63.257   3.140   0.611  1.00  0.00     0.162 A 
ATOM      5  C   UNL     1      63.291   2.686  -0.714  1.00  0.00     0.128 A 
ATOM      6  C   UNL     1      62.779   1.424  -1.033  1.00  0.00     0.093 A 
ATOM      7  C   UNL     1      62.231   0.605  -0.036  1.00  0.00     0.136 A 
ATOM      8  C   UNL     1      62.196   1.060   1.297  1.00  0.00     0.125 A 
ATOM      9  C   UNL     1      61.669   0.283   2.334  1.00  0.00     0.078 A 
ATOM     10  C   UNL     1      61.665   0.779   3.641  1.00  0.00     0.223 A 
ENDROOT
BRANCH   1  11
ATOM     11  C   UNL     1      62.191   2.674   5.232  1.00  0.00     0.087 A 
ATOM     12  C   UNL     1      61.063   3.378   5.685  1.00  0.00     0.022 A 
ATOM     13  C   UNL     1      61.047   3.939   6.965  1.00  0.00     0.051 A 
ATOM     14  C   UNL     1      62.150   3.791   7.815  1.00  0.00     0.157 A 
ATOM     15  C   UNL     1      63.289   2.511   6.096  1.00  0.00     0.068 A 
ATOM     16  C   UNL     1      63.271   3.072   7.382  1.00  0.00     0.158 A 
BRANCH  14  17
ATOM     17  O   UNL     1      62.139   4.351   9.091  1.00  0.00    -0.504 OA
ATOM     18  H   UNL     1      62.998   4.566   9.584  1.00  0.00     0.293 HD
ENDBRANCH  14  17
BRANCH  16  19
ATOM     19  O   UNL     1      64.362   2.914   8.235  1.00  0.00    -0.504 OA
ATOM     20  H   UNL     1      64.335   3.238   9.195  1.00  0.00     0.293 HD
ENDBRANCH  16  19
ENDBRANCH   1  11
BRANCH  10  21
ATOM     21  O   UNL     1      61.187  -0.010   4.687  1.00  0.00    -0.500 OA
ATOM     22  H   UNL     1      61.259   0.287   5.653  1.00  0.00     0.294 HD
ENDBRANCH  10  21
BRANCH   5  23
ATOM     23  O   UNL     1      63.831   3.482  -1.722  1.00  0.00    -0.507 OA
ATOM     24  H   UNL     1      64.661   4.043  -1.567  1.00  0.00     0.293 HD
ENDBRANCH   5  23
BRANCH   7  25
ATOM     25  O   UNL     1      61.725  -0.653  -0.366  1.00  0.00    -0.507 OA
ATOM     26  H   UNL     1      62.035  -1.149  -1.194  1.00  0.00     0.293 HD
ENDBRANCH   7  25
TORSDOF 6
ENDMDL
MODEL 9
REMARK VINA RESULT:    -6.081      5.745      9.534
REMARK INTER + INTRA:          -7.672
REMARK INTER:                  -7.409
REMARK INTRA:                  -0.263
REMARK UNBOUND:                -0.347
REMARK SMILES Oc1cc(O)c2cc(O)c(-c3ccc(O)c(O)c3)[o+]c2c1
REMARK SMILES IDX 10 1 19 2 20 3 21 4 2 5 3 6 4 7 6 8 7 9 8 10 11 11 12 12
REMARK SMILES IDX 13 13 14 14 18 15 16 16 15 17 17 19 9 21 1 23 5 25
REMARK H PARENT 15 18 17 20 9 22 1 24 5 26
REMARK Flexibility Score: inf
ROOT
ATOM      1  C   UNL     1      63.254   3.232   3.030  1.00  0.00     0.402 A 
ATOM      2  O   UNL     1      63.658   4.283   2.317  1.00  0.00    -0.202 OA
ATOM      3  C   UNL     1      63.793   4.255   0.994  1.00  0.00     0.368 A 
ATOM      4  C   UNL     1      64.218   5.403   0.318  1.00  0.00     0.162 A 
ATOM      5  C   UNL     1      64.359   5.388  -1.075  1.00  0.00     0.128 A 
ATOM      6  C   UNL     1      64.075   4.221  -1.793  1.00  0.00     0.093 A 
ATOM      7  C   UNL     1      63.648   3.062  -1.128  1.00  0.00     0.136 A 
ATOM      8  C   UNL     1      63.505   3.077   0.273  1.00  0.00     0.125 A 
ATOM      9  C   UNL     1      63.091   1.948   0.989  1.00  0.00     0.078 A 
ATOM     10  C   UNL     1      62.972   2.014   2.380  1.00  0.00     0.223 A 
ENDROOT
BRANCH   1  11
ATOM     11  C   UNL     1      63.134   3.388   4.498  1.00  0.00     0.087 A 
ATOM     12  C   UNL     1      64.289   3.617   5.265  1.00  0.00     0.022 A 
ATOM     13  C   UNL     1      64.197   3.787   6.648  1.00  0.00     0.051 A 
ATOM     14  C   UNL     1      62.950   3.745   7.284  1.00  0.00     0.157 A 
ATOM     15  C   UNL     1      61.882   3.366   5.138  1.00  0.00     0.068 A 
ATOM     16  C   UNL     1      61.790   3.539   6.527  1.00  0.00     0.158 A 
BRANCH  14  17
ATOM     17  O   UNL     1      62.855   3.910   8.664  1.00  0.00    -0.504 OA
ATOM     18  H   UNL     1      63.192   4.749   9.122  1.00  0.00     0.293 HD
ENDBRANCH  14  17
BRANCH  16  19
ATOM     19  O   UNL     1      60.548   3.511   7.161  1.00  0.00    -0.504 OA
ATOM     20  H   UNL     1      60.454   3.233   8.130  1.00  0.00     0.293 HD
ENDBRANCH  16  19
ENDBRANCH   1  11
BRANCH  10  21
ATOM     21  O   UNL     1      62.609   0.879   3.105  1.00  0.00    -0.500 OA
ATOM     22  H   UNL     1      62.965   0.707   4.038  1.00  0.00     0.294 HD
ENDBRANCH  10  21
BRANCH   5  23
ATOM     23  O   UNL     1      64.782   6.527  -1.757  1.00  0.00    -0.507 OA
ATOM     24  H   UNL     1      65.724   6.886  -1.655  1.00  0.00     0.293 HD
ENDBRANCH   5  23
BRANCH   7  25
ATOM     25  O   UNL     1      63.368   1.904  -1.855  1.00  0.00    -0.507 OA
ATOM     26  H   UNL     1      63.752   1.005  -1.587  1.00  0.00     0.293 HD
ENDBRANCH   7  25
TORSDOF 6
ENDMDL
