MODEL 1
REMARK VINA RESULT:    -4.112      0.000      0.000
REMARK INTER + INTRA:         -12.723
REMARK INTER:                  -9.399
REMARK INTRA:                  -3.324
REMARK UNBOUND:                -3.324
REMARK SMILES CCCCCCCCCCCCCCCCCCCCCCCC(=O)[O-]
REMARK SMILES IDX 13 1 14 2 15 3 16 4 17 5 18 6 19 7 20 8 21 9 22 10 23 11
REMARK SMILES IDX 24 12 25 13 26 14 12 15 11 16 10 17 9 18 8 19 7 20 6 21 5 22
REMARK SMILES IDX 4 23 3 24 2 25 1 26
REMARK H PARENT
REMARK Flexibility Score: inf
ROOT
ATOM      1  C   UNL     1      42.251  27.501   0.575  1.00  0.00     0.000 C 
ENDROOT
BRANCH   1   2
ATOM      2  C   UNL     1      43.412  27.651  -0.421  1.00  0.00     0.000 C 
BRANCH   2   3
ATOM      3  C   UNL     1      42.983  28.350  -1.724  1.00  0.00     0.000 C 
BRANCH   3   4
ATOM      4  C   UNL     1      43.972  29.444  -2.161  1.00  0.00     0.000 C 
BRANCH   4   5
ATOM      5  C   UNL     1      45.319  29.349  -1.430  1.00  0.00     0.000 C 
BRANCH   5   6
ATOM      6  C   UNL     1      46.475  29.178  -2.428  1.00  0.00     0.000 C 
BRANCH   6   7
ATOM      7  C   UNL     1      47.013  27.737  -2.476  1.00  0.00     0.000 C 
BRANCH   7   8
ATOM      8  C   UNL     1      46.671  26.953  -3.761  1.00  0.00     0.000 C 
BRANCH   8   9
ATOM      9  C   UNL     1      46.525  27.810  -5.033  1.00  0.00     0.000 C 
BRANCH   9  10
ATOM     10  C   UNL     1      45.370  27.404  -5.971  1.00  0.00     0.006 C 
BRANCH  10  11
ATOM     11  C   UNL     1      44.087  28.230  -5.775  1.00  0.00     0.053 C 
BRANCH  11  12
ATOM     12  C   UNL     1      42.978  27.429  -5.161  1.00  0.00     0.041 C 
ATOM     13  O   UNL     1      41.786  27.825  -5.249  1.00  0.00    -0.550 OA
ATOM     14  O   UNL     1      43.256  26.227  -4.523  1.00  0.00    -0.550 OA
ENDBRANCH  11  12
ENDBRANCH  10  11
ENDBRANCH   9  10
ENDBRANCH   8   9
ENDBRANCH   7   8
ENDBRANCH   6   7
ENDBRANCH   5   6
ENDBRANCH   4   5
ENDBRANCH   3   4
ENDBRANCH   2   3
ENDBRANCH   1   2
BRANCH   1  15
ATOM     15  C   UNL     1      42.291  28.555   1.696  1.00  0.00     0.000 C 
BRANCH  15  16
ATOM     16  C   UNL     1      43.602  29.361   1.708  1.00  0.00     0.000 C 
BRANCH  16  17
ATOM     17  C   UNL     1      44.645  28.898   2.745  1.00  0.00     0.000 C 
BRANCH  17  18
ATOM     18  C   UNL     1      45.970  28.372   2.160  1.00  0.00    -0.000 C 
BRANCH  18  19
ATOM     19  C   UNL     1      45.993  26.840   2.017  1.00  0.00    -0.000 C 
BRANCH  19  20
ATOM     20  C   UNL     1      44.884  26.155   2.831  1.00  0.00    -0.000 C 
BRANCH  20  21
ATOM     21  C   UNL     1      45.433  25.195   3.899  1.00  0.00    -0.000 C 
BRANCH  21  22
ATOM     22  C   UNL     1      46.544  25.864   4.718  1.00  0.00    -0.000 C 
BRANCH  22  23
ATOM     23  C   UNL     1      46.013  26.357   6.070  1.00  0.00    -0.000 C 
BRANCH  23  24
ATOM     24  C   UNL     1      46.101  27.886   6.171  1.00  0.00    -0.000 C 
BRANCH  24  25
ATOM     25  C   UNL     1      45.455  28.431   7.456  1.00  0.00    -0.003 C 
ATOM     26  C   UNL     1      45.352  27.378   8.559  1.00  0.00     0.004 C 
ENDBRANCH  24  25
ENDBRANCH  23  24
ENDBRANCH  22  23
ENDBRANCH  21  22
ENDBRANCH  20  21
ENDBRANCH  19  20
ENDBRANCH  18  19
ENDBRANCH  17  18
ENDBRANCH  16  17
ENDBRANCH  15  16
ENDBRANCH   1  15
TORSDOF 22
ENDMDL
MODEL 2
REMARK VINA RESULT:    -3.670      1.232      2.006
REMARK INTER + INTRA:         -11.714
REMARK INTER:                  -9.454
REMARK INTRA:                  -2.260
REMARK UNBOUND:                -3.324
REMARK SMILES CCCCCCCCCCCCCCCCCCCCCCCC(=O)[O-]
REMARK SMILES IDX 13 1 14 2 15 3 16 4 17 5 18 6 19 7 20 8 21 9 22 10 23 11
REMARK SMILES IDX 24 12 25 13 26 14 12 15 11 16 10 17 9 18 8 19 7 20 6 21 5 22
REMARK SMILES IDX 4 23 3 24 2 25 1 26
REMARK H PARENT
REMARK Flexibility Score: inf
ROOT
ATOM      1  C   UNL     1      42.211  28.222   0.722  1.00  0.00     0.000 C 
ENDROOT
BRANCH   1   2
ATOM      2  C   UNL     1      42.895  29.320  -0.108  1.00  0.00     0.000 C 
BRANCH   2   3
ATOM      3  C   UNL     1      43.158  28.881  -1.560  1.00  0.00     0.000 C 
BRANCH   3   4
ATOM      4  C   UNL     1      44.654  28.879  -1.916  1.00  0.00     0.000 C 
BRANCH   4   5
ATOM      5  C   UNL     1      45.238  27.462  -2.007  1.00  0.00     0.000 C 
BRANCH   5   6
ATOM      6  C   UNL     1      46.325  27.383  -3.089  1.00  0.00     0.000 C 
BRANCH   6   7
ATOM      7  C   UNL     1      45.758  27.045  -4.480  1.00  0.00     0.000 C 
BRANCH   7   8
ATOM      8  C   UNL     1      46.650  27.463  -5.668  1.00  0.00     0.000 C 
BRANCH   8   9
ATOM      9  C   UNL     1      45.902  27.723  -6.990  1.00  0.00     0.000 C 
BRANCH   9  10
ATOM     10  C   UNL     1      44.817  28.817  -6.929  1.00  0.00     0.006 C 
BRANCH  10  11
ATOM     11  C   UNL     1      43.379  28.271  -6.935  1.00  0.00     0.053 C 
BRANCH  11  12
ATOM     12  C   UNL     1      42.628  28.618  -5.685  1.00  0.00     0.041 C 
ATOM     13  O   UNL     1      42.928  29.651  -5.031  1.00  0.00    -0.550 OA
ATOM     14  O   UNL     1      41.573  27.820  -5.260  1.00  0.00    -0.550 OA
ENDBRANCH  11  12
ENDBRANCH  10  11
ENDBRANCH   9  10
ENDBRANCH   8   9
ENDBRANCH   7   8
ENDBRANCH   6   7
ENDBRANCH   5   6
ENDBRANCH   4   5
ENDBRANCH   3   4
ENDBRANCH   2   3
ENDBRANCH   1   2
BRANCH   1  15
ATOM     15  C   UNL     1      43.035  27.808   1.954  1.00  0.00     0.000 C 
BRANCH  15  16
ATOM     16  C   UNL     1      44.000  26.644   1.661  1.00  0.00     0.000 C 
BRANCH  16  17
ATOM     17  C   UNL     1      45.490  27.034   1.583  1.00  0.00     0.000 C 
BRANCH  17  18
ATOM     18  C   UNL     1      46.434  26.216   2.484  1.00  0.00    -0.000 C 
BRANCH  18  19
ATOM     19  C   UNL     1      45.681  25.282   3.447  1.00  0.00    -0.000 C 
BRANCH  19  20
ATOM     20  C   UNL     1      45.814  25.717   4.915  1.00  0.00    -0.000 C 
BRANCH  20  21
ATOM     21  C   UNL     1      46.786  26.892   5.104  1.00  0.00    -0.000 C 
BRANCH  21  22
ATOM     22  C   UNL     1      46.106  28.052   5.842  1.00  0.00    -0.000 C 
BRANCH  22  23
ATOM     23  C   UNL     1      46.532  28.094   7.315  1.00  0.00    -0.000 C 
BRANCH  23  24
ATOM     24  C   UNL     1      45.311  28.030   8.243  1.00  0.00    -0.000 C 
BRANCH  24  25
ATOM     25  C   UNL     1      45.180  26.673   8.953  1.00  0.00    -0.003 C 
ATOM     26  C   UNL     1      46.352  25.736   8.662  1.00  0.00     0.004 C 
ENDBRANCH  24  25
ENDBRANCH  23  24
ENDBRANCH  22  23
ENDBRANCH  21  22
ENDBRANCH  20  21
ENDBRANCH  19  20
ENDBRANCH  18  19
ENDBRANCH  17  18
ENDBRANCH  16  17
ENDBRANCH  15  16
ENDBRANCH   1  15
TORSDOF 22
ENDMDL
MODEL 3
REMARK VINA RESULT:    -3.613      1.373      2.289
REMARK INTER + INTRA:         -11.584
REMARK INTER:                  -8.697
REMARK INTRA:                  -2.887
REMARK UNBOUND:                -3.324
REMARK SMILES CCCCCCCCCCCCCCCCCCCCCCCC(=O)[O-]
REMARK SMILES IDX 13 1 14 2 15 3 16 4 17 5 18 6 19 7 20 8 21 9 22 10 23 11
REMARK SMILES IDX 24 12 25 13 26 14 12 15 11 16 10 17 9 18 8 19 7 20 6 21 5 22
REMARK SMILES IDX 4 23 3 24 2 25 1 26
REMARK H PARENT
REMARK Flexibility Score: inf
ROOT
ATOM      1  C   UNL     1      42.301  27.909   1.851  1.00  0.00     0.000 C 
ENDROOT
BRANCH   1   2
ATOM      2  C   UNL     1      42.792  29.361   1.731  1.00  0.00     0.000 C 
BRANCH   2   3
ATOM      3  C   UNL     1      42.232  30.071   0.485  1.00  0.00     0.000 C 
BRANCH   3   4
ATOM      4  C   UNL     1      43.052  29.776  -0.782  1.00  0.00     0.000 C 
BRANCH   4   5
ATOM      5  C   UNL     1      44.542  30.111  -0.613  1.00  0.00     0.000 C 
BRANCH   5   6
ATOM      6  C   UNL     1      45.407  29.266  -1.560  1.00  0.00     0.000 C 
BRANCH   6   7
ATOM      7  C   UNL     1      44.912  27.814  -1.684  1.00  0.00     0.000 C 
BRANCH   7   8
ATOM      8  C   UNL     1      45.153  27.156  -3.059  1.00  0.00     0.000 C 
BRANCH   8   9
ATOM      9  C   UNL     1      45.694  28.098  -4.152  1.00  0.00     0.000 C 
BRANCH   9  10
ATOM     10  C   UNL     1      44.899  28.099  -5.472  1.00  0.00     0.006 C 
BRANCH  10  11
ATOM     11  C   UNL     1      43.595  27.284  -5.417  1.00  0.00     0.053 C 
BRANCH  11  12
ATOM     12  C   UNL     1      42.381  28.152  -5.281  1.00  0.00     0.041 C 
ATOM     13  O   UNL     1      41.648  28.379  -6.279  1.00  0.00    -0.550 OA
ATOM     14  O   UNL     1      42.037  28.681  -4.043  1.00  0.00    -0.550 OA
ENDBRANCH  11  12
ENDBRANCH  10  11
ENDBRANCH   9  10
ENDBRANCH   8   9
ENDBRANCH   7   8
ENDBRANCH   6   7
ENDBRANCH   5   6
ENDBRANCH   4   5
ENDBRANCH   3   4
ENDBRANCH   2   3
ENDBRANCH   1   2
BRANCH   1  15
ATOM     15  C   UNL     1      43.326  26.891   1.320  1.00  0.00     0.000 C 
BRANCH  15  16
ATOM     16  C   UNL     1      44.475  26.632   2.312  1.00  0.00     0.000 C 
BRANCH  16  17
ATOM     17  C   UNL     1      45.872  27.067   1.822  1.00  0.00     0.000 C 
BRANCH  17  18
ATOM     18  C   UNL     1      46.371  28.418   2.367  1.00  0.00    -0.000 C 
BRANCH  18  19
ATOM     19  C   UNL     1      45.918  28.684   3.813  1.00  0.00    -0.000 C 
BRANCH  19  20
ATOM     20  C   UNL     1      47.096  28.754   4.798  1.00  0.00    -0.000 C 
BRANCH  20  21
ATOM     21  C   UNL     1      47.113  27.581   5.792  1.00  0.00    -0.000 C 
BRANCH  21  22
ATOM     22  C   UNL     1      45.728  27.370   6.414  1.00  0.00    -0.000 C 
BRANCH  22  23
ATOM     23  C   UNL     1      45.599  28.123   7.744  1.00  0.00    -0.000 C 
BRANCH  23  24
ATOM     24  C   UNL     1      45.173  27.175   8.874  1.00  0.00    -0.000 C 
BRANCH  24  25
ATOM     25  C   UNL     1      45.959  25.854   8.865  1.00  0.00    -0.003 C 
ATOM     26  C   UNL     1      46.729  25.613  10.163  1.00  0.00     0.004 C 
ENDBRANCH  24  25
ENDBRANCH  23  24
ENDBRANCH  22  23
ENDBRANCH  21  22
ENDBRANCH  20  21
ENDBRANCH  19  20
ENDBRANCH  18  19
ENDBRANCH  17  18
ENDBRANCH  16  17
ENDBRANCH  15  16
ENDBRANCH   1  15
TORSDOF 22
ENDMDL
MODEL 4
REMARK VINA RESULT:    -3.602      1.197      2.092
REMARK INTER + INTRA:         -11.559
REMARK INTER:                  -9.296
REMARK INTRA:                  -2.263
REMARK UNBOUND:                -3.324
REMARK SMILES CCCCCCCCCCCCCCCCCCCCCCCC(=O)[O-]
REMARK SMILES IDX 13 1 14 2 15 3 16 4 17 5 18 6 19 7 20 8 21 9 22 10 23 11
REMARK SMILES IDX 24 12 25 13 26 14 12 15 11 16 10 17 9 18 8 19 7 20 6 21 5 22
REMARK SMILES IDX 4 23 3 24 2 25 1 26
REMARK H PARENT
REMARK Flexibility Score: inf
ROOT
ATOM      1  C   UNL     1      44.313  27.416  -0.122  1.00  0.00     0.000 C 
ENDROOT
BRANCH   1   2
ATOM      2  C   UNL     1      43.018  27.897  -0.796  1.00  0.00     0.000 C 
BRANCH   2   3
ATOM      3  C   UNL     1      43.007  29.419  -1.031  1.00  0.00     0.000 C 
BRANCH   3   4
ATOM      4  C   UNL     1      44.327  29.934  -1.630  1.00  0.00     0.000 C 
BRANCH   4   5
ATOM      5  C   UNL     1      44.422  29.693  -3.144  1.00  0.00     0.000 C 
BRANCH   5   6
ATOM      6  C   UNL     1      45.863  29.358  -3.558  1.00  0.00     0.000 C 
BRANCH   6   7
ATOM      7  C   UNL     1      46.249  27.901  -3.249  1.00  0.00     0.000 C 
BRANCH   7   8
ATOM      8  C   UNL     1      46.650  27.056  -4.476  1.00  0.00     0.000 C 
BRANCH   8   9
ATOM      9  C   UNL     1      46.369  27.709  -5.843  1.00  0.00     0.000 C 
BRANCH   9  10
ATOM     10  C   UNL     1      45.136  27.165  -6.591  1.00  0.00     0.006 C 
BRANCH  10  11
ATOM     11  C   UNL     1      43.898  28.073  -6.497  1.00  0.00     0.053 C 
BRANCH  11  12
ATOM     12  C   UNL     1      42.864  27.536  -5.553  1.00  0.00     0.041 C 
ATOM     13  O   UNL     1      41.693  27.999  -5.565  1.00  0.00    -0.550 OA
ATOM     14  O   UNL     1      43.183  26.499  -4.685  1.00  0.00    -0.550 OA
ENDBRANCH  11  12
ENDBRANCH  10  11
ENDBRANCH   9  10
ENDBRANCH   8   9
ENDBRANCH   7   8
ENDBRANCH   6   7
ENDBRANCH   5   6
ENDBRANCH   4   5
ENDBRANCH   3   4
ENDBRANCH   2   3
ENDBRANCH   1   2
BRANCH   1  15
ATOM     15  C   UNL     1      44.409  27.844   1.353  1.00  0.00     0.000 C 
BRANCH  15  16
ATOM     16  C   UNL     1      43.870  26.773   2.319  1.00  0.00     0.000 C 
BRANCH  16  17
ATOM     17  C   UNL     1      44.946  25.880   2.970  1.00  0.00     0.000 C 
BRANCH  17  18
ATOM     18  C   UNL     1      46.338  26.523   3.118  1.00  0.00    -0.000 C 
BRANCH  18  19
ATOM     19  C   UNL     1      46.606  27.047   4.539  1.00  0.00    -0.000 C 
BRANCH  19  20
ATOM     20  C   UNL     1      45.893  26.216   5.619  1.00  0.00    -0.000 C 
BRANCH  20  21
ATOM     21  C   UNL     1      46.434  26.485   7.032  1.00  0.00    -0.000 C 
BRANCH  21  22
ATOM     22  C   UNL     1      45.465  25.959   8.099  1.00  0.00    -0.000 C 
BRANCH  22  23
ATOM     23  C   UNL     1      45.483  26.849   9.348  1.00  0.00    -0.000 C 
BRANCH  23  24
ATOM     24  C   UNL     1      46.056  28.237   9.027  1.00  0.00    -0.000 C 
BRANCH  24  25
ATOM     25  C   UNL     1      44.962  29.266   8.700  1.00  0.00    -0.003 C 
ATOM     26  C   UNL     1      45.209  29.994   7.379  1.00  0.00     0.004 C 
ENDBRANCH  24  25
ENDBRANCH  23  24
ENDBRANCH  22  23
ENDBRANCH  21  22
ENDBRANCH  20  21
ENDBRANCH  19  20
ENDBRANCH  18  19
ENDBRANCH  17  18
ENDBRANCH  16  17
ENDBRANCH  15  16
ENDBRANCH   1  15
TORSDOF 22
ENDMDL
MODEL 5
REMARK VINA RESULT:    -3.600      3.395      8.592
REMARK INTER + INTRA:         -11.554
REMARK INTER:                  -7.577
REMARK INTRA:                  -3.977
REMARK UNBOUND:                -3.324
REMARK SMILES CCCCCCCCCCCCCCCCCCCCCCCC(=O)[O-]
REMARK SMILES IDX 13 1 14 2 15 3 16 4 17 5 18 6 19 7 20 8 21 9 22 10 23 11
REMARK SMILES IDX 24 12 25 13 26 14 12 15 11 16 10 17 9 18 8 19 7 20 6 21 5 22
REMARK SMILES IDX 4 23 3 24 2 25 1 26
REMARK H PARENT
REMARK Flexibility Score: inf
ROOT
ATOM      1  C   UNL     1      42.577  27.125   0.097  1.00  0.00     0.000 C 
ENDROOT
BRANCH   1   2
ATOM      2  C   UNL     1      42.616  27.651   1.541  1.00  0.00     0.000 C 
BRANCH   2   3
ATOM      3  C   UNL     1      42.963  29.150   1.611  1.00  0.00     0.000 C 
BRANCH   3   4
ATOM      4  C   UNL     1      44.325  29.410   2.274  1.00  0.00     0.000 C 
BRANCH   4   5
ATOM      5  C   UNL     1      45.311  30.125   1.338  1.00  0.00     0.000 C 
BRANCH   5   6
ATOM      6  C   UNL     1      46.481  29.202   0.963  1.00  0.00     0.000 C 
BRANCH   6   7
ATOM      7  C   UNL     1      46.886  28.258   2.109  1.00  0.00     0.000 C 
BRANCH   7   8
ATOM      8  C   UNL     1      46.631  26.760   1.844  1.00  0.00     0.000 C 
BRANCH   8   9
ATOM      9  C   UNL     1      46.653  25.858   3.093  1.00  0.00     0.000 C 
BRANCH   9  10
ATOM     10  C   UNL     1      45.481  26.063   4.074  1.00  0.00     0.006 C 
BRANCH  10  11
ATOM     11  C   UNL     1      45.891  26.014   5.556  1.00  0.00     0.053 C 
BRANCH  11  12
ATOM     12  C   UNL     1      46.079  27.380   6.144  1.00  0.00     0.041 C 
ATOM     13  O   UNL     1      45.872  28.405   5.444  1.00  0.00    -0.550 OA
ATOM     14  O   UNL     1      46.447  27.521   7.477  1.00  0.00    -0.550 OA
ENDBRANCH  11  12
ENDBRANCH  10  11
ENDBRANCH   9  10
ENDBRANCH   8   9
ENDBRANCH   7   8
ENDBRANCH   6   7
ENDBRANCH   5   6
ENDBRANCH   4   5
ENDBRANCH   3   4
ENDBRANCH   2   3
ENDBRANCH   1   2
BRANCH   1  15
ATOM     15  C   UNL     1      43.973  26.763  -0.441  1.00  0.00     0.000 C 
BRANCH  15  16
ATOM     16  C   UNL     1      44.146  27.115  -1.929  1.00  0.00     0.000 C 
BRANCH  16  17
ATOM     17  C   UNL     1      44.787  28.491  -2.206  1.00  0.00     0.000 C 
BRANCH  17  18
ATOM     18  C   UNL     1      43.814  29.685  -2.203  1.00  0.00    -0.000 C 
BRANCH  18  19
ATOM     19  C   UNL     1      42.645  29.506  -3.186  1.00  0.00    -0.000 C 
BRANCH  19  20
ATOM     20  C   UNL     1      43.065  29.727  -4.649  1.00  0.00    -0.000 C 
BRANCH  20  21
ATOM     21  C   UNL     1      42.458  28.690  -5.607  1.00  0.00    -0.000 C 
BRANCH  21  22
ATOM     22  C   UNL     1      43.218  27.360  -5.530  1.00  0.00    -0.000 C 
BRANCH  22  23
ATOM     23  C   UNL     1      44.592  27.470  -6.201  1.00  0.00    -0.000 C 
BRANCH  23  24
ATOM     24  C   UNL     1      45.680  26.814  -5.339  1.00  0.00    -0.000 C 
BRANCH  24  25
ATOM     25  C   UNL     1      46.914  27.714  -5.159  1.00  0.00    -0.003 C 
ATOM     26  C   UNL     1      46.617  29.187  -5.433  1.00  0.00     0.004 C 
ENDBRANCH  24  25
ENDBRANCH  23  24
ENDBRANCH  22  23
ENDBRANCH  21  22
ENDBRANCH  20  21
ENDBRANCH  19  20
ENDBRANCH  18  19
ENDBRANCH  17  18
ENDBRANCH  16  17
ENDBRANCH  15  16
ENDBRANCH   1  15
TORSDOF 22
ENDMDL
MODEL 6
REMARK VINA RESULT:    -3.547      4.597     10.028
REMARK INTER + INTRA:         -11.432
REMARK INTER:                  -9.027
REMARK INTRA:                  -2.405
REMARK UNBOUND:                -3.324
REMARK SMILES CCCCCCCCCCCCCCCCCCCCCCCC(=O)[O-]
REMARK SMILES IDX 13 1 14 2 15 3 16 4 17 5 18 6 19 7 20 8 21 9 22 10 23 11
REMARK SMILES IDX 24 12 25 13 26 14 12 15 11 16 10 17 9 18 8 19 7 20 6 21 5 22
REMARK SMILES IDX 4 23 3 24 2 25 1 26
REMARK H PARENT
REMARK Flexibility Score: inf
ROOT
ATOM      1  C   UNL     1      42.267  28.998   0.922  1.00  0.00     0.000 C 
ENDROOT
BRANCH   1   2
ATOM      2  C   UNL     1      42.249  27.578   0.334  1.00  0.00     0.000 C 
BRANCH   2   3
ATOM      3  C   UNL     1      43.519  26.780   0.683  1.00  0.00     0.000 C 
BRANCH   3   4
ATOM      4  C   UNL     1      43.838  26.805   2.187  1.00  0.00     0.000 C 
BRANCH   4   5
ATOM      5  C   UNL     1      45.346  26.877   2.471  1.00  0.00     0.000 C 
BRANCH   5   6
ATOM      6  C   UNL     1      45.818  25.640   3.250  1.00  0.00     0.000 C 
BRANCH   6   7
ATOM      7  C   UNL     1      46.545  26.001   4.558  1.00  0.00     0.000 C 
BRANCH   7   8
ATOM      8  C   UNL     1      46.093  27.321   5.216  1.00  0.00     0.000 C 
BRANCH   8   9
ATOM      9  C   UNL     1      46.602  27.547   6.652  1.00  0.00     0.000 C 
BRANCH   9  10
ATOM     10  C   UNL     1      46.824  26.267   7.482  1.00  0.00     0.006 C 
BRANCH  10  11
ATOM     11  C   UNL     1      45.768  26.043   8.578  1.00  0.00     0.053 C 
BRANCH  11  12
ATOM     12  C   UNL     1      46.370  25.970   9.949  1.00  0.00     0.041 C 
ATOM     13  O   UNL     1      46.392  24.878  10.575  1.00  0.00    -0.550 OA
ATOM     14  O   UNL     1      46.942  27.100  10.521  1.00  0.00    -0.550 OA
ENDBRANCH  11  12
ENDBRANCH  10  11
ENDBRANCH   9  10
ENDBRANCH   8   9
ENDBRANCH   7   8
ENDBRANCH   6   7
ENDBRANCH   5   6
ENDBRANCH   4   5
ENDBRANCH   3   4
ENDBRANCH   2   3
ENDBRANCH   1   2
BRANCH   1  15
ATOM     15  C   UNL     1      42.749  30.053  -0.091  1.00  0.00     0.000 C 
BRANCH  15  16
ATOM     16  C   UNL     1      42.607  29.585  -1.550  1.00  0.00     0.000 C 
BRANCH  16  17
ATOM     17  C   UNL     1      43.901  29.652  -2.387  1.00  0.00     0.000 C 
BRANCH  17  18
ATOM     18  C   UNL     1      44.674  28.327  -2.516  1.00  0.00    -0.000 C 
BRANCH  18  19
ATOM     19  C   UNL     1      46.051  28.500  -3.181  1.00  0.00    -0.000 C 
BRANCH  19  20
ATOM     20  C   UNL     1      46.539  27.215  -3.869  1.00  0.00    -0.000 C 
BRANCH  20  21
ATOM     21  C   UNL     1      45.718  26.858  -5.118  1.00  0.00    -0.000 C 
BRANCH  21  22
ATOM     22  C   UNL     1      46.014  27.832  -6.265  1.00  0.00    -0.000 C 
BRANCH  22  23
ATOM     23  C   UNL     1      44.719  28.286  -6.951  1.00  0.00    -0.000 C 
BRANCH  23  24
ATOM     24  C   UNL     1      44.023  29.387  -6.139  1.00  0.00    -0.000 C 
BRANCH  24  25
ATOM     25  C   UNL     1      42.523  29.115  -5.941  1.00  0.00    -0.003 C 
ATOM     26  C   UNL     1      42.248  27.779  -5.252  1.00  0.00     0.004 C 
ENDBRANCH  24  25
ENDBRANCH  23  24
ENDBRANCH  22  23
ENDBRANCH  21  22
ENDBRANCH  20  21
ENDBRANCH  19  20
ENDBRANCH  18  19
ENDBRANCH  17  18
ENDBRANCH  16  17
ENDBRANCH  15  16
ENDBRANCH   1  15
TORSDOF 22
ENDMDL
MODEL 7
REMARK VINA RESULT:    -3.343      1.757      3.214
REMARK INTER + INTRA:         -10.965
REMARK INTER:                  -8.482
REMARK INTRA:                  -2.483
REMARK UNBOUND:                -3.324
REMARK SMILES CCCCCCCCCCCCCCCCCCCCCCCC(=O)[O-]
REMARK SMILES IDX 13 1 14 2 15 3 16 4 17 5 18 6 19 7 20 8 21 9 22 10 23 11
REMARK SMILES IDX 24 12 25 13 26 14 12 15 11 16 10 17 9 18 8 19 7 20 6 21 5 22
REMARK SMILES IDX 4 23 3 24 2 25 1 26
REMARK H PARENT
REMARK Flexibility Score: inf
ROOT
ATOM      1  C   UNL     1      42.649  27.547   1.034  1.00  0.00     0.000 C 
ENDROOT
BRANCH   1   2
ATOM      2  C   UNL     1      42.304  28.941   1.582  1.00  0.00     0.000 C 
BRANCH   2   3
ATOM      3  C   UNL     1      42.580  30.060   0.560  1.00  0.00     0.000 C 
BRANCH   3   4
ATOM      4  C   UNL     1      43.330  29.553  -0.683  1.00  0.00     0.000 C 
BRANCH   4   5
ATOM      5  C   UNL     1      42.591  29.874  -1.991  1.00  0.00     0.000 C 
BRANCH   5   6
ATOM      6  C   UNL     1      42.456  28.620  -2.867  1.00  0.00     0.000 C 
BRANCH   6   7
ATOM      7  C   UNL     1      42.808  28.882  -4.342  1.00  0.00     0.000 C 
BRANCH   7   8
ATOM      8  C   UNL     1      42.949  27.618  -5.216  1.00  0.00     0.000 C 
BRANCH   8   9
ATOM      9  C   UNL     1      44.384  27.289  -5.668  1.00  0.00     0.000 C 
BRANCH   9  10
ATOM     10  C   UNL     1      45.492  28.139  -5.013  1.00  0.00     0.006 C 
BRANCH  10  11
ATOM     11  C   UNL     1      46.452  27.333  -4.121  1.00  0.00     0.053 C 
BRANCH  11  12
ATOM     12  C   UNL     1      46.135  27.476  -2.662  1.00  0.00     0.041 C 
ATOM     13  O   UNL     1      46.739  28.331  -1.963  1.00  0.00    -0.550 OA
ATOM     14  O   UNL     1      45.146  26.690  -2.083  1.00  0.00    -0.550 OA
ENDBRANCH  11  12
ENDBRANCH  10  11
ENDBRANCH   9  10
ENDBRANCH   8   9
ENDBRANCH   7   8
ENDBRANCH   6   7
ENDBRANCH   5   6
ENDBRANCH   4   5
ENDBRANCH   3   4
ENDBRANCH   2   3
ENDBRANCH   1   2
BRANCH   1  15
ATOM     15  C   UNL     1      43.712  26.823   1.880  1.00  0.00     0.000 C 
BRANCH  15  16
ATOM     16  C   UNL     1      45.149  27.146   1.433  1.00  0.00     0.000 C 
BRANCH  16  17
ATOM     17  C   UNL     1      46.046  27.774   2.519  1.00  0.00     0.000 C 
BRANCH  17  18
ATOM     18  C   UNL     1      45.891  29.295   2.704  1.00  0.00    -0.000 C 
BRANCH  18  19
ATOM     19  C   UNL     1      45.375  29.678   4.102  1.00  0.00    -0.000 C 
BRANCH  19  20
ATOM     20  C   UNL     1      46.513  30.025   5.076  1.00  0.00    -0.000 C 
BRANCH  20  21
ATOM     21  C   UNL     1      46.970  28.819   5.914  1.00  0.00    -0.000 C 
BRANCH  21  22
ATOM     22  C   UNL     1      45.820  28.283   6.775  1.00  0.00    -0.000 C 
BRANCH  22  23
ATOM     23  C   UNL     1      45.817  26.749   6.798  1.00  0.00    -0.000 C 
BRANCH  23  24
ATOM     24  C   UNL     1      45.506  26.221   8.206  1.00  0.00    -0.000 C 
BRANCH  24  25
ATOM     25  C   UNL     1      46.750  25.657   8.912  1.00  0.00    -0.003 C 
ATOM     26  C   UNL     1      46.760  25.943  10.413  1.00  0.00     0.004 C 
ENDBRANCH  24  25
ENDBRANCH  23  24
ENDBRANCH  22  23
ENDBRANCH  21  22
ENDBRANCH  20  21
ENDBRANCH  19  20
ENDBRANCH  18  19
ENDBRANCH  17  18
ENDBRANCH  16  17
ENDBRANCH  15  16
ENDBRANCH   1  15
TORSDOF 22
ENDMDL
MODEL 8
REMARK VINA RESULT:    -3.313      4.203     10.285
REMARK INTER + INTRA:         -10.898
REMARK INTER:                  -8.937
REMARK INTRA:                  -1.961
REMARK UNBOUND:                -3.324
REMARK SMILES CCCCCCCCCCCCCCCCCCCCCCCC(=O)[O-]
REMARK SMILES IDX 13 1 14 2 15 3 16 4 17 5 18 6 19 7 20 8 21 9 22 10 23 11
REMARK SMILES IDX 24 12 25 13 26 14 12 15 11 16 10 17 9 18 8 19 7 20 6 21 5 22
REMARK SMILES IDX 4 23 3 24 2 25 1 26
REMARK H PARENT
REMARK Flexibility Score: inf
ROOT
ATOM      1  C   UNL     1      45.740  28.062   1.486  1.00  0.00     0.000 C 
ENDROOT
BRANCH   1   2
ATOM      2  C   UNL     1      46.709  27.280   2.388  1.00  0.00     0.000 C 
BRANCH   2   3
ATOM      3  C   UNL     1      46.096  25.969   2.913  1.00  0.00     0.000 C 
BRANCH   3   4
ATOM      4  C   UNL     1      45.283  26.172   4.203  1.00  0.00     0.000 C 
BRANCH   4   5
ATOM      5  C   UNL     1      46.171  26.274   5.452  1.00  0.00     0.000 C 
BRANCH   5   6
ATOM      6  C   UNL     1      47.046  27.535   5.402  1.00  0.00     0.000 C 
BRANCH   6   7
ATOM      7  C   UNL     1      46.268  28.816   5.751  1.00  0.00     0.000 C 
BRANCH   7   8
ATOM      8  C   UNL     1      45.453  28.750   7.059  1.00  0.00     0.000 C 
BRANCH   8   9
ATOM      9  C   UNL     1      46.123  29.403   8.284  1.00  0.00     0.000 C 
BRANCH   9  10
ATOM     10  C   UNL     1      46.392  28.455   9.469  1.00  0.00     0.006 C 
BRANCH  10  11
ATOM     11  C   UNL     1      46.989  27.097   9.060  1.00  0.00     0.053 C 
BRANCH  11  12
ATOM     12  C   UNL     1      46.114  25.944   9.453  1.00  0.00     0.041 C 
ATOM     13  O   UNL     1      45.031  25.736   8.847  1.00  0.00    -0.550 OA
ATOM     14  O   UNL     1      46.513  25.078  10.464  1.00  0.00    -0.550 OA
ENDBRANCH  11  12
ENDBRANCH  10  11
ENDBRANCH   9  10
ENDBRANCH   8   9
ENDBRANCH   7   8
ENDBRANCH   6   7
ENDBRANCH   5   6
ENDBRANCH   4   5
ENDBRANCH   3   4
ENDBRANCH   2   3
ENDBRANCH   1   2
BRANCH   1  15
ATOM     15  C   UNL     1      44.773  28.953   2.286  1.00  0.00     0.000 C 
BRANCH  15  16
ATOM     16  C   UNL     1      43.317  28.835   1.802  1.00  0.00     0.000 C 
BRANCH  16  17
ATOM     17  C   UNL     1      42.837  27.397   1.516  1.00  0.00     0.000 C 
BRANCH  17  18
ATOM     18  C   UNL     1      42.630  27.054   0.029  1.00  0.00    -0.000 C 
BRANCH  18  19
ATOM     19  C   UNL     1      42.909  28.245  -0.904  1.00  0.00    -0.000 C 
BRANCH  19  20
ATOM     20  C   UNL     1      44.141  28.019  -1.796  1.00  0.00    -0.000 C 
BRANCH  20  21
ATOM     21  C   UNL     1      44.131  28.895  -3.060  1.00  0.00    -0.000 C 
BRANCH  21  22
ATOM     22  C   UNL     1      42.915  28.576  -3.938  1.00  0.00    -0.000 C 
BRANCH  22  23
ATOM     23  C   UNL     1      43.102  27.245  -4.677  1.00  0.00    -0.000 C 
BRANCH  23  24
ATOM     24  C   UNL     1      43.100  27.455  -6.198  1.00  0.00    -0.000 C 
BRANCH  24  25
ATOM     25  C   UNL     1      42.856  28.921  -6.591  1.00  0.00    -0.003 C 
ATOM     26  C   UNL     1      41.414  29.188  -7.020  1.00  0.00     0.004 C 
ENDBRANCH  24  25
ENDBRANCH  23  24
ENDBRANCH  22  23
ENDBRANCH  21  22
ENDBRANCH  20  21
ENDBRANCH  19  20
ENDBRANCH  18  19
ENDBRANCH  17  18
ENDBRANCH  16  17
ENDBRANCH  15  16
ENDBRANCH   1  15
TORSDOF 22
ENDMDL
MODEL 9
REMARK VINA RESULT:    -3.166      1.731      3.416
REMARK INTER + INTRA:         -10.562
REMARK INTER:                  -7.931
REMARK INTRA:                  -2.631
REMARK UNBOUND:                -3.324
REMARK SMILES CCCCCCCCCCCCCCCCCCCCCCCC(=O)[O-]
REMARK SMILES IDX 13 1 14 2 15 3 16 4 17 5 18 6 19 7 20 8 21 9 22 10 23 11
REMARK SMILES IDX 24 12 25 13 26 14 12 15 11 16 10 17 9 18 8 19 7 20 6 21 5 22
REMARK SMILES IDX 4 23 3 24 2 25 1 26
REMARK H PARENT
REMARK Flexibility Score: inf
ROOT
ATOM      1  C   UNL     1      43.671  27.470   1.520  1.00  0.00     0.000 C 
ENDROOT
BRANCH   1   2
ATOM      2  C   UNL     1      42.703  27.807   0.374  1.00  0.00     0.000 C 
BRANCH   2   3
ATOM      3  C   UNL     1      43.437  28.213  -0.916  1.00  0.00     0.000 C 
BRANCH   3   4
ATOM      4  C   UNL     1      42.500  28.861  -1.950  1.00  0.00     0.000 C 
BRANCH   4   5
ATOM      5  C   UNL     1      43.242  29.315  -3.217  1.00  0.00     0.000 C 
BRANCH   5   6
ATOM      6  C   UNL     1      42.733  28.558  -4.453  1.00  0.00     0.000 C 
BRANCH   6   7
ATOM      7  C   UNL     1      43.730  28.589  -5.624  1.00  0.00     0.000 C 
BRANCH   7   8
ATOM      8  C   UNL     1      44.590  27.318  -5.784  1.00  0.00     0.000 C 
BRANCH   8   9
ATOM      9  C   UNL     1      46.020  27.554  -6.308  1.00  0.00     0.000 C 
BRANCH   9  10
ATOM     10  C   UNL     1      47.125  27.547  -5.234  1.00  0.00     0.006 C 
BRANCH  10  11
ATOM     11  C   UNL     1      46.998  28.680  -4.200  1.00  0.00     0.053 C 
BRANCH  11  12
ATOM     12  C   UNL     1      46.742  28.166  -2.815  1.00  0.00     0.041 C 
ATOM     13  O   UNL     1      46.708  28.962  -1.840  1.00  0.00    -0.550 OA
ATOM     14  O   UNL     1      46.504  26.813  -2.605  1.00  0.00    -0.550 OA
ENDBRANCH  11  12
ENDBRANCH  10  11
ENDBRANCH   9  10
ENDBRANCH   8   9
ENDBRANCH   7   8
ENDBRANCH   6   7
ENDBRANCH   5   6
ENDBRANCH   4   5
ENDBRANCH   3   4
ENDBRANCH   2   3
ENDBRANCH   1   2
BRANCH   1  15
ATOM     15  C   UNL     1      45.115  27.255   1.032  1.00  0.00     0.000 C 
BRANCH  15  16
ATOM     16  C   UNL     1      46.103  28.272   1.631  1.00  0.00     0.000 C 
BRANCH  16  17
ATOM     17  C   UNL     1      45.478  29.299   2.597  1.00  0.00     0.000 C 
BRANCH  17  18
ATOM     18  C   UNL     1      46.298  29.595   3.867  1.00  0.00    -0.000 C 
BRANCH  18  19
ATOM     19  C   UNL     1      45.427  30.065   5.045  1.00  0.00    -0.000 C 
BRANCH  19  20
ATOM     20  C   UNL     1      46.110  29.852   6.406  1.00  0.00    -0.000 C 
BRANCH  20  21
ATOM     21  C   UNL     1      45.291  28.958   7.351  1.00  0.00    -0.000 C 
BRANCH  21  22
ATOM     22  C   UNL     1      46.138  27.789   7.870  1.00  0.00    -0.000 C 
BRANCH  22  23
ATOM     23  C   UNL     1      45.775  26.483   7.153  1.00  0.00    -0.000 C 
BRANCH  23  24
ATOM     24  C   UNL     1      46.884  26.064   6.177  1.00  0.00    -0.000 C 
BRANCH  24  25
ATOM     25  C   UNL     1      46.493  26.289   4.707  1.00  0.00    -0.003 C 
ATOM     26  C   UNL     1      45.301  25.438   4.274  1.00  0.00     0.004 C 
ENDBRANCH  24  25
ENDBRANCH  23  24
ENDBRANCH  22  23
ENDBRANCH  21  22
ENDBRANCH  20  21
ENDBRANCH  19  20
ENDBRANCH  18  19
ENDBRANCH  17  18
ENDBRANCH  16  17
ENDBRANCH  15  16
ENDBRANCH   1  15
TORSDOF 22
ENDMDL
