MODEL 1
REMARK VINA RESULT:    -3.361      0.000      0.000
REMARK INTER + INTRA:          -5.934
REMARK INTER:                  -5.130
REMARK INTRA:                  -0.804
REMARK UNBOUND:                -0.804
REMARK SMILES CCCCCCCCCCC(=O)[O-]
REMARK SMILES IDX 7 1 8 2 9 3 10 4 11 5 12 6 13 7 6 8 5 9 4 10 3 11 2 12 1 13
REMARK H PARENT
REMARK Flexibility Score: inf
ROOT
ATOM      1  C   UNL     1      23.495   7.518  27.765  1.00  0.00     0.000 C 
ENDROOT
BRANCH   1   2
ATOM      2  C   UNL     1      23.598   9.001  27.374  1.00  0.00     0.000 C 
BRANCH   2   3
ATOM      3  C   UNL     1      25.022   9.559  27.536  1.00  0.00     0.006 C 
BRANCH   3   4
ATOM      4  C   UNL     1      25.761   9.659  26.196  1.00  0.00     0.053 C 
BRANCH   4   5
ATOM      5  C   UNL     1      26.483   8.389  25.865  1.00  0.00     0.041 C 
ATOM      6  O   UNL     1      26.466   7.935  24.690  1.00  0.00    -0.550 OA
ATOM      7  O   UNL     1      27.147   7.686  26.863  1.00  0.00    -0.550 OA
ENDBRANCH   4   5
ENDBRANCH   3   4
ENDBRANCH   2   3
ENDBRANCH   1   2
BRANCH   1   8
ATOM      8  C   UNL     1      23.461   6.586  26.544  1.00  0.00     0.000 C 
BRANCH   8   9
ATOM      9  C   UNL     1      24.402   5.391  26.740  1.00  0.00    -0.000 C 
BRANCH   9  10
ATOM     10  C   UNL     1      23.658   4.065  26.542  1.00  0.00    -0.000 C 
BRANCH  10  11
ATOM     11  C   UNL     1      22.815   3.718  27.774  1.00  0.00    -0.000 C 
BRANCH  11  12
ATOM     12  C   UNL     1      21.404   3.276  27.369  1.00  0.00    -0.003 C 
ATOM     13  C   UNL     1      20.647   4.412  26.685  1.00  0.00     0.004 C 
ENDBRANCH  11  12
ENDBRANCH  10  11
ENDBRANCH   9  10
ENDBRANCH   8   9
ENDBRANCH   1   8
TORSDOF 9
ENDMDL
MODEL 2
REMARK VINA RESULT:    -3.230      8.704     10.092
REMARK INTER + INTRA:          -5.733
REMARK INTER:                  -4.941
REMARK INTRA:                  -0.793
REMARK UNBOUND:                -0.804
REMARK SMILES CCCCCCCCCCC(=O)[O-]
REMARK SMILES IDX 7 1 8 2 9 3 10 4 11 5 12 6 13 7 6 8 5 9 4 10 3 11 2 12 1 13
REMARK H PARENT
REMARK Flexibility Score: inf
ROOT
ATOM      1  C   UNL     1      19.138   8.022  35.588  1.00  0.00     0.000 C 
ENDROOT
BRANCH   1   2
ATOM      2  C   UNL     1      19.470   6.671  34.933  1.00  0.00     0.000 C 
BRANCH   2   3
ATOM      3  C   UNL     1      20.869   6.650  34.294  1.00  0.00     0.006 C 
BRANCH   3   4
ATOM      4  C   UNL     1      20.876   5.926  32.942  1.00  0.00     0.053 C 
BRANCH   4   5
ATOM      5  C   UNL     1      22.270   5.693  32.446  1.00  0.00     0.041 C 
ATOM      6  O   UNL     1      22.775   6.461  31.586  1.00  0.00    -0.550 OA
ATOM      7  O   UNL     1      22.999   4.604  32.908  1.00  0.00    -0.550 OA
ENDBRANCH   4   5
ENDBRANCH   3   4
ENDBRANCH   2   3
ENDBRANCH   1   2
BRANCH   1   8
ATOM      8  C   UNL     1      20.226   9.079  35.346  1.00  0.00     0.000 C 
BRANCH   8   9
ATOM      9  C   UNL     1      20.691   9.703  36.667  1.00  0.00    -0.000 C 
BRANCH   9  10
ATOM     10  C   UNL     1      22.163   9.373  36.944  1.00  0.00    -0.000 C 
BRANCH  10  11
ATOM     11  C   UNL     1      22.433   9.288  38.451  1.00  0.00    -0.000 C 
BRANCH  11  12
ATOM     12  C   UNL     1      21.653   8.131  39.085  1.00  0.00    -0.003 C 
ATOM     13  C   UNL     1      21.979   6.806  38.400  1.00  0.00     0.004 C 
ENDBRANCH  11  12
ENDBRANCH  10  11
ENDBRANCH   9  10
ENDBRANCH   8   9
ENDBRANCH   1   8
TORSDOF 9
ENDMDL
MODEL 3
REMARK VINA RESULT:    -3.202      3.363      5.838
REMARK INTER + INTRA:          -5.691
REMARK INTER:                  -4.889
REMARK INTRA:                  -0.802
REMARK UNBOUND:                -0.804
REMARK SMILES CCCCCCCCCCC(=O)[O-]
REMARK SMILES IDX 7 1 8 2 9 3 10 4 11 5 12 6 13 7 6 8 5 9 4 10 3 11 2 12 1 13
REMARK H PARENT
REMARK Flexibility Score: inf
ROOT
ATOM      1  C   UNL     1      23.680   6.412  26.089  1.00  0.00     0.000 C 
ENDROOT
BRANCH   1   2
ATOM      2  C   UNL     1      22.572   5.491  26.624  1.00  0.00     0.000 C 
BRANCH   2   3
ATOM      3  C   UNL     1      22.980   4.764  27.917  1.00  0.00     0.006 C 
BRANCH   3   4
ATOM      4  C   UNL     1      21.882   3.818  28.420  1.00  0.00     0.053 C 
BRANCH   4   5
ATOM      5  C   UNL     1      22.441   2.732  29.287  1.00  0.00     0.041 C 
ATOM      6  O   UNL     1      22.911   1.685  28.771  1.00  0.00    -0.550 OA
ATOM      7  O   UNL     1      22.409   2.862  30.670  1.00  0.00    -0.550 OA
ENDBRANCH   4   5
ENDBRANCH   3   4
ENDBRANCH   2   3
ENDBRANCH   1   2
BRANCH   1   8
ATOM      8  C   UNL     1      25.076   6.013  26.592  1.00  0.00     0.000 C 
BRANCH   8   9
ATOM      9  C   UNL     1      26.006   7.231  26.657  1.00  0.00    -0.000 C 
BRANCH   9  10
ATOM     10  C   UNL     1      26.311   7.613  28.111  1.00  0.00    -0.000 C 
BRANCH  10  11
ATOM     11  C   UNL     1      25.325   8.669  28.621  1.00  0.00    -0.000 C 
BRANCH  11  12
ATOM     12  C   UNL     1      24.991   9.686  27.524  1.00  0.00    -0.003 C 
ATOM     13  C   UNL     1      23.483   9.889  27.400  1.00  0.00     0.004 C 
ENDBRANCH  11  12
ENDBRANCH  10  11
ENDBRANCH   9  10
ENDBRANCH   8   9
ENDBRANCH   1   8
TORSDOF 9
ENDMDL
MODEL 4
REMARK VINA RESULT:    -3.148      2.102      3.009
REMARK INTER + INTRA:          -5.608
REMARK INTER:                  -5.108
REMARK INTRA:                  -0.500
REMARK UNBOUND:                -0.804
REMARK SMILES CCCCCCCCCCC(=O)[O-]
REMARK SMILES IDX 7 1 8 2 9 3 10 4 11 5 12 6 13 7 6 8 5 9 4 10 3 11 2 12 1 13
REMARK H PARENT
REMARK Flexibility Score: inf
ROOT
ATOM      1  C   UNL     1      24.716   6.083  26.677  1.00  0.00     0.000 C 
ENDROOT
BRANCH   1   2
ATOM      2  C   UNL     1      25.688   7.087  26.038  1.00  0.00     0.000 C 
BRANCH   2   3
ATOM      3  C   UNL     1      26.541   7.832  27.079  1.00  0.00     0.006 C 
BRANCH   3   4
ATOM      4  C   UNL     1      25.871   7.864  28.459  1.00  0.00     0.053 C 
BRANCH   4   5
ATOM      5  C   UNL     1      25.286   9.209  28.760  1.00  0.00     0.041 C 
ATOM      6  O   UNL     1      25.057   9.550  29.950  1.00  0.00    -0.550 OA
ATOM      7  O   UNL     1      24.961  10.074  27.722  1.00  0.00    -0.550 OA
ENDBRANCH   4   5
ENDBRANCH   3   4
ENDBRANCH   2   3
ENDBRANCH   1   2
BRANCH   1   8
ATOM      8  C   UNL     1      23.254   6.346  26.288  1.00  0.00     0.000 C 
BRANCH   8   9
ATOM      9  C   UNL     1      22.393   5.095  26.508  1.00  0.00    -0.000 C 
BRANCH   9  10
ATOM     10  C   UNL     1      23.151   4.042  27.326  1.00  0.00    -0.000 C 
BRANCH  10  11
ATOM     11  C   UNL     1      22.348   3.622  28.562  1.00  0.00    -0.000 C 
BRANCH  11  12
ATOM     12  C   UNL     1      22.594   2.148  28.903  1.00  0.00    -0.003 C 
ATOM     13  C   UNL     1      22.711   1.944  30.411  1.00  0.00     0.004 C 
ENDBRANCH  11  12
ENDBRANCH  10  11
ENDBRANCH   9  10
ENDBRANCH   8   9
ENDBRANCH   1   8
TORSDOF 9
ENDMDL
MODEL 5
REMARK VINA RESULT:    -3.097     13.483     14.862
REMARK INTER + INTRA:          -5.530
REMARK INTER:                  -4.301
REMARK INTRA:                  -1.230
REMARK UNBOUND:                -0.804
REMARK SMILES CCCCCCCCCCC(=O)[O-]
REMARK SMILES IDX 7 1 8 2 9 3 10 4 11 5 12 6 13 7 6 8 5 9 4 10 3 11 2 12 1 13
REMARK H PARENT
REMARK Flexibility Score: inf
ROOT
ATOM      1  C   UNL     1       9.084   7.033  31.075  1.00  0.00     0.000 C 
ENDROOT
BRANCH   1   2
ATOM      2  C   UNL     1       8.890   7.174  29.556  1.00  0.00     0.000 C 
BRANCH   2   3
ATOM      3  C   UNL     1       8.958   5.824  28.822  1.00  0.00     0.006 C 
BRANCH   3   4
ATOM      4  C   UNL     1       9.776   4.784  29.597  1.00  0.00     0.053 C 
BRANCH   4   5
ATOM      5  C   UNL     1      11.168   4.659  29.057  1.00  0.00     0.041 C 
ATOM      6  O   UNL     1      11.531   3.603  28.475  1.00  0.00    -0.550 OA
ATOM      7  O   UNL     1      12.076   5.697  29.228  1.00  0.00    -0.550 OA
ENDBRANCH   4   5
ENDBRANCH   3   4
ENDBRANCH   2   3
ENDBRANCH   1   2
BRANCH   1   8
ATOM      8  C   UNL     1      10.297   7.822  31.591  1.00  0.00     0.000 C 
BRANCH   8   9
ATOM      9  C   UNL     1      10.805   7.242  32.917  1.00  0.00    -0.000 C 
BRANCH   9  10
ATOM     10  C   UNL     1      11.919   6.215  32.679  1.00  0.00    -0.000 C 
BRANCH  10  11
ATOM     11  C   UNL     1      11.419   4.791  32.944  1.00  0.00    -0.000 C 
BRANCH  11  12
ATOM     12  C   UNL     1      10.158   4.804  33.816  1.00  0.00    -0.003 C 
ATOM     13  C   UNL     1       9.062   3.928  33.214  1.00  0.00     0.004 C 
ENDBRANCH  11  12
ENDBRANCH  10  11
ENDBRANCH   9  10
ENDBRANCH   8   9
ENDBRANCH   1   8
TORSDOF 9
ENDMDL
MODEL 6
REMARK VINA RESULT:    -3.093     10.203     11.622
REMARK INTER + INTRA:          -5.524
REMARK INTER:                  -4.300
REMARK INTRA:                  -1.224
REMARK UNBOUND:                -0.804
REMARK SMILES CCCCCCCCCCC(=O)[O-]
REMARK SMILES IDX 7 1 8 2 9 3 10 4 11 5 12 6 13 7 6 8 5 9 4 10 3 11 2 12 1 13
REMARK H PARENT
REMARK Flexibility Score: inf
ROOT
ATOM      1  C   UNL     1      22.458   8.589  39.001  1.00  0.00     0.000 C 
ENDROOT
BRANCH   1   2
ATOM      2  C   UNL     1      21.391   7.483  39.016  1.00  0.00     0.000 C 
BRANCH   2   3
ATOM      3  C   UNL     1      21.931   6.132  38.517  1.00  0.00     0.006 C 
BRANCH   3   4
ATOM      4  C   UNL     1      20.818   5.232  37.965  1.00  0.00     0.053 C 
BRANCH   4   5
ATOM      5  C   UNL     1      21.363   4.163  37.068  1.00  0.00     0.041 C 
ATOM      6  O   UNL     1      22.302   4.421  36.270  1.00  0.00    -0.550 OA
ATOM      7  O   UNL     1      20.808   2.889  37.090  1.00  0.00    -0.550 OA
ENDBRANCH   4   5
ENDBRANCH   3   4
ENDBRANCH   2   3
ENDBRANCH   1   2
BRANCH   1   8
ATOM      8  C   UNL     1      22.209   9.636  37.904  1.00  0.00     0.000 C 
BRANCH   8   9
ATOM      9  C   UNL     1      20.719   9.717  37.551  1.00  0.00    -0.000 C 
BRANCH   9  10
ATOM     10  C   UNL     1      20.507   9.643  36.034  1.00  0.00    -0.000 C 
BRANCH  10  11
ATOM     11  C   UNL     1      21.670   8.914  35.351  1.00  0.00    -0.000 C 
BRANCH  11  12
ATOM     12  C   UNL     1      21.251   7.510  34.901  1.00  0.00    -0.003 C 
ATOM     13  C   UNL     1      19.739   7.325  35.010  1.00  0.00     0.004 C 
ENDBRANCH  11  12
ENDBRANCH  10  11
ENDBRANCH   9  10
ENDBRANCH   8   9
ENDBRANCH   1   8
TORSDOF 9
ENDMDL
MODEL 7
REMARK VINA RESULT:    -3.022     10.339     11.390
REMARK INTER + INTRA:          -5.415
REMARK INTER:                  -4.261
REMARK INTRA:                  -1.154
REMARK UNBOUND:                -0.804
REMARK SMILES CCCCCCCCCCC(=O)[O-]
REMARK SMILES IDX 7 1 8 2 9 3 10 4 11 5 12 6 13 7 6 8 5 9 4 10 3 11 2 12 1 13
REMARK H PARENT
REMARK Flexibility Score: inf
ROOT
ATOM      1  C   UNL     1      21.974   9.331  35.659  1.00  0.00     0.000 C 
ENDROOT
BRANCH   1   2
ATOM      2  C   UNL     1      22.373   9.805  37.065  1.00  0.00     0.000 C 
BRANCH   2   3
ATOM      3  C   UNL     1      22.376   8.664  38.097  1.00  0.00     0.006 C 
BRANCH   3   4
ATOM      4  C   UNL     1      21.414   8.933  39.260  1.00  0.00     0.053 C 
BRANCH   4   5
ATOM      5  C   UNL     1      20.038   8.418  38.973  1.00  0.00     0.041 C 
ATOM      6  O   UNL     1      19.112   9.216  38.669  1.00  0.00    -0.550 OA
ATOM      7  O   UNL     1      19.768   7.059  39.074  1.00  0.00    -0.550 OA
ENDBRANCH   4   5
ENDBRANCH   3   4
ENDBRANCH   2   3
ENDBRANCH   1   2
BRANCH   1   8
ATOM      8  C   UNL     1      20.470   9.484  35.387  1.00  0.00     0.000 C 
BRANCH   8   9
ATOM      9  C   UNL     1      19.797   8.115  35.234  1.00  0.00    -0.000 C 
BRANCH   9  10
ATOM     10  C   UNL     1      20.832   7.022  34.939  1.00  0.00    -0.000 C 
BRANCH  10  11
ATOM     11  C   UNL     1      20.395   5.677  35.530  1.00  0.00    -0.000 C 
BRANCH  11  12
ATOM     12  C   UNL     1      21.610   4.817  35.898  1.00  0.00    -0.003 C 
ATOM     13  C   UNL     1      22.038   5.058  37.343  1.00  0.00     0.004 C 
ENDBRANCH  11  12
ENDBRANCH  10  11
ENDBRANCH   9  10
ENDBRANCH   8   9
ENDBRANCH   1   8
TORSDOF 9
ENDMDL
