MODEL 1
REMARK VINA RESULT:    -2.915      0.000      0.000
REMARK INTER + INTRA:          -3.993
REMARK INTER:                  -3.767
REMARK INTRA:                  -0.225
REMARK UNBOUND:                -0.225
REMARK SMILES CCCCCCC(=O)[O-]
REMARK SMILES IDX 5 1 6 2 7 3 8 4 9 5 4 6 3 7 2 8 1 9
REMARK H PARENT
REMARK Flexibility Score: inf
ROOT
ATOM      1  C   UNL     1     -47.269 -21.050  28.019  1.00  0.00     0.006 C 
ENDROOT
BRANCH   1   2
ATOM      2  C   UNL     1     -45.966 -21.581  27.416  1.00  0.00     0.053 C 
BRANCH   2   3
ATOM      3  C   UNL     1     -45.315 -22.552  28.349  1.00  0.00     0.041 C 
ATOM      4  O   UNL     1     -44.128 -22.366  28.729  1.00  0.00    -0.550 OA
ATOM      5  O   UNL     1     -46.032 -23.636  28.838  1.00  0.00    -0.550 OA
ENDBRANCH   2   3
ENDBRANCH   1   2
BRANCH   1   6
ATOM      6  C   UNL     1     -47.618 -19.669  27.449  1.00  0.00     0.000 C 
BRANCH   6   7
ATOM      7  C   UNL     1     -46.957 -19.457  26.078  1.00  0.00    -0.000 C 
BRANCH   7   8
ATOM      8  C   UNL     1     -46.386 -18.041  25.912  1.00  0.00    -0.003 C 
ATOM      9  C   UNL     1     -46.683 -17.138  27.109  1.00  0.00     0.004 C 
ENDBRANCH   7   8
ENDBRANCH   6   7
ENDBRANCH   1   6
TORSDOF 5
ENDMDL
MODEL 2
REMARK VINA RESULT:    -2.861      6.190      8.095
REMARK INTER + INTRA:          -3.923
REMARK INTER:                  -3.469
REMARK INTRA:                  -0.453
REMARK UNBOUND:                -0.225
REMARK SMILES CCCCCCC(=O)[O-]
REMARK SMILES IDX 5 1 6 2 7 3 8 4 9 5 4 6 3 7 2 8 1 9
REMARK H PARENT
REMARK Flexibility Score: inf
ROOT
ATOM      1  C   UNL     1     -38.885 -20.376  27.986  1.00  0.00     0.006 C 
ENDROOT
BRANCH   1   2
ATOM      2  C   UNL     1     -40.102 -20.482  28.908  1.00  0.00     0.053 C 
BRANCH   2   3
ATOM      3  C   UNL     1     -40.971 -21.629  28.498  1.00  0.00     0.041 C 
ATOM      4  O   UNL     1     -41.570 -22.312  29.371  1.00  0.00    -0.550 OA
ATOM      5  O   UNL     1     -41.160 -21.913  27.153  1.00  0.00    -0.550 OA
ENDBRANCH   2   3
ENDBRANCH   1   2
BRANCH   1   6
ATOM      6  C   UNL     1     -37.867 -21.483  28.287  1.00  0.00     0.000 C 
BRANCH   6   7
ATOM      7  C   UNL     1     -37.537 -22.287  27.020  1.00  0.00    -0.000 C 
BRANCH   7   8
ATOM      8  C   UNL     1     -37.981 -23.755  27.121  1.00  0.00    -0.003 C 
ATOM      9  C   UNL     1     -38.228 -24.201  28.562  1.00  0.00     0.004 C 
ENDBRANCH   7   8
ENDBRANCH   6   7
ENDBRANCH   1   6
TORSDOF 5
ENDMDL
MODEL 3
REMARK VINA RESULT:    -2.851      6.506      7.231
REMARK INTER + INTRA:          -3.910
REMARK INTER:                  -3.554
REMARK INTRA:                  -0.355
REMARK UNBOUND:                -0.225
REMARK SMILES CCCCCCC(=O)[O-]
REMARK SMILES IDX 5 1 6 2 7 3 8 4 9 5 4 6 3 7 2 8 1 9
REMARK H PARENT
REMARK Flexibility Score: inf
ROOT
ATOM      1  C   UNL     1     -40.626 -20.984  28.202  1.00  0.00     0.006 C 
ENDROOT
BRANCH   1   2
ATOM      2  C   UNL     1     -39.273 -20.667  28.845  1.00  0.00     0.053 C 
BRANCH   2   3
ATOM      3  C   UNL     1     -38.229 -21.628  28.372  1.00  0.00     0.041 C 
ATOM      4  O   UNL     1     -37.189 -21.203  27.803  1.00  0.00    -0.550 OA
ATOM      5  O   UNL     1     -38.381 -22.989  28.602  1.00  0.00    -0.550 OA
ENDBRANCH   2   3
ENDBRANCH   1   2
BRANCH   1   6
ATOM      6  C   UNL     1     -40.920 -20.030  27.038  1.00  0.00     0.000 C 
BRANCH   6   7
ATOM      7  C   UNL     1     -40.004 -18.798  27.091  1.00  0.00    -0.000 C 
BRANCH   7   8
ATOM      8  C   UNL     1     -39.400 -18.453  25.721  1.00  0.00    -0.003 C 
ATOM      9  C   UNL     1     -38.692 -19.641  25.070  1.00  0.00     0.004 C 
ENDBRANCH   7   8
ENDBRANCH   6   7
ENDBRANCH   1   6
TORSDOF 5
ENDMDL
MODEL 4
REMARK VINA RESULT:    -2.848      5.178      6.772
REMARK INTER + INTRA:          -3.906
REMARK INTER:                  -3.743
REMARK INTRA:                  -0.163
REMARK UNBOUND:                -0.225
REMARK SMILES CCCCCCC(=O)[O-]
REMARK SMILES IDX 5 1 6 2 7 3 8 4 9 5 4 6 3 7 2 8 1 9
REMARK H PARENT
REMARK Flexibility Score: inf
ROOT
ATOM      1  C   UNL     1     -40.676 -22.065  28.613  1.00  0.00     0.006 C 
ENDROOT
BRANCH   1   2
ATOM      2  C   UNL     1     -42.009 -22.282  29.333  1.00  0.00     0.053 C 
BRANCH   2   3
ATOM      3  C   UNL     1     -43.111 -22.496  28.344  1.00  0.00     0.041 C 
ATOM      4  O   UNL     1     -44.309 -22.295  28.677  1.00  0.00    -0.550 OA
ATOM      5  O   UNL     1     -42.812 -22.870  27.041  1.00  0.00    -0.550 OA
ENDBRANCH   2   3
ENDBRANCH   1   2
BRANCH   1   6
ATOM      6  C   UNL     1     -40.157 -20.638  28.831  1.00  0.00     0.000 C 
BRANCH   6   7
ATOM      7  C   UNL     1     -38.883 -20.385  28.011  1.00  0.00    -0.000 C 
BRANCH   7   8
ATOM      8  C   UNL     1     -37.836 -21.494  28.189  1.00  0.00    -0.003 C 
ATOM      9  C   UNL     1     -37.459 -22.170  26.871  1.00  0.00     0.004 C 
ENDBRANCH   7   8
ENDBRANCH   6   7
ENDBRANCH   1   6
TORSDOF 5
ENDMDL
MODEL 5
REMARK VINA RESULT:    -2.838      6.438      7.927
REMARK INTER + INTRA:          -3.893
REMARK INTER:                  -3.547
REMARK INTRA:                  -0.346
REMARK UNBOUND:                -0.225
REMARK SMILES CCCCCCC(=O)[O-]
REMARK SMILES IDX 5 1 6 2 7 3 8 4 9 5 4 6 3 7 2 8 1 9
REMARK H PARENT
REMARK Flexibility Score: inf
ROOT
ATOM      1  C   UNL     1     -37.750 -21.441  28.144  1.00  0.00     0.006 C 
ENDROOT
BRANCH   1   2
ATOM      2  C   UNL     1     -37.802 -22.571  27.112  1.00  0.00     0.053 C 
BRANCH   2   3
ATOM      3  C   UNL     1     -37.903 -23.899  27.794  1.00  0.00     0.041 C 
ATOM      4  O   UNL     1     -38.826 -24.116  28.623  1.00  0.00    -0.550 OA
ATOM      5  O   UNL     1     -37.010 -24.913  27.478  1.00  0.00    -0.550 OA
ENDBRANCH   2   3
ENDBRANCH   1   2
BRANCH   1   6
ATOM      6  C   UNL     1     -38.859 -20.412  27.890  1.00  0.00     0.000 C 
BRANCH   6   7
ATOM      7  C   UNL     1     -40.032 -20.616  28.861  1.00  0.00    -0.000 C 
BRANCH   7   8
ATOM      8  C   UNL     1     -41.159 -21.466  28.253  1.00  0.00    -0.003 C 
ATOM      9  C   UNL     1     -41.874 -22.330  29.292  1.00  0.00     0.004 C 
ENDBRANCH   7   8
ENDBRANCH   6   7
ENDBRANCH   1   6
TORSDOF 5
ENDMDL
MODEL 6
REMARK VINA RESULT:    -2.810      2.732      4.509
REMARK INTER + INTRA:          -3.857
REMARK INTER:                  -3.598
REMARK INTRA:                  -0.259
REMARK UNBOUND:                -0.225
REMARK SMILES CCCCCCC(=O)[O-]
REMARK SMILES IDX 5 1 6 2 7 3 8 4 9 5 4 6 3 7 2 8 1 9
REMARK H PARENT
REMARK Flexibility Score: inf
ROOT
ATOM      1  C   UNL     1     -47.211 -19.586  26.647  1.00  0.00     0.006 C 
ENDROOT
BRANCH   1   2
ATOM      2  C   UNL     1     -46.889 -18.111  26.902  1.00  0.00     0.053 C 
BRANCH   2   3
ATOM      3  C   UNL     1     -45.523 -17.777  26.392  1.00  0.00     0.041 C 
ATOM      4  O   UNL     1     -44.827 -18.658  25.822  1.00  0.00    -0.550 OA
ATOM      5  O   UNL     1     -45.039 -16.480  26.500  1.00  0.00    -0.550 OA
ENDBRANCH   2   3
ENDBRANCH   1   2
BRANCH   1   6
ATOM      6  C   UNL     1     -47.769 -20.255  27.910  1.00  0.00     0.000 C 
BRANCH   6   7
ATOM      7  C   UNL     1     -47.041 -21.576  28.200  1.00  0.00    -0.000 C 
BRANCH   7   8
ATOM      8  C   UNL     1     -45.698 -21.683  27.463  1.00  0.00    -0.003 C 
ATOM      9  C   UNL     1     -44.618 -22.372  28.298  1.00  0.00     0.004 C 
ENDBRANCH   7   8
ENDBRANCH   6   7
ENDBRANCH   1   6
TORSDOF 5
ENDMDL
MODEL 7
REMARK VINA RESULT:    -2.796      6.948      8.379
REMARK INTER + INTRA:          -3.839
REMARK INTER:                  -3.514
REMARK INTRA:                  -0.325
REMARK UNBOUND:                -0.225
REMARK SMILES CCCCCCC(=O)[O-]
REMARK SMILES IDX 5 1 6 2 7 3 8 4 9 5 4 6 3 7 2 8 1 9
REMARK H PARENT
REMARK Flexibility Score: inf
ROOT
ATOM      1  C   UNL     1     -40.506 -19.768  27.347  1.00  0.00     0.006 C 
ENDROOT
BRANCH   1   2
ATOM      2  C   UNL     1     -39.705 -18.516  26.981  1.00  0.00     0.053 C 
BRANCH   2   3
ATOM      3  C   UNL     1     -39.326 -18.542  25.534  1.00  0.00     0.041 C 
ATOM      4  O   UNL     1     -38.479 -19.376  25.116  1.00  0.00    -0.550 OA
ATOM      5  O   UNL     1     -39.943 -17.680  24.637  1.00  0.00    -0.550 OA
ENDBRANCH   2   3
ENDBRANCH   1   2
BRANCH   1   6
ATOM      6  C   UNL     1     -40.031 -20.355  28.683  1.00  0.00     0.000 C 
BRANCH   6   7
ATOM      7  C   UNL     1     -39.306 -21.693  28.469  1.00  0.00    -0.000 C 
BRANCH   7   8
ATOM      8  C   UNL     1     -37.822 -21.510  28.119  1.00  0.00    -0.003 C 
ATOM      9  C   UNL     1     -37.415 -22.264  26.854  1.00  0.00     0.004 C 
ENDBRANCH   7   8
ENDBRANCH   6   7
ENDBRANCH   1   6
TORSDOF 5
ENDMDL
MODEL 8
REMARK VINA RESULT:    -2.771      1.231      2.512
REMARK INTER + INTRA:          -3.807
REMARK INTER:                  -3.424
REMARK INTRA:                  -0.382
REMARK UNBOUND:                -0.225
REMARK SMILES CCCCCCC(=O)[O-]
REMARK SMILES IDX 5 1 6 2 7 3 8 4 9 5 4 6 3 7 2 8 1 9
REMARK H PARENT
REMARK Flexibility Score: inf
ROOT
ATOM      1  C   UNL     1     -44.841 -20.451  26.590  1.00  0.00     0.006 C 
ENDROOT
BRANCH   1   2
ATOM      2  C   UNL     1     -44.955 -21.969  26.754  1.00  0.00     0.053 C 
BRANCH   2   3
ATOM      3  C   UNL     1     -44.862 -22.348  28.198  1.00  0.00     0.041 C 
ATOM      4  O   UNL     1     -45.891 -22.718  28.823  1.00  0.00    -0.550 OA
ATOM      5  O   UNL     1     -43.631 -22.342  28.841  1.00  0.00    -0.550 OA
ENDBRANCH   2   3
ENDBRANCH   1   2
BRANCH   1   6
ATOM      6  C   UNL     1     -46.110 -19.868  25.956  1.00  0.00     0.000 C 
BRANCH   6   7
ATOM      7  C   UNL     1     -47.017 -19.235  27.022  1.00  0.00    -0.000 C 
BRANCH   7   8
ATOM      8  C   UNL     1     -48.093 -20.206  27.532  1.00  0.00    -0.003 C 
ATOM      9  C   UNL     1     -48.604 -21.149  26.443  1.00  0.00     0.004 C 
ENDBRANCH   7   8
ENDBRANCH   6   7
ENDBRANCH   1   6
TORSDOF 5
ENDMDL
MODEL 9
REMARK VINA RESULT:    -2.742      6.812      7.753
REMARK INTER + INTRA:          -3.769
REMARK INTER:                  -3.360
REMARK INTRA:                  -0.410
REMARK UNBOUND:                -0.225
REMARK SMILES CCCCCCC(=O)[O-]
REMARK SMILES IDX 5 1 6 2 7 3 8 4 9 5 4 6 3 7 2 8 1 9
REMARK H PARENT
REMARK Flexibility Score: inf
ROOT
ATOM      1  C   UNL     1     -38.653 -21.741  28.578  1.00  0.00     0.006 C 
ENDROOT
BRANCH   1   2
ATOM      2  C   UNL     1     -37.466 -21.402  27.673  1.00  0.00     0.053 C 
BRANCH   2   3
ATOM      3  C   UNL     1     -37.502 -22.232  26.429  1.00  0.00     0.041 C 
ATOM      4  O   UNL     1     -36.758 -23.243  26.321  1.00  0.00    -0.550 OA
ATOM      5  O   UNL     1     -38.392 -21.921  25.410  1.00  0.00    -0.550 OA
ENDBRANCH   2   3
ENDBRANCH   1   2
BRANCH   1   6
ATOM      6  C   UNL     1     -39.580 -20.530  28.749  1.00  0.00     0.000 C 
BRANCH   6   7
ATOM      7  C   UNL     1     -40.790 -20.626  27.808  1.00  0.00    -0.000 C 
BRANCH   7   8
ATOM      8  C   UNL     1     -40.734 -19.594  26.671  1.00  0.00    -0.003 C 
ATOM      9  C   UNL     1     -39.710 -18.489  26.923  1.00  0.00     0.004 C 
ENDBRANCH   7   8
ENDBRANCH   6   7
ENDBRANCH   1   6
TORSDOF 5
ENDMDL
