MODEL 1
REMARK VINA RESULT:    -5.193      0.000      0.000
REMARK INTER + INTRA:         -12.972
REMARK INTER:                 -10.051
REMARK INTRA:                  -2.921
REMARK UNBOUND:                -2.921
REMARK SMILES CCCCCCCCCCCCCCCCCC(=O)[O-]
REMARK SMILES IDX 10 1 11 2 12 3 13 4 14 5 15 6 16 7 17 8 18 9 19 10 20 11
REMARK SMILES IDX 9 12 8 13 7 14 6 15 5 16 4 17 3 18 2 19 1 20
REMARK H PARENT
REMARK Flexibility Score: inf
ROOT
ATOM      1  C   UNL     1      35.830   4.474   8.345  1.00  0.00     0.000 C 
ENDROOT
BRANCH   1   2
ATOM      2  C   UNL     1      34.797   3.413   7.935  1.00  0.00     0.000 C 
BRANCH   2   3
ATOM      3  C   UNL     1      33.590   4.017   7.196  1.00  0.00     0.000 C 
BRANCH   3   4
ATOM      4  C   UNL     1      33.914   4.412   5.743  1.00  0.00     0.000 C 
BRANCH   4   5
ATOM      5  C   UNL     1      33.067   3.708   4.667  1.00  0.00     0.000 C 
BRANCH   5   6
ATOM      6  C   UNL     1      33.918   3.060   3.561  1.00  0.00     0.000 C 
BRANCH   6   7
ATOM      7  C   UNL     1      35.419   3.386   3.703  1.00  0.00     0.006 C 
BRANCH   7   8
ATOM      8  C   UNL     1      36.339   2.348   3.040  1.00  0.00     0.053 C 
BRANCH   8   9
ATOM      9  C   UNL     1      37.782   2.737   3.113  1.00  0.00     0.041 C 
ATOM     10  O   UNL     1      38.682   1.870   2.956  1.00  0.00    -0.550 OA
ATOM     11  O   UNL     1      38.134   4.056   3.372  1.00  0.00    -0.550 OA
ENDBRANCH   8   9
ENDBRANCH   7   8
ENDBRANCH   6   7
ENDBRANCH   5   6
ENDBRANCH   4   5
ENDBRANCH   3   4
ENDBRANCH   2   3
ENDBRANCH   1   2
BRANCH   1  12
ATOM     12  C   UNL     1      37.252   4.133   7.874  1.00  0.00     0.000 C 
BRANCH  12  13
ATOM     13  C   UNL     1      37.221   3.086   6.753  1.00  0.00    -0.000 C 
BRANCH  13  14
ATOM     14  C   UNL     1      38.330   2.028   6.888  1.00  0.00    -0.000 C 
BRANCH  14  15
ATOM     15  C   UNL     1      37.795   0.588   7.029  1.00  0.00    -0.000 C 
BRANCH  15  16
ATOM     16  C   UNL     1      37.273   0.028   5.695  1.00  0.00    -0.000 C 
BRANCH  16  17
ATOM     17  C   UNL     1      36.014  -0.835   5.866  1.00  0.00    -0.000 C 
BRANCH  17  18
ATOM     18  C   UNL     1      34.796  -0.258   5.124  1.00  0.00    -0.000 C 
BRANCH  18  19
ATOM     19  C   UNL     1      33.799   0.424   6.072  1.00  0.00    -0.003 C 
ATOM     20  C   UNL     1      33.861  -0.131   7.494  1.00  0.00     0.004 C 
ENDBRANCH  18  19
ENDBRANCH  17  18
ENDBRANCH  16  17
ENDBRANCH  15  16
ENDBRANCH  14  15
ENDBRANCH  13  14
ENDBRANCH  12  13
ENDBRANCH   1  12
TORSDOF 16
ENDMDL
MODEL 2
REMARK VINA RESULT:    -5.156      1.276      3.346
REMARK INTER + INTRA:         -12.900
REMARK INTER:                 -10.137
REMARK INTRA:                  -2.763
REMARK UNBOUND:                -2.921
REMARK SMILES CCCCCCCCCCCCCCCCCC(=O)[O-]
REMARK SMILES IDX 10 1 11 2 12 3 13 4 14 5 15 6 16 7 17 8 18 9 19 10 20 11
REMARK SMILES IDX 9 12 8 13 7 14 6 15 5 16 4 17 3 18 2 19 1 20
REMARK H PARENT
REMARK Flexibility Score: inf
ROOT
ATOM      1  C   UNL     1      33.975   4.118   5.477  1.00  0.00     0.000 C 
ENDROOT
BRANCH   1   2
ATOM      2  C   UNL     1      33.508   3.981   6.936  1.00  0.00     0.000 C 
BRANCH   2   3
ATOM      3  C   UNL     1      34.608   3.429   7.859  1.00  0.00     0.000 C 
BRANCH   3   4
ATOM      4  C   UNL     1      35.540   4.528   8.404  1.00  0.00     0.000 C 
BRANCH   4   5
ATOM      5  C   UNL     1      36.944   4.568   7.775  1.00  0.00     0.000 C 
BRANCH   5   6
ATOM      6  C   UNL     1      37.380   3.214   7.190  1.00  0.00     0.000 C 
BRANCH   6   7
ATOM      7  C   UNL     1      37.637   3.281   5.670  1.00  0.00     0.006 C 
BRANCH   7   8
ATOM      8  C   UNL     1      38.977   2.661   5.245  1.00  0.00     0.053 C 
BRANCH   8   9
ATOM      9  C   UNL     1      39.573   3.353   4.060  1.00  0.00     0.041 C 
ATOM     10  O   UNL     1      39.217   4.524   3.763  1.00  0.00    -0.550 OA
ATOM     11  O   UNL     1      40.512   2.697   3.272  1.00  0.00    -0.550 OA
ENDBRANCH   8   9
ENDBRANCH   7   8
ENDBRANCH   6   7
ENDBRANCH   5   6
ENDBRANCH   4   5
ENDBRANCH   3   4
ENDBRANCH   2   3
ENDBRANCH   1   2
BRANCH   1  12
ATOM     12  C   UNL     1      33.467   2.978   4.581  1.00  0.00     0.000 C 
BRANCH  12  13
ATOM     13  C   UNL     1      34.549   2.541   3.584  1.00  0.00    -0.000 C 
BRANCH  13  14
ATOM     14  C   UNL     1      34.402   1.075   3.143  1.00  0.00    -0.000 C 
BRANCH  14  15
ATOM     15  C   UNL     1      35.748   0.336   2.998  1.00  0.00    -0.000 C 
BRANCH  15  16
ATOM     16  C   UNL     1      35.923  -0.767   4.056  1.00  0.00    -0.000 C 
BRANCH  16  17
ATOM     17  C   UNL     1      36.701  -0.286   5.290  1.00  0.00    -0.000 C 
BRANCH  17  18
ATOM     18  C   UNL     1      35.799  -0.105   6.524  1.00  0.00    -0.000 C 
BRANCH  18  19
ATOM     19  C   UNL     1      34.389  -0.677   6.311  1.00  0.00    -0.003 C 
ATOM     20  C   UNL     1      33.307   0.143   7.011  1.00  0.00     0.004 C 
ENDBRANCH  18  19
ENDBRANCH  17  18
ENDBRANCH  16  17
ENDBRANCH  15  16
ENDBRANCH  14  15
ENDBRANCH  13  14
ENDBRANCH  12  13
ENDBRANCH   1  12
TORSDOF 16
ENDMDL
MODEL 3
REMARK VINA RESULT:    -5.148      2.178      4.888
REMARK INTER + INTRA:         -12.884
REMARK INTER:                  -9.845
REMARK INTRA:                  -3.039
REMARK UNBOUND:                -2.921
REMARK SMILES CCCCCCCCCCCCCCCCCC(=O)[O-]
REMARK SMILES IDX 10 1 11 2 12 3 13 4 14 5 15 6 16 7 17 8 18 9 19 10 20 11
REMARK SMILES IDX 9 12 8 13 7 14 6 15 5 16 4 17 3 18 2 19 1 20
REMARK H PARENT
REMARK Flexibility Score: inf
ROOT
ATOM      1  C   UNL     1      36.315   5.271   6.232  1.00  0.00     0.000 C 
ENDROOT
BRANCH   1   2
ATOM      2  C   UNL     1      36.571   4.664   7.621  1.00  0.00     0.000 C 
BRANCH   2   3
ATOM      3  C   UNL     1      37.371   3.351   7.555  1.00  0.00     0.000 C 
BRANCH   3   4
ATOM      4  C   UNL     1      37.909   3.048   6.143  1.00  0.00     0.000 C 
BRANCH   4   5
ATOM      5  C   UNL     1      38.096   1.555   5.820  1.00  0.00     0.000 C 
BRANCH   5   6
ATOM      6  C   UNL     1      37.638   0.630   6.961  1.00  0.00     0.000 C 
BRANCH   6   7
ATOM      7  C   UNL     1      36.443  -0.258   6.558  1.00  0.00     0.006 C 
BRANCH   7   8
ATOM      8  C   UNL     1      36.595  -0.902   5.171  1.00  0.00     0.053 C 
BRANCH   8   9
ATOM      9  C   UNL     1      35.275  -1.142   4.508  1.00  0.00     0.041 C 
ATOM     10  O   UNL     1      35.220  -1.380   3.272  1.00  0.00    -0.550 OA
ATOM     11  O   UNL     1      34.103  -1.087   5.252  1.00  0.00    -0.550 OA
ENDBRANCH   8   9
ENDBRANCH   7   8
ENDBRANCH   6   7
ENDBRANCH   5   6
ENDBRANCH   4   5
ENDBRANCH   3   4
ENDBRANCH   2   3
ENDBRANCH   1   2
BRANCH   1  12
ATOM     12  C   UNL     1      34.836   5.610   5.996  1.00  0.00     0.000 C 
BRANCH  12  13
ATOM     13  C   UNL     1      33.924   4.527   6.586  1.00  0.00    -0.000 C 
BRANCH  13  14
ATOM     14  C   UNL     1      33.333   3.592   5.517  1.00  0.00    -0.000 C 
BRANCH  14  15
ATOM     15  C   UNL     1      34.266   2.424   5.135  1.00  0.00    -0.000 C 
BRANCH  15  16
ATOM     16  C   UNL     1      34.398   2.260   3.611  1.00  0.00    -0.000 C 
BRANCH  16  17
ATOM     17  C   UNL     1      35.859   2.252   3.140  1.00  0.00    -0.000 C 
BRANCH  17  18
ATOM     18  C   UNL     1      36.362   3.652   2.747  1.00  0.00    -0.000 C 
BRANCH  18  19
ATOM     19  C   UNL     1      35.264   4.512   2.103  1.00  0.00    -0.003 C 
ATOM     20  C   UNL     1      35.779   5.348   0.932  1.00  0.00     0.004 C 
ENDBRANCH  18  19
ENDBRANCH  17  18
ENDBRANCH  16  17
ENDBRANCH  15  16
ENDBRANCH  14  15
ENDBRANCH  13  14
ENDBRANCH  12  13
ENDBRANCH   1  12
TORSDOF 16
ENDMDL
MODEL 4
REMARK VINA RESULT:    -5.145     15.920     19.324
REMARK INTER + INTRA:         -12.879
REMARK INTER:                  -9.877
REMARK INTRA:                  -3.003
REMARK UNBOUND:                -2.921
REMARK SMILES CCCCCCCCCCCCCCCCCC(=O)[O-]
REMARK SMILES IDX 10 1 11 2 12 3 13 4 14 5 15 6 16 7 17 8 18 9 19 10 20 11
REMARK SMILES IDX 9 12 8 13 7 14 6 15 5 16 4 17 3 18 2 19 1 20
REMARK H PARENT
REMARK Flexibility Score: inf
ROOT
ATOM      1  C   UNL     1      45.086  11.528  -9.524  1.00  0.00     0.000 C 
ENDROOT
BRANCH   1   2
ATOM      2  C   UNL     1      46.045  12.648  -9.089  1.00  0.00     0.000 C 
BRANCH   2   3
ATOM      3  C   UNL     1      45.773  13.137  -7.656  1.00  0.00     0.000 C 
BRANCH   3   4
ATOM      4  C   UNL     1      46.100  12.075  -6.589  1.00  0.00     0.000 C 
BRANCH   4   5
ATOM      5  C   UNL     1      44.894  11.262  -6.083  1.00  0.00     0.000 C 
BRANCH   5   6
ATOM      6  C   UNL     1      45.300   9.940  -5.409  1.00  0.00     0.000 C 
BRANCH   6   7
ATOM      7  C   UNL     1      46.748   9.968  -4.877  1.00  0.00     0.006 C 
BRANCH   7   8
ATOM      8  C   UNL     1      47.290   8.581  -4.496  1.00  0.00     0.053 C 
BRANCH   8   9
ATOM      9  C   UNL     1      46.407   7.875  -3.516  1.00  0.00     0.041 C 
ATOM     10  O   UNL     1      45.938   6.738  -3.789  1.00  0.00    -0.550 OA
ATOM     11  O   UNL     1      46.089   8.480  -2.306  1.00  0.00    -0.550 OA
ENDBRANCH   8   9
ENDBRANCH   7   8
ENDBRANCH   6   7
ENDBRANCH   5   6
ENDBRANCH   4   5
ENDBRANCH   3   4
ENDBRANCH   2   3
ENDBRANCH   1   2
BRANCH   1  12
ATOM     12  C   UNL     1      45.816  10.326 -10.142  1.00  0.00     0.000 C 
BRANCH  12  13
ATOM     13  C   UNL     1      45.485   9.034  -9.383  1.00  0.00    -0.000 C 
BRANCH  13  14
ATOM     14  C   UNL     1      46.643   8.547  -8.494  1.00  0.00    -0.000 C 
BRANCH  14  15
ATOM     15  C   UNL     1      47.899   9.439  -8.572  1.00  0.00    -0.000 C 
BRANCH  15  16
ATOM     16  C   UNL     1      49.059   8.884  -7.729  1.00  0.00    -0.000 C 
BRANCH  16  17
ATOM     17  C   UNL     1      50.050   9.974  -7.294  1.00  0.00    -0.000 C 
BRANCH  17  18
ATOM     18  C   UNL     1      49.453  11.389  -7.392  1.00  0.00    -0.000 C 
BRANCH  18  19
ATOM     19  C   UNL     1      50.276  12.312  -8.303  1.00  0.00    -0.003 C 
ATOM     20  C   UNL     1      49.732  12.370  -9.730  1.00  0.00     0.004 C 
ENDBRANCH  18  19
ENDBRANCH  17  18
ENDBRANCH  16  17
ENDBRANCH  15  16
ENDBRANCH  14  15
ENDBRANCH  13  14
ENDBRANCH  12  13
ENDBRANCH   1  12
TORSDOF 16
ENDMDL
MODEL 5
REMARK VINA RESULT:    -5.134      1.296      4.781
REMARK INTER + INTRA:         -12.858
REMARK INTER:                  -9.763
REMARK INTRA:                  -3.095
REMARK UNBOUND:                -2.921
REMARK SMILES CCCCCCCCCCCCCCCCCC(=O)[O-]
REMARK SMILES IDX 10 1 11 2 12 3 13 4 14 5 15 6 16 7 17 8 18 9 19 10 20 11
REMARK SMILES IDX 9 12 8 13 7 14 6 15 5 16 4 17 3 18 2 19 1 20
REMARK H PARENT
REMARK Flexibility Score: inf
ROOT
ATOM      1  C   UNL     1      35.261  -1.104   4.031  1.00  0.00     0.000 C 
ENDROOT
BRANCH   1   2
ATOM      2  C   UNL     1      34.252  -0.713   5.123  1.00  0.00     0.000 C 
BRANCH   2   3
ATOM      3  C   UNL     1      34.934  -0.310   6.441  1.00  0.00     0.000 C 
BRANCH   3   4
ATOM      4  C   UNL     1      36.436  -0.653   6.468  1.00  0.00     0.000 C 
BRANCH   4   5
ATOM      5  C   UNL     1      37.369   0.513   6.845  1.00  0.00     0.000 C 
BRANCH   5   6
ATOM      6  C   UNL     1      37.128   1.773   5.997  1.00  0.00     0.000 C 
BRANCH   6   7
ATOM      7  C   UNL     1      38.406   2.619   5.817  1.00  0.00     0.006 C 
BRANCH   7   8
ATOM      8  C   UNL     1      38.474   3.352   4.468  1.00  0.00     0.053 C 
BRANCH   8   9
ATOM      9  C   UNL     1      39.260   2.591   3.447  1.00  0.00     0.041 C 
ATOM     10  O   UNL     1      40.416   2.974   3.122  1.00  0.00    -0.550 OA
ATOM     11  O   UNL     1      38.710   1.468   2.841  1.00  0.00    -0.550 OA
ENDBRANCH   8   9
ENDBRANCH   7   8
ENDBRANCH   6   7
ENDBRANCH   5   6
ENDBRANCH   4   5
ENDBRANCH   3   4
ENDBRANCH   2   3
ENDBRANCH   1   2
BRANCH   1  12
ATOM     12  C   UNL     1      35.472   0.008   2.992  1.00  0.00     0.000 C 
BRANCH  12  13
ATOM     13  C   UNL     1      34.441   1.130   3.172  1.00  0.00    -0.000 C 
BRANCH  13  14
ATOM     14  C   UNL     1      35.067   2.534   3.123  1.00  0.00    -0.000 C 
BRANCH  14  15
ATOM     15  C   UNL     1      34.343   3.565   4.014  1.00  0.00    -0.000 C 
BRANCH  15  16
ATOM     16  C   UNL     1      33.613   2.900   5.194  1.00  0.00    -0.000 C 
BRANCH  16  17
ATOM     17  C   UNL     1      33.568   3.795   6.442  1.00  0.00    -0.000 C 
BRANCH  17  18
ATOM     18  C   UNL     1      34.167   3.109   7.682  1.00  0.00    -0.000 C 
BRANCH  18  19
ATOM     19  C   UNL     1      35.236   3.970   8.371  1.00  0.00    -0.003 C 
ATOM     20  C   UNL     1      35.871   4.989   7.426  1.00  0.00     0.004 C 
ENDBRANCH  18  19
ENDBRANCH  17  18
ENDBRANCH  16  17
ENDBRANCH  15  16
ENDBRANCH  14  15
ENDBRANCH  13  14
ENDBRANCH  12  13
ENDBRANCH   1  12
TORSDOF 16
ENDMDL
MODEL 6
REMARK VINA RESULT:    -5.124      1.607      2.275
REMARK INTER + INTRA:         -12.838
REMARK INTER:                  -9.931
REMARK INTRA:                  -2.908
REMARK UNBOUND:                -2.921
REMARK SMILES CCCCCCCCCCCCCCCCCC(=O)[O-]
REMARK SMILES IDX 10 1 11 2 12 3 13 4 14 5 15 6 16 7 17 8 18 9 19 10 20 11
REMARK SMILES IDX 9 12 8 13 7 14 6 15 5 16 4 17 3 18 2 19 1 20
REMARK H PARENT
REMARK Flexibility Score: inf
ROOT
ATOM      1  C   UNL     1      35.456   5.506   6.694  1.00  0.00     0.000 C 
ENDROOT
BRANCH   1   2
ATOM      2  C   UNL     1      34.024   5.040   6.383  1.00  0.00     0.000 C 
BRANCH   2   3
ATOM      3  C   UNL     1      33.710   3.656   6.977  1.00  0.00     0.000 C 
BRANCH   3   4
ATOM      4  C   UNL     1      33.757   2.529   5.928  1.00  0.00     0.000 C 
BRANCH   4   5
ATOM      5  C   UNL     1      33.546   2.980   4.471  1.00  0.00     0.000 C 
BRANCH   5   6
ATOM      6  C   UNL     1      34.512   2.300   3.485  1.00  0.00     0.000 C 
BRANCH   6   7
ATOM      7  C   UNL     1      35.875   3.018   3.402  1.00  0.00     0.006 C 
BRANCH   7   8
ATOM      8  C   UNL     1      35.768   4.494   2.987  1.00  0.00     0.053 C 
BRANCH   8   9
ATOM      9  C   UNL     1      36.263   4.731   1.595  1.00  0.00     0.041 C 
ATOM     10  O   UNL     1      35.607   5.461   0.804  1.00  0.00    -0.550 OA
ATOM     11  O   UNL     1      37.440   4.133   1.165  1.00  0.00    -0.550 OA
ENDBRANCH   8   9
ENDBRANCH   7   8
ENDBRANCH   6   7
ENDBRANCH   5   6
ENDBRANCH   4   5
ENDBRANCH   3   4
ENDBRANCH   2   3
ENDBRANCH   1   2
BRANCH   1  12
ATOM     12  C   UNL     1      35.933   5.070   8.088  1.00  0.00     0.000 C 
BRANCH  12  13
ATOM     13  C   UNL     1      37.287   4.353   8.004  1.00  0.00    -0.000 C 
BRANCH  13  14
ATOM     14  C   UNL     1      37.377   3.378   6.817  1.00  0.00    -0.000 C 
BRANCH  14  15
ATOM     15  C   UNL     1      36.974   1.932   7.174  1.00  0.00    -0.000 C 
BRANCH  15  16
ATOM     16  C   UNL     1      37.580   0.904   6.204  1.00  0.00    -0.000 C 
BRANCH  16  17
ATOM     17  C   UNL     1      36.557  -0.141   5.733  1.00  0.00    -0.000 C 
BRANCH  17  18
ATOM     18  C   UNL     1      36.912  -0.740   4.361  1.00  0.00    -0.000 C 
BRANCH  18  19
ATOM     19  C   UNL     1      35.667  -1.062   3.521  1.00  0.00    -0.003 C 
ATOM     20  C   UNL     1      34.443  -1.382   4.378  1.00  0.00     0.004 C 
ENDBRANCH  18  19
ENDBRANCH  17  18
ENDBRANCH  16  17
ENDBRANCH  15  16
ENDBRANCH  14  15
ENDBRANCH  13  14
ENDBRANCH  12  13
ENDBRANCH   1  12
TORSDOF 16
ENDMDL
MODEL 7
REMARK VINA RESULT:    -5.124     16.128     19.220
REMARK INTER + INTRA:         -12.838
REMARK INTER:                  -9.698
REMARK INTRA:                  -3.140
REMARK UNBOUND:                -2.921
REMARK SMILES CCCCCCCCCCCCCCCCCC(=O)[O-]
REMARK SMILES IDX 10 1 11 2 12 3 13 4 14 5 15 6 16 7 17 8 18 9 19 10 20 11
REMARK SMILES IDX 9 12 8 13 7 14 6 15 5 16 4 17 3 18 2 19 1 20
REMARK H PARENT
REMARK Flexibility Score: inf
ROOT
ATOM      1  C   UNL     1      45.724  12.596  -8.877  1.00  0.00     0.000 C 
ENDROOT
BRANCH   1   2
ATOM      2  C   UNL     1      47.060  12.186  -9.518  1.00  0.00     0.000 C 
BRANCH   2   3
ATOM      3  C   UNL     1      46.945  10.902 -10.356  1.00  0.00     0.000 C 
BRANCH   3   4
ATOM      4  C   UNL     1      45.490  10.421 -10.519  1.00  0.00     0.000 C 
BRANCH   4   5
ATOM      5  C   UNL     1      45.145   9.113  -9.783  1.00  0.00     0.000 C 
BRANCH   5   6
ATOM      6  C   UNL     1      46.286   8.612  -8.880  1.00  0.00     0.000 C 
BRANCH   6   7
ATOM      7  C   UNL     1      45.964   8.767  -7.379  1.00  0.00     0.006 C 
BRANCH   7   8
ATOM      8  C   UNL     1      44.621   9.463  -7.107  1.00  0.00     0.053 C 
BRANCH   8   9
ATOM      9  C   UNL     1      44.377   9.676  -5.646  1.00  0.00     0.041 C 
ATOM     10  O   UNL     1      44.680   8.779  -4.815  1.00  0.00    -0.550 OA
ATOM     11  O   UNL     1      43.798  10.858  -5.203  1.00  0.00    -0.550 OA
ENDBRANCH   8   9
ENDBRANCH   7   8
ENDBRANCH   6   7
ENDBRANCH   5   6
ENDBRANCH   4   5
ENDBRANCH   3   4
ENDBRANCH   2   3
ENDBRANCH   1   2
BRANCH   1  12
ATOM     12  C   UNL     1      45.849  12.881  -7.373  1.00  0.00     0.000 C 
BRANCH  12  13
ATOM     13  C   UNL     1      47.094  12.200  -6.788  1.00  0.00    -0.000 C 
BRANCH  13  14
ATOM     14  C   UNL     1      47.205  12.361  -5.262  1.00  0.00    -0.000 C 
BRANCH  14  15
ATOM     15  C   UNL     1      48.332  11.515  -4.633  1.00  0.00    -0.000 C 
BRANCH  15  16
ATOM     16  C   UNL     1      47.911  10.050  -4.423  1.00  0.00    -0.000 C 
BRANCH  16  17
ATOM     17  C   UNL     1      48.852   9.058  -5.122  1.00  0.00    -0.000 C 
BRANCH  17  18
ATOM     18  C   UNL     1      50.027   9.755  -5.829  1.00  0.00    -0.000 C 
BRANCH  18  19
ATOM     19  C   UNL     1      49.891   9.728  -7.359  1.00  0.00    -0.003 C 
ATOM     20  C   UNL     1      50.166  11.088  -8.001  1.00  0.00     0.004 C 
ENDBRANCH  18  19
ENDBRANCH  17  18
ENDBRANCH  16  17
ENDBRANCH  15  16
ENDBRANCH  14  15
ENDBRANCH  13  14
ENDBRANCH  12  13
ENDBRANCH   1  12
TORSDOF 16
ENDMDL
MODEL 8
REMARK VINA RESULT:    -5.122      1.936      4.733
REMARK INTER + INTRA:         -12.834
REMARK INTER:                  -9.665
REMARK INTRA:                  -3.169
REMARK UNBOUND:                -2.921
REMARK SMILES CCCCCCCCCCCCCCCCCC(=O)[O-]
REMARK SMILES IDX 10 1 11 2 12 3 13 4 14 5 15 6 16 7 17 8 18 9 19 10 20 11
REMARK SMILES IDX 9 12 8 13 7 14 6 15 5 16 4 17 3 18 2 19 1 20
REMARK H PARENT
REMARK Flexibility Score: inf
ROOT
ATOM      1  C   UNL     1      35.725  -0.716   5.628  1.00  0.00     0.000 C 
ENDROOT
BRANCH   1   2
ATOM      2  C   UNL     1      36.998  -0.019   6.136  1.00  0.00     0.000 C 
BRANCH   2   3
ATOM      3  C   UNL     1      36.692   1.231   6.978  1.00  0.00     0.000 C 
BRANCH   3   4
ATOM      4  C   UNL     1      37.283   2.519   6.374  1.00  0.00     0.000 C 
BRANCH   4   5
ATOM      5  C   UNL     1      38.171   2.315   5.133  1.00  0.00     0.000 C 
BRANCH   5   6
ATOM      6  C   UNL     1      37.877   3.324   4.010  1.00  0.00     0.000 C 
BRANCH   6   7
ATOM      7  C   UNL     1      37.315   4.658   4.546  1.00  0.00     0.006 C 
BRANCH   7   8
ATOM      8  C   UNL     1      36.715   5.556   3.453  1.00  0.00     0.053 C 
BRANCH   8   9
ATOM      9  C   UNL     1      37.711   6.528   2.905  1.00  0.00     0.041 C 
ATOM     10  O   UNL     1      38.815   6.703   3.488  1.00  0.00    -0.550 OA
ATOM     11  O   UNL     1      37.415   7.256   1.759  1.00  0.00    -0.550 OA
ENDBRANCH   8   9
ENDBRANCH   7   8
ENDBRANCH   6   7
ENDBRANCH   5   6
ENDBRANCH   4   5
ENDBRANCH   3   4
ENDBRANCH   2   3
ENDBRANCH   1   2
BRANCH   1  12
ATOM     12  C   UNL     1      35.818  -1.121   4.150  1.00  0.00     0.000 C 
BRANCH  12  13
ATOM     13  C   UNL     1      35.869   0.117   3.244  1.00  0.00    -0.000 C 
BRANCH  13  14
ATOM     14  C   UNL     1      34.501   0.804   3.090  1.00  0.00    -0.000 C 
BRANCH  14  15
ATOM     15  C   UNL     1      34.484   2.264   3.591  1.00  0.00    -0.000 C 
BRANCH  15  16
ATOM     16  C   UNL     1      33.829   2.395   4.976  1.00  0.00    -0.000 C 
BRANCH  16  17
ATOM     17  C   UNL     1      33.543   3.855   5.360  1.00  0.00    -0.000 C 
BRANCH  17  18
ATOM     18  C   UNL     1      33.771   4.128   6.857  1.00  0.00    -0.000 C 
BRANCH  18  19
ATOM     19  C   UNL     1      34.752   5.286   7.100  1.00  0.00    -0.003 C 
ATOM     20  C   UNL     1      35.567   5.110   8.380  1.00  0.00     0.004 C 
ENDBRANCH  18  19
ENDBRANCH  17  18
ENDBRANCH  16  17
ENDBRANCH  15  16
ENDBRANCH  14  15
ENDBRANCH  13  14
ENDBRANCH  12  13
ENDBRANCH   1  12
TORSDOF 16
ENDMDL
MODEL 9
REMARK VINA RESULT:    -5.117     15.938     19.282
REMARK INTER + INTRA:         -12.824
REMARK INTER:                  -9.820
REMARK INTRA:                  -3.005
REMARK UNBOUND:                -2.921
REMARK SMILES CCCCCCCCCCCCCCCCCC(=O)[O-]
REMARK SMILES IDX 10 1 11 2 12 3 13 4 14 5 15 6 16 7 17 8 18 9 19 10 20 11
REMARK SMILES IDX 9 12 8 13 7 14 6 15 5 16 4 17 3 18 2 19 1 20
REMARK H PARENT
REMARK Flexibility Score: inf
ROOT
ATOM      1  C   UNL     1      48.872  11.024  -4.935  1.00  0.00     0.000 C 
ENDROOT
BRANCH   1   2
ATOM      2  C   UNL     1      50.196  11.169  -5.703  1.00  0.00     0.000 C 
BRANCH   2   3
ATOM      3  C   UNL     1      50.375  10.088  -6.782  1.00  0.00     0.000 C 
BRANCH   3   4
ATOM      4  C   UNL     1      49.423   8.891  -6.594  1.00  0.00     0.000 C 
BRANCH   4   5
ATOM      5  C   UNL     1      48.928   8.236  -7.897  1.00  0.00     0.000 C 
BRANCH   5   6
ATOM      6  C   UNL     1      47.393   8.185  -7.998  1.00  0.00     0.000 C 
BRANCH   6   7
ATOM      7  C   UNL     1      46.745   7.478  -6.790  1.00  0.00     0.006 C 
BRANCH   7   8
ATOM      8  C   UNL     1      45.659   8.316  -6.097  1.00  0.00     0.053 C 
BRANCH   8   9
ATOM      9  C   UNL     1      45.937   8.515  -4.641  1.00  0.00     0.041 C 
ATOM     10  O   UNL     1      47.008   8.085  -4.135  1.00  0.00    -0.550 OA
ATOM     11  O   UNL     1      45.006   9.161  -3.837  1.00  0.00    -0.550 OA
ENDBRANCH   8   9
ENDBRANCH   7   8
ENDBRANCH   6   7
ENDBRANCH   5   6
ENDBRANCH   4   5
ENDBRANCH   3   4
ENDBRANCH   2   3
ENDBRANCH   1   2
BRANCH   1  12
ATOM     12  C   UNL     1      48.155  12.367  -4.727  1.00  0.00     0.000 C 
BRANCH  12  13
ATOM     13  C   UNL     1      46.802  12.383  -5.451  1.00  0.00    -0.000 C 
BRANCH  13  14
ATOM     14  C   UNL     1      46.800  11.543  -6.740  1.00  0.00    -0.000 C 
BRANCH  14  15
ATOM     15  C   UNL     1      46.993  12.380  -8.022  1.00  0.00    -0.000 C 
BRANCH  15  16
ATOM     16  C   UNL     1      48.019  11.748  -8.979  1.00  0.00    -0.000 C 
BRANCH  16  17
ATOM     17  C   UNL     1      47.380  11.233 -10.277  1.00  0.00    -0.000 C 
BRANCH  17  18
ATOM     18  C   UNL     1      45.844  11.326 -10.257  1.00  0.00    -0.000 C 
BRANCH  18  19
ATOM     19  C   UNL     1      45.171  10.013 -10.685  1.00  0.00    -0.003 C 
ATOM     20  C   UNL     1      44.396   9.349  -9.548  1.00  0.00     0.004 C 
ENDBRANCH  18  19
ENDBRANCH  17  18
ENDBRANCH  16  17
ENDBRANCH  15  16
ENDBRANCH  14  15
ENDBRANCH  13  14
ENDBRANCH  12  13
ENDBRANCH   1  12
TORSDOF 16
ENDMDL
