MODEL 1
REMARK VINA RESULT:    -5.874      0.000      0.000
REMARK INTER + INTRA:         -10.099
REMARK INTER:                  -7.935
REMARK INTRA:                  -2.165
REMARK UNBOUND:                -2.165
REMARK SMILES CC[C@@H](CC[C@@H](C)[C@@H]1CC[C@@H]2[C@H]3CC(=O)C4=CC(=O)CC[C@@]4(C)[C@H]3CC[C@@]21C)C(C)C
REMARK SMILES IDX 4 1 3 2 2 3 1 4 29 5 30 6 31 7 5 8 6 9 7 10 8 11 9 12 27 13
REMARK SMILES IDX 10 14 11 15 26 16 28 17 12 18 25 19 24 20 13 21 22 22 14 23
REMARK SMILES IDX 16 24 21 25 23 26 15 27 17 28 20 29 18 30 19 31
REMARK H PARENT
REMARK Flexibility Score: inf
ROOT
ATOM      1  C   UNL     1      13.826  60.999  22.851  1.00  0.00     0.004 C 
ENDROOT
BRANCH   1   2
ATOM      2  C   UNL     1      14.049  61.629  21.441  1.00  0.00    -0.009 C 
BRANCH   2   3
ATOM      3  C   UNL     1      13.206  61.000  20.291  1.00  0.00     0.000 C 
ATOM      4  C   UNL     1      12.408  61.971  19.425  1.00  0.00     0.004 C 
ENDBRANCH   2   3
BRANCH   2   5
ATOM      5  C   UNL     1      15.546  61.937  21.089  1.00  0.00    -0.014 C 
ATOM      6  C   UNL     1      16.110  60.907  20.094  1.00  0.00     0.007 C 
ATOM      7  C   UNL     1      16.490  62.032  22.300  1.00  0.00     0.007 C 
ENDBRANCH   2   5
ENDBRANCH   1   2
BRANCH   1   8
ATOM      8  C   UNL     1      12.833  59.816  22.910  1.00  0.00     0.004 C 
BRANCH   8   9
ATOM      9  C   UNL     1      13.499  58.418  23.058  1.00  0.00    -0.011 C 
ATOM     10  C   UNL     1      12.462  57.297  22.844  1.00  0.00     0.008 C 
BRANCH   9  11
ATOM     11  C   UNL     1      14.813  58.288  22.191  1.00  0.00    -0.002 C 
ATOM     12  C   UNL     1      14.685  57.528  20.867  1.00  0.00     0.005 C 
ATOM     13  C   UNL     1      16.063  57.661  22.886  1.00  0.00    -0.026 C 
ATOM     14  C   UNL     1      16.108  57.162  20.459  1.00  0.00     0.005 C 
ATOM     15  C   UNL     1      17.018  57.442  21.673  1.00  0.00    -0.001 C 
ATOM     16  C   UNL     1      15.725  56.315  23.597  1.00  0.00     0.007 C 
ATOM     17  C   UNL     1      16.640  58.663  23.917  1.00  0.00     0.012 C 
ATOM     18  C   UNL     1      18.136  56.358  21.816  1.00  0.00     0.004 C 
ATOM     19  C   UNL     1      16.937  55.407  23.828  1.00  0.00     0.005 C 
ATOM     20  C   UNL     1      17.629  55.052  22.493  1.00  0.00     0.003 C 
ATOM     21  C   UNL     1      19.395  56.929  22.499  1.00  0.00     0.085 C 
ATOM     22  C   UNL     1      18.753  53.933  22.577  1.00  0.00    -0.000 C 
ATOM     23  C   UNL     1      20.460  55.896  22.668  1.00  0.00     0.159 C 
ATOM     24  C   UNL     1      20.107  54.501  23.011  1.00  0.00     0.005 C 
ATOM     25  C   UNL     1      18.344  52.787  23.559  1.00  0.00     0.020 C 
ATOM     26  C   UNL     1      18.937  53.324  21.158  1.00  0.00     0.017 C 
ATOM     27  O   UNL     1      21.666  56.253  22.603  1.00  0.00    -0.295 OA
ATOM     28  C   UNL     1      21.038  53.702  23.575  1.00  0.00     0.055 C 
ATOM     29  C   UNL     1      19.408  51.689  23.684  1.00  0.00     0.081 C 
ATOM     30  C   UNL     1      20.767  52.291  23.904  1.00  0.00     0.156 C 
ATOM     31  O   UNL     1      21.697  51.568  24.350  1.00  0.00    -0.295 OA
ENDBRANCH   9  11
ENDBRANCH   8   9
ENDBRANCH   1   8
TORSDOF 6
ENDMDL
MODEL 2
REMARK VINA RESULT:    -5.796      1.599      3.097
REMARK INTER + INTRA:          -9.994
REMARK INTER:                  -8.203
REMARK INTRA:                  -1.791
REMARK UNBOUND:                -2.165
REMARK SMILES CC[C@@H](CC[C@@H](C)[C@@H]1CC[C@@H]2[C@H]3CC(=O)C4=CC(=O)CC[C@@]4(C)[C@H]3CC[C@@]21C)C(C)C
REMARK SMILES IDX 4 1 3 2 2 3 1 4 29 5 30 6 31 7 5 8 6 9 7 10 8 11 9 12 27 13
REMARK SMILES IDX 10 14 11 15 26 16 28 17 12 18 25 19 24 20 13 21 22 22 14 23
REMARK SMILES IDX 16 24 21 25 23 26 15 27 17 28 20 29 18 30 19 31
REMARK H PARENT
REMARK Flexibility Score: inf
ROOT
ATOM      1  C   UNL     1      13.686  61.914  21.647  1.00  0.00     0.004 C 
ENDROOT
BRANCH   1   2
ATOM      2  C   UNL     1      13.124  60.850  20.654  1.00  0.00    -0.009 C 
BRANCH   2   3
ATOM      3  C   UNL     1      12.362  61.426  19.424  1.00  0.00     0.000 C 
ATOM      4  C   UNL     1      12.182  62.941  19.385  1.00  0.00     0.004 C 
ENDBRANCH   2   3
BRANCH   2   5
ATOM      5  C   UNL     1      12.460  59.604  21.336  1.00  0.00    -0.014 C 
ATOM      6  C   UNL     1      12.365  59.784  22.861  1.00  0.00     0.007 C 
ATOM      7  C   UNL     1      13.142  58.258  21.033  1.00  0.00     0.007 C 
ENDBRANCH   2   5
ENDBRANCH   1   2
BRANCH   1   8
ATOM      8  C   UNL     1      15.227  62.004  21.737  1.00  0.00     0.004 C 
BRANCH   8   9
ATOM      9  C   UNL     1      15.979  60.728  21.264  1.00  0.00    -0.011 C 
ATOM     10  C   UNL     1      16.455  60.886  19.806  1.00  0.00     0.008 C 
BRANCH   9  11
ATOM     11  C   UNL     1      17.096  60.281  22.288  1.00  0.00    -0.002 C 
ATOM     12  C   UNL     1      18.548  60.493  21.849  1.00  0.00     0.005 C 
ATOM     13  C   UNL     1      17.049  58.802  22.789  1.00  0.00    -0.026 C 
ATOM     14  C   UNL     1      19.392  59.609  22.762  1.00  0.00     0.005 C 
ATOM     15  C   UNL     1      18.424  58.674  23.515  1.00  0.00    -0.001 C 
ATOM     16  C   UNL     1      16.929  57.787  21.611  1.00  0.00     0.007 C 
ATOM     17  C   UNL     1      15.853  58.621  23.756  1.00  0.00     0.012 C 
ATOM     18  C   UNL     1      19.023  57.240  23.685  1.00  0.00     0.004 C 
ATOM     19  C   UNL     1      17.398  56.370  21.955  1.00  0.00     0.005 C 
ATOM     20  C   UNL     1      18.876  56.367  22.405  1.00  0.00     0.003 C 
ATOM     21  C   UNL     1      18.474  56.542  24.944  1.00  0.00     0.085 C 
ATOM     22  C   UNL     1      19.544  54.935  22.564  1.00  0.00    -0.000 C 
ATOM     23  C   UNL     1      19.017  55.159  25.103  1.00  0.00     0.159 C 
ATOM     24  C   UNL     1      19.235  54.297  23.921  1.00  0.00     0.005 C 
ATOM     25  C   UNL     1      19.084  53.963  21.428  1.00  0.00     0.020 C 
ATOM     26  C   UNL     1      21.087  55.108  22.471  1.00  0.00     0.017 C 
ATOM     27  O   UNL     1      19.200  54.710  26.266  1.00  0.00    -0.295 OA
ATOM     28  C   UNL     1      19.302  52.959  24.082  1.00  0.00     0.055 C 
ATOM     29  C   UNL     1      19.694  52.560  21.550  1.00  0.00     0.081 C 
ATOM     30  C   UNL     1      19.559  52.044  22.954  1.00  0.00     0.156 C 
ATOM     31  O   UNL     1      19.695  50.811  23.175  1.00  0.00    -0.295 OA
ENDBRANCH   9  11
ENDBRANCH   8   9
ENDBRANCH   1   8
TORSDOF 6
ENDMDL
MODEL 3
REMARK VINA RESULT:    -5.512     12.119     15.181
REMARK INTER + INTRA:          -9.610
REMARK INTER:                  -7.941
REMARK INTRA:                  -1.668
REMARK UNBOUND:                -2.165
REMARK SMILES CC[C@@H](CC[C@@H](C)[C@@H]1CC[C@@H]2[C@H]3CC(=O)C4=CC(=O)CC[C@@]4(C)[C@H]3CC[C@@]21C)C(C)C
REMARK SMILES IDX 4 1 3 2 2 3 1 4 29 5 30 6 31 7 5 8 6 9 7 10 8 11 9 12 27 13
REMARK SMILES IDX 10 14 11 15 26 16 28 17 12 18 25 19 24 20 13 21 22 22 14 23
REMARK SMILES IDX 16 24 21 25 23 26 15 27 17 28 20 29 18 30 19 31
REMARK H PARENT
REMARK Flexibility Score: inf
ROOT
ATOM      1  C   UNL     1      16.906  52.201  34.340  1.00  0.00     0.004 C 
ENDROOT
BRANCH   1   2
ATOM      2  C   UNL     1      15.525  51.944  35.019  1.00  0.00    -0.009 C 
BRANCH   2   3
ATOM      3  C   UNL     1      14.281  52.227  34.125  1.00  0.00     0.000 C 
ATOM      4  C   UNL     1      13.550  51.007  33.573  1.00  0.00     0.004 C 
ENDBRANCH   2   3
BRANCH   2   5
ATOM      5  C   UNL     1      15.418  52.448  36.500  1.00  0.00    -0.014 C 
ATOM      6  C   UNL     1      14.890  51.343  37.432  1.00  0.00     0.007 C 
ATOM      7  C   UNL     1      14.566  53.715  36.694  1.00  0.00     0.007 C 
ENDBRANCH   2   5
ENDBRANCH   1   2
BRANCH   1   8
ATOM      8  C   UNL     1      16.970  53.413  33.383  1.00  0.00     0.004 C 
BRANCH   8   9
ATOM      9  C   UNL     1      17.303  54.766  34.073  1.00  0.00    -0.011 C 
ATOM     10  C   UNL     1      18.814  54.872  34.364  1.00  0.00     0.008 C 
BRANCH   9  11
ATOM     11  C   UNL     1      16.683  55.997  33.302  1.00  0.00    -0.002 C 
ATOM     12  C   UNL     1      17.655  57.112  32.901  1.00  0.00     0.005 C 
ATOM     13  C   UNL     1      15.495  56.741  33.991  1.00  0.00    -0.026 C 
ATOM     14  C   UNL     1      16.789  58.329  32.596  1.00  0.00     0.005 C 
ATOM     15  C   UNL     1      15.366  58.016  33.101  1.00  0.00    -0.001 C 
ATOM     16  C   UNL     1      15.813  57.110  35.472  1.00  0.00     0.007 C 
ATOM     17  C   UNL     1      14.227  55.854  33.937  1.00  0.00     0.012 C 
ATOM     18  C   UNL     1      14.688  59.276  33.731  1.00  0.00     0.004 C 
ATOM     19  C   UNL     1      14.963  58.257  36.029  1.00  0.00     0.005 C 
ATOM     20  C   UNL     1      15.150  59.543  35.193  1.00  0.00     0.003 C 
ATOM     21  C   UNL     1      13.153  59.221  33.596  1.00  0.00     0.085 C 
ATOM     22  C   UNL     1      14.506  60.860  35.805  1.00  0.00    -0.000 C 
ATOM     23  C   UNL     1      12.491  60.405  34.221  1.00  0.00     0.159 C 
ATOM     24  C   UNL     1      13.015  60.985  35.477  1.00  0.00     0.005 C 
ATOM     25  C   UNL     1      14.693  60.918  37.356  1.00  0.00     0.020 C 
ATOM     26  C   UNL     1      15.225  62.087  35.175  1.00  0.00     0.017 C 
ATOM     27  O   UNL     1      11.427  60.844  33.708  1.00  0.00    -0.295 OA
ATOM     28  C   UNL     1      12.203  61.739  36.247  1.00  0.00     0.055 C 
ATOM     29  C   UNL     1      14.071  62.168  37.993  1.00  0.00     0.081 C 
ATOM     30  C   UNL     1      12.672  62.380  37.489  1.00  0.00     0.156 C 
ATOM     31  O   UNL     1      11.896  63.142  38.125  1.00  0.00    -0.295 OA
ENDBRANCH   9  11
ENDBRANCH   8   9
ENDBRANCH   1   8
TORSDOF 6
ENDMDL
MODEL 4
REMARK VINA RESULT:    -5.448      2.382      4.550
REMARK INTER + INTRA:          -9.524
REMARK INTER:                  -8.285
REMARK INTRA:                  -1.239
REMARK UNBOUND:                -2.165
REMARK SMILES CC[C@@H](CC[C@@H](C)[C@@H]1CC[C@@H]2[C@H]3CC(=O)C4=CC(=O)CC[C@@]4(C)[C@H]3CC[C@@]21C)C(C)C
REMARK SMILES IDX 4 1 3 2 2 3 1 4 29 5 30 6 31 7 5 8 6 9 7 10 8 11 9 12 27 13
REMARK SMILES IDX 10 14 11 15 26 16 28 17 12 18 25 19 24 20 13 21 22 22 14 23
REMARK SMILES IDX 16 24 21 25 23 26 15 27 17 28 20 29 18 30 19 31
REMARK H PARENT
REMARK Flexibility Score: inf
ROOT
ATOM      1  C   UNL     1      15.196  61.641  20.885  1.00  0.00     0.004 C 
ENDROOT
BRANCH   1   2
ATOM      2  C   UNL     1      13.731  61.222  20.549  1.00  0.00    -0.009 C 
BRANCH   2   3
ATOM      3  C   UNL     1      12.731  62.400  20.350  1.00  0.00     0.000 C 
ATOM      4  C   UNL     1      12.203  62.610  18.934  1.00  0.00     0.004 C 
ENDBRANCH   2   3
BRANCH   2   5
ATOM      5  C   UNL     1      13.188  60.010  21.384  1.00  0.00    -0.014 C 
ATOM      6  C   UNL     1      13.914  58.705  21.013  1.00  0.00     0.007 C 
ATOM      7  C   UNL     1      11.669  59.784  21.285  1.00  0.00     0.007 C 
ENDBRANCH   2   5
ENDBRANCH   1   2
BRANCH   1   8
ATOM      8  C   UNL     1      15.506  61.862  22.384  1.00  0.00     0.004 C 
BRANCH   8   9
ATOM      9  C   UNL     1      17.012  61.763  22.755  1.00  0.00    -0.011 C 
ATOM     10  C   UNL     1      17.482  63.047  23.468  1.00  0.00     0.008 C 
BRANCH   9  11
ATOM     11  C   UNL     1      17.355  60.417  23.507  1.00  0.00    -0.002 C 
ATOM     12  C   UNL     1      17.974  60.553  24.902  1.00  0.00     0.005 C 
ATOM     13  C   UNL     1      18.282  59.404  22.763  1.00  0.00    -0.026 C 
ATOM     14  C   UNL     1      18.603  59.199  25.212  1.00  0.00     0.005 C 
ATOM     15  C   UNL     1      18.611  58.388  23.900  1.00  0.00    -0.001 C 
ATOM     16  C   UNL     1      19.574  60.084  22.215  1.00  0.00     0.007 C 
ATOM     17  C   UNL     1      17.503  58.750  21.595  1.00  0.00     0.012 C 
ATOM     18  C   UNL     1      19.915  57.537  23.758  1.00  0.00     0.004 C 
ATOM     19  C   UNL     1      20.733  59.115  21.959  1.00  0.00     0.005 C 
ATOM     20  C   UNL     1      21.129  58.370  23.254  1.00  0.00     0.003 C 
ATOM     21  C   UNL     1      19.676  56.270  22.914  1.00  0.00     0.085 C 
ATOM     22  C   UNL     1      22.465  57.514  23.173  1.00  0.00    -0.000 C 
ATOM     23  C   UNL     1      20.921  55.462  22.745  1.00  0.00     0.159 C 
ATOM     24  C   UNL     1      22.230  56.127  22.567  1.00  0.00     0.005 C 
ATOM     25  C   UNL     1      23.565  58.252  22.343  1.00  0.00     0.020 C 
ATOM     26  C   UNL     1      22.994  57.306  24.620  1.00  0.00     0.017 C 
ATOM     27  O   UNL     1      20.824  54.209  22.667  1.00  0.00    -0.295 OA
ATOM     28  C   UNL     1      23.246  55.445  21.998  1.00  0.00     0.055 C 
ATOM     29  C   UNL     1      24.870  57.454  22.225  1.00  0.00     0.081 C 
ATOM     30  C   UNL     1      24.588  56.033  21.828  1.00  0.00     0.156 C 
ATOM     31  O   UNL     1      25.522  55.323  21.368  1.00  0.00    -0.295 OA
ENDBRANCH   9  11
ENDBRANCH   8   9
ENDBRANCH   1   8
TORSDOF 6
ENDMDL
MODEL 5
REMARK VINA RESULT:    -5.435      1.513      3.396
REMARK INTER + INTRA:          -9.507
REMARK INTER:                  -8.067
REMARK INTRA:                  -1.440
REMARK UNBOUND:                -2.165
REMARK SMILES CC[C@@H](CC[C@@H](C)[C@@H]1CC[C@@H]2[C@H]3CC(=O)C4=CC(=O)CC[C@@]4(C)[C@H]3CC[C@@]21C)C(C)C
REMARK SMILES IDX 4 1 3 2 2 3 1 4 29 5 30 6 31 7 5 8 6 9 7 10 8 11 9 12 27 13
REMARK SMILES IDX 10 14 11 15 26 16 28 17 12 18 25 19 24 20 13 21 22 22 14 23
REMARK SMILES IDX 16 24 21 25 23 26 15 27 17 28 20 29 18 30 19 31
REMARK H PARENT
REMARK Flexibility Score: inf
ROOT
ATOM      1  C   UNL     1      14.704  61.962  20.856  1.00  0.00     0.004 C 
ENDROOT
BRANCH   1   2
ATOM      2  C   UNL     1      13.354  61.181  20.872  1.00  0.00    -0.009 C 
BRANCH   2   3
ATOM      3  C   UNL     1      12.410  61.459  19.663  1.00  0.00     0.000 C 
ATOM      4  C   UNL     1      12.139  62.924  19.337  1.00  0.00     0.004 C 
ENDBRANCH   2   3
BRANCH   2   5
ATOM      5  C   UNL     1      12.652  61.114  22.273  1.00  0.00    -0.014 C 
ATOM      6  C   UNL     1      13.027  62.326  23.145  1.00  0.00     0.007 C 
ATOM      7  C   UNL     1      12.915  59.824  23.069  1.00  0.00     0.007 C 
ENDBRANCH   2   5
ENDBRANCH   1   2
BRANCH   1   8
ATOM      8  C   UNL     1      15.979  61.099  20.714  1.00  0.00     0.004 C 
BRANCH   8   9
ATOM      9  C   UNL     1      16.874  61.053  21.984  1.00  0.00    -0.011 C 
ATOM     10  C   UNL     1      16.896  62.426  22.685  1.00  0.00     0.008 C 
BRANCH   9  11
ATOM     11  C   UNL     1      16.521  59.830  22.919  1.00  0.00    -0.002 C 
ATOM     12  C   UNL     1      17.099  59.865  24.337  1.00  0.00     0.005 C 
ATOM     13  C   UNL     1      16.871  58.404  22.387  1.00  0.00    -0.026 C 
ATOM     14  C   UNL     1      17.002  58.436  24.862  1.00  0.00     0.005 C 
ATOM     15  C   UNL     1      16.653  57.532  23.662  1.00  0.00    -0.001 C 
ATOM     16  C   UNL     1      18.342  58.312  21.878  1.00  0.00     0.007 C 
ATOM     17  C   UNL     1      15.900  58.025  21.242  1.00  0.00     0.012 C 
ATOM     18  C   UNL     1      17.399  56.160  23.739  1.00  0.00     0.004 C 
ATOM     19  C   UNL     1      18.906  56.889  21.845  1.00  0.00     0.005 C 
ATOM     20  C   UNL     1      18.873  56.245  23.249  1.00  0.00     0.003 C 
ATOM     21  C   UNL     1      16.604  55.043  23.034  1.00  0.00     0.085 C 
ATOM     22  C   UNL     1      19.643  54.862  23.390  1.00  0.00    -0.000 C 
ATOM     23  C   UNL     1      17.320  53.732  23.075  1.00  0.00     0.159 C 
ATOM     24  C   UNL     1      18.791  53.674  22.936  1.00  0.00     0.005 C 
ATOM     25  C   UNL     1      20.980  54.870  22.579  1.00  0.00     0.020 C 
ATOM     26  C   UNL     1      19.979  54.647  24.893  1.00  0.00     0.017 C 
ATOM     27  O   UNL     1      16.640  52.673  23.139  1.00  0.00    -0.295 OA
ATOM     28  C   UNL     1      19.373  52.521  22.545  1.00  0.00     0.055 C 
ATOM     29  C   UNL     1      21.751  53.547  22.673  1.00  0.00     0.081 C 
ATOM     30  C   UNL     1      20.837  52.381  22.426  1.00  0.00     0.156 C 
ATOM     31  O   UNL     1      21.331  51.258  22.139  1.00  0.00    -0.295 OA
ENDBRANCH   9  11
ENDBRANCH   8   9
ENDBRANCH   1   8
TORSDOF 6
ENDMDL
MODEL 6
REMARK VINA RESULT:    -5.390      8.982     11.758
REMARK INTER + INTRA:          -9.445
REMARK INTER:                  -7.752
REMARK INTRA:                  -1.693
REMARK UNBOUND:                -2.165
REMARK SMILES CC[C@@H](CC[C@@H](C)[C@@H]1CC[C@@H]2[C@H]3CC(=O)C4=CC(=O)CC[C@@]4(C)[C@H]3CC[C@@]21C)C(C)C
REMARK SMILES IDX 4 1 3 2 2 3 1 4 29 5 30 6 31 7 5 8 6 9 7 10 8 11 9 12 27 13
REMARK SMILES IDX 10 14 11 15 26 16 28 17 12 18 25 19 24 20 13 21 22 22 14 23
REMARK SMILES IDX 16 24 21 25 23 26 15 27 17 28 20 29 18 30 19 31
REMARK H PARENT
REMARK Flexibility Score: inf
ROOT
ATOM      1  C   UNL     1      17.285  53.111  35.626  1.00  0.00     0.004 C 
ENDROOT
BRANCH   1   2
ATOM      2  C   UNL     1      15.873  53.182  36.287  1.00  0.00    -0.009 C 
BRANCH   2   3
ATOM      3  C   UNL     1      15.095  51.832  36.340  1.00  0.00     0.000 C 
ATOM      4  C   UNL     1      14.903  51.214  37.722  1.00  0.00     0.004 C 
ENDBRANCH   2   3
BRANCH   2   5
ATOM      5  C   UNL     1      15.021  54.435  35.882  1.00  0.00    -0.014 C 
ATOM      6  C   UNL     1      13.741  54.023  35.133  1.00  0.00     0.007 C 
ATOM      7  C   UNL     1      15.772  55.487  35.048  1.00  0.00     0.007 C 
ENDBRANCH   2   5
ENDBRANCH   1   2
BRANCH   1   8
ATOM      8  C   UNL     1      17.551  51.875  34.737  1.00  0.00     0.004 C 
BRANCH   8   9
ATOM      9  C   UNL     1      17.404  52.130  33.211  1.00  0.00    -0.011 C 
ATOM     10  C   UNL     1      15.952  51.881  32.755  1.00  0.00     0.008 C 
BRANCH   9  11
ATOM     11  C   UNL     1      18.011  53.522  32.777  1.00  0.00    -0.002 C 
ATOM     12  C   UNL     1      17.315  54.238  31.615  1.00  0.00     0.005 C 
ATOM     13  C   UNL     1      19.528  53.552  32.406  1.00  0.00    -0.026 C 
ATOM     14  C   UNL     1      18.310  55.281  31.114  1.00  0.00     0.005 C 
ATOM     15  C   UNL     1      19.668  54.972  31.776  1.00  0.00    -0.001 C 
ATOM     16  C   UNL     1      19.903  52.435  31.385  1.00  0.00     0.007 C 
ATOM     17  C   UNL     1      20.378  53.390  33.690  1.00  0.00     0.012 C 
ATOM     18  C   UNL     1      20.857  55.213  30.790  1.00  0.00     0.004 C 
ATOM     19  C   UNL     1      21.185  52.714  30.594  1.00  0.00     0.005 C 
ATOM     20  C   UNL     1      21.070  54.034  29.798  1.00  0.00     0.003 C 
ATOM     21  C   UNL     1      22.148  55.594  31.542  1.00  0.00     0.085 C 
ATOM     22  C   UNL     1      22.238  54.314  28.759  1.00  0.00    -0.000 C 
ATOM     23  C   UNL     1      23.300  55.799  30.613  1.00  0.00     0.159 C 
ATOM     24  C   UNL     1      23.468  54.939  29.422  1.00  0.00     0.005 C 
ATOM     25  C   UNL     1      22.668  53.005  28.019  1.00  0.00     0.020 C 
ATOM     26  C   UNL     1      21.713  55.328  27.703  1.00  0.00     0.017 C 
ATOM     27  O   UNL     1      24.173  56.658  30.911  1.00  0.00    -0.295 OA
ATOM     28  C   UNL     1      24.686  54.832  28.850  1.00  0.00     0.055 C 
ATOM     29  C   UNL     1      23.807  53.225  27.015  1.00  0.00     0.081 C 
ATOM     30  C   UNL     1      24.916  54.026  27.637  1.00  0.00     0.156 C 
ATOM     31  O   UNL     1      26.054  54.029  27.097  1.00  0.00    -0.295 OA
ENDBRANCH   9  11
ENDBRANCH   8   9
ENDBRANCH   1   8
TORSDOF 6
ENDMDL
MODEL 7
REMARK VINA RESULT:    -5.359      3.353      4.962
REMARK INTER + INTRA:          -9.403
REMARK INTER:                  -8.003
REMARK INTRA:                  -1.401
REMARK UNBOUND:                -2.165
REMARK SMILES CC[C@@H](CC[C@@H](C)[C@@H]1CC[C@@H]2[C@H]3CC(=O)C4=CC(=O)CC[C@@]4(C)[C@H]3CC[C@@]21C)C(C)C
REMARK SMILES IDX 4 1 3 2 2 3 1 4 29 5 30 6 31 7 5 8 6 9 7 10 8 11 9 12 27 13
REMARK SMILES IDX 10 14 11 15 26 16 28 17 12 18 25 19 24 20 13 21 22 22 14 23
REMARK SMILES IDX 16 24 21 25 23 26 15 27 17 28 20 29 18 30 19 31
REMARK H PARENT
REMARK Flexibility Score: inf
ROOT
ATOM      1  C   UNL     1      15.435  61.767  21.176  1.00  0.00     0.004 C 
ENDROOT
BRANCH   1   2
ATOM      2  C   UNL     1      13.893  61.999  21.216  1.00  0.00    -0.009 C 
BRANCH   2   3
ATOM      3  C   UNL     1      13.261  62.029  22.641  1.00  0.00     0.000 C 
ATOM      4  C   UNL     1      14.205  62.355  23.795  1.00  0.00     0.004 C 
ENDBRANCH   2   3
BRANCH   2   5
ATOM      5  C   UNL     1      13.081  61.203  20.136  1.00  0.00    -0.014 C 
ATOM      6  C   UNL     1      12.258  62.149  19.245  1.00  0.00     0.007 C 
ATOM      7  C   UNL     1      12.154  60.110  20.697  1.00  0.00     0.007 C 
ENDBRANCH   2   5
ENDBRANCH   1   2
BRANCH   1   8
ATOM      8  C   UNL     1      15.890  60.310  20.936  1.00  0.00     0.004 C 
BRANCH   8   9
ATOM      9  C   UNL     1      16.515  59.613  22.178  1.00  0.00    -0.011 C 
ATOM     10  C   UNL     1      15.427  58.901  23.006  1.00  0.00     0.008 C 
BRANCH   9  11
ATOM     11  C   UNL     1      17.759  58.718  21.797  1.00  0.00    -0.002 C 
ATOM     12  C   UNL     1      17.693  57.245  22.213  1.00  0.00     0.005 C 
ATOM     13  C   UNL     1      19.160  59.202  22.287  1.00  0.00    -0.026 C 
ATOM     14  C   UNL     1      19.126  56.728  22.144  1.00  0.00     0.005 C 
ATOM     15  C   UNL     1      20.047  57.955  21.983  1.00  0.00    -0.001 C 
ATOM     16  C   UNL     1      19.162  59.546  23.808  1.00  0.00     0.007 C 
ATOM     17  C   UNL     1      19.593  60.446  21.472  1.00  0.00     0.012 C 
ATOM     18  C   UNL     1      21.372  57.792  22.797  1.00  0.00     0.004 C 
ATOM     19  C   UNL     1      20.550  59.512  24.457  1.00  0.00     0.005 C 
ATOM     20  C   UNL     1      21.198  58.117  24.308  1.00  0.00     0.003 C 
ATOM     21  C   UNL     1      22.533  58.575  22.152  1.00  0.00     0.085 C 
ATOM     22  C   UNL     1      22.533  57.887  25.139  1.00  0.00    -0.000 C 
ATOM     23  C   UNL     1      23.799  58.451  22.935  1.00  0.00     0.159 C 
ATOM     24  C   UNL     1      23.769  58.427  24.414  1.00  0.00     0.005 C 
ATOM     25  C   UNL     1      22.444  58.546  26.554  1.00  0.00     0.020 C 
ATOM     26  C   UNL     1      22.732  56.355  25.320  1.00  0.00     0.017 C 
ATOM     27  O   UNL     1      24.897  58.457  22.317  1.00  0.00    -0.295 OA
ATOM     28  C   UNL     1      24.884  58.747  25.103  1.00  0.00     0.055 C 
ATOM     29  C   UNL     1      23.719  58.363  27.387  1.00  0.00     0.081 C 
ATOM     30  C   UNL     1      24.936  58.704  26.577  1.00  0.00     0.156 C 
ATOM     31  O   UNL     1      26.027  58.931  27.165  1.00  0.00    -0.295 OA
ENDBRANCH   9  11
ENDBRANCH   8   9
ENDBRANCH   1   8
TORSDOF 6
ENDMDL
MODEL 8
REMARK VINA RESULT:    -5.324      9.788     12.646
REMARK INTER + INTRA:          -9.356
REMARK INTER:                  -7.149
REMARK INTRA:                  -2.207
REMARK UNBOUND:                -2.165
REMARK SMILES CC[C@@H](CC[C@@H](C)[C@@H]1CC[C@@H]2[C@H]3CC(=O)C4=CC(=O)CC[C@@]4(C)[C@H]3CC[C@@]21C)C(C)C
REMARK SMILES IDX 4 1 3 2 2 3 1 4 29 5 30 6 31 7 5 8 6 9 7 10 8 11 9 12 27 13
REMARK SMILES IDX 10 14 11 15 26 16 28 17 12 18 25 19 24 20 13 21 22 22 14 23
REMARK SMILES IDX 16 24 21 25 23 26 15 27 17 28 20 29 18 30 19 31
REMARK H PARENT
REMARK Flexibility Score: inf
ROOT
ATOM      1  C   UNL     1      15.573  52.843  33.607  1.00  0.00     0.004 C 
ENDROOT
BRANCH   1   2
ATOM      2  C   UNL     1      16.246  52.267  34.892  1.00  0.00    -0.009 C 
BRANCH   2   3
ATOM      3  C   UNL     1      15.794  52.924  36.231  1.00  0.00     0.000 C 
ATOM      4  C   UNL     1      15.089  52.012  37.230  1.00  0.00     0.004 C 
ENDBRANCH   2   3
BRANCH   2   5
ATOM      5  C   UNL     1      17.785  51.996  34.760  1.00  0.00    -0.014 C 
ATOM      6  C   UNL     1      18.607  53.053  35.520  1.00  0.00     0.007 C 
ATOM      7  C   UNL     1      18.306  51.902  33.315  1.00  0.00     0.007 C 
ENDBRANCH   2   5
ENDBRANCH   1   2
BRANCH   1   8
ATOM      8  C   UNL     1      14.580  54.006  33.831  1.00  0.00     0.004 C 
BRANCH   8   9
ATOM      9  C   UNL     1      15.128  55.409  33.444  1.00  0.00    -0.011 C 
ATOM     10  C   UNL     1      14.224  56.522  34.011  1.00  0.00     0.008 C 
BRANCH   9  11
ATOM     11  C   UNL     1      16.665  55.562  33.776  1.00  0.00    -0.002 C 
ATOM     12  C   UNL     1      17.016  56.376  35.026  1.00  0.00     0.005 C 
ATOM     13  C   UNL     1      17.579  56.150  32.654  1.00  0.00    -0.026 C 
ATOM     14  C   UNL     1      18.488  56.745  34.882  1.00  0.00     0.005 C 
ATOM     15  C   UNL     1      18.904  56.410  33.435  1.00  0.00    -0.001 C 
ATOM     16  C   UNL     1      17.000  57.470  32.058  1.00  0.00     0.007 C 
ATOM     17  C   UNL     1      17.754  55.104  31.527  1.00  0.00     0.012 C 
ATOM     18  C   UNL     1      19.889  57.478  32.857  1.00  0.00     0.004 C 
ATOM     19  C   UNL     1      18.043  58.358  31.371  1.00  0.00     0.005 C 
ATOM     20  C   UNL     1      19.165  58.760  32.354  1.00  0.00     0.003 C 
ATOM     21  C   UNL     1      20.823  56.869  31.792  1.00  0.00     0.085 C 
ATOM     22  C   UNL     1      20.177  59.865  31.827  1.00  0.00    -0.000 C 
ATOM     23  C   UNL     1      21.750  57.885  31.210  1.00  0.00     0.159 C 
ATOM     24  C   UNL     1      21.289  59.269  30.960  1.00  0.00     0.005 C 
ATOM     25  C   UNL     1      19.435  60.974  31.012  1.00  0.00     0.020 C 
ATOM     26  C   UNL     1      20.853  60.528  33.061  1.00  0.00     0.017 C 
ATOM     27  O   UNL     1      22.902  57.521  30.853  1.00  0.00    -0.295 OA
ATOM     28  C   UNL     1      21.951  60.036  30.069  1.00  0.00     0.055 C 
ATOM     29  C   UNL     1      20.377  62.057  30.470  1.00  0.00     0.081 C 
ATOM     30  C   UNL     1      21.571  61.435  29.802  1.00  0.00     0.156 C 
ATOM     31  O   UNL     1      22.275  62.131  29.023  1.00  0.00    -0.295 OA
ENDBRANCH   9  11
ENDBRANCH   8   9
ENDBRANCH   1   8
TORSDOF 6
ENDMDL
MODEL 9
REMARK VINA RESULT:    -5.298      2.582      4.316
REMARK INTER + INTRA:          -9.320
REMARK INTER:                  -7.211
REMARK INTRA:                  -2.110
REMARK UNBOUND:                -2.165
REMARK SMILES CC[C@@H](CC[C@@H](C)[C@@H]1CC[C@@H]2[C@H]3CC(=O)C4=CC(=O)CC[C@@]4(C)[C@H]3CC[C@@]21C)C(C)C
REMARK SMILES IDX 4 1 3 2 2 3 1 4 29 5 30 6 31 7 5 8 6 9 7 10 8 11 9 12 27 13
REMARK SMILES IDX 10 14 11 15 26 16 28 17 12 18 25 19 24 20 13 21 22 22 14 23
REMARK SMILES IDX 16 24 21 25 23 26 15 27 17 28 20 29 18 30 19 31
REMARK H PARENT
REMARK Flexibility Score: inf
ROOT
ATOM      1  C   UNL     1      14.637  61.635  20.722  1.00  0.00     0.004 C 
ENDROOT
BRANCH   1   2
ATOM      2  C   UNL     1      13.250  61.111  20.238  1.00  0.00    -0.009 C 
BRANCH   2   3
ATOM      3  C   UNL     1      12.691  61.798  18.955  1.00  0.00     0.000 C 
ATOM      4  C   UNL     1      11.887  63.078  19.166  1.00  0.00     0.004 C 
ENDBRANCH   2   3
BRANCH   2   5
ATOM      5  C   UNL     1      12.205  60.869  21.382  1.00  0.00    -0.014 C 
ATOM      6  C   UNL     1      12.648  61.536  22.696  1.00  0.00     0.007 C 
ATOM      7  C   UNL     1      11.877  59.391  21.658  1.00  0.00     0.007 C 
ENDBRANCH   2   5
ENDBRANCH   1   2
BRANCH   1   8
ATOM      8  C   UNL     1      15.871  60.892  20.158  1.00  0.00     0.004 C 
BRANCH   8   9
ATOM      9  C   UNL     1      16.561  59.927  21.163  1.00  0.00    -0.011 C 
ATOM     10  C   UNL     1      17.763  60.615  21.841  1.00  0.00     0.008 C 
BRANCH   9  11
ATOM     11  C   UNL     1      15.528  59.258  22.153  1.00  0.00    -0.002 C 
ATOM     12  C   UNL     1      15.661  59.631  23.634  1.00  0.00     0.005 C 
ATOM     13  C   UNL     1      15.444  57.699  22.147  1.00  0.00    -0.026 C 
ATOM     14  C   UNL     1      14.891  58.563  24.403  1.00  0.00     0.005 C 
ATOM     15  C   UNL     1      14.571  57.426  23.410  1.00  0.00    -0.001 C 
ATOM     16  C   UNL     1      16.850  57.036  22.272  1.00  0.00     0.007 C 
ATOM     17  C   UNL     1      14.759  57.222  20.842  1.00  0.00     0.012 C 
ATOM     18  C   UNL     1      14.690  56.022  24.085  1.00  0.00     0.004 C 
ATOM     19  C   UNL     1      16.820  55.595  22.792  1.00  0.00     0.005 C 
ATOM     20  C   UNL     1      16.160  55.522  24.187  1.00  0.00     0.003 C 
ATOM     21  C   UNL     1      13.759  54.991  23.417  1.00  0.00     0.085 C 
ATOM     22  C   UNL     1      16.279  54.123  24.931  1.00  0.00    -0.000 C 
ATOM     23  C   UNL     1      13.885  53.636  24.033  1.00  0.00     0.159 C 
ATOM     24  C   UNL     1      15.201  53.132  24.482  1.00  0.00     0.005 C 
ATOM     25  C   UNL     1      17.686  53.479  24.712  1.00  0.00     0.020 C 
ATOM     26  C   UNL     1      16.080  54.368  26.454  1.00  0.00     0.017 C 
ATOM     27  O   UNL     1      12.866  52.896  24.083  1.00  0.00    -0.295 OA
ATOM     28  C   UNL     1      15.388  51.803  24.625  1.00  0.00     0.055 C 
ATOM     29  C   UNL     1      17.841  52.117  25.401  1.00  0.00     0.081 C 
ATOM     30  C   UNL     1      16.661  51.237  25.107  1.00  0.00     0.156 C 
ATOM     31  O   UNL     1      16.752  49.995  25.303  1.00  0.00    -0.295 OA
ENDBRANCH   9  11
ENDBRANCH   8   9
ENDBRANCH   1   8
TORSDOF 6
ENDMDL
