MODEL 1
REMARK VINA RESULT:    -6.327      0.000      0.000
REMARK INTER + INTRA:          -7.710
REMARK INTER:                  -7.437
REMARK INTRA:                  -0.273
REMARK UNBOUND:                -0.273
REMARK SMILES O=c1c(O)c(-c2ccc(O)c(O)c2)oc2cc(O)ccc12
REMARK SMILES IDX 5 1 3 2 2 3 1 4 21 5 15 6 14 7 16 8 17 9 19 10 20 11 6 12
REMARK SMILES IDX 7 13 8 14 9 15 13 16 11 17 10 18 12 20 4 22 18 24
REMARK H PARENT 10 19 12 21 4 23 18 25
REMARK Flexibility Score: inf
ROOT
ATOM      1  C   UNL     1      -3.793   5.986  30.452  1.00  0.00     0.180 A 
ATOM      2  C   UNL     1      -2.898   5.330  31.321  1.00  0.00     0.208 A 
ATOM      3  C   UNL     1      -1.819   6.053  31.853  1.00  0.00     0.235 A 
ATOM      4  O   UNL     1      -0.998   5.485  32.625  1.00  0.00    -0.285 OA
ATOM      5  C   UNL     1      -1.669   7.410  31.525  1.00  0.00     0.069 A 
ATOM      6  C   UNL     1      -2.621   7.999  30.666  1.00  0.00     0.142 A 
ATOM      7  O   UNL     1      -3.624   7.278  30.178  1.00  0.00    -0.452 OA
ATOM      8  C   UNL     1      -2.511   9.352  30.324  1.00  0.00     0.094 A 
ATOM      9  C   UNL     1      -1.456  10.124  30.828  1.00  0.00     0.119 A 
ATOM     10  C   UNL     1      -0.511   9.541  31.678  1.00  0.00     0.047 A 
ATOM     11  C   UNL     1      -0.612   8.191  32.027  1.00  0.00     0.020 A 
ENDROOT
BRANCH   1  12
ATOM     12  C   UNL     1      -4.946   5.288  29.836  1.00  0.00     0.025 A 
ATOM     13  C   UNL     1      -6.245   5.571  30.286  1.00  0.00     0.016 A 
ATOM     14  C   UNL     1      -7.348   4.940  29.705  1.00  0.00     0.051 A 
ATOM     15  C   UNL     1      -7.169   4.030  28.656  1.00  0.00     0.157 A 
ATOM     16  C   UNL     1      -4.771   4.388  28.769  1.00  0.00     0.062 A 
ATOM     17  C   UNL     1      -5.879   3.757  28.184  1.00  0.00     0.158 A 
BRANCH  15  18
ATOM     18  O   UNL     1      -8.266   3.396  28.075  1.00  0.00    -0.504 OA
ATOM     19  H   UNL     1      -8.327   3.256  27.073  1.00  0.00     0.293 HD
ENDBRANCH  15  18
BRANCH  17  20
ATOM     20  O   UNL     1      -5.704   2.861  27.130  1.00  0.00    -0.504 OA
ATOM     21  H   UNL     1      -6.351   2.823  26.351  1.00  0.00     0.293 HD
ENDBRANCH  17  20
ENDBRANCH   1  12
BRANCH   2  22
ATOM     22  O   UNL     1      -3.101   3.993  31.669  1.00  0.00    -0.502 OA
ATOM     23  H   UNL     1      -2.411   3.453  32.178  1.00  0.00     0.293 HD
ENDBRANCH   2  22
BRANCH   9  24
ATOM     24  O   UNL     1      -1.339  11.471  30.492  1.00  0.00    -0.508 OA
ATOM     25  H   UNL     1      -1.558  11.805  29.560  1.00  0.00     0.293 HD
ENDBRANCH   9  24
TORSDOF 5
ENDMDL
MODEL 2
REMARK VINA RESULT:    -6.218      1.523      6.655
REMARK INTER + INTRA:          -7.581
REMARK INTER:                  -7.286
REMARK INTRA:                  -0.295
REMARK UNBOUND:                -0.273
REMARK SMILES O=c1c(O)c(-c2ccc(O)c(O)c2)oc2cc(O)ccc12
REMARK SMILES IDX 5 1 3 2 2 3 1 4 21 5 15 6 14 7 16 8 17 9 19 10 20 11 6 12
REMARK SMILES IDX 7 13 8 14 9 15 13 16 11 17 10 18 12 20 4 22 18 24
REMARK H PARENT 10 19 12 21 4 23 18 25
REMARK Flexibility Score: inf
ROOT
ATOM      1  C   UNL     1      -2.142   7.391  30.429  1.00  0.00     0.180 A 
ATOM      2  C   UNL     1      -1.559   6.610  31.448  1.00  0.00     0.208 A 
ATOM      3  C   UNL     1      -1.989   5.284  31.614  1.00  0.00     0.235 A 
ATOM      4  O   UNL     1      -1.490   4.569  32.525  1.00  0.00    -0.285 OA
ATOM      5  C   UNL     1      -2.970   4.764  30.754  1.00  0.00     0.069 A 
ATOM      6  C   UNL     1      -3.488   5.604  29.745  1.00  0.00     0.142 A 
ATOM      7  O   UNL     1      -3.059   6.855  29.626  1.00  0.00    -0.452 OA
ATOM      8  C   UNL     1      -4.460   5.118  28.862  1.00  0.00     0.094 A 
ATOM      9  C   UNL     1      -4.924   3.802  28.978  1.00  0.00     0.119 A 
ATOM     10  C   UNL     1      -4.413   2.969  29.979  1.00  0.00     0.047 A 
ATOM     11  C   UNL     1      -3.441   3.444  30.865  1.00  0.00     0.020 A 
ENDROOT
BRANCH   1  12
ATOM     12  C   UNL     1      -1.755   8.803  30.201  1.00  0.00     0.025 A 
ATOM     13  C   UNL     1      -0.920   9.124  29.120  1.00  0.00     0.016 A 
ATOM     14  C   UNL     1      -0.560  10.451  28.874  1.00  0.00     0.051 A 
ATOM     15  C   UNL     1      -1.042  11.477  29.696  1.00  0.00     0.157 A 
ATOM     16  C   UNL     1      -2.255   9.839  31.012  1.00  0.00     0.062 A 
ATOM     17  C   UNL     1      -1.895  11.172  30.764  1.00  0.00     0.158 A 
BRANCH  15  18
ATOM     18  O   UNL     1      -0.684  12.803  29.456  1.00  0.00    -0.504 OA
ATOM     19  H   UNL     1      -1.343  13.562  29.585  1.00  0.00     0.293 HD
ENDBRANCH  15  18
BRANCH  17  20
ATOM     20  O   UNL     1      -2.385  12.196  31.572  1.00  0.00    -0.504 OA
ATOM     21  H   UNL     1      -1.764  12.812  32.085  1.00  0.00     0.293 HD
ENDBRANCH  17  20
ENDBRANCH   1  12
BRANCH   2  22
ATOM     22  O   UNL     1      -0.549   7.139  32.255  1.00  0.00    -0.502 OA
ATOM     23  H   UNL     1      -0.687   7.966  32.824  1.00  0.00     0.293 HD
ENDBRANCH   2  22
BRANCH   9  24
ATOM     24  O   UNL     1      -5.892   3.311  28.104  1.00  0.00    -0.508 OA
ATOM     25  H   UNL     1      -6.775   3.789  27.971  1.00  0.00     0.293 HD
ENDBRANCH   9  24
TORSDOF 5
ENDMDL
MODEL 3
REMARK VINA RESULT:    -5.712      2.578      6.726
REMARK INTER + INTRA:          -6.987
REMARK INTER:                  -6.731
REMARK INTRA:                  -0.256
REMARK UNBOUND:                -0.273
REMARK SMILES O=c1c(O)c(-c2ccc(O)c(O)c2)oc2cc(O)ccc12
REMARK SMILES IDX 5 1 3 2 2 3 1 4 21 5 15 6 14 7 16 8 17 9 19 10 20 11 6 12
REMARK SMILES IDX 7 13 8 14 9 15 13 16 11 17 10 18 12 20 4 22 18 24
REMARK H PARENT 10 19 12 21 4 23 18 25
REMARK Flexibility Score: inf
ROOT
ATOM      1  C   UNL     1      -2.042   7.699  30.454  1.00  0.00     0.180 A 
ATOM      2  C   UNL     1      -3.381   7.279  30.317  1.00  0.00     0.208 A 
ATOM      3  C   UNL     1      -3.747   6.016  30.807  1.00  0.00     0.235 A 
ATOM      4  O   UNL     1      -4.937   5.613  30.685  1.00  0.00    -0.285 OA
ATOM      5  C   UNL     1      -2.783   5.213  31.435  1.00  0.00     0.069 A 
ATOM      6  C   UNL     1      -1.468   5.715  31.554  1.00  0.00     0.142 A 
ATOM      7  O   UNL     1      -1.161   6.914  31.070  1.00  0.00    -0.452 OA
ATOM      8  C   UNL     1      -0.481   4.948  32.183  1.00  0.00     0.094 A 
ATOM      9  C   UNL     1      -0.791   3.681  32.694  1.00  0.00     0.119 A 
ATOM     10  C   UNL     1      -2.092   3.181  32.576  1.00  0.00     0.047 A 
ATOM     11  C   UNL     1      -3.086   3.940  31.950  1.00  0.00     0.020 A 
ENDROOT
BRANCH   1  12
ATOM     12  C   UNL     1      -1.573   9.010  29.949  1.00  0.00     0.025 A 
ATOM     13  C   UNL     1      -0.852   9.069  28.746  1.00  0.00     0.016 A 
ATOM     14  C   UNL     1      -0.418  10.297  28.240  1.00  0.00     0.051 A 
ATOM     15  C   UNL     1      -0.712  11.485  28.922  1.00  0.00     0.157 A 
ATOM     16  C   UNL     1      -1.884  10.207  30.620  1.00  0.00     0.062 A 
ATOM     17  C   UNL     1      -1.450  11.440  30.111  1.00  0.00     0.158 A 
BRANCH  15  18
ATOM     18  O   UNL     1      -0.280  12.712  28.422  1.00  0.00    -0.504 OA
ATOM     19  H   UNL     1      -0.755  13.167  27.651  1.00  0.00     0.293 HD
ENDBRANCH  15  18
BRANCH  17  20
ATOM     20  O   UNL     1      -1.754  12.625  30.780  1.00  0.00    -0.504 OA
ATOM     21  H   UNL     1      -1.908  12.645  31.782  1.00  0.00     0.293 HD
ENDBRANCH  17  20
ENDBRANCH   1  12
BRANCH   2  22
ATOM     22  O   UNL     1      -4.330   8.121  29.732  1.00  0.00    -0.502 OA
ATOM     23  H   UNL     1      -4.071   8.953  29.215  1.00  0.00     0.293 HD
ENDBRANCH   2  22
BRANCH   9  24
ATOM     24  O   UNL     1       0.187   2.911  33.322  1.00  0.00    -0.508 OA
ATOM     25  H   UNL     1      -0.057   2.187  33.988  1.00  0.00     0.293 HD
ENDBRANCH   9  24
TORSDOF 5
ENDMDL
MODEL 4
REMARK VINA RESULT:    -5.651      1.341      1.650
REMARK INTER + INTRA:          -6.915
REMARK INTER:                  -6.867
REMARK INTRA:                  -0.048
REMARK UNBOUND:                -0.273
REMARK SMILES O=c1c(O)c(-c2ccc(O)c(O)c2)oc2cc(O)ccc12
REMARK SMILES IDX 5 1 3 2 2 3 1 4 21 5 15 6 14 7 16 8 17 9 19 10 20 11 6 12
REMARK SMILES IDX 7 13 8 14 9 15 13 16 11 17 10 18 12 20 4 22 18 24
REMARK H PARENT 10 19 12 21 4 23 18 25
REMARK Flexibility Score: inf
ROOT
ATOM      1  C   UNL     1      -3.712   5.097  30.802  1.00  0.00     0.180 A 
ATOM      2  C   UNL     1      -2.927   4.012  31.245  1.00  0.00     0.208 A 
ATOM      3  C   UNL     1      -1.673   4.274  31.818  1.00  0.00     0.235 A 
ATOM      4  O   UNL     1      -0.948   3.319  32.211  1.00  0.00    -0.285 OA
ATOM      5  C   UNL     1      -1.239   5.602  31.953  1.00  0.00     0.069 A 
ATOM      6  C   UNL     1      -2.093   6.633  31.506  1.00  0.00     0.142 A 
ATOM      7  O   UNL     1      -3.270   6.343  30.962  1.00  0.00    -0.452 OA
ATOM      8  C   UNL     1      -1.701   7.971  31.633  1.00  0.00     0.094 A 
ATOM      9  C   UNL     1      -0.460   8.291  32.200  1.00  0.00     0.119 A 
ATOM     10  C   UNL     1       0.388   7.271  32.642  1.00  0.00     0.047 A 
ATOM     11  C   UNL     1       0.005   5.931  32.521  1.00  0.00     0.020 A 
ENDROOT
BRANCH   1  12
ATOM     12  C   UNL     1      -5.038   4.903  30.172  1.00  0.00     0.025 A 
ATOM     13  C   UNL     1      -6.138   5.643  30.636  1.00  0.00     0.016 A 
ATOM     14  C   UNL     1      -7.393   5.491  30.042  1.00  0.00     0.051 A 
ATOM     15  C   UNL     1      -7.564   4.611  28.967  1.00  0.00     0.157 A 
ATOM     16  C   UNL     1      -5.209   4.035  29.078  1.00  0.00     0.062 A 
ATOM     17  C   UNL     1      -6.469   3.885  28.481  1.00  0.00     0.158 A 
BRANCH  15  18
ATOM     18  O   UNL     1      -8.815   4.455  28.372  1.00  0.00    -0.504 OA
ATOM     19  H   UNL     1      -9.348   5.251  28.042  1.00  0.00     0.293 HD
ENDBRANCH  15  18
BRANCH  17  20
ATOM     20  O   UNL     1      -6.639   3.019  27.401  1.00  0.00    -0.504 OA
ATOM     21  H   UNL     1      -6.145   3.158  26.526  1.00  0.00     0.293 HD
ENDBRANCH  17  20
ENDBRANCH   1  12
BRANCH   2  22
ATOM     22  O   UNL     1      -3.407   2.704  31.143  1.00  0.00    -0.502 OA
ATOM     23  H   UNL     1      -3.228   2.004  31.853  1.00  0.00     0.293 HD
ENDBRANCH   2  22
BRANCH   9  24
ATOM     24  O   UNL     1      -0.062   9.620  32.330  1.00  0.00    -0.508 OA
ATOM     25  H   UNL     1       0.732   9.987  31.818  1.00  0.00     0.293 HD
ENDBRANCH   9  24
TORSDOF 5
ENDMDL
MODEL 5
REMARK VINA RESULT:    -4.994      1.658      6.482
REMARK INTER + INTRA:          -6.143
REMARK INTER:                  -6.075
REMARK INTRA:                  -0.068
REMARK UNBOUND:                -0.273
REMARK SMILES O=c1c(O)c(-c2ccc(O)c(O)c2)oc2cc(O)ccc12
REMARK SMILES IDX 5 1 3 2 2 3 1 4 21 5 15 6 14 7 16 8 17 9 19 10 20 11 6 12
REMARK SMILES IDX 7 13 8 14 9 15 13 16 11 17 10 18 12 20 4 22 18 24
REMARK H PARENT 10 19 12 21 4 23 18 25
REMARK Flexibility Score: inf
ROOT
ATOM      1  C   UNL     1      -1.984   7.265  30.724  1.00  0.00     0.180 A 
ATOM      2  C   UNL     1      -1.241   6.500  31.646  1.00  0.00     0.208 A 
ATOM      3  C   UNL     1      -1.551   5.140  31.801  1.00  0.00     0.235 A 
ATOM      4  O   UNL     1      -0.907   4.437  32.629  1.00  0.00    -0.285 OA
ATOM      5  C   UNL     1      -2.573   4.572  31.025  1.00  0.00     0.069 A 
ATOM      6  C   UNL     1      -3.255   5.401  30.107  1.00  0.00     0.142 A 
ATOM      7  O   UNL     1      -2.936   6.685  29.996  1.00  0.00    -0.452 OA
ATOM      8  C   UNL     1      -4.274   4.868  29.308  1.00  0.00     0.094 A 
ATOM      9  C   UNL     1      -4.623   3.516  29.418  1.00  0.00     0.119 A 
ATOM     10  C   UNL     1      -3.950   2.694  30.328  1.00  0.00     0.047 A 
ATOM     11  C   UNL     1      -2.930   3.216  31.130  1.00  0.00     0.020 A 
ENDROOT
BRANCH   1  12
ATOM     12  C   UNL     1      -1.730   8.710  30.514  1.00  0.00     0.025 A 
ATOM     13  C   UNL     1      -1.794   9.588  31.608  1.00  0.00     0.016 A 
ATOM     14  C   UNL     1      -1.537  10.951  31.437  1.00  0.00     0.051 A 
ATOM     15  C   UNL     1      -1.198  11.452  30.174  1.00  0.00     0.157 A 
ATOM     16  C   UNL     1      -1.369   9.214  29.251  1.00  0.00     0.062 A 
ATOM     17  C   UNL     1      -1.109  10.582  29.080  1.00  0.00     0.158 A 
BRANCH  15  18
ATOM     18  O   UNL     1      -0.943  12.811  29.998  1.00  0.00    -0.504 OA
ATOM     19  H   UNL     1      -1.437  13.357  29.302  1.00  0.00     0.293 HD
ENDBRANCH  15  18
BRANCH  17  20
ATOM     20  O   UNL     1      -0.757  11.081  27.827  1.00  0.00    -0.504 OA
ATOM     21  H   UNL     1       0.138  10.868  27.402  1.00  0.00     0.293 HD
ENDBRANCH  17  20
ENDBRANCH   1  12
BRANCH   2  22
ATOM     22  O   UNL     1      -0.196   7.081  32.368  1.00  0.00    -0.502 OA
ATOM     23  H   UNL     1      -0.045   6.891  33.352  1.00  0.00     0.293 HD
ENDBRANCH   2  22
BRANCH   9  24
ATOM     24  O   UNL     1      -5.636   2.978  28.627  1.00  0.00    -0.508 OA
ATOM     25  H   UNL     1      -6.283   3.572  28.120  1.00  0.00     0.293 HD
ENDBRANCH   9  24
TORSDOF 5
ENDMDL
MODEL 6
REMARK VINA RESULT:    -3.843      1.500      3.303
REMARK INTER + INTRA:          -4.790
REMARK INTER:                  -4.618
REMARK INTRA:                  -0.172
REMARK UNBOUND:                -0.273
REMARK SMILES O=c1c(O)c(-c2ccc(O)c(O)c2)oc2cc(O)ccc12
REMARK SMILES IDX 5 1 3 2 2 3 1 4 21 5 15 6 14 7 16 8 17 9 19 10 20 11 6 12
REMARK SMILES IDX 7 13 8 14 9 15 13 16 11 17 10 18 12 20 4 22 18 24
REMARK H PARENT 10 19 12 21 4 23 18 25
REMARK Flexibility Score: inf
ROOT
ATOM      1  C   UNL     1      -3.955   5.781  30.432  1.00  0.00     0.180 A 
ATOM      2  C   UNL     1      -3.480   7.088  30.197  1.00  0.00     0.208 A 
ATOM      3  C   UNL     1      -2.224   7.453  30.704  1.00  0.00     0.235 A 
ATOM      4  O   UNL     1      -1.783   8.620  30.516  1.00  0.00    -0.285 OA
ATOM      5  C   UNL     1      -1.464   6.508  31.413  1.00  0.00     0.069 A 
ATOM      6  C   UNL     1      -2.000   5.213  31.586  1.00  0.00     0.142 A 
ATOM      7  O   UNL     1      -3.197   4.910  31.096  1.00  0.00    -0.452 OA
ATOM      8  C   UNL     1      -1.269   4.241  32.278  1.00  0.00     0.094 A 
ATOM      9  C   UNL     1      -0.007   4.548  32.803  1.00  0.00     0.119 A 
ATOM     10  C   UNL     1       0.525   5.831  32.634  1.00  0.00     0.047 A 
ATOM     11  C   UNL     1      -0.197   6.809  31.943  1.00  0.00     0.020 A 
ENDROOT
BRANCH   1  12
ATOM     12  C   UNL     1      -5.277   5.324  29.945  1.00  0.00     0.025 A 
ATOM     13  C   UNL     1      -6.444   5.909  30.462  1.00  0.00     0.016 A 
ATOM     14  C   UNL     1      -7.700   5.508  30.002  1.00  0.00     0.051 A 
ATOM     15  C   UNL     1      -7.808   4.528  29.007  1.00  0.00     0.157 A 
ATOM     16  C   UNL     1      -5.389   4.355  28.932  1.00  0.00     0.062 A 
ATOM     17  C   UNL     1      -6.651   3.954  28.468  1.00  0.00     0.158 A 
BRANCH  15  18
ATOM     18  O   UNL     1      -9.060   4.124  28.546  1.00  0.00    -0.504 OA
ATOM     19  H   UNL     1      -9.421   3.197  28.740  1.00  0.00     0.293 HD
ENDBRANCH  15  18
BRANCH  17  20
ATOM     20  O   UNL     1      -6.760   2.989  27.468  1.00  0.00    -0.504 OA
ATOM     21  H   UNL     1      -5.961   2.710  26.909  1.00  0.00     0.293 HD
ENDBRANCH  17  20
ENDBRANCH   1  12
BRANCH   2  22
ATOM     22  O   UNL     1      -4.237   7.990  29.446  1.00  0.00    -0.502 OA
ATOM     23  H   UNL     1      -4.150   8.064  28.439  1.00  0.00     0.293 HD
ENDBRANCH   2  22
BRANCH   9  24
ATOM     24  O   UNL     1       0.728   3.586  33.494  1.00  0.00    -0.508 OA
ATOM     25  H   UNL     1       1.603   3.816  33.951  1.00  0.00     0.293 HD
ENDBRANCH   9  24
TORSDOF 5
ENDMDL
