MODEL 1
REMARK VINA RESULT:    -2.995      0.000      0.000
REMARK INTER + INTRA:         -11.615
REMARK INTER:                  -7.547
REMARK INTRA:                  -4.067
REMARK UNBOUND:                -4.067
REMARK SMILES CCCCCCCCCCCCCCCCCCCCCCCCCCCC(=O)[O-]
REMARK SMILES IDX 15 1 16 2 17 3 18 4 19 5 20 6 21 7 22 8 23 9 24 10 25 11
REMARK SMILES IDX 26 12 27 13 28 14 29 15 30 16 14 17 13 18 12 19 11 20 10 21
REMARK SMILES IDX 9 22 8 23 7 24 6 25 5 26 4 27 3 28 2 29 1 30
REMARK H PARENT
REMARK Flexibility Score: inf
ROOT
ATOM      1  C   UNL     1      98.036 -67.683   3.195  1.00  0.00     0.000 C 
ENDROOT
BRANCH   1   2
ATOM      2  C   UNL     1      98.699 -68.169   1.897  1.00  0.00     0.000 C 
BRANCH   2   3
ATOM      3  C   UNL     1      99.300 -66.994   1.112  1.00  0.00     0.000 C 
BRANCH   3   4
ATOM      4  C   UNL     1     100.675 -67.329   0.511  1.00  0.00     0.000 C 
BRANCH   4   5
ATOM      5  C   UNL     1     101.605 -66.105   0.442  1.00  0.00     0.000 C 
BRANCH   5   6
ATOM      6  C   UNL     1     102.079 -65.805  -0.988  1.00  0.00     0.000 C 
BRANCH   6   7
ATOM      7  C   UNL     1     100.911 -65.498  -1.942  1.00  0.00     0.000 C 
BRANCH   7   8
ATOM      8  C   UNL     1     101.379 -65.222  -3.379  1.00  0.00     0.000 C 
BRANCH   8   9
ATOM      9  C   UNL     1     100.361 -65.691  -4.433  1.00  0.00     0.000 C 
BRANCH   9  10
ATOM     10  C   UNL     1      98.934 -65.201  -4.138  1.00  0.00     0.000 C 
BRANCH  10  11
ATOM     11  C   UNL     1      97.858 -66.096  -4.778  1.00  0.00     0.000 C 
BRANCH  11  12
ATOM     12  C   UNL     1      97.165 -67.011  -3.747  1.00  0.00     0.006 C 
BRANCH  12  13
ATOM     13  C   UNL     1      97.914 -67.108  -2.409  1.00  0.00     0.053 C 
BRANCH  13  14
ATOM     14  C   UNL     1      98.569 -68.439  -2.218  1.00  0.00     0.041 C 
ATOM     15  O   UNL     1      99.697 -68.671  -2.731  1.00  0.00    -0.550 OA
ATOM     16  O   UNL     1      97.930 -69.431  -1.486  1.00  0.00    -0.550 OA
ENDBRANCH  13  14
ENDBRANCH  12  13
ENDBRANCH  11  12
ENDBRANCH  10  11
ENDBRANCH   9  10
ENDBRANCH   8   9
ENDBRANCH   7   8
ENDBRANCH   6   7
ENDBRANCH   5   6
ENDBRANCH   4   5
ENDBRANCH   3   4
ENDBRANCH   2   3
ENDBRANCH   1   2
BRANCH   1  17
ATOM     17  C   UNL     1      98.255 -66.181   3.451  1.00  0.00     0.000 C 
BRANCH  17  18
ATOM     18  C   UNL     1      98.756 -65.826   4.866  1.00  0.00     0.000 C 
BRANCH  18  19
ATOM     19  C   UNL     1     100.125 -65.121   4.915  1.00  0.00     0.000 C 
BRANCH  19  20
ATOM     20  C   UNL     1     101.151 -65.622   3.877  1.00  0.00     0.000 C 
BRANCH  20  21
ATOM     21  C   UNL     1     102.121 -66.703   4.390  1.00  0.00     0.000 C 
BRANCH  21  22
ATOM     22  C   UNL     1     101.752 -68.148   3.998  1.00  0.00    -0.000 C 
BRANCH  22  23
ATOM     23  C   UNL     1     100.881 -68.896   5.028  1.00  0.00    -0.000 C 
BRANCH  23  24
ATOM     24  C   UNL     1     101.664 -69.673   6.106  1.00  0.00    -0.000 C 
BRANCH  24  25
ATOM     25  C   UNL     1     101.583 -69.085   7.528  1.00  0.00    -0.000 C 
BRANCH  25  26
ATOM     26  C   UNL     1     100.911 -67.703   7.566  1.00  0.00    -0.000 C 
BRANCH  26  27
ATOM     27  C   UNL     1     101.849 -66.598   8.081  1.00  0.00    -0.000 C 
BRANCH  27  28
ATOM     28  C   UNL     1     101.470 -66.066   9.479  1.00  0.00    -0.000 C 
BRANCH  28  29
ATOM     29  C   UNL     1     100.342 -66.885  10.124  1.00  0.00    -0.003 C 
ATOM     30  C   UNL     1      99.731 -66.146  11.310  1.00  0.00     0.004 C 
ENDBRANCH  28  29
ENDBRANCH  27  28
ENDBRANCH  26  27
ENDBRANCH  25  26
ENDBRANCH  24  25
ENDBRANCH  23  24
ENDBRANCH  22  23
ENDBRANCH  21  22
ENDBRANCH  20  21
ENDBRANCH  19  20
ENDBRANCH  18  19
ENDBRANCH  17  18
ENDBRANCH   1  17
TORSDOF 26
ENDMDL
MODEL 2
REMARK VINA RESULT:    -2.980      1.762      2.959
REMARK INTER + INTRA:         -11.576
REMARK INTER:                  -8.993
REMARK INTRA:                  -2.582
REMARK UNBOUND:                -4.067
REMARK SMILES CCCCCCCCCCCCCCCCCCCCCCCCCCCC(=O)[O-]
REMARK SMILES IDX 15 1 16 2 17 3 18 4 19 5 20 6 21 7 22 8 23 9 24 10 25 11
REMARK SMILES IDX 26 12 27 13 28 14 29 15 30 16 14 17 13 18 12 19 11 20 10 21
REMARK SMILES IDX 9 22 8 23 7 24 6 25 5 26 4 27 3 28 2 29 1 30
REMARK H PARENT
REMARK Flexibility Score: inf
ROOT
ATOM      1  C   UNL     1      97.534 -66.093   3.177  1.00  0.00     0.000 C 
ENDROOT
BRANCH   1   2
ATOM      2  C   UNL     1      97.217 -65.105   2.044  1.00  0.00     0.000 C 
BRANCH   2   3
ATOM      3  C   UNL     1      98.187 -65.286   0.868  1.00  0.00     0.000 C 
BRANCH   3   4
ATOM      4  C   UNL     1      97.565 -64.879  -0.477  1.00  0.00     0.000 C 
BRANCH   4   5
ATOM      5  C   UNL     1      98.535 -65.061  -1.658  1.00  0.00     0.000 C 
BRANCH   5   6
ATOM      6  C   UNL     1      97.814 -65.439  -2.961  1.00  0.00     0.000 C 
BRANCH   6   7
ATOM      7  C   UNL     1      97.432 -66.929  -3.011  1.00  0.00     0.000 C 
BRANCH   7   8
ATOM      8  C   UNL     1      98.356 -67.744  -3.928  1.00  0.00     0.000 C 
BRANCH   8   9
ATOM      9  C   UNL     1      99.156 -66.859  -4.900  1.00  0.00     0.000 C 
BRANCH   9  10
ATOM     10  C   UNL     1     100.519 -66.435  -4.331  1.00  0.00     0.000 C 
BRANCH  10  11
ATOM     11  C   UNL     1     101.530 -67.594  -4.291  1.00  0.00     0.000 C 
BRANCH  11  12
ATOM     12  C   UNL     1     102.124 -67.808  -2.883  1.00  0.00     0.006 C 
BRANCH  12  13
ATOM     13  C   UNL     1     101.393 -67.024  -1.781  1.00  0.00     0.053 C 
BRANCH  13  14
ATOM     14  C   UNL     1     100.929 -67.908  -0.666  1.00  0.00     0.041 C 
ATOM     15  O   UNL     1      99.733 -68.306  -0.629  1.00  0.00    -0.550 OA
ATOM     16  O   UNL     1     101.810 -68.280   0.340  1.00  0.00    -0.550 OA
ENDBRANCH  13  14
ENDBRANCH  12  13
ENDBRANCH  11  12
ENDBRANCH  10  11
ENDBRANCH   9  10
ENDBRANCH   8   9
ENDBRANCH   7   8
ENDBRANCH   6   7
ENDBRANCH   5   6
ENDBRANCH   4   5
ENDBRANCH   3   4
ENDBRANCH   2   3
ENDBRANCH   1   2
BRANCH   1  17
ATOM     17  C   UNL     1      98.249 -65.428   4.367  1.00  0.00     0.000 C 
BRANCH  17  18
ATOM     18  C   UNL     1      99.746 -65.773   4.505  1.00  0.00     0.000 C 
BRANCH  18  19
ATOM     19  C   UNL     1     100.330 -66.613   3.352  1.00  0.00     0.000 C 
BRANCH  19  20
ATOM     20  C   UNL     1     100.814 -68.021   3.755  1.00  0.00     0.000 C 
BRANCH  20  21
ATOM     21  C   UNL     1      99.798 -68.851   4.563  1.00  0.00     0.000 C 
BRANCH  21  22
ATOM     22  C   UNL     1     100.417 -69.925   5.481  1.00  0.00    -0.000 C 
BRANCH  22  23
ATOM     23  C   UNL     1     101.879 -69.660   5.891  1.00  0.00    -0.000 C 
BRANCH  23  24
ATOM     24  C   UNL     1     102.059 -68.880   7.209  1.00  0.00    -0.000 C 
BRANCH  24  25
ATOM     25  C   UNL     1     100.791 -68.181   7.736  1.00  0.00    -0.000 C 
BRANCH  25  26
ATOM     26  C   UNL     1     101.093 -66.857   8.456  1.00  0.00    -0.000 C 
BRANCH  26  27
ATOM     27  C   UNL     1     100.914 -66.953   9.981  1.00  0.00    -0.000 C 
BRANCH  27  28
ATOM     28  C   UNL     1     100.259 -68.271  10.445  1.00  0.00    -0.000 C 
BRANCH  28  29
ATOM     29  C   UNL     1     101.070 -68.961  11.552  1.00  0.00    -0.003 C 
ATOM     30  C   UNL     1     101.759 -67.939  12.451  1.00  0.00     0.004 C 
ENDBRANCH  28  29
ENDBRANCH  27  28
ENDBRANCH  26  27
ENDBRANCH  25  26
ENDBRANCH  24  25
ENDBRANCH  23  24
ENDBRANCH  22  23
ENDBRANCH  21  22
ENDBRANCH  20  21
ENDBRANCH  19  20
ENDBRANCH  18  19
ENDBRANCH  17  18
ENDBRANCH   1  17
TORSDOF 26
ENDMDL
MODEL 3
REMARK VINA RESULT:    -2.746      1.538      3.050
REMARK INTER + INTRA:         -10.987
REMARK INTER:                  -7.991
REMARK INTRA:                  -2.997
REMARK UNBOUND:                -4.067
REMARK SMILES CCCCCCCCCCCCCCCCCCCCCCCCCCCC(=O)[O-]
REMARK SMILES IDX 15 1 16 2 17 3 18 4 19 5 20 6 21 7 22 8 23 9 24 10 25 11
REMARK SMILES IDX 26 12 27 13 28 14 29 15 30 16 14 17 13 18 12 19 11 20 10 21
REMARK SMILES IDX 9 22 8 23 7 24 6 25 5 26 4 27 3 28 2 29 1 30
REMARK H PARENT
REMARK Flexibility Score: inf
ROOT
ATOM      1  C   UNL     1      97.223 -66.154   3.962  1.00  0.00     0.000 C 
ENDROOT
BRANCH   1   2
ATOM      2  C   UNL     1      98.358 -65.194   4.353  1.00  0.00     0.000 C 
BRANCH   2   3
ATOM      3  C   UNL     1      99.276 -64.910   3.155  1.00  0.00     0.000 C 
BRANCH   3   4
ATOM      4  C   UNL     1     100.762 -64.875   3.548  1.00  0.00     0.000 C 
BRANCH   4   5
ATOM      5  C   UNL     1     101.625 -65.811   2.682  1.00  0.00     0.000 C 
BRANCH   5   6
ATOM      6  C   UNL     1     102.080 -65.150   1.373  1.00  0.00     0.000 C 
BRANCH   6   7
ATOM      7  C   UNL     1     101.925 -66.081   0.158  1.00  0.00     0.000 C 
BRANCH   7   8
ATOM      8  C   UNL     1     100.581 -66.826   0.153  1.00  0.00     0.000 C 
BRANCH   8   9
ATOM      9  C   UNL     1     100.374 -67.665  -1.120  1.00  0.00     0.000 C 
BRANCH   9  10
ATOM     10  C   UNL     1     101.547 -67.544  -2.107  1.00  0.00     0.000 C 
BRANCH  10  11
ATOM     11  C   UNL     1     101.115 -67.763  -3.567  1.00  0.00     0.000 C 
BRANCH  11  12
ATOM     12  C   UNL     1      99.991 -66.799  -4.000  1.00  0.00     0.006 C 
BRANCH  12  13
ATOM     13  C   UNL     1      98.733 -67.516  -4.518  1.00  0.00     0.053 C 
BRANCH  13  14
ATOM     14  C   UNL     1      97.488 -67.044  -3.835  1.00  0.00     0.041 C 
ATOM     15  O   UNL     1      97.274 -67.342  -2.629  1.00  0.00    -0.550 OA
ATOM     16  O   UNL     1      96.555 -66.289  -4.533  1.00  0.00    -0.550 OA
ENDBRANCH  13  14
ENDBRANCH  12  13
ENDBRANCH  11  12
ENDBRANCH  10  11
ENDBRANCH   9  10
ENDBRANCH   8   9
ENDBRANCH   7   8
ENDBRANCH   6   7
ENDBRANCH   5   6
ENDBRANCH   4   5
ENDBRANCH   3   4
ENDBRANCH   2   3
ENDBRANCH   1   2
BRANCH   1  17
ATOM     17  C   UNL     1      97.521 -67.616   4.339  1.00  0.00     0.000 C 
BRANCH  17  18
ATOM     18  C   UNL     1      97.836 -68.546   3.149  1.00  0.00     0.000 C 
BRANCH  18  19
ATOM     19  C   UNL     1      99.331 -68.670   2.798  1.00  0.00     0.000 C 
BRANCH  19  20
ATOM     20  C   UNL     1     100.298 -68.385   3.965  1.00  0.00     0.000 C 
BRANCH  20  21
ATOM     21  C   UNL     1     100.528 -69.569   4.924  1.00  0.00     0.000 C 
BRANCH  21  22
ATOM     22  C   UNL     1     101.170 -69.197   6.276  1.00  0.00    -0.000 C 
BRANCH  22  23
ATOM     23  C   UNL     1     100.760 -67.819   6.830  1.00  0.00    -0.000 C 
BRANCH  23  24
ATOM     24  C   UNL     1     101.927 -66.851   7.111  1.00  0.00    -0.000 C 
BRANCH  24  25
ATOM     25  C   UNL     1     101.540 -65.363   7.198  1.00  0.00    -0.000 C 
BRANCH  25  26
ATOM     26  C   UNL     1     101.341 -64.880   8.644  1.00  0.00    -0.000 C 
BRANCH  26  27
ATOM     27  C   UNL     1     100.326 -65.734   9.423  1.00  0.00    -0.000 C 
BRANCH  27  28
ATOM     28  C   UNL     1     100.572 -65.753  10.946  1.00  0.00    -0.000 C 
BRANCH  28  29
ATOM     29  C   UNL     1      99.820 -66.898  11.640  1.00  0.00    -0.003 C 
ATOM     30  C   UNL     1     100.184 -68.248  11.028  1.00  0.00     0.004 C 
ENDBRANCH  28  29
ENDBRANCH  27  28
ENDBRANCH  26  27
ENDBRANCH  25  26
ENDBRANCH  24  25
ENDBRANCH  23  24
ENDBRANCH  22  23
ENDBRANCH  21  22
ENDBRANCH  20  21
ENDBRANCH  19  20
ENDBRANCH  18  19
ENDBRANCH  17  18
ENDBRANCH   1  17
TORSDOF 26
ENDMDL
MODEL 4
REMARK VINA RESULT:    -2.633      1.660      3.260
REMARK INTER + INTRA:         -10.702
REMARK INTER:                  -7.751
REMARK INTRA:                  -2.951
REMARK UNBOUND:                -4.067
REMARK SMILES CCCCCCCCCCCCCCCCCCCCCCCCCCCC(=O)[O-]
REMARK SMILES IDX 15 1 16 2 17 3 18 4 19 5 20 6 21 7 22 8 23 9 24 10 25 11
REMARK SMILES IDX 26 12 27 13 28 14 29 15 30 16 14 17 13 18 12 19 11 20 10 21
REMARK SMILES IDX 9 22 8 23 7 24 6 25 5 26 4 27 3 28 2 29 1 30
REMARK H PARENT
REMARK Flexibility Score: inf
ROOT
ATOM      1  C   UNL     1      98.115 -68.187   4.500  1.00  0.00     0.000 C 
ENDROOT
BRANCH   1   2
ATOM      2  C   UNL     1      97.435 -67.355   3.401  1.00  0.00     0.000 C 
BRANCH   2   3
ATOM      3  C   UNL     1      97.325 -65.881   3.816  1.00  0.00     0.000 C 
BRANCH   3   4
ATOM      4  C   UNL     1      98.369 -64.993   3.119  1.00  0.00     0.000 C 
BRANCH   4   5
ATOM      5  C   UNL     1      98.852 -65.585   1.784  1.00  0.00     0.000 C 
BRANCH   5   6
ATOM      6  C   UNL     1     100.113 -64.886   1.251  1.00  0.00     0.000 C 
BRANCH   6   7
ATOM      7  C   UNL     1     100.787 -65.675   0.115  1.00  0.00     0.000 C 
BRANCH   7   8
ATOM      8  C   UNL     1     101.037 -67.145   0.485  1.00  0.00     0.000 C 
BRANCH   8   9
ATOM      9  C   UNL     1      99.936 -68.083  -0.040  1.00  0.00     0.000 C 
BRANCH   9  10
ATOM     10  C   UNL     1      99.556 -67.792  -1.501  1.00  0.00     0.000 C 
BRANCH  10  11
ATOM     11  C   UNL     1      98.084 -67.373  -1.657  1.00  0.00     0.000 C 
BRANCH  11  12
ATOM     12  C   UNL     1      97.564 -67.576  -3.096  1.00  0.00     0.006 C 
BRANCH  12  13
ATOM     13  C   UNL     1      97.713 -66.331  -3.985  1.00  0.00     0.053 C 
BRANCH  13  14
ATOM     14  C   UNL     1      99.143 -66.018  -4.292  1.00  0.00     0.041 C 
ATOM     15  O   UNL     1      99.627 -64.896  -3.984  1.00  0.00    -0.550 OA
ATOM     16  O   UNL     1      99.939 -66.958  -4.933  1.00  0.00    -0.550 OA
ENDBRANCH  13  14
ENDBRANCH  12  13
ENDBRANCH  11  12
ENDBRANCH  10  11
ENDBRANCH   9  10
ENDBRANCH   8   9
ENDBRANCH   7   8
ENDBRANCH   6   7
ENDBRANCH   5   6
ENDBRANCH   4   5
ENDBRANCH   3   4
ENDBRANCH   2   3
ENDBRANCH   1   2
BRANCH   1  17
ATOM     17  C   UNL     1      99.375 -68.916   4.002  1.00  0.00     0.000 C 
BRANCH  17  18
ATOM     18  C   UNL     1     100.349 -69.366   5.110  1.00  0.00     0.000 C 
BRANCH  18  19
ATOM     19  C   UNL     1     101.828 -69.008   4.864  1.00  0.00     0.000 C 
BRANCH  19  20
ATOM     20  C   UNL     1     102.075 -68.053   3.677  1.00  0.00     0.000 C 
BRANCH  20  21
ATOM     21  C   UNL     1     102.125 -66.557   4.046  1.00  0.00     0.000 C 
BRANCH  21  22
ATOM     22  C   UNL     1     101.045 -66.096   5.045  1.00  0.00    -0.000 C 
BRANCH  22  23
ATOM     23  C   UNL     1     101.513 -65.035   6.060  1.00  0.00    -0.000 C 
BRANCH  23  24
ATOM     24  C   UNL     1     101.495 -65.486   7.535  1.00  0.00    -0.000 C 
BRANCH  24  25
ATOM     25  C   UNL     1     100.988 -66.920   7.777  1.00  0.00    -0.000 C 
BRANCH  25  26
ATOM     26  C   UNL     1     101.458 -67.502   9.120  1.00  0.00    -0.000 C 
BRANCH  26  27
ATOM     27  C   UNL     1     100.536 -67.119  10.290  1.00  0.00    -0.000 C 
BRANCH  27  28
ATOM     28  C   UNL     1     100.320 -68.259  11.307  1.00  0.00    -0.000 C 
BRANCH  28  29
ATOM     29  C   UNL     1     101.647 -68.865  11.787  1.00  0.00    -0.003 C 
ATOM     30  C   UNL     1     102.044 -68.313  13.153  1.00  0.00     0.004 C 
ENDBRANCH  28  29
ENDBRANCH  27  28
ENDBRANCH  26  27
ENDBRANCH  25  26
ENDBRANCH  24  25
ENDBRANCH  23  24
ENDBRANCH  22  23
ENDBRANCH  21  22
ENDBRANCH  20  21
ENDBRANCH  19  20
ENDBRANCH  18  19
ENDBRANCH  17  18
ENDBRANCH   1  17
TORSDOF 26
ENDMDL
MODEL 5
REMARK VINA RESULT:    -2.549      1.326      1.705
REMARK INTER + INTRA:         -10.490
REMARK INTER:                  -7.688
REMARK INTRA:                  -2.802
REMARK UNBOUND:                -4.067
REMARK SMILES CCCCCCCCCCCCCCCCCCCCCCCCCCCC(=O)[O-]
REMARK SMILES IDX 15 1 16 2 17 3 18 4 19 5 20 6 21 7 22 8 23 9 24 10 25 11
REMARK SMILES IDX 26 12 27 13 28 14 29 15 30 16 14 17 13 18 12 19 11 20 10 21
REMARK SMILES IDX 9 22 8 23 7 24 6 25 5 26 4 27 3 28 2 29 1 30
REMARK H PARENT
REMARK Flexibility Score: inf
ROOT
ATOM      1  C   UNL     1      98.246 -68.723   2.129  1.00  0.00     0.000 C 
ENDROOT
BRANCH   1   2
ATOM      2  C   UNL     1      99.149 -68.794   0.888  1.00  0.00     0.000 C 
BRANCH   2   3
ATOM      3  C   UNL     1      99.528 -67.387   0.402  1.00  0.00     0.000 C 
BRANCH   3   4
ATOM      4  C   UNL     1     100.887 -67.358  -0.315  1.00  0.00     0.000 C 
BRANCH   4   5
ATOM      5  C   UNL     1     101.834 -66.286   0.254  1.00  0.00     0.000 C 
BRANCH   5   6
ATOM      6  C   UNL     1     101.748 -64.958  -0.513  1.00  0.00     0.000 C 
BRANCH   6   7
ATOM      7  C   UNL     1     102.110 -65.112  -2.001  1.00  0.00     0.000 C 
BRANCH   7   8
ATOM      8  C   UNL     1     100.909 -64.875  -2.928  1.00  0.00     0.000 C 
BRANCH   8   9
ATOM      9  C   UNL     1     101.067 -65.574  -4.291  1.00  0.00     0.000 C 
BRANCH   9  10
ATOM     10  C   UNL     1     101.685 -66.976  -4.169  1.00  0.00     0.000 C 
BRANCH  10  11
ATOM     11  C   UNL     1     100.855 -68.052  -4.890  1.00  0.00     0.000 C 
BRANCH  11  12
ATOM     12  C   UNL     1      99.337 -67.801  -4.774  1.00  0.00     0.006 C 
BRANCH  12  13
ATOM     13  C   UNL     1      98.756 -68.175  -3.400  1.00  0.00     0.053 C 
BRANCH  13  14
ATOM     14  C   UNL     1      97.468 -67.468  -3.116  1.00  0.00     0.041 C 
ATOM     15  O   UNL     1      96.826 -67.721  -2.061  1.00  0.00    -0.550 OA
ATOM     16  O   UNL     1      96.967 -66.543  -4.021  1.00  0.00    -0.550 OA
ENDBRANCH  13  14
ENDBRANCH  12  13
ENDBRANCH  11  12
ENDBRANCH  10  11
ENDBRANCH   9  10
ENDBRANCH   8   9
ENDBRANCH   7   8
ENDBRANCH   6   7
ENDBRANCH   5   6
ENDBRANCH   4   5
ENDBRANCH   3   4
ENDBRANCH   2   3
ENDBRANCH   1   2
BRANCH   1  17
ATOM     17  C   UNL     1      97.999 -67.281   2.606  1.00  0.00     0.000 C 
BRANCH  17  18
ATOM     18  C   UNL     1      98.121 -67.067   4.129  1.00  0.00     0.000 C 
BRANCH  18  19
ATOM     19  C   UNL     1      99.473 -66.494   4.600  1.00  0.00     0.000 C 
BRANCH  19  20
ATOM     20  C   UNL     1     100.478 -66.191   3.471  1.00  0.00     0.000 C 
BRANCH  20  21
ATOM     21  C   UNL     1     101.925 -66.644   3.748  1.00  0.00     0.000 C 
BRANCH  21  22
ATOM     22  C   UNL     1     102.125 -68.172   3.824  1.00  0.00    -0.000 C 
BRANCH  22  23
ATOM     23  C   UNL     1     101.082 -68.920   4.676  1.00  0.00    -0.000 C 
BRANCH  23  24
ATOM     24  C   UNL     1     101.649 -70.038   5.574  1.00  0.00    -0.000 C 
BRANCH  24  25
ATOM     25  C   UNL     1     102.112 -69.587   6.972  1.00  0.00    -0.000 C 
BRANCH  25  26
ATOM     26  C   UNL     1     101.597 -68.189   7.350  1.00  0.00    -0.000 C 
BRANCH  26  27
ATOM     27  C   UNL     1     101.070 -68.118   8.793  1.00  0.00    -0.000 C 
BRANCH  27  28
ATOM     28  C   UNL     1     100.397 -66.775   9.142  1.00  0.00    -0.000 C 
BRANCH  28  29
ATOM     29  C   UNL     1     100.988 -66.143  10.411  1.00  0.00    -0.003 C 
ATOM     30  C   UNL     1      99.889 -65.713  11.377  1.00  0.00     0.004 C 
ENDBRANCH  28  29
ENDBRANCH  27  28
ENDBRANCH  26  27
ENDBRANCH  25  26
ENDBRANCH  24  25
ENDBRANCH  23  24
ENDBRANCH  22  23
ENDBRANCH  21  22
ENDBRANCH  20  21
ENDBRANCH  19  20
ENDBRANCH  18  19
ENDBRANCH  17  18
ENDBRANCH   1  17
TORSDOF 26
ENDMDL
MODEL 6
REMARK VINA RESULT:    -2.523      1.595      2.874
REMARK INTER + INTRA:         -10.426
REMARK INTER:                  -7.480
REMARK INTRA:                  -2.946
REMARK UNBOUND:                -4.067
REMARK SMILES CCCCCCCCCCCCCCCCCCCCCCCCCCCC(=O)[O-]
REMARK SMILES IDX 15 1 16 2 17 3 18 4 19 5 20 6 21 7 22 8 23 9 24 10 25 11
REMARK SMILES IDX 26 12 27 13 28 14 29 15 30 16 14 17 13 18 12 19 11 20 10 21
REMARK SMILES IDX 9 22 8 23 7 24 6 25 5 26 4 27 3 28 2 29 1 30
REMARK H PARENT
REMARK Flexibility Score: inf
ROOT
ATOM      1  C   UNL     1      98.237 -68.162   3.391  1.00  0.00     0.000 C 
ENDROOT
BRANCH   1   2
ATOM      2  C   UNL     1      98.914 -68.726   2.132  1.00  0.00     0.000 C 
BRANCH   2   3
ATOM      3  C   UNL     1      99.153 -67.619   1.095  1.00  0.00     0.000 C 
BRANCH   3   4
ATOM      4  C   UNL     1     100.620 -67.544   0.642  1.00  0.00     0.000 C 
BRANCH   4   5
ATOM      5  C   UNL     1     101.316 -66.251   1.103  1.00  0.00     0.000 C 
BRANCH   5   6
ATOM      6  C   UNL     1     101.559 -65.268  -0.054  1.00  0.00     0.000 C 
BRANCH   6   7
ATOM      7  C   UNL     1     102.123 -65.962  -1.306  1.00  0.00     0.000 C 
BRANCH   7   8
ATOM      8  C   UNL     1     101.701 -65.262  -2.608  1.00  0.00     0.000 C 
BRANCH   8   9
ATOM      9  C   UNL     1     101.877 -66.159  -3.846  1.00  0.00     0.000 C 
BRANCH   9  10
ATOM     10  C   UNL     1     101.791 -67.657  -3.509  1.00  0.00     0.000 C 
BRANCH  10  11
ATOM     11  C   UNL     1     100.359 -68.208  -3.626  1.00  0.00     0.000 C 
BRANCH  11  12
ATOM     12  C   UNL     1      99.548 -67.506  -4.735  1.00  0.00     0.006 C 
BRANCH  12  13
ATOM     13  C   UNL     1      98.058 -67.339  -4.395  1.00  0.00     0.053 C 
BRANCH  13  14
ATOM     14  C   UNL     1      97.843 -66.507  -3.171  1.00  0.00     0.041 C 
ATOM     15  O   UNL     1      97.260 -66.995  -2.166  1.00  0.00    -0.550 OA
ATOM     16  O   UNL     1      98.272 -65.187  -3.143  1.00  0.00    -0.550 OA
ENDBRANCH  13  14
ENDBRANCH  12  13
ENDBRANCH  11  12
ENDBRANCH  10  11
ENDBRANCH   9  10
ENDBRANCH   8   9
ENDBRANCH   7   8
ENDBRANCH   6   7
ENDBRANCH   5   6
ENDBRANCH   4   5
ENDBRANCH   3   4
ENDBRANCH   2   3
ENDBRANCH   1   2
BRANCH   1  17
ATOM     17  C   UNL     1      97.881 -66.671   3.261  1.00  0.00     0.000 C 
BRANCH  17  18
ATOM     18  C   UNL     1      98.581 -65.742   4.275  1.00  0.00     0.000 C 
BRANCH  18  19
ATOM     19  C   UNL     1     100.089 -66.001   4.463  1.00  0.00     0.000 C 
BRANCH  19  20
ATOM     20  C   UNL     1     100.443 -66.944   5.631  1.00  0.00     0.000 C 
BRANCH  20  21
ATOM     21  C   UNL     1     101.896 -66.838   6.135  1.00  0.00     0.000 C 
BRANCH  21  22
ATOM     22  C   UNL     1     102.115 -65.833   7.284  1.00  0.00    -0.000 C 
BRANCH  22  23
ATOM     23  C   UNL     1     100.932 -64.880   7.545  1.00  0.00    -0.000 C 
BRANCH  23  24
ATOM     24  C   UNL     1     100.255 -65.037   8.921  1.00  0.00    -0.000 C 
BRANCH  24  25
ATOM     25  C   UNL     1     101.199 -64.923  10.134  1.00  0.00    -0.000 C 
BRANCH  25  26
ATOM     26  C   UNL     1     100.608 -65.541  11.411  1.00  0.00    -0.000 C 
BRANCH  26  27
ATOM     27  C   UNL     1     101.155 -66.949  11.699  1.00  0.00    -0.000 C 
BRANCH  27  28
ATOM     28  C   UNL     1     100.312 -68.080  11.072  1.00  0.00    -0.000 C 
BRANCH  28  29
ATOM     29  C   UNL     1     101.149 -68.984  10.155  1.00  0.00    -0.003 C 
ATOM     30  C   UNL     1     100.632 -68.943   8.720  1.00  0.00     0.004 C 
ENDBRANCH  28  29
ENDBRANCH  27  28
ENDBRANCH  26  27
ENDBRANCH  25  26
ENDBRANCH  24  25
ENDBRANCH  23  24
ENDBRANCH  22  23
ENDBRANCH  21  22
ENDBRANCH  20  21
ENDBRANCH  19  20
ENDBRANCH  18  19
ENDBRANCH  17  18
ENDBRANCH   1  17
TORSDOF 26
ENDMDL
MODEL 7
REMARK VINA RESULT:    -2.482      1.583      3.304
REMARK INTER + INTRA:         -10.322
REMARK INTER:                  -7.255
REMARK INTRA:                  -3.067
REMARK UNBOUND:                -4.067
REMARK SMILES CCCCCCCCCCCCCCCCCCCCCCCCCCCC(=O)[O-]
REMARK SMILES IDX 15 1 16 2 17 3 18 4 19 5 20 6 21 7 22 8 23 9 24 10 25 11
REMARK SMILES IDX 26 12 27 13 28 14 29 15 30 16 14 17 13 18 12 19 11 20 10 21
REMARK SMILES IDX 9 22 8 23 7 24 6 25 5 26 4 27 3 28 2 29 1 30
REMARK H PARENT
REMARK Flexibility Score: inf
ROOT
ATOM      1  C   UNL     1      99.144 -67.958   4.146  1.00  0.00     0.000 C 
ENDROOT
BRANCH   1   2
ATOM      2  C   UNL     1      99.704 -67.193   2.937  1.00  0.00     0.000 C 
BRANCH   2   3
ATOM      3  C   UNL     1      98.743 -66.080   2.498  1.00  0.00     0.000 C 
BRANCH   3   4
ATOM      4  C   UNL     1      99.448 -64.977   1.691  1.00  0.00     0.000 C 
BRANCH   4   5
ATOM      5  C   UNL     1     100.979 -65.019   1.844  1.00  0.00     0.000 C 
BRANCH   5   6
ATOM      6  C   UNL     1     101.708 -64.974   0.492  1.00  0.00     0.000 C 
BRANCH   6   7
ATOM      7  C   UNL     1     100.816 -65.439  -0.673  1.00  0.00     0.000 C 
BRANCH   7   8
ATOM      8  C   UNL     1     101.563 -65.464  -2.015  1.00  0.00     0.000 C 
BRANCH   8   9
ATOM      9  C   UNL     1     100.616 -65.618  -3.217  1.00  0.00     0.000 C 
BRANCH   9  10
ATOM     10  C   UNL     1      99.138 -65.429  -2.836  1.00  0.00     0.000 C 
BRANCH  10  11
ATOM     11  C   UNL     1      98.280 -66.663  -3.165  1.00  0.00     0.000 C 
BRANCH  11  12
ATOM     12  C   UNL     1      98.799 -67.942  -2.476  1.00  0.00     0.006 C 
BRANCH  12  13
ATOM     13  C   UNL     1      98.205 -68.170  -1.076  1.00  0.00     0.053 C 
BRANCH  13  14
ATOM     14  C   UNL     1      99.053 -69.075  -0.239  1.00  0.00     0.041 C 
ATOM     15  O   UNL     1      98.570 -70.140   0.232  1.00  0.00    -0.550 OA
ATOM     16  O   UNL     1     100.371 -68.737   0.035  1.00  0.00    -0.550 OA
ENDBRANCH  13  14
ENDBRANCH  12  13
ENDBRANCH  11  12
ENDBRANCH  10  11
ENDBRANCH   9  10
ENDBRANCH   8   9
ENDBRANCH   7   8
ENDBRANCH   6   7
ENDBRANCH   5   6
ENDBRANCH   4   5
ENDBRANCH   3   4
ENDBRANCH   2   3
ENDBRANCH   1   2
BRANCH   1  17
ATOM     17  C   UNL     1      99.895 -69.273   4.421  1.00  0.00     0.000 C 
BRANCH  17  18
ATOM     18  C   UNL     1      99.651 -69.886   5.815  1.00  0.00     0.000 C 
BRANCH  18  19
ATOM     19  C   UNL     1     100.899 -70.484   6.492  1.00  0.00     0.000 C 
BRANCH  19  20
ATOM     20  C   UNL     1     102.125 -69.549   6.536  1.00  0.00     0.000 C 
BRANCH  20  21
ATOM     21  C   UNL     1     102.117 -68.519   7.683  1.00  0.00     0.000 C 
BRANCH  21  22
ATOM     22  C   UNL     1     100.843 -68.523   8.552  1.00  0.00    -0.000 C 
BRANCH  22  23
ATOM     23  C   UNL     1     101.092 -68.387  10.067  1.00  0.00    -0.000 C 
BRANCH  23  24
ATOM     24  C   UNL     1      99.882 -67.900  10.889  1.00  0.00    -0.000 C 
BRANCH  24  25
ATOM     25  C   UNL     1     100.046 -66.514  11.541  1.00  0.00    -0.000 C 
BRANCH  25  26
ATOM     26  C   UNL     1     100.176 -65.380  10.512  1.00  0.00    -0.000 C 
BRANCH  26  27
ATOM     27  C   UNL     1     101.631 -65.137  10.075  1.00  0.00    -0.000 C 
BRANCH  27  28
ATOM     28  C   UNL     1     101.788 -64.883   8.561  1.00  0.00    -0.000 C 
BRANCH  28  29
ATOM     29  C   UNL     1     100.455 -65.016   7.810  1.00  0.00    -0.003 C 
ATOM     30  C   UNL     1     100.677 -65.420   6.356  1.00  0.00     0.004 C 
ENDBRANCH  28  29
ENDBRANCH  27  28
ENDBRANCH  26  27
ENDBRANCH  25  26
ENDBRANCH  24  25
ENDBRANCH  23  24
ENDBRANCH  22  23
ENDBRANCH  21  22
ENDBRANCH  20  21
ENDBRANCH  19  20
ENDBRANCH  18  19
ENDBRANCH  17  18
ENDBRANCH   1  17
TORSDOF 26
ENDMDL
MODEL 8
REMARK VINA RESULT:    -2.306      1.726      2.013
REMARK INTER + INTRA:          -9.878
REMARK INTER:                  -7.268
REMARK INTRA:                  -2.610
REMARK UNBOUND:                -4.067
REMARK SMILES CCCCCCCCCCCCCCCCCCCCCCCCCCCC(=O)[O-]
REMARK SMILES IDX 15 1 16 2 17 3 18 4 19 5 20 6 21 7 22 8 23 9 24 10 25 11
REMARK SMILES IDX 26 12 27 13 28 14 29 15 30 16 14 17 13 18 12 19 11 20 10 21
REMARK SMILES IDX 9 22 8 23 7 24 6 25 5 26 4 27 3 28 2 29 1 30
REMARK H PARENT
REMARK Flexibility Score: inf
ROOT
ATOM      1  C   UNL     1      98.063 -68.276   3.154  1.00  0.00     0.000 C 
ENDROOT
BRANCH   1   2
ATOM      2  C   UNL     1      98.730 -69.111   2.050  1.00  0.00     0.000 C 
BRANCH   2   3
ATOM      3  C   UNL     1      98.347 -68.589   0.658  1.00  0.00     0.000 C 
BRANCH   3   4
ATOM      4  C   UNL     1      99.575 -68.285  -0.216  1.00  0.00     0.000 C 
BRANCH   4   5
ATOM      5  C   UNL     1     100.763 -67.745   0.600  1.00  0.00     0.000 C 
BRANCH   5   6
ATOM      6  C   UNL     1     102.020 -67.535  -0.258  1.00  0.00     0.000 C 
BRANCH   6   7
ATOM      7  C   UNL     1     101.806 -67.947  -1.726  1.00  0.00     0.000 C 
BRANCH   7   8
ATOM      8  C   UNL     1     102.125 -66.812  -2.710  1.00  0.00     0.000 C 
BRANCH   8   9
ATOM      9  C   UNL     1     101.481 -67.027  -4.091  1.00  0.00     0.000 C 
BRANCH   9  10
ATOM     10  C   UNL     1     100.418 -68.138  -4.082  1.00  0.00     0.000 C 
BRANCH  10  11
ATOM     11  C   UNL     1      99.064 -67.665  -4.639  1.00  0.00     0.000 C 
BRANCH  11  12
ATOM     12  C   UNL     1      98.819 -66.161  -4.392  1.00  0.00     0.006 C 
BRANCH  12  13
ATOM     13  C   UNL     1      97.653 -65.878  -3.431  1.00  0.00     0.053 C 
BRANCH  13  14
ATOM     14  C   UNL     1      98.122 -65.481  -2.067  1.00  0.00     0.041 C 
ATOM     15  O   UNL     1      99.300 -65.066  -1.898  1.00  0.00    -0.550 OA
ATOM     16  O   UNL     1      97.265 -65.582  -0.980  1.00  0.00    -0.550 OA
ENDBRANCH  13  14
ENDBRANCH  12  13
ENDBRANCH  11  12
ENDBRANCH  10  11
ENDBRANCH   9  10
ENDBRANCH   8   9
ENDBRANCH   7   8
ENDBRANCH   6   7
ENDBRANCH   5   6
ENDBRANCH   4   5
ENDBRANCH   3   4
ENDBRANCH   2   3
ENDBRANCH   1   2
BRANCH   1  17
ATOM     17  C   UNL     1      97.764 -66.833   2.713  1.00  0.00     0.000 C 
BRANCH  17  18
ATOM     18  C   UNL     1      97.985 -65.759   3.799  1.00  0.00     0.000 C 
BRANCH  18  19
ATOM     19  C   UNL     1      99.402 -65.727   4.404  1.00  0.00     0.000 C 
BRANCH  19  20
ATOM     20  C   UNL     1     100.549 -65.729   3.372  1.00  0.00     0.000 C 
BRANCH  20  21
ATOM     21  C   UNL     1     101.946 -66.021   3.952  1.00  0.00     0.000 C 
BRANCH  21  22
ATOM     22  C   UNL     1     102.125 -67.436   4.539  1.00  0.00    -0.000 C 
BRANCH  22  23
ATOM     23  C   UNL     1     100.818 -68.122   4.983  1.00  0.00    -0.000 C 
BRANCH  23  24
ATOM     24  C   UNL     1     101.001 -69.345   5.904  1.00  0.00    -0.000 C 
BRANCH  24  25
ATOM     25  C   UNL     1     101.889 -69.109   7.141  1.00  0.00    -0.000 C 
BRANCH  25  26
ATOM     26  C   UNL     1     101.320 -68.042   8.090  1.00  0.00    -0.000 C 
BRANCH  26  27
ATOM     27  C   UNL     1     100.577 -68.649   9.292  1.00  0.00    -0.000 C 
BRANCH  27  28
ATOM     28  C   UNL     1     101.514 -69.175  10.398  1.00  0.00    -0.000 C 
BRANCH  28  29
ATOM     29  C   UNL     1     101.257 -68.491  11.749  1.00  0.00    -0.003 C 
ATOM     30  C   UNL     1     100.461 -67.202  11.572  1.00  0.00     0.004 C 
ENDBRANCH  28  29
ENDBRANCH  27  28
ENDBRANCH  26  27
ENDBRANCH  25  26
ENDBRANCH  24  25
ENDBRANCH  23  24
ENDBRANCH  22  23
ENDBRANCH  21  22
ENDBRANCH  20  21
ENDBRANCH  19  20
ENDBRANCH  18  19
ENDBRANCH  17  18
ENDBRANCH   1  17
TORSDOF 26
ENDMDL
MODEL 9
REMARK VINA RESULT:    -2.265      1.683      2.833
REMARK INTER + INTRA:          -9.774
REMARK INTER:                  -7.839
REMARK INTRA:                  -1.934
REMARK UNBOUND:                -4.067
REMARK SMILES CCCCCCCCCCCCCCCCCCCCCCCCCCCC(=O)[O-]
REMARK SMILES IDX 15 1 16 2 17 3 18 4 19 5 20 6 21 7 22 8 23 9 24 10 25 11
REMARK SMILES IDX 26 12 27 13 28 14 29 15 30 16 14 17 13 18 12 19 11 20 10 21
REMARK SMILES IDX 9 22 8 23 7 24 6 25 5 26 4 27 3 28 2 29 1 30
REMARK H PARENT
REMARK Flexibility Score: inf
ROOT
ATOM      1  C   UNL     1      97.308 -66.654   3.969  1.00  0.00     0.000 C 
ENDROOT
BRANCH   1   2
ATOM      2  C   UNL     1      96.934 -66.243   2.537  1.00  0.00     0.000 C 
BRANCH   2   3
ATOM      3  C   UNL     1      98.055 -65.416   1.892  1.00  0.00     0.000 C 
BRANCH   3   4
ATOM      4  C   UNL     1      98.554 -66.028   0.573  1.00  0.00     0.000 C 
BRANCH   4   5
ATOM      5  C   UNL     1      99.498 -67.223   0.795  1.00  0.00     0.000 C 
BRANCH   5   6
ATOM      6  C   UNL     1      99.188 -68.400  -0.142  1.00  0.00     0.000 C 
BRANCH   6   7
ATOM      7  C   UNL     1      99.704 -68.165  -1.573  1.00  0.00     0.000 C 
BRANCH   7   8
ATOM      8  C   UNL     1     101.213 -67.881  -1.617  1.00  0.00     0.000 C 
BRANCH   8   9
ATOM      9  C   UNL     1     101.691 -67.432  -3.009  1.00  0.00     0.000 C 
BRANCH   9  10
ATOM     10  C   UNL     1     100.552 -67.392  -4.042  1.00  0.00     0.000 C 
BRANCH  10  11
ATOM     11  C   UNL     1     100.658 -66.187  -4.993  1.00  0.00     0.000 C 
BRANCH  11  12
ATOM     12  C   UNL     1      99.375 -65.331  -5.004  1.00  0.00     0.006 C 
BRANCH  12  13
ATOM     13  C   UNL     1      98.571 -65.412  -3.696  1.00  0.00     0.053 C 
BRANCH  13  14
ATOM     14  C   UNL     1      97.198 -65.968  -3.905  1.00  0.00     0.041 C 
ATOM     15  O   UNL     1      96.353 -65.330  -4.590  1.00  0.00    -0.550 OA
ATOM     16  O   UNL     1      96.843 -67.181  -3.332  1.00  0.00    -0.550 OA
ENDBRANCH  13  14
ENDBRANCH  12  13
ENDBRANCH  11  12
ENDBRANCH  10  11
ENDBRANCH   9  10
ENDBRANCH   8   9
ENDBRANCH   7   8
ENDBRANCH   6   7
ENDBRANCH   5   6
ENDBRANCH   4   5
ENDBRANCH   3   4
ENDBRANCH   2   3
ENDBRANCH   1   2
BRANCH   1  17
ATOM     17  C   UNL     1      98.050 -68.000   4.030  1.00  0.00     0.000 C 
BRANCH  17  18
ATOM     18  C   UNL     1      99.460 -67.941   4.653  1.00  0.00     0.000 C 
BRANCH  18  19
ATOM     19  C   UNL     1     100.549 -68.706   3.875  1.00  0.00     0.000 C 
BRANCH  19  20
ATOM     20  C   UNL     1     101.705 -67.832   3.347  1.00  0.00     0.000 C 
BRANCH  20  21
ATOM     21  C   UNL     1     102.072 -66.631   4.241  1.00  0.00     0.000 C 
BRANCH  21  22
ATOM     22  C   UNL     1     100.993 -65.533   4.331  1.00  0.00    -0.000 C 
BRANCH  22  23
ATOM     23  C   UNL     1     100.853 -64.875   5.718  1.00  0.00    -0.000 C 
BRANCH  23  24
ATOM     24  C   UNL     1     101.968 -65.224   6.724  1.00  0.00    -0.000 C 
BRANCH  24  25
ATOM     25  C   UNL     1     101.860 -66.620   7.366  1.00  0.00    -0.000 C 
BRANCH  25  26
ATOM     26  C   UNL     1     100.715 -66.722   8.386  1.00  0.00    -0.000 C 
BRANCH  26  27
ATOM     27  C   UNL     1     100.944 -65.843   9.628  1.00  0.00    -0.000 C 
BRANCH  27  28
ATOM     28  C   UNL     1      99.903 -66.066  10.745  1.00  0.00    -0.000 C 
BRANCH  28  29
ATOM     29  C   UNL     1     100.284 -67.234  11.667  1.00  0.00    -0.003 C 
ATOM     30  C   UNL     1     100.319 -68.553  10.901  1.00  0.00     0.004 C 
ENDBRANCH  28  29
ENDBRANCH  27  28
ENDBRANCH  26  27
ENDBRANCH  25  26
ENDBRANCH  24  25
ENDBRANCH  23  24
ENDBRANCH  22  23
ENDBRANCH  21  22
ENDBRANCH  20  21
ENDBRANCH  19  20
ENDBRANCH  18  19
ENDBRANCH  17  18
ENDBRANCH   1  17
TORSDOF 26
ENDMDL
