MODEL 1
REMARK VINA RESULT:    -3.927      0.000      0.000
REMARK INTER + INTRA:          -5.964
REMARK INTER:                  -5.305
REMARK INTRA:                  -0.659
REMARK UNBOUND:                -0.659
REMARK SMILES CCCCCCC=CC(=O)[O-]
REMARK SMILES IDX 5 1 6 2 7 3 8 4 9 5 10 6 11 7 4 8 3 9 2 10 1 11
REMARK H PARENT
REMARK Flexibility Score: inf
ROOT
ATOM      1  C   UNL     1      -7.198   3.912   1.311  1.00  0.00     0.004 C 
ENDROOT
BRANCH   1   2
ATOM      2  C   UNL     1      -7.605   4.651   0.029  1.00  0.00     0.027 C 
BRANCH   2   3
ATOM      3  C   UNL     1      -9.091   4.903  -0.029  1.00  0.00    -0.025 C 
ATOM      4  C   UNL     1      -9.924   4.615  -1.044  1.00  0.00     0.020 C 
BRANCH   4   5
ATOM      5  C   UNL     1      -9.586   3.969  -2.330  1.00  0.00     0.064 C 
ATOM      6  O   UNL     1      -9.359   2.736  -2.426  1.00  0.00    -0.545 OA
ATOM      7  O   UNL     1      -9.513   4.755  -3.473  1.00  0.00    -0.545 OA
ENDBRANCH   4   5
ENDBRANCH   2   3
ENDBRANCH   1   2
BRANCH   1   8
ATOM      8  C   UNL     1      -8.196   2.813   1.703  1.00  0.00     0.000 C 
BRANCH   8   9
ATOM      9  C   UNL     1      -8.548   2.896   3.195  1.00  0.00    -0.000 C 
BRANCH   9  10
ATOM     10  C   UNL     1      -8.639   4.345   3.698  1.00  0.00    -0.003 C 
ATOM     11  C   UNL     1     -10.041   4.937   3.547  1.00  0.00     0.004 C 
ENDBRANCH   9  10
ENDBRANCH   8   9
ENDBRANCH   1   8
TORSDOF 6
ENDMDL
MODEL 2
REMARK VINA RESULT:    -3.827      1.359      2.046
REMARK INTER + INTRA:          -5.828
REMARK INTER:                  -5.433
REMARK INTRA:                  -0.395
REMARK UNBOUND:                -0.659
REMARK SMILES CCCCCCC=CC(=O)[O-]
REMARK SMILES IDX 5 1 6 2 7 3 8 4 9 5 10 6 11 7 4 8 3 9 2 10 1 11
REMARK H PARENT
REMARK Flexibility Score: inf
ROOT
ATOM      1  C   UNL     1      -7.619   4.560  -0.036  1.00  0.00     0.004 C 
ENDROOT
BRANCH   1   2
ATOM      2  C   UNL     1      -8.995   4.145  -0.573  1.00  0.00     0.027 C 
BRANCH   2   3
ATOM      3  C   UNL     1      -9.172   4.523  -2.023  1.00  0.00    -0.025 C 
ATOM      4  C   UNL     1      -9.757   3.791  -2.987  1.00  0.00     0.020 C 
BRANCH   4   5
ATOM      5  C   UNL     1     -10.381   2.457  -2.850  1.00  0.00     0.064 C 
ATOM      6  O   UNL     1     -11.626   2.299  -2.787  1.00  0.00    -0.545 OA
ATOM      7  O   UNL     1      -9.559   1.340  -2.787  1.00  0.00    -0.545 OA
ENDBRANCH   4   5
ENDBRANCH   2   3
ENDBRANCH   1   2
BRANCH   1   8
ATOM      8  C   UNL     1      -7.307   3.943   1.335  1.00  0.00     0.000 C 
BRANCH   8   9
ATOM      9  C   UNL     1      -8.248   2.767   1.635  1.00  0.00    -0.000 C 
BRANCH   9  10
ATOM     10  C   UNL     1      -8.782   2.793   3.075  1.00  0.00    -0.003 C 
ATOM     11  C   UNL     1      -8.270   3.991   3.876  1.00  0.00     0.004 C 
ENDBRANCH   9  10
ENDBRANCH   8   9
ENDBRANCH   1   8
TORSDOF 6
ENDMDL
MODEL 3
REMARK VINA RESULT:    -3.787      1.511      2.483
REMARK INTER + INTRA:          -5.774
REMARK INTER:                  -5.168
REMARK INTRA:                  -0.606
REMARK UNBOUND:                -0.659
REMARK SMILES CCCCCCC=CC(=O)[O-]
REMARK SMILES IDX 5 1 6 2 7 3 8 4 9 5 10 6 11 7 4 8 3 9 2 10 1 11
REMARK H PARENT
REMARK Flexibility Score: inf
ROOT
ATOM      1  C   UNL     1      -8.782   5.092  -0.374  1.00  0.00     0.004 C 
ENDROOT
BRANCH   1   2
ATOM      2  C   UNL     1      -9.602   4.413  -1.480  1.00  0.00     0.027 C 
BRANCH   2   3
ATOM      3  C   UNL     1     -10.547   3.376  -0.925  1.00  0.00    -0.025 C 
ATOM      4  C   UNL     1     -10.958   2.247  -1.529  1.00  0.00     0.020 C 
BRANCH   4   5
ATOM      5  C   UNL     1     -10.566   1.746  -2.863  1.00  0.00     0.064 C 
ATOM      6  O   UNL     1      -9.613   0.943  -3.029  1.00  0.00    -0.545 OA
ATOM      7  O   UNL     1     -11.276   2.182  -3.974  1.00  0.00    -0.545 OA
ENDBRANCH   4   5
ENDBRANCH   2   3
ENDBRANCH   1   2
BRANCH   1   8
ATOM      8  C   UNL     1      -7.463   4.363  -0.082  1.00  0.00     0.000 C 
BRANCH   8   9
ATOM      9  C   UNL     1      -7.355   3.997   1.405  1.00  0.00    -0.000 C 
BRANCH   9  10
ATOM     10  C   UNL     1      -8.209   2.775   1.775  1.00  0.00    -0.003 C 
ATOM     11  C   UNL     1      -9.292   3.099   2.805  1.00  0.00     0.004 C 
ENDBRANCH   9  10
ENDBRANCH   8   9
ENDBRANCH   1   8
TORSDOF 6
ENDMDL
MODEL 4
REMARK VINA RESULT:    -3.697      2.168      3.589
REMARK INTER + INTRA:          -5.653
REMARK INTER:                  -4.860
REMARK INTRA:                  -0.793
REMARK UNBOUND:                -0.659
REMARK SMILES CCCCCCC=CC(=O)[O-]
REMARK SMILES IDX 5 1 6 2 7 3 8 4 9 5 10 6 11 7 4 8 3 9 2 10 1 11
REMARK H PARENT
REMARK Flexibility Score: inf
ROOT
ATOM      1  C   UNL     1     -10.660   2.817   0.219  1.00  0.00     0.004 C 
ENDROOT
BRANCH   1   2
ATOM      2  C   UNL     1     -11.461   2.006  -0.808  1.00  0.00     0.027 C 
BRANCH   2   3
ATOM      3  C   UNL     1     -10.589   1.496  -1.928  1.00  0.00    -0.025 C 
ATOM      4  C   UNL     1     -10.316   2.115  -3.090  1.00  0.00     0.020 C 
BRANCH   4   5
ATOM      5  C   UNL     1     -10.788   3.444  -3.534  1.00  0.00     0.064 C 
ATOM      6  O   UNL     1     -11.979   3.658  -3.873  1.00  0.00    -0.545 OA
ATOM      7  O   UNL     1      -9.879   4.493  -3.580  1.00  0.00    -0.545 OA
ENDBRANCH   4   5
ENDBRANCH   2   3
ENDBRANCH   1   2
BRANCH   1   8
ATOM      8  C   UNL     1     -10.882   4.330   0.082  1.00  0.00     0.000 C 
BRANCH   8   9
ATOM      9  C   UNL     1      -9.551   5.065  -0.129  1.00  0.00    -0.000 C 
BRANCH   9  10
ATOM     10  C   UNL     1      -8.386   4.103  -0.409  1.00  0.00    -0.003 C 
ATOM     11  C   UNL     1      -7.196   4.326   0.526  1.00  0.00     0.004 C 
ENDBRANCH   9  10
ENDBRANCH   8   9
ENDBRANCH   1   8
TORSDOF 6
ENDMDL
MODEL 5
REMARK VINA RESULT:    -3.603      1.267      2.307
REMARK INTER + INTRA:          -5.526
REMARK INTER:                  -5.007
REMARK INTRA:                  -0.519
REMARK UNBOUND:                -0.659
REMARK SMILES CCCCCCC=CC(=O)[O-]
REMARK SMILES IDX 5 1 6 2 7 3 8 4 9 5 10 6 11 7 4 8 3 9 2 10 1 11
REMARK H PARENT
REMARK Flexibility Score: inf
ROOT
ATOM      1  C   UNL     1     -10.907   2.751   0.531  1.00  0.00     0.004 C 
ENDROOT
BRANCH   1   2
ATOM      2  C   UNL     1     -11.245   4.072  -0.173  1.00  0.00     0.027 C 
BRANCH   2   3
ATOM      3  C   UNL     1     -10.013   4.904  -0.432  1.00  0.00    -0.025 C 
ATOM      4  C   UNL     1      -9.244   4.892  -1.534  1.00  0.00     0.020 C 
BRANCH   4   5
ATOM      5  C   UNL     1      -9.432   4.080  -2.755  1.00  0.00     0.064 C 
ATOM      6  O   UNL     1      -9.270   2.833  -2.768  1.00  0.00    -0.545 OA
ATOM      7  O   UNL     1      -9.798   4.720  -3.932  1.00  0.00    -0.545 OA
ENDBRANCH   4   5
ENDBRANCH   2   3
ENDBRANCH   1   2
BRANCH   1   8
ATOM      8  C   UNL     1     -10.150   2.960   1.850  1.00  0.00     0.000 C 
BRANCH   8   9
ATOM      9  C   UNL     1      -8.651   2.679   1.674  1.00  0.00    -0.000 C 
BRANCH   9  10
ATOM     10  C   UNL     1      -7.771   3.822   2.203  1.00  0.00    -0.003 C 
ATOM     11  C   UNL     1      -6.668   4.223   1.223  1.00  0.00     0.004 C 
ENDBRANCH   9  10
ENDBRANCH   8   9
ENDBRANCH   1   8
TORSDOF 6
ENDMDL
MODEL 6
REMARK VINA RESULT:    -3.593      2.635      4.751
REMARK INTER + INTRA:          -5.513
REMARK INTER:                  -4.860
REMARK INTRA:                  -0.653
REMARK UNBOUND:                -0.659
REMARK SMILES CCCCCCC=CC(=O)[O-]
REMARK SMILES IDX 5 1 6 2 7 3 8 4 9 5 10 6 11 7 4 8 3 9 2 10 1 11
REMARK H PARENT
REMARK Flexibility Score: inf
ROOT
ATOM      1  C   UNL     1      -9.610   4.246  -3.108  1.00  0.00     0.004 C 
ENDROOT
BRANCH   1   2
ATOM      2  C   UNL     1      -8.742   4.072  -1.854  1.00  0.00     0.027 C 
BRANCH   2   3
ATOM      3  C   UNL     1      -9.311   4.810  -0.668  1.00  0.00    -0.025 C 
ATOM      4  C   UNL     1      -8.951   4.674   0.620  1.00  0.00     0.020 C 
BRANCH   4   5
ATOM      5  C   UNL     1      -7.905   3.789   1.174  1.00  0.00     0.064 C 
ATOM      6  O   UNL     1      -8.175   2.710   1.759  1.00  0.00    -0.545 OA
ATOM      7  O   UNL     1      -6.575   4.168   1.046  1.00  0.00    -0.545 OA
ENDBRANCH   4   5
ENDBRANCH   2   3
ENDBRANCH   1   2
BRANCH   1   8
ATOM      8  C   UNL     1     -10.762   3.234  -3.175  1.00  0.00     0.000 C 
BRANCH   8   9
ATOM      9  C   UNL     1     -10.266   1.814  -2.866  1.00  0.00    -0.000 C 
BRANCH   9  10
ATOM     10  C   UNL     1     -11.216   1.048  -1.934  1.00  0.00    -0.003 C 
ATOM     11  C   UNL     1     -11.462   1.774  -0.611  1.00  0.00     0.004 C 
ENDBRANCH   9  10
ENDBRANCH   8   9
ENDBRANCH   1   8
TORSDOF 6
ENDMDL
MODEL 7
REMARK VINA RESULT:    -3.408     17.574     18.746
REMARK INTER + INTRA:          -5.262
REMARK INTER:                  -4.613
REMARK INTRA:                  -0.649
REMARK UNBOUND:                -0.659
REMARK SMILES CCCCCCC=CC(=O)[O-]
REMARK SMILES IDX 5 1 6 2 7 3 8 4 9 5 10 6 11 7 4 8 3 9 2 10 1 11
REMARK H PARENT
REMARK Flexibility Score: inf
ROOT
ATOM      1  C   UNL     1       5.875  -7.618  -3.635  1.00  0.00     0.004 C 
ENDROOT
BRANCH   1   2
ATOM      2  C   UNL     1       7.225  -6.996  -4.020  1.00  0.00     0.027 C 
BRANCH   2   3
ATOM      3  C   UNL     1       8.000  -6.537  -2.810  1.00  0.00    -0.025 C 
ATOM      4  C   UNL     1       7.858  -5.374  -2.150  1.00  0.00     0.020 C 
BRANCH   4   5
ATOM      5  C   UNL     1       6.901  -4.285  -2.440  1.00  0.00     0.064 C 
ATOM      6  O   UNL     1       5.869  -4.093  -1.750  1.00  0.00    -0.545 OA
ATOM      7  O   UNL     1       7.153  -3.446  -3.518  1.00  0.00    -0.545 OA
ENDBRANCH   4   5
ENDBRANCH   2   3
ENDBRANCH   1   2
BRANCH   1   8
ATOM      8  C   UNL     1       5.972  -8.524  -2.399  1.00  0.00     0.000 C 
BRANCH   8   9
ATOM      9  C   UNL     1       4.790  -8.285  -1.449  1.00  0.00    -0.000 C 
BRANCH   9  10
ATOM     10  C   UNL     1       5.114  -7.259  -0.353  1.00  0.00    -0.003 C 
ATOM     11  C   UNL     1       3.885  -6.854   0.462  1.00  0.00     0.004 C 
ENDBRANCH   9  10
ENDBRANCH   8   9
ENDBRANCH   1   8
TORSDOF 6
ENDMDL
MODEL 8
REMARK VINA RESULT:    -3.398      2.902      5.184
REMARK INTER + INTRA:          -5.248
REMARK INTER:                  -4.885
REMARK INTRA:                  -0.364
REMARK UNBOUND:                -0.659
REMARK SMILES CCCCCCC=CC(=O)[O-]
REMARK SMILES IDX 5 1 6 2 7 3 8 4 9 5 10 6 11 7 4 8 3 9 2 10 1 11
REMARK H PARENT
REMARK Flexibility Score: inf
ROOT
ATOM      1  C   UNL     1      -9.451   3.985  -1.472  1.00  0.00     0.004 C 
ENDROOT
BRANCH   1   2
ATOM      2  C   UNL     1      -8.933   4.972  -0.416  1.00  0.00     0.027 C 
BRANCH   2   3
ATOM      3  C   UNL     1      -7.546   4.614   0.057  1.00  0.00    -0.025 C 
ATOM      4  C   UNL     1      -7.211   4.045   1.228  1.00  0.00     0.020 C 
BRANCH   4   5
ATOM      5  C   UNL     1      -8.119   3.619   2.315  1.00  0.00     0.064 C 
ATOM      6  O   UNL     1      -8.289   2.411   2.616  1.00  0.00    -0.545 OA
ATOM      7  O   UNL     1      -8.811   4.591   3.025  1.00  0.00    -0.545 OA
ENDBRANCH   4   5
ENDBRANCH   2   3
ENDBRANCH   1   2
BRANCH   1   8
ATOM      8  C   UNL     1      -9.839   2.627  -0.872  1.00  0.00     0.000 C 
BRANCH   8   9
ATOM      9  C   UNL     1     -10.885   1.919  -1.745  1.00  0.00    -0.000 C 
BRANCH   9  10
ATOM     10  C   UNL     1     -10.502   1.910  -3.233  1.00  0.00    -0.003 C 
ATOM     11  C   UNL     1     -11.573   1.271  -4.117  1.00  0.00     0.004 C 
ENDBRANCH   9  10
ENDBRANCH   8   9
ENDBRANCH   1   8
TORSDOF 6
ENDMDL
MODEL 9
REMARK VINA RESULT:    -3.328      2.424      4.823
REMARK INTER + INTRA:          -5.155
REMARK INTER:                  -4.344
REMARK INTRA:                  -0.811
REMARK UNBOUND:                -0.659
REMARK SMILES CCCCCCC=CC(=O)[O-]
REMARK SMILES IDX 5 1 6 2 7 3 8 4 9 5 10 6 11 7 4 8 3 9 2 10 1 11
REMARK H PARENT
REMARK Flexibility Score: inf
ROOT
ATOM      1  C   UNL     1     -11.919   2.511  -0.905  1.00  0.00     0.004 C 
ENDROOT
BRANCH   1   2
ATOM      2  C   UNL     1     -11.196   3.036   0.344  1.00  0.00     0.027 C 
BRANCH   2   3
ATOM      3  C   UNL     1     -10.861   4.503   0.225  1.00  0.00    -0.025 C 
ATOM      4  C   UNL     1      -9.641   5.064   0.292  1.00  0.00     0.020 C 
BRANCH   4   5
ATOM      5  C   UNL     1      -8.344   4.378   0.476  1.00  0.00     0.064 C 
ATOM      6  O   UNL     1      -7.855   4.153   1.611  1.00  0.00    -0.545 OA
ATOM      7  O   UNL     1      -7.639   3.972  -0.650  1.00  0.00    -0.545 OA
ENDBRANCH   4   5
ENDBRANCH   2   3
ENDBRANCH   1   2
BRANCH   1   8
ATOM      8  C   UNL     1     -11.149   1.382  -1.604  1.00  0.00     0.000 C 
BRANCH   8   9
ATOM      9  C   UNL     1     -10.109   1.948  -2.581  1.00  0.00    -0.000 C 
BRANCH   9  10
ATOM     10  C   UNL     1     -10.613   3.198  -3.318  1.00  0.00    -0.003 C 
ATOM     11  C   UNL     1      -9.521   4.250  -3.518  1.00  0.00     0.004 C 
ENDBRANCH   9  10
ENDBRANCH   8   9
ENDBRANCH   1   8
TORSDOF 6
ENDMDL
