MODEL 1
REMARK VINA RESULT:    -3.159      0.000      0.000
REMARK INTER + INTRA:         -11.860
REMARK INTER:                  -8.331
REMARK INTRA:                  -3.529
REMARK UNBOUND:                -3.529
REMARK SMILES CCCCCCCCCCCCCCCCCCCCCCCCCCCCCC(=O)[O-]
REMARK SMILES IDX 16 1 17 2 18 3 19 4 20 5 21 6 22 7 23 8 24 9 25 10 26 11
REMARK SMILES IDX 27 12 28 13 29 14 30 15 31 16 32 17 15 18 14 19 13 20 12 21
REMARK SMILES IDX 11 22 10 23 9 24 8 25 7 26 6 27 5 28 4 29 3 30 2 31 1 32
REMARK H PARENT
REMARK Flexibility Score: inf
ROOT
ATOM      1  C   UNL     1      31.132  46.836   8.863  1.00  0.00     0.000 C 
ENDROOT
BRANCH   1   2
ATOM      2  C   UNL     1      30.800  48.213   8.259  1.00  0.00     0.000 C 
BRANCH   2   3
ATOM      3  C   UNL     1      31.960  48.893   7.504  1.00  0.00     0.000 C 
BRANCH   3   4
ATOM      4  C   UNL     1      31.529  49.842   6.367  1.00  0.00     0.000 C 
BRANCH   4   5
ATOM      5  C   UNL     1      32.018  51.298   6.515  1.00  0.00     0.000 C 
BRANCH   5   6
ATOM      6  C   UNL     1      30.906  52.345   6.721  1.00  0.00     0.000 C 
BRANCH   6   7
ATOM      7  C   UNL     1      29.495  51.750   6.582  1.00  0.00     0.000 C 
BRANCH   7   8
ATOM      8  C   UNL     1      28.724  51.733   7.912  1.00  0.00     0.000 C 
BRANCH   8   9
ATOM      9  C   UNL     1      27.807  50.510   8.056  1.00  0.00     0.000 C 
BRANCH   9  10
ATOM     10  C   UNL     1      27.507  49.887   6.685  1.00  0.00     0.000 C 
BRANCH  10  11
ATOM     11  C   UNL     1      27.474  48.349   6.718  1.00  0.00     0.000 C 
BRANCH  11  12
ATOM     12  C   UNL     1      26.186  47.710   6.161  1.00  0.00     0.000 C 
BRANCH  12  13
ATOM     13  C   UNL     1      25.327  46.960   7.195  1.00  0.00     0.006 C 
BRANCH  13  14
ATOM     14  C   UNL     1      25.194  47.719   8.522  1.00  0.00     0.053 C 
BRANCH  14  15
ATOM     15  C   UNL     1      25.783  46.926   9.645  1.00  0.00     0.041 C 
ATOM     16  O   UNL     1      25.063  46.569  10.617  1.00  0.00    -0.550 OA
ATOM     17  O   UNL     1      27.133  46.595   9.632  1.00  0.00    -0.550 OA
ENDBRANCH  14  15
ENDBRANCH  13  14
ENDBRANCH  12  13
ENDBRANCH  11  12
ENDBRANCH  10  11
ENDBRANCH   9  10
ENDBRANCH   8   9
ENDBRANCH   7   8
ENDBRANCH   6   7
ENDBRANCH   5   6
ENDBRANCH   4   5
ENDBRANCH   3   4
ENDBRANCH   2   3
ENDBRANCH   1   2
BRANCH   1  18
ATOM     18  C   UNL     1      30.943  45.684   7.860  1.00  0.00     0.000 C 
BRANCH  18  19
ATOM     19  C   UNL     1      29.568  45.712   7.174  1.00  0.00     0.000 C 
BRANCH  19  20
ATOM     20  C   UNL     1      29.414  44.620   6.101  1.00  0.00     0.000 C 
BRANCH  20  21
ATOM     21  C   UNL     1      28.127  43.798   6.282  1.00  0.00     0.000 C 
BRANCH  21  22
ATOM     22  C   UNL     1      27.676  43.723   7.752  1.00  0.00     0.000 C 
BRANCH  22  23
ATOM     23  C   UNL     1      26.185  43.376   7.899  1.00  0.00     0.000 C 
BRANCH  23  24
ATOM     24  C   UNL     1      25.620  42.462   6.793  1.00  0.00    -0.000 C 
BRANCH  24  25
ATOM     25  C   UNL     1      25.065  41.108   7.281  1.00  0.00    -0.000 C 
BRANCH  25  26
ATOM     26  C   UNL     1      25.538  39.881   6.479  1.00  0.00    -0.000 C 
BRANCH  26  27
ATOM     27  C   UNL     1      26.194  38.808   7.363  1.00  0.00    -0.000 C 
BRANCH  27  28
ATOM     28  C   UNL     1      25.591  38.756   8.776  1.00  0.00    -0.000 C 
BRANCH  28  29
ATOM     29  C   UNL     1      25.291  37.320   9.244  1.00  0.00    -0.000 C 
BRANCH  29  30
ATOM     30  C   UNL     1      26.566  36.498   9.504  1.00  0.00    -0.000 C 
BRANCH  30  31
ATOM     31  C   UNL     1      26.809  35.353   8.505  1.00  0.00    -0.003 C 
ATOM     32  C   UNL     1      28.287  35.006   8.343  1.00  0.00     0.004 C 
ENDBRANCH  30  31
ENDBRANCH  29  30
ENDBRANCH  28  29
ENDBRANCH  27  28
ENDBRANCH  26  27
ENDBRANCH  25  26
ENDBRANCH  24  25
ENDBRANCH  23  24
ENDBRANCH  22  23
ENDBRANCH  21  22
ENDBRANCH  20  21
ENDBRANCH  19  20
ENDBRANCH  18  19
ENDBRANCH   1  18
TORSDOF 28
ENDMDL
MODEL 2
REMARK VINA RESULT:    -2.930      1.314      2.018
REMARK INTER + INTRA:         -11.256
REMARK INTER:                  -9.058
REMARK INTRA:                  -2.198
REMARK UNBOUND:                -3.529
REMARK SMILES CCCCCCCCCCCCCCCCCCCCCCCCCCCCCC(=O)[O-]
REMARK SMILES IDX 16 1 17 2 18 3 19 4 20 5 21 6 22 7 23 8 24 9 25 10 26 11
REMARK SMILES IDX 27 12 28 13 29 14 30 15 31 16 32 17 15 18 14 19 13 20 12 21
REMARK SMILES IDX 11 22 10 23 9 24 8 25 7 26 6 27 5 28 4 29 3 30 2 31 1 32
REMARK H PARENT
REMARK Flexibility Score: inf
ROOT
ATOM      1  C   UNL     1      31.441  46.657   8.960  1.00  0.00     0.000 C 
ENDROOT
BRANCH   1   2
ATOM      2  C   UNL     1      31.077  48.030   8.366  1.00  0.00     0.000 C 
BRANCH   2   3
ATOM      3  C   UNL     1      32.272  48.862   7.860  1.00  0.00     0.000 C 
BRANCH   3   4
ATOM      4  C   UNL     1      31.909  49.992   6.876  1.00  0.00     0.000 C 
BRANCH   4   5
ATOM      5  C   UNL     1      32.724  51.291   7.046  1.00  0.00     0.000 C 
BRANCH   5   6
ATOM      6  C   UNL     1      31.996  52.582   6.624  1.00  0.00     0.000 C 
BRANCH   6   7
ATOM      7  C   UNL     1      30.681  52.306   5.875  1.00  0.00     0.000 C 
BRANCH   7   8
ATOM      8  C   UNL     1      29.438  52.612   6.726  1.00  0.00     0.000 C 
BRANCH   8   9
ATOM      9  C   UNL     1      28.864  51.366   7.415  1.00  0.00     0.000 C 
BRANCH   9  10
ATOM     10  C   UNL     1      27.824  51.758   8.475  1.00  0.00     0.000 C 
BRANCH  10  11
ATOM     11  C   UNL     1      26.465  52.148   7.868  1.00  0.00     0.000 C 
BRANCH  11  12
ATOM     12  C   UNL     1      25.454  50.992   7.729  1.00  0.00     0.000 C 
BRANCH  12  13
ATOM     13  C   UNL     1      26.075  49.609   7.459  1.00  0.00     0.006 C 
BRANCH  13  14
ATOM     14  C   UNL     1      26.132  48.726   8.712  1.00  0.00     0.053 C 
BRANCH  14  15
ATOM     15  C   UNL     1      26.790  47.418   8.406  1.00  0.00     0.041 C 
ATOM     16  O   UNL     1      27.202  46.680   9.341  1.00  0.00    -0.550 OA
ATOM     17  O   UNL     1      26.967  47.019   7.086  1.00  0.00    -0.550 OA
ENDBRANCH  14  15
ENDBRANCH  13  14
ENDBRANCH  12  13
ENDBRANCH  11  12
ENDBRANCH  10  11
ENDBRANCH   9  10
ENDBRANCH   8   9
ENDBRANCH   7   8
ENDBRANCH   6   7
ENDBRANCH   5   6
ENDBRANCH   4   5
ENDBRANCH   3   4
ENDBRANCH   2   3
ENDBRANCH   1   2
BRANCH   1  18
ATOM     18  C   UNL     1      31.352  45.519   7.928  1.00  0.00     0.000 C 
BRANCH  18  19
ATOM     19  C   UNL     1      29.937  45.342   7.357  1.00  0.00     0.000 C 
BRANCH  19  20
ATOM     20  C   UNL     1      29.880  44.321   6.208  1.00  0.00     0.000 C 
BRANCH  20  21
ATOM     21  C   UNL     1      28.713  43.332   6.359  1.00  0.00     0.000 C 
BRANCH  21  22
ATOM     22  C   UNL     1      27.799  43.676   7.549  1.00  0.00     0.000 C 
BRANCH  22  23
ATOM     23  C   UNL     1      26.928  42.487   7.993  1.00  0.00     0.000 C 
BRANCH  23  24
ATOM     24  C   UNL     1      27.639  41.119   7.969  1.00  0.00    -0.000 C 
BRANCH  24  25
ATOM     25  C   UNL     1      26.737  39.905   8.272  1.00  0.00    -0.000 C 
BRANCH  25  26
ATOM     26  C   UNL     1      26.291  39.098   7.039  1.00  0.00    -0.000 C 
BRANCH  26  27
ATOM     27  C   UNL     1      27.313  38.025   6.628  1.00  0.00    -0.000 C 
BRANCH  27  28
ATOM     28  C   UNL     1      26.655  36.669   6.322  1.00  0.00    -0.000 C 
BRANCH  28  29
ATOM     29  C   UNL     1      25.888  36.093   7.526  1.00  0.00    -0.000 C 
BRANCH  29  30
ATOM     30  C   UNL     1      26.807  35.758   8.715  1.00  0.00    -0.000 C 
BRANCH  30  31
ATOM     31  C   UNL     1      26.161  35.940  10.100  1.00  0.00    -0.003 C 
ATOM     32  C   UNL     1      25.067  37.006  10.111  1.00  0.00     0.004 C 
ENDBRANCH  30  31
ENDBRANCH  29  30
ENDBRANCH  28  29
ENDBRANCH  27  28
ENDBRANCH  26  27
ENDBRANCH  25  26
ENDBRANCH  24  25
ENDBRANCH  23  24
ENDBRANCH  22  23
ENDBRANCH  21  22
ENDBRANCH  20  21
ENDBRANCH  19  20
ENDBRANCH  18  19
ENDBRANCH   1  18
TORSDOF 28
ENDMDL
MODEL 3
REMARK VINA RESULT:    -2.735      3.112     10.599
REMARK INTER + INTRA:         -10.742
REMARK INTER:                  -7.527
REMARK INTRA:                  -3.215
REMARK UNBOUND:                -3.529
REMARK SMILES CCCCCCCCCCCCCCCCCCCCCCCCCCCCCC(=O)[O-]
REMARK SMILES IDX 16 1 17 2 18 3 19 4 20 5 21 6 22 7 23 8 24 9 25 10 26 11
REMARK SMILES IDX 27 12 28 13 29 14 30 15 31 16 32 17 15 18 14 19 13 20 12 21
REMARK SMILES IDX 11 22 10 23 9 24 8 25 7 26 6 27 5 28 4 29 3 30 2 31 1 32
REMARK H PARENT
REMARK Flexibility Score: inf
ROOT
ATOM      1  C   UNL     1      29.704  46.890   6.586  1.00  0.00     0.000 C 
ENDROOT
BRANCH   1   2
ATOM      2  C   UNL     1      28.268  46.372   6.383  1.00  0.00     0.000 C 
BRANCH   2   3
ATOM      3  C   UNL     1      27.433  46.238   7.672  1.00  0.00     0.000 C 
BRANCH   3   4
ATOM      4  C   UNL     1      26.482  45.024   7.710  1.00  0.00     0.000 C 
BRANCH   4   5
ATOM      5  C   UNL     1      26.712  44.054   8.888  1.00  0.00     0.000 C 
BRANCH   5   6
ATOM      6  C   UNL     1      26.961  42.586   8.489  1.00  0.00     0.000 C 
BRANCH   6   7
ATOM      7  C   UNL     1      27.067  42.393   6.966  1.00  0.00     0.000 C 
BRANCH   7   8
ATOM      8  C   UNL     1      26.075  41.348   6.430  1.00  0.00     0.000 C 
BRANCH   8   9
ATOM      9  C   UNL     1      26.242  39.971   7.089  1.00  0.00     0.000 C 
BRANCH   9  10
ATOM     10  C   UNL     1      27.667  39.437   6.884  1.00  0.00     0.000 C 
BRANCH  10  11
ATOM     11  C   UNL     1      27.704  38.098   6.127  1.00  0.00     0.000 C 
BRANCH  11  12
ATOM     12  C   UNL     1      26.701  37.036   6.625  1.00  0.00     0.000 C 
BRANCH  12  13
ATOM     13  C   UNL     1      27.291  35.631   6.841  1.00  0.00     0.006 C 
BRANCH  13  14
ATOM     14  C   UNL     1      27.460  35.278   8.325  1.00  0.00     0.053 C 
BRANCH  14  15
ATOM     15  C   UNL     1      26.346  35.861   9.136  1.00  0.00     0.041 C 
ATOM     16  O   UNL     1      26.592  36.714  10.031  1.00  0.00    -0.550 OA
ATOM     17  O   UNL     1      25.037  35.449   8.919  1.00  0.00    -0.550 OA
ENDBRANCH  14  15
ENDBRANCH  13  14
ENDBRANCH  12  13
ENDBRANCH  11  12
ENDBRANCH  10  11
ENDBRANCH   9  10
ENDBRANCH   8   9
ENDBRANCH   7   8
ENDBRANCH   6   7
ENDBRANCH   5   6
ENDBRANCH   4   5
ENDBRANCH   3   4
ENDBRANCH   2   3
ENDBRANCH   1   2
BRANCH   1  18
ATOM     18  C   UNL     1      30.497  46.063   7.614  1.00  0.00     0.000 C 
BRANCH  18  19
ATOM     19  C   UNL     1      31.596  46.878   8.313  1.00  0.00     0.000 C 
BRANCH  19  20
ATOM     20  C   UNL     1      31.234  48.365   8.460  1.00  0.00     0.000 C 
BRANCH  20  21
ATOM     21  C   UNL     1      32.256  49.288   7.777  1.00  0.00     0.000 C 
BRANCH  21  22
ATOM     22  C   UNL     1      31.638  50.102   6.625  1.00  0.00     0.000 C 
BRANCH  22  23
ATOM     23  C   UNL     1      31.373  51.569   7.009  1.00  0.00     0.000 C 
BRANCH  23  24
ATOM     24  C   UNL     1      29.892  51.993   6.960  1.00  0.00    -0.000 C 
BRANCH  24  25
ATOM     25  C   UNL     1      28.886  50.923   7.433  1.00  0.00    -0.000 C 
BRANCH  25  26
ATOM     26  C   UNL     1      28.028  50.295   6.318  1.00  0.00    -0.000 C 
BRANCH  26  27
ATOM     27  C   UNL     1      26.737  49.652   6.851  1.00  0.00    -0.000 C 
BRANCH  27  28
ATOM     28  C   UNL     1      26.078  50.483   7.964  1.00  0.00    -0.000 C 
BRANCH  28  29
ATOM     29  C   UNL     1      25.056  51.500   7.424  1.00  0.00    -0.000 C 
BRANCH  29  30
ATOM     30  C   UNL     1      25.121  52.854   8.152  1.00  0.00    -0.000 C 
BRANCH  30  31
ATOM     31  C   UNL     1      26.396  53.672   7.878  1.00  0.00    -0.003 C 
ATOM     32  C   UNL     1      26.667  53.872   6.388  1.00  0.00     0.004 C 
ENDBRANCH  30  31
ENDBRANCH  29  30
ENDBRANCH  28  29
ENDBRANCH  27  28
ENDBRANCH  26  27
ENDBRANCH  25  26
ENDBRANCH  24  25
ENDBRANCH  23  24
ENDBRANCH  22  23
ENDBRANCH  21  22
ENDBRANCH  20  21
ENDBRANCH  19  20
ENDBRANCH  18  19
ENDBRANCH   1  18
TORSDOF 28
ENDMDL
MODEL 4
REMARK VINA RESULT:    -2.697      3.166      9.833
REMARK INTER + INTRA:         -10.640
REMARK INTER:                  -7.261
REMARK INTRA:                  -3.380
REMARK UNBOUND:                -3.529
REMARK SMILES CCCCCCCCCCCCCCCCCCCCCCCCCCCCCC(=O)[O-]
REMARK SMILES IDX 16 1 17 2 18 3 19 4 20 5 21 6 22 7 23 8 24 9 25 10 26 11
REMARK SMILES IDX 27 12 28 13 29 14 30 15 31 16 32 17 15 18 14 19 13 20 12 21
REMARK SMILES IDX 11 22 10 23 9 24 8 25 7 26 6 27 5 28 4 29 3 30 2 31 1 32
REMARK H PARENT
REMARK Flexibility Score: inf
ROOT
ATOM      1  C   UNL     1      29.714  46.426   8.253  1.00  0.00     0.000 C 
ENDROOT
BRANCH   1   2
ATOM      2  C   UNL     1      29.971  46.083   6.773  1.00  0.00     0.000 C 
BRANCH   2   3
ATOM      3  C   UNL     1      29.491  44.685   6.333  1.00  0.00     0.000 C 
BRANCH   3   4
ATOM      4  C   UNL     1      27.966  44.470   6.397  1.00  0.00     0.000 C 
BRANCH   4   5
ATOM      5  C   UNL     1      27.462  43.751   7.666  1.00  0.00     0.000 C 
BRANCH   5   6
ATOM      6  C   UNL     1      25.934  43.571   7.755  1.00  0.00     0.000 C 
BRANCH   6   7
ATOM      7  C   UNL     1      25.474  42.164   7.338  1.00  0.00     0.000 C 
BRANCH   7   8
ATOM      8  C   UNL     1      26.580  41.362   6.634  1.00  0.00     0.000 C 
BRANCH   8   9
ATOM      9  C   UNL     1      26.336  39.846   6.670  1.00  0.00     0.000 C 
BRANCH   9  10
ATOM     10  C   UNL     1      26.127  39.361   8.112  1.00  0.00     0.000 C 
BRANCH  10  11
ATOM     11  C   UNL     1      26.332  37.844   8.270  1.00  0.00     0.000 C 
BRANCH  11  12
ATOM     12  C   UNL     1      26.123  37.017   6.985  1.00  0.00     0.000 C 
BRANCH  12  13
ATOM     13  C   UNL     1      26.514  35.532   7.093  1.00  0.00     0.006 C 
BRANCH  13  14
ATOM     14  C   UNL     1      27.847  35.215   6.404  1.00  0.00     0.053 C 
BRANCH  14  15
ATOM     15  C   UNL     1      28.976  35.281   7.384  1.00  0.00     0.041 C 
ATOM     16  O   UNL     1      30.136  35.587   6.997  1.00  0.00    -0.550 OA
ATOM     17  O   UNL     1      28.753  34.988   8.725  1.00  0.00    -0.550 OA
ENDBRANCH  14  15
ENDBRANCH  13  14
ENDBRANCH  12  13
ENDBRANCH  11  12
ENDBRANCH  10  11
ENDBRANCH   9  10
ENDBRANCH   8   9
ENDBRANCH   7   8
ENDBRANCH   6   7
ENDBRANCH   5   6
ENDBRANCH   4   5
ENDBRANCH   3   4
ENDBRANCH   2   3
ENDBRANCH   1   2
BRANCH   1  18
ATOM     18  C   UNL     1      30.705  47.467   8.804  1.00  0.00     0.000 C 
BRANCH  18  19
ATOM     19  C   UNL     1      31.655  48.013   7.726  1.00  0.00     0.000 C 
BRANCH  19  20
ATOM     20  C   UNL     1      32.231  49.393   8.084  1.00  0.00     0.000 C 
BRANCH  20  21
ATOM     21  C   UNL     1      32.359  50.311   6.857  1.00  0.00     0.000 C 
BRANCH  21  22
ATOM     22  C   UNL     1      31.508  51.588   6.985  1.00  0.00     0.000 C 
BRANCH  22  23
ATOM     23  C   UNL     1      30.304  51.598   6.027  1.00  0.00     0.000 C 
BRANCH  23  24
ATOM     24  C   UNL     1      29.162  50.635   6.412  1.00  0.00    -0.000 C 
BRANCH  24  25
ATOM     25  C   UNL     1      28.704  50.715   7.883  1.00  0.00    -0.000 C 
BRANCH  25  26
ATOM     26  C   UNL     1      27.182  50.821   8.088  1.00  0.00    -0.000 C 
BRANCH  26  27
ATOM     27  C   UNL     1      26.389  50.604   6.788  1.00  0.00    -0.000 C 
BRANCH  27  28
ATOM     28  C   UNL     1      25.010  49.970   7.035  1.00  0.00    -0.000 C 
BRANCH  28  29
ATOM     29  C   UNL     1      24.885  48.560   6.430  1.00  0.00    -0.000 C 
BRANCH  29  30
ATOM     30  C   UNL     1      25.789  47.528   7.130  1.00  0.00    -0.000 C 
BRANCH  30  31
ATOM     31  C   UNL     1      25.271  47.042   8.496  1.00  0.00    -0.003 C 
ATOM     32  C   UNL     1      26.367  46.966   9.557  1.00  0.00     0.004 C 
ENDBRANCH  30  31
ENDBRANCH  29  30
ENDBRANCH  28  29
ENDBRANCH  27  28
ENDBRANCH  26  27
ENDBRANCH  25  26
ENDBRANCH  24  25
ENDBRANCH  23  24
ENDBRANCH  22  23
ENDBRANCH  21  22
ENDBRANCH  20  21
ENDBRANCH  19  20
ENDBRANCH  18  19
ENDBRANCH   1  18
TORSDOF 28
ENDMDL
MODEL 5
REMARK VINA RESULT:    -2.352      1.807      4.273
REMARK INTER + INTRA:          -9.732
REMARK INTER:                  -7.571
REMARK INTRA:                  -2.161
REMARK UNBOUND:                -3.529
REMARK SMILES CCCCCCCCCCCCCCCCCCCCCCCCCCCCCC(=O)[O-]
REMARK SMILES IDX 16 1 17 2 18 3 19 4 20 5 21 6 22 7 23 8 24 9 25 10 26 11
REMARK SMILES IDX 27 12 28 13 29 14 30 15 31 16 32 17 15 18 14 19 13 20 12 21
REMARK SMILES IDX 11 22 10 23 9 24 8 25 7 26 6 27 5 28 4 29 3 30 2 31 1 32
REMARK H PARENT
REMARK Flexibility Score: inf
ROOT
ATOM      1  C   UNL     1      26.837  45.871   7.202  1.00  0.00     0.000 C 
ENDROOT
BRANCH   1   2
ATOM      2  C   UNL     1      26.166  47.255   7.290  1.00  0.00     0.000 C 
BRANCH   2   3
ATOM      3  C   UNL     1      25.781  47.882   5.935  1.00  0.00     0.000 C 
BRANCH   3   4
ATOM      4  C   UNL     1      25.700  49.422   5.930  1.00  0.00     0.000 C 
BRANCH   4   5
ATOM      5  C   UNL     1      25.309  50.058   7.281  1.00  0.00     0.000 C 
BRANCH   5   6
ATOM      6  C   UNL     1      25.260  51.598   7.290  1.00  0.00     0.000 C 
BRANCH   6   7
ATOM      7  C   UNL     1      26.512  52.231   7.921  1.00  0.00     0.000 C 
BRANCH   7   8
ATOM      8  C   UNL     1      27.601  51.196   8.244  1.00  0.00     0.000 C 
BRANCH   8   9
ATOM      9  C   UNL     1      29.023  51.744   8.052  1.00  0.00     0.000 C 
BRANCH   9  10
ATOM     10  C   UNL     1      29.576  51.356   6.673  1.00  0.00     0.000 C 
BRANCH  10  11
ATOM     11  C   UNL     1      31.047  51.763   6.479  1.00  0.00     0.000 C 
BRANCH  11  12
ATOM     12  C   UNL     1      32.073  50.629   6.682  1.00  0.00     0.000 C 
BRANCH  12  13
ATOM     13  C   UNL     1      31.833  49.743   7.917  1.00  0.00     0.006 C 
BRANCH  13  14
ATOM     14  C   UNL     1      31.975  48.245   7.614  1.00  0.00     0.053 C 
BRANCH  14  15
ATOM     15  C   UNL     1      30.660  47.549   7.768  1.00  0.00     0.041 C 
ATOM     16  O   UNL     1      29.646  47.961   7.142  1.00  0.00    -0.550 OA
ATOM     17  O   UNL     1      30.546  46.454   8.617  1.00  0.00    -0.550 OA
ENDBRANCH  14  15
ENDBRANCH  13  14
ENDBRANCH  12  13
ENDBRANCH  11  12
ENDBRANCH  10  11
ENDBRANCH   9  10
ENDBRANCH   8   9
ENDBRANCH   7   8
ENDBRANCH   6   7
ENDBRANCH   5   6
ENDBRANCH   4   5
ENDBRANCH   3   4
ENDBRANCH   2   3
ENDBRANCH   1   2
BRANCH   1  18
ATOM     18  C   UNL     1      25.885  44.722   7.578  1.00  0.00     0.000 C 
BRANCH  18  19
ATOM     19  C   UNL     1      26.372  43.920   8.794  1.00  0.00     0.000 C 
BRANCH  19  20
ATOM     20  C   UNL     1      27.166  42.663   8.401  1.00  0.00     0.000 C 
BRANCH  20  21
ATOM     21  C   UNL     1      26.875  42.213   6.960  1.00  0.00     0.000 C 
BRANCH  21  22
ATOM     22  C   UNL     1      28.124  42.262   6.062  1.00  0.00     0.000 C 
BRANCH  22  23
ATOM     23  C   UNL     1      29.211  41.264   6.499  1.00  0.00     0.000 C 
BRANCH  23  24
ATOM     24  C   UNL     1      28.763  39.789   6.523  1.00  0.00    -0.000 C 
BRANCH  24  25
ATOM     25  C   UNL     1      27.386  39.510   5.886  1.00  0.00    -0.000 C 
BRANCH  25  26
ATOM     26  C   UNL     1      26.586  38.365   6.534  1.00  0.00    -0.000 C 
BRANCH  26  27
ATOM     27  C   UNL     1      25.150  38.775   6.900  1.00  0.00    -0.000 C 
BRANCH  27  28
ATOM     28  C   UNL     1      24.886  38.719   8.413  1.00  0.00    -0.000 C 
BRANCH  28  29
ATOM     29  C   UNL     1      26.064  38.117   9.202  1.00  0.00    -0.000 C 
BRANCH  29  30
ATOM     30  C   UNL     1      25.856  36.631   9.544  1.00  0.00    -0.000 C 
BRANCH  30  31
ATOM     31  C   UNL     1      26.990  35.699   9.081  1.00  0.00    -0.003 C 
ATOM     32  C   UNL     1      26.620  34.875   7.849  1.00  0.00     0.004 C 
ENDBRANCH  30  31
ENDBRANCH  29  30
ENDBRANCH  28  29
ENDBRANCH  27  28
ENDBRANCH  26  27
ENDBRANCH  25  26
ENDBRANCH  24  25
ENDBRANCH  23  24
ENDBRANCH  22  23
ENDBRANCH  21  22
ENDBRANCH  20  21
ENDBRANCH  19  20
ENDBRANCH  18  19
ENDBRANCH   1  18
TORSDOF 28
ENDMDL
MODEL 6
REMARK VINA RESULT:    -2.115      3.372     10.717
REMARK INTER + INTRA:          -9.107
REMARK INTER:                  -6.919
REMARK INTRA:                  -2.188
REMARK UNBOUND:                -3.529
REMARK SMILES CCCCCCCCCCCCCCCCCCCCCCCCCCCCCC(=O)[O-]
REMARK SMILES IDX 16 1 17 2 18 3 19 4 20 5 21 6 22 7 23 8 24 9 25 10 26 11
REMARK SMILES IDX 27 12 28 13 29 14 30 15 31 16 32 17 15 18 14 19 13 20 12 21
REMARK SMILES IDX 11 22 10 23 9 24 8 25 7 26 6 27 5 28 4 29 3 30 2 31 1 32
REMARK H PARENT
REMARK Flexibility Score: inf
ROOT
ATOM      1  C   UNL     1      31.198  47.298   8.240  1.00  0.00     0.000 C 
ENDROOT
BRANCH   1   2
ATOM      2  C   UNL     1      30.198  46.136   8.088  1.00  0.00     0.000 C 
BRANCH   2   3
ATOM      3  C   UNL     1      30.592  45.066   7.049  1.00  0.00     0.000 C 
BRANCH   3   4
ATOM      4  C   UNL     1      29.464  44.650   6.084  1.00  0.00     0.000 C 
BRANCH   4   5
ATOM      5  C   UNL     1      28.035  44.947   6.585  1.00  0.00     0.000 C 
BRANCH   5   6
ATOM      6  C   UNL     1      27.549  44.054   7.743  1.00  0.00     0.000 C 
BRANCH   6   7
ATOM      7  C   UNL     1      26.030  44.148   7.971  1.00  0.00     0.000 C 
BRANCH   7   8
ATOM      8  C   UNL     1      25.267  42.947   7.392  1.00  0.00     0.000 C 
BRANCH   8   9
ATOM      9  C   UNL     1      26.197  41.862   6.829  1.00  0.00     0.000 C 
BRANCH   9  10
ATOM     10  C   UNL     1      26.345  40.701   7.823  1.00  0.00     0.000 C 
BRANCH  10  11
ATOM     11  C   UNL     1      25.685  39.401   7.331  1.00  0.00     0.000 C 
BRANCH  11  12
ATOM     12  C   UNL     1      26.474  38.635   6.249  1.00  0.00     0.000 C 
BRANCH  12  13
ATOM     13  C   UNL     1      27.670  37.816   6.767  1.00  0.00     0.006 C 
BRANCH  13  14
ATOM     14  C   UNL     1      27.476  36.304   6.596  1.00  0.00     0.053 C 
BRANCH  14  15
ATOM     15  C   UNL     1      28.663  35.558   7.119  1.00  0.00     0.041 C 
ATOM     16  O   UNL     1      28.640  35.059   8.276  1.00  0.00    -0.550 OA
ATOM     17  O   UNL     1      29.805  35.428   6.336  1.00  0.00    -0.550 OA
ENDBRANCH  14  15
ENDBRANCH  13  14
ENDBRANCH  12  13
ENDBRANCH  11  12
ENDBRANCH  10  11
ENDBRANCH   9  10
ENDBRANCH   8   9
ENDBRANCH   7   8
ENDBRANCH   6   7
ENDBRANCH   5   6
ENDBRANCH   4   5
ENDBRANCH   3   4
ENDBRANCH   2   3
ENDBRANCH   1   2
BRANCH   1  18
ATOM     18  C   UNL     1      30.745  48.573   7.507  1.00  0.00     0.000 C 
BRANCH  18  19
ATOM     19  C   UNL     1      29.287  48.950   7.813  1.00  0.00     0.000 C 
BRANCH  19  20
ATOM     20  C   UNL     1      28.316  48.531   6.696  1.00  0.00     0.000 C 
BRANCH  20  21
ATOM     21  C   UNL     1      26.879  48.342   7.210  1.00  0.00     0.000 C 
BRANCH  21  22
ATOM     22  C   UNL     1      26.422  49.495   8.122  1.00  0.00     0.000 C 
BRANCH  22  23
ATOM     23  C   UNL     1      26.502  50.867   7.430  1.00  0.00     0.000 C 
BRANCH  23  24
ATOM     24  C   UNL     1      25.683  51.984   8.109  1.00  0.00    -0.000 C 
BRANCH  24  25
ATOM     25  C   UNL     1      26.361  53.369   8.138  1.00  0.00    -0.000 C 
BRANCH  25  26
ATOM     26  C   UNL     1      26.261  54.173   6.829  1.00  0.00    -0.000 C 
BRANCH  26  27
ATOM     27  C   UNL     1      27.440  53.911   5.877  1.00  0.00    -0.000 C 
BRANCH  27  28
ATOM     28  C   UNL     1      28.739  53.568   6.624  1.00  0.00    -0.000 C 
BRANCH  28  29
ATOM     29  C   UNL     1      29.605  52.539   5.875  1.00  0.00    -0.000 C 
BRANCH  29  30
ATOM     30  C   UNL     1      30.998  52.359   6.505  1.00  0.00    -0.000 C 
BRANCH  30  31
ATOM     31  C   UNL     1      32.085  53.291   5.940  1.00  0.00    -0.003 C 
ATOM     32  C   UNL     1      33.391  53.232   6.730  1.00  0.00     0.004 C 
ENDBRANCH  30  31
ENDBRANCH  29  30
ENDBRANCH  28  29
ENDBRANCH  27  28
ENDBRANCH  26  27
ENDBRANCH  25  26
ENDBRANCH  24  25
ENDBRANCH  23  24
ENDBRANCH  22  23
ENDBRANCH  21  22
ENDBRANCH  20  21
ENDBRANCH  19  20
ENDBRANCH  18  19
ENDBRANCH   1  18
TORSDOF 28
ENDMDL
MODEL 7
REMARK VINA RESULT:    -1.961      3.197      9.852
REMARK INTER + INTRA:          -8.701
REMARK INTER:                  -5.852
REMARK INTRA:                  -2.849
REMARK UNBOUND:                -3.529
REMARK SMILES CCCCCCCCCCCCCCCCCCCCCCCCCCCCCC(=O)[O-]
REMARK SMILES IDX 16 1 17 2 18 3 19 4 20 5 21 6 22 7 23 8 24 9 25 10 26 11
REMARK SMILES IDX 27 12 28 13 29 14 30 15 31 16 32 17 15 18 14 19 13 20 12 21
REMARK SMILES IDX 11 22 10 23 9 24 8 25 7 26 6 27 5 28 4 29 3 30 2 31 1 32
REMARK H PARENT
REMARK Flexibility Score: inf
ROOT
ATOM      1  C   UNL     1      30.122  47.057   8.801  1.00  0.00     0.000 C 
ENDROOT
BRANCH   1   2
ATOM      2  C   UNL     1      29.910  46.523   7.372  1.00  0.00     0.000 C 
BRANCH   2   3
ATOM      3  C   UNL     1      29.501  45.039   7.282  1.00  0.00     0.000 C 
BRANCH   3   4
ATOM      4  C   UNL     1      27.981  44.783   7.244  1.00  0.00     0.000 C 
BRANCH   4   5
ATOM      5  C   UNL     1      27.248  45.011   8.582  1.00  0.00     0.000 C 
BRANCH   5   6
ATOM      6  C   UNL     1      25.731  45.254   8.464  1.00  0.00     0.000 C 
BRANCH   6   7
ATOM      7  C   UNL     1      24.967  44.018   7.959  1.00  0.00     0.000 C 
BRANCH   7   8
ATOM      8  C   UNL     1      24.919  43.936   6.425  1.00  0.00     0.000 C 
BRANCH   8   9
ATOM      9  C   UNL     1      24.909  42.493   5.902  1.00  0.00     0.000 C 
BRANCH   9  10
ATOM     10  C   UNL     1      25.083  41.493   7.055  1.00  0.00     0.000 C 
BRANCH  10  11
ATOM     11  C   UNL     1      26.552  41.099   7.292  1.00  0.00     0.000 C 
BRANCH  11  12
ATOM     12  C   UNL     1      26.761  39.750   8.010  1.00  0.00     0.000 C 
BRANCH  12  13
ATOM     13  C   UNL     1      25.902  38.588   7.481  1.00  0.00     0.006 C 
BRANCH  13  14
ATOM     14  C   UNL     1      26.105  37.289   8.271  1.00  0.00     0.053 C 
BRANCH  14  15
ATOM     15  C   UNL     1      26.844  36.281   7.448  1.00  0.00     0.041 C 
ATOM     16  O   UNL     1      26.438  35.089   7.389  1.00  0.00    -0.550 OA
ATOM     17  O   UNL     1      27.993  36.651   6.759  1.00  0.00    -0.550 OA
ENDBRANCH  14  15
ENDBRANCH  13  14
ENDBRANCH  12  13
ENDBRANCH  11  12
ENDBRANCH  10  11
ENDBRANCH   9  10
ENDBRANCH   8   9
ENDBRANCH   7   8
ENDBRANCH   6   7
ENDBRANCH   5   6
ENDBRANCH   4   5
ENDBRANCH   3   4
ENDBRANCH   2   3
ENDBRANCH   1   2
BRANCH   1  18
ATOM     18  C   UNL     1      31.072  48.267   8.851  1.00  0.00     0.000 C 
BRANCH  18  19
ATOM     19  C   UNL     1      31.846  48.469   7.539  1.00  0.00     0.000 C 
BRANCH  19  20
ATOM     20  C   UNL     1      32.138  49.950   7.242  1.00  0.00     0.000 C 
BRANCH  20  21
ATOM     21  C   UNL     1      31.589  50.393   5.875  1.00  0.00     0.000 C 
BRANCH  21  22
ATOM     22  C   UNL     1      30.597  51.565   5.990  1.00  0.00     0.000 C 
BRANCH  22  23
ATOM     23  C   UNL     1      29.469  51.292   7.001  1.00  0.00     0.000 C 
BRANCH  23  24
ATOM     24  C   UNL     1      28.709  52.545   7.477  1.00  0.00    -0.000 C 
BRANCH  24  25
ATOM     25  C   UNL     1      27.981  53.333   6.368  1.00  0.00    -0.000 C 
BRANCH  25  26
ATOM     26  C   UNL     1      26.721  54.092   6.824  1.00  0.00    -0.000 C 
BRANCH  26  27
ATOM     27  C   UNL     1      25.442  53.246   6.707  1.00  0.00    -0.000 C 
BRANCH  27  28
ATOM     28  C   UNL     1      25.200  52.366   7.944  1.00  0.00    -0.000 C 
BRANCH  28  29
ATOM     29  C   UNL     1      25.522  50.882   7.693  1.00  0.00    -0.000 C 
BRANCH  29  30
ATOM     30  C   UNL     1      25.824  50.579   6.214  1.00  0.00    -0.000 C 
BRANCH  30  31
ATOM     31  C   UNL     1      26.506  49.222   5.962  1.00  0.00    -0.003 C 
ATOM     32  C   UNL     1      26.649  48.382   7.229  1.00  0.00     0.004 C 
ENDBRANCH  30  31
ENDBRANCH  29  30
ENDBRANCH  28  29
ENDBRANCH  27  28
ENDBRANCH  26  27
ENDBRANCH  25  26
ENDBRANCH  24  25
ENDBRANCH  23  24
ENDBRANCH  22  23
ENDBRANCH  21  22
ENDBRANCH  20  21
ENDBRANCH  19  20
ENDBRANCH  18  19
ENDBRANCH   1  18
TORSDOF 28
ENDMDL
MODEL 8
REMARK VINA RESULT:    -1.936      1.811      4.383
REMARK INTER + INTRA:          -8.635
REMARK INTER:                  -6.939
REMARK INTRA:                  -1.695
REMARK UNBOUND:                -3.529
REMARK SMILES CCCCCCCCCCCCCCCCCCCCCCCCCCCCCC(=O)[O-]
REMARK SMILES IDX 16 1 17 2 18 3 19 4 20 5 21 6 22 7 23 8 24 9 25 10 26 11
REMARK SMILES IDX 27 12 28 13 29 14 30 15 31 16 32 17 15 18 14 19 13 20 12 21
REMARK SMILES IDX 11 22 10 23 9 24 8 25 7 26 6 27 5 28 4 29 3 30 2 31 1 32
REMARK H PARENT
REMARK Flexibility Score: inf
ROOT
ATOM      1  C   UNL     1      25.963  50.317   8.351  1.00  0.00     0.000 C 
ENDROOT
BRANCH   1   2
ATOM      2  C   UNL     1      24.880  51.218   7.727  1.00  0.00     0.000 C 
BRANCH   2   3
ATOM      3  C   UNL     1      25.305  52.681   7.488  1.00  0.00     0.000 C 
BRANCH   3   4
ATOM      4  C   UNL     1      26.468  53.174   8.372  1.00  0.00     0.000 C 
BRANCH   4   5
ATOM      5  C   UNL     1      27.834  53.268   7.660  1.00  0.00     0.000 C 
BRANCH   5   6
ATOM      6  C   UNL     1      28.088  52.192   6.586  1.00  0.00     0.000 C 
BRANCH   6   7
ATOM      7  C   UNL     1      29.368  51.380   6.847  1.00  0.00     0.000 C 
BRANCH   7   8
ATOM      8  C   UNL     1      30.504  51.734   5.876  1.00  0.00     0.000 C 
BRANCH   8   9
ATOM      9  C   UNL     1      31.606  52.582   6.527  1.00  0.00     0.000 C 
BRANCH   9  10
ATOM     10  C   UNL     1      32.751  51.693   7.034  1.00  0.00     0.000 C 
BRANCH  10  11
ATOM     11  C   UNL     1      32.264  50.340   7.581  1.00  0.00     0.000 C 
BRANCH  11  12
ATOM     12  C   UNL     1      32.335  49.166   6.582  1.00  0.00     0.000 C 
BRANCH  12  13
ATOM     13  C   UNL     1      31.223  48.113   6.731  1.00  0.00     0.006 C 
BRANCH  13  14
ATOM     14  C   UNL     1      30.673  48.024   8.161  1.00  0.00     0.053 C 
BRANCH  14  15
ATOM     15  C   UNL     1      31.113  46.753   8.817  1.00  0.00     0.041 C 
ATOM     16  O   UNL     1      31.381  46.735  10.049  1.00  0.00    -0.550 OA
ATOM     17  O   UNL     1      31.247  45.591   8.066  1.00  0.00    -0.550 OA
ENDBRANCH  14  15
ENDBRANCH  13  14
ENDBRANCH  12  13
ENDBRANCH  11  12
ENDBRANCH  10  11
ENDBRANCH   9  10
ENDBRANCH   8   9
ENDBRANCH   7   8
ENDBRANCH   6   7
ENDBRANCH   5   6
ENDBRANCH   4   5
ENDBRANCH   3   4
ENDBRANCH   2   3
ENDBRANCH   1   2
BRANCH   1  18
ATOM     18  C   UNL     1      26.269  49.074   7.496  1.00  0.00     0.000 C 
BRANCH  18  19
ATOM     19  C   UNL     1      26.693  47.861   8.339  1.00  0.00     0.000 C 
BRANCH  19  20
ATOM     20  C   UNL     1      25.715  46.680   8.217  1.00  0.00     0.000 C 
BRANCH  20  21
ATOM     21  C   UNL     1      26.297  45.521   7.391  1.00  0.00     0.000 C 
BRANCH  21  22
ATOM     22  C   UNL     1      27.675  45.064   7.905  1.00  0.00     0.000 C 
BRANCH  22  23
ATOM     23  C   UNL     1      28.254  43.893   7.091  1.00  0.00     0.000 C 
BRANCH  23  24
ATOM     24  C   UNL     1      27.213  42.868   6.600  1.00  0.00    -0.000 C 
BRANCH  24  25
ATOM     25  C   UNL     1      26.418  42.155   7.713  1.00  0.00    -0.000 C 
BRANCH  25  26
ATOM     26  C   UNL     1      25.116  41.474   7.252  1.00  0.00    -0.000 C 
BRANCH  26  27
ATOM     27  C   UNL     1      25.348  40.062   6.690  1.00  0.00    -0.000 C 
BRANCH  27  28
ATOM     28  C   UNL     1      25.343  38.982   7.784  1.00  0.00    -0.000 C 
BRANCH  28  29
ATOM     29  C   UNL     1      26.683  38.231   7.887  1.00  0.00    -0.000 C 
BRANCH  29  30
ATOM     30  C   UNL     1      26.566  36.746   7.497  1.00  0.00    -0.000 C 
BRANCH  30  31
ATOM     31  C   UNL     1      26.336  35.787   8.679  1.00  0.00    -0.003 C 
ATOM     32  C   UNL     1      25.797  36.491   9.922  1.00  0.00     0.004 C 
ENDBRANCH  30  31
ENDBRANCH  29  30
ENDBRANCH  28  29
ENDBRANCH  27  28
ENDBRANCH  26  27
ENDBRANCH  25  26
ENDBRANCH  24  25
ENDBRANCH  23  24
ENDBRANCH  22  23
ENDBRANCH  21  22
ENDBRANCH  20  21
ENDBRANCH  19  20
ENDBRANCH  18  19
ENDBRANCH   1  18
TORSDOF 28
ENDMDL
MODEL 9
REMARK VINA RESULT:    -1.795      2.895      8.835
REMARK INTER + INTRA:          -8.264
REMARK INTER:                  -5.481
REMARK INTRA:                  -2.783
REMARK UNBOUND:                -3.529
REMARK SMILES CCCCCCCCCCCCCCCCCCCCCCCCCCCCCC(=O)[O-]
REMARK SMILES IDX 16 1 17 2 18 3 19 4 20 5 21 6 22 7 23 8 24 9 25 10 26 11
REMARK SMILES IDX 27 12 28 13 29 14 30 15 31 16 32 17 15 18 14 19 13 20 12 21
REMARK SMILES IDX 11 22 10 23 9 24 8 25 7 26 6 27 5 28 4 29 3 30 2 31 1 32
REMARK H PARENT
REMARK Flexibility Score: inf
ROOT
ATOM      1  C   UNL     1      30.894  46.207   8.410  1.00  0.00     0.000 C 
ENDROOT
BRANCH   1   2
ATOM      2  C   UNL     1      29.399  46.440   8.120  1.00  0.00     0.000 C 
BRANCH   2   3
ATOM      3  C   UNL     1      29.067  46.817   6.662  1.00  0.00     0.000 C 
BRANCH   3   4
ATOM      4  C   UNL     1      28.096  45.856   5.946  1.00  0.00     0.000 C 
BRANCH   4   5
ATOM      5  C   UNL     1      28.545  44.381   5.914  1.00  0.00     0.000 C 
BRANCH   5   6
ATOM      6  C   UNL     1      28.394  43.622   7.247  1.00  0.00     0.000 C 
BRANCH   6   7
ATOM      7  C   UNL     1      26.978  43.059   7.456  1.00  0.00     0.000 C 
BRANCH   7   8
ATOM      8  C   UNL     1      26.340  42.559   6.150  1.00  0.00     0.000 C 
BRANCH   8   9
ATOM      9  C   UNL     1      24.901  42.058   6.341  1.00  0.00     0.000 C 
BRANCH   9  10
ATOM     10  C   UNL     1      24.875  40.537   6.546  1.00  0.00     0.000 C 
BRANCH  10  11
ATOM     11  C   UNL     1      26.215  39.862   6.202  1.00  0.00     0.000 C 
BRANCH  11  12
ATOM     12  C   UNL     1      27.129  39.569   7.410  1.00  0.00     0.000 C 
BRANCH  12  13
ATOM     13  C   UNL     1      26.433  38.905   8.612  1.00  0.00     0.006 C 
BRANCH  13  14
ATOM     14  C   UNL     1      25.756  37.577   8.250  1.00  0.00     0.053 C 
BRANCH  14  15
ATOM     15  C   UNL     1      26.148  36.505   9.217  1.00  0.00     0.041 C 
ATOM     16  O   UNL     1      27.056  35.683   8.920  1.00  0.00    -0.550 OA
ATOM     17  O   UNL     1      25.498  36.399  10.442  1.00  0.00    -0.550 OA
ENDBRANCH  14  15
ENDBRANCH  13  14
ENDBRANCH  12  13
ENDBRANCH  11  12
ENDBRANCH  10  11
ENDBRANCH   9  10
ENDBRANCH   8   9
ENDBRANCH   7   8
ENDBRANCH   6   7
ENDBRANCH   5   6
ENDBRANCH   4   5
ENDBRANCH   3   4
ENDBRANCH   2   3
ENDBRANCH   1   2
BRANCH   1  18
ATOM     18  C   UNL     1      31.797  46.574   7.219  1.00  0.00     0.000 C 
BRANCH  18  19
ATOM     19  C   UNL     1      31.605  48.026   6.753  1.00  0.00     0.000 C 
BRANCH  19  20
ATOM     20  C   UNL     1      32.186  49.051   7.742  1.00  0.00     0.000 C 
BRANCH  20  21
ATOM     21  C   UNL     1      31.220  50.216   8.014  1.00  0.00     0.000 C 
BRANCH  21  22
ATOM     22  C   UNL     1      30.124  49.848   9.032  1.00  0.00     0.000 C 
BRANCH  22  23
ATOM     23  C   UNL     1      28.842  50.678   8.850  1.00  0.00     0.000 C 
BRANCH  23  24
ATOM     24  C   UNL     1      28.693  51.348   7.470  1.00  0.00    -0.000 C 
BRANCH  24  25
ATOM     25  C   UNL     1      27.262  51.797   7.108  1.00  0.00    -0.000 C 
BRANCH  25  26
ATOM     26  C   UNL     1      26.640  51.081   5.895  1.00  0.00    -0.000 C 
BRANCH  26  27
ATOM     27  C   UNL     1      26.261  49.621   6.195  1.00  0.00    -0.000 C 
BRANCH  27  28
ATOM     28  C   UNL     1      24.912  49.498   6.922  1.00  0.00    -0.000 C 
BRANCH  28  29
ATOM     29  C   UNL     1      24.875  48.323   7.916  1.00  0.00    -0.000 C 
BRANCH  29  30
ATOM     30  C   UNL     1      26.171  48.194   8.736  1.00  0.00    -0.000 C 
BRANCH  30  31
ATOM     31  C   UNL     1      26.098  47.194   9.903  1.00  0.00    -0.003 C 
ATOM     32  C   UNL     1      25.980  45.743   9.439  1.00  0.00     0.004 C 
ENDBRANCH  30  31
ENDBRANCH  29  30
ENDBRANCH  28  29
ENDBRANCH  27  28
ENDBRANCH  26  27
ENDBRANCH  25  26
ENDBRANCH  24  25
ENDBRANCH  23  24
ENDBRANCH  22  23
ENDBRANCH  21  22
ENDBRANCH  20  21
ENDBRANCH  19  20
ENDBRANCH  18  19
ENDBRANCH   1  18
TORSDOF 28
ENDMDL
