MODEL 1
REMARK VINA RESULT:    -4.832      0.000      0.000
REMARK INTER + INTRA:          -5.979
REMARK INTER:                  -7.374
REMARK INTRA:                   1.395
REMARK UNBOUND:                 1.395
REMARK SMILES CC1=CCC[C@H](C)C(=O)C[C@@H](C(C)C)C(=O)C1
REMARK SMILES IDX 8 1 9 2 6 3 7 4 5 5 4 6 3 7 2 8 1 9 10 11 11 12 15 13 16 14
REMARK SMILES IDX 17 15 12 17 13 18 14 19
REMARK H PARENT
REMARK Flexibility Score: 70.00
ROOT
ATOM      1  C   UNL     1      13.078 -36.500 -30.491  1.00  0.00     0.136 C 
ATOM      2  O   UNL     1      12.554 -37.474 -31.015  1.00  0.00    -0.299 OA
ENDROOT
BRANCH   1   3
ATOM      3  C   UNL     1      13.130 -36.391 -28.980  1.00  0.00     0.053 C 
ATOM      4  C   UNL     1      14.360 -37.143 -28.464  1.00  0.00     0.016 C 
BRANCH   3   5
ATOM      5  C   UNL     1      13.151 -34.926 -28.484  1.00  0.00     0.015 C 
BRANCH   5   6
ATOM      6  C   UNL     1      11.887 -34.512 -27.708  1.00  0.00     0.028 C 
BRANCH   6   7
ATOM      7  C   UNL     1      11.229 -33.301 -28.326  1.00  0.00    -0.028 C 
ATOM      8  C   UNL     1      10.511 -33.297 -29.473  1.00  0.00    -0.070 CG0
ATOM      9  C   UNL     1       9.923 -31.986 -29.932  1.00  0.00     0.039 C 
ATOM     10  G   UNL     1      10.276 -34.542 -30.307  1.00  0.00     0.000 G0
ENDBRANCH   6   7
ENDBRANCH   5   6
ENDBRANCH   3   5
ENDBRANCH   1   3
BRANCH   1  11
ATOM     11  C   UNL     1      13.605 -35.388 -31.364  1.00  0.00     0.087 C 
BRANCH  11  12
ATOM     12  C   UNL     1      12.645 -34.175 -31.394  1.00  0.00     0.066 C 
BRANCH  12  13
ATOM     13  C   UNL     1      11.201 -34.639 -31.488  1.00  0.00     0.140 C 
ATOM     14  O   UNL     1      10.771 -35.080 -32.544  1.00  0.00    -0.299 OA
BRANCH  13  15
ATOM     15  C   UNL     1      10.264 -34.535 -30.311  1.00  0.00     0.106 CG0
ATOM     16  G   UNL     1      10.518 -33.291 -29.480  1.00  0.00     0.000 G0
ENDBRANCH  13  15
ENDBRANCH  12  13
BRANCH  12  17
ATOM     17  C   UNL     1      12.973 -33.140 -32.515  1.00  0.00    -0.006 C 
ATOM     18  C   UNL     1      11.728 -32.338 -32.928  1.00  0.00     0.008 C 
ATOM     19  C   UNL     1      14.120 -32.176 -32.164  1.00  0.00     0.008 C 
ENDBRANCH  12  17
ENDBRANCH  11  12
ENDBRANCH   1  11
TORSDOF 1
ENDMDL
MODEL 2
REMARK VINA RESULT:    -4.675      2.032      3.972
REMARK INTER + INTRA:          -5.740
REMARK INTER:                  -5.760
REMARK INTRA:                   0.020
REMARK UNBOUND:                 1.395
REMARK SMILES CC1=CCC[C@H](C)C(=O)C[C@@H](C(C)C)C(=O)C1
REMARK SMILES IDX 8 1 9 2 6 3 7 4 5 5 4 6 3 7 2 8 1 9 10 11 11 12 15 13 16 14
REMARK SMILES IDX 17 15 12 17 13 18 14 19
REMARK H PARENT
REMARK Flexibility Score: 70.00
ROOT
ATOM      1  C   UNL     1      13.029 -36.081 -29.150  1.00  0.00     0.136 C 
ATOM      2  O   UNL     1      13.069 -37.063 -28.421  1.00  0.00    -0.299 OA
ENDROOT
BRANCH   1   3
ATOM      3  C   UNL     1      12.498 -36.210 -30.563  1.00  0.00     0.053 C 
ATOM      4  C   UNL     1      12.738 -37.638 -31.062  1.00  0.00     0.016 C 
BRANCH   3   5
ATOM      5  C   UNL     1      10.999 -35.848 -30.678  1.00  0.00     0.015 C 
BRANCH   5   6
ATOM      6  C   UNL     1      10.675 -34.891 -31.840  1.00  0.00     0.028 C 
BRANCH   6   7
ATOM      7  C   UNL     1      11.894 -34.109 -32.269  1.00  0.00    -0.028 C 
ATOM      8  C   UNL     1      12.367 -32.995 -31.664  1.00  0.00    -0.070 CG0
ATOM      9  C   UNL     1      13.607 -32.354 -32.236  1.00  0.00     0.039 C 
ATOM     10  G   UNL     1      11.708 -32.371 -30.448  1.00  0.00     0.000 G0
ENDBRANCH   6   7
ENDBRANCH   5   6
ENDBRANCH   3   5
ENDBRANCH   1   3
BRANCH   1  11
ATOM     11  C   UNL     1      13.574 -34.766 -28.647  1.00  0.00     0.087 C 
BRANCH  11  12
ATOM     12  C   UNL     1      12.443 -33.764 -28.313  1.00  0.00     0.066 C 
BRANCH  12  13
ATOM     13  C   UNL     1      12.541 -32.534 -29.199  1.00  0.00     0.140 C 
ATOM     14  O   UNL     1      13.295 -31.622 -28.893  1.00  0.00    -0.299 OA
BRANCH  13  15
ATOM     15  C   UNL     1      11.698 -32.390 -30.442  1.00  0.00     0.106 CG0
ATOM     16  G   UNL     1      12.371 -32.979 -31.667  1.00  0.00     0.000 G0
ENDBRANCH  13  15
ENDBRANCH  12  13
BRANCH  12  17
ATOM     17  C   UNL     1      12.380 -33.363 -26.806  1.00  0.00    -0.006 C 
ATOM     18  C   UNL     1      11.305 -34.162 -26.052  1.00  0.00     0.008 C 
ATOM     19  C   UNL     1      13.726 -33.477 -26.069  1.00  0.00     0.008 C 
ENDBRANCH  12  17
ENDBRANCH  11  12
ENDBRANCH   1  11
TORSDOF 1
ENDMDL
MODEL 3
REMARK VINA RESULT:    -4.470      1.934      3.524
REMARK INTER + INTRA:          -5.427
REMARK INTER:                  -5.665
REMARK INTRA:                   0.238
REMARK UNBOUND:                 1.395
REMARK SMILES CC1=CCC[C@H](C)C(=O)C[C@@H](C(C)C)C(=O)C1
REMARK SMILES IDX 8 1 9 2 6 3 7 4 5 5 4 6 3 7 2 8 1 9 10 11 11 12 15 13 16 14
REMARK SMILES IDX 17 15 12 17 13 18 14 19
REMARK H PARENT
REMARK Flexibility Score: 70.00
ROOT
ATOM      1  C   UNL     1      12.368 -32.974 -29.016  1.00  0.00     0.136 C 
ATOM      2  O   UNL     1      11.240 -32.501 -28.998  1.00  0.00    -0.299 OA
ENDROOT
BRANCH   1   3
ATOM      3  C   UNL     1      12.835 -33.858 -27.877  1.00  0.00     0.053 C 
ATOM      4  C   UNL     1      12.218 -33.359 -26.567  1.00  0.00     0.016 C 
BRANCH   3   5
ATOM      5  C   UNL     1      12.493 -35.351 -28.096  1.00  0.00     0.015 C 
BRANCH   5   6
ATOM      6  C   UNL     1      13.641 -36.170 -28.715  1.00  0.00     0.028 C 
BRANCH   6   7
ATOM      7  C   UNL     1      13.136 -37.111 -29.783  1.00  0.00    -0.028 C 
ATOM      8  C   UNL     1      13.046 -36.826 -31.103  1.00  0.00    -0.070 CG0
ATOM      9  C   UNL     1      12.521 -37.900 -32.022  1.00  0.00     0.039 C 
ATOM     10  G   UNL     1      13.446 -35.485 -31.689  1.00  0.00     0.000 G0
ENDBRANCH   6   7
ENDBRANCH   5   6
ENDBRANCH   3   5
ENDBRANCH   1   3
BRANCH   1  11
ATOM     11  C   UNL     1      13.302 -32.611 -30.144  1.00  0.00     0.087 C 
BRANCH  11  12
ATOM     12  C   UNL     1      12.695 -32.954 -31.526  1.00  0.00     0.066 C 
BRANCH  12  13
ATOM     13  C   UNL     1      12.371 -34.435 -31.615  1.00  0.00     0.140 C 
ATOM     14  O   UNL     1      11.207 -34.806 -31.578  1.00  0.00    -0.299 OA
BRANCH  13  15
ATOM     15  C   UNL     1      13.460 -35.474 -31.713  1.00  0.00     0.106 CG0
ATOM     16  G   UNL     1      13.045 -36.803 -31.109  1.00  0.00     0.000 G0
ENDBRANCH  13  15
ENDBRANCH  12  13
BRANCH  12  17
ATOM     17  C   UNL     1      13.578 -32.503 -32.731  1.00  0.00    -0.006 C 
ATOM     18  C   UNL     1      12.787 -31.628 -33.717  1.00  0.00     0.008 C 
ATOM     19  C   UNL     1      14.877 -31.784 -32.324  1.00  0.00     0.008 C 
ENDBRANCH  12  17
ENDBRANCH  11  12
ENDBRANCH   1  11
TORSDOF 1
ENDMDL
MODEL 4
REMARK VINA RESULT:    -4.356      2.124      3.563
REMARK INTER + INTRA:          -5.253
REMARK INTER:                  -6.035
REMARK INTRA:                   0.783
REMARK UNBOUND:                 1.395
REMARK SMILES CC1=CCC[C@H](C)C(=O)C[C@@H](C(C)C)C(=O)C1
REMARK SMILES IDX 8 1 9 2 6 3 7 4 5 5 4 6 3 7 2 8 1 9 10 11 11 12 15 13 16 14
REMARK SMILES IDX 17 15 12 17 13 18 14 19
REMARK H PARENT
REMARK Flexibility Score: 70.00
ROOT
ATOM      1  C   UNL     1      13.898 -32.146 -30.870  1.00  0.00     0.136 C 
ATOM      2  O   UNL     1      14.521 -31.153 -31.220  1.00  0.00    -0.299 OA
ENDROOT
BRANCH   1   3
ATOM      3  C   UNL     1      13.547 -32.343 -29.409  1.00  0.00     0.053 C 
ATOM      4  C   UNL     1      14.090 -31.161 -28.598  1.00  0.00     0.016 C 
BRANCH   3   5
ATOM      5  C   UNL     1      12.027 -32.502 -29.171  1.00  0.00     0.015 C 
BRANCH   5   6
ATOM      6  C   UNL     1      11.671 -33.512 -28.065  1.00  0.00     0.028 C 
BRANCH   6   7
ATOM      7  C   UNL     1      12.723 -34.589 -27.940  1.00  0.00    -0.028 C 
ATOM      8  C   UNL     1      12.846 -35.665 -28.750  1.00  0.00    -0.070 CG0
ATOM      9  C   UNL     1      13.968 -36.634 -28.471  1.00  0.00     0.039 C 
ATOM     10  G   UNL     1      11.913 -35.935 -29.915  1.00  0.00     0.000 G0
ENDBRANCH   6   7
ENDBRANCH   5   6
ENDBRANCH   3   5
ENDBRANCH   1   3
BRANCH   1  11
ATOM     11  C   UNL     1      13.547 -33.196 -31.896  1.00  0.00     0.087 C 
BRANCH  11  12
ATOM     12  C   UNL     1      12.206 -33.895 -31.568  1.00  0.00     0.066 C 
BRANCH  12  13
ATOM     13  C   UNL     1      12.436 -35.355 -31.217  1.00  0.00     0.140 C 
ATOM     14  O   UNL     1      13.019 -36.086 -32.005  1.00  0.00    -0.299 OA
BRANCH  13  15
ATOM     15  C   UNL     1      11.929 -35.942 -29.923  1.00  0.00     0.106 CG0
ATOM     16  G   UNL     1      12.862 -35.663 -28.759  1.00  0.00     0.000 G0
ENDBRANCH  13  15
ENDBRANCH  12  13
BRANCH  12  17
ATOM     17  C   UNL     1      11.131 -33.754 -32.690  1.00  0.00    -0.006 C 
ATOM     18  C   UNL     1       9.914 -34.656 -32.427  1.00  0.00     0.008 C 
ATOM     19  C   UNL     1      10.664 -32.307 -32.934  1.00  0.00     0.008 C 
ENDBRANCH  12  17
ENDBRANCH  11  12
ENDBRANCH   1  11
TORSDOF 1
ENDMDL
MODEL 5
REMARK VINA RESULT:    -4.336      1.816      3.864
REMARK INTER + INTRA:          -5.222
REMARK INTER:                  -6.015
REMARK INTRA:                   0.793
REMARK UNBOUND:                 1.395
REMARK SMILES CC1=CCC[C@H](C)C(=O)C[C@@H](C(C)C)C(=O)C1
REMARK SMILES IDX 8 1 9 2 6 3 7 4 5 5 4 6 3 7 2 8 1 9 10 11 11 12 15 13 16 14
REMARK SMILES IDX 17 15 12 17 13 18 14 19
REMARK H PARENT
REMARK Flexibility Score: 70.00
ROOT
ATOM      1  C   UNL     1      10.837 -33.989 -28.962  1.00  0.00     0.136 C 
ATOM      2  O   UNL     1       9.891 -33.486 -29.552  1.00  0.00    -0.299 OA
ENDROOT
BRANCH   1   3
ATOM      3  C   UNL     1      11.520 -33.229 -27.843  1.00  0.00     0.053 C 
ATOM      4  C   UNL     1      11.666 -34.149 -26.626  1.00  0.00     0.016 C 
BRANCH   3   5
ATOM      5  C   UNL     1      12.900 -32.664 -28.255  1.00  0.00     0.015 C 
BRANCH   5   6
ATOM      6  C   UNL     1      12.840 -31.665 -29.425  1.00  0.00     0.028 C 
BRANCH   6   7
ATOM      7  C   UNL     1      13.878 -31.982 -30.476  1.00  0.00    -0.028 C 
ATOM      8  C   UNL     1      13.648 -32.640 -31.636  1.00  0.00    -0.070 CG0
ATOM      9  C   UNL     1      14.814 -32.858 -32.567  1.00  0.00     0.039 C 
ATOM     10  G   UNL     1      12.280 -33.162 -32.033  1.00  0.00     0.000 G0
ENDBRANCH   6   7
ENDBRANCH   5   6
ENDBRANCH   3   5
ENDBRANCH   1   3
BRANCH   1  11
ATOM     11  C   UNL     1      11.351 -35.337 -29.406  1.00  0.00     0.087 C 
BRANCH  11  12
ATOM     12  C   UNL     1      12.544 -35.205 -30.382  1.00  0.00     0.066 C 
BRANCH  12  13
ATOM     13  C   UNL     1      12.085 -34.633 -31.713  1.00  0.00     0.140 C 
ATOM     14  O   UNL     1      11.571 -35.366 -32.545  1.00  0.00    -0.299 OA
BRANCH  13  15
ATOM     15  C   UNL     1      12.281 -33.176 -32.052  1.00  0.00     0.106 CG0
ATOM     16  G   UNL     1      13.643 -32.663 -31.623  1.00  0.00     0.000 G0
ENDBRANCH  13  15
ENDBRANCH  12  13
BRANCH  12  17
ATOM     17  C   UNL     1      13.339 -36.532 -30.589  1.00  0.00    -0.006 C 
ATOM     18  C   UNL     1      13.944 -37.041 -29.271  1.00  0.00     0.008 C 
ATOM     19  C   UNL     1      12.525 -37.654 -31.257  1.00  0.00     0.008 C 
ENDBRANCH  12  17
ENDBRANCH  11  12
ENDBRANCH   1  11
TORSDOF 1
ENDMDL
MODEL 6
REMARK VINA RESULT:    -4.225      1.715      2.813
REMARK INTER + INTRA:          -5.053
REMARK INTER:                  -5.309
REMARK INTRA:                   0.256
REMARK UNBOUND:                 1.395
REMARK SMILES CC1=CCC[C@H](C)C(=O)C[C@@H](C(C)C)C(=O)C1
REMARK SMILES IDX 8 1 9 2 6 3 7 4 5 5 4 6 3 7 2 8 1 9 10 11 11 12 15 13 16 14
REMARK SMILES IDX 17 15 12 17 13 18 14 19
REMARK H PARENT
REMARK Flexibility Score: 70.00
ROOT
ATOM      1  C   UNL     1      11.219 -35.621 -31.010  1.00  0.00     0.136 C 
ATOM      2  O   UNL     1      10.211 -35.686 -30.318  1.00  0.00    -0.299 OA
ENDROOT
BRANCH   1   3
ATOM      3  C   UNL     1      12.204 -36.773 -31.019  1.00  0.00     0.053 C 
ATOM      4  C   UNL     1      13.275 -36.509 -32.082  1.00  0.00     0.016 C 
BRANCH   3   5
ATOM      5  C   UNL     1      12.864 -37.011 -29.641  1.00  0.00     0.015 C 
BRANCH   5   6
ATOM      6  C   UNL     1      13.501 -35.750 -29.028  1.00  0.00     0.028 C 
BRANCH   6   7
ATOM      7  C   UNL     1      12.707 -35.249 -27.845  1.00  0.00    -0.028 C 
ATOM      8  C   UNL     1      12.368 -33.959 -27.615  1.00  0.00    -0.070 CG0
ATOM      9  C   UNL     1      11.564 -33.651 -26.377  1.00  0.00     0.039 C 
ATOM     10  G   UNL     1      12.760 -32.823 -28.541  1.00  0.00     0.000 G0
ENDBRANCH   6   7
ENDBRANCH   5   6
ENDBRANCH   3   5
ENDBRANCH   1   3
BRANCH   1  11
ATOM     11  C   UNL     1      11.496 -34.362 -31.793  1.00  0.00     0.087 C 
BRANCH  11  12
ATOM     12  C   UNL     1      12.559 -33.476 -31.101  1.00  0.00     0.066 C 
BRANCH  12  13
ATOM     13  C   UNL     1      11.989 -32.838 -29.846  1.00  0.00     0.140 C 
ATOM     14  O   UNL     1      10.889 -32.305 -29.879  1.00  0.00    -0.299 OA
BRANCH  13  15
ATOM     15  C   UNL     1      12.767 -32.814 -28.554  1.00  0.00     0.106 CG0
ATOM     16  G   UNL     1      12.383 -33.954 -27.629  1.00  0.00     0.000 G0
ENDBRANCH  13  15
ENDBRANCH  12  13
BRANCH  12  17
ATOM     17  C   UNL     1      13.188 -32.398 -32.039  1.00  0.00    -0.006 C 
ATOM     18  C   UNL     1      14.605 -32.792 -32.484  1.00  0.00     0.008 C 
ATOM     19  C   UNL     1      12.329 -32.059 -33.271  1.00  0.00     0.008 C 
ENDBRANCH  12  17
ENDBRANCH  11  12
ENDBRANCH   1  11
TORSDOF 1
ENDMDL
MODEL 7
REMARK VINA RESULT:    -4.088      2.089      4.666
REMARK INTER + INTRA:          -4.844
REMARK INTER:                  -6.205
REMARK INTRA:                   1.361
REMARK UNBOUND:                 1.395
REMARK SMILES CC1=CCC[C@H](C)C(=O)C[C@@H](C(C)C)C(=O)C1
REMARK SMILES IDX 8 1 9 2 6 3 7 4 5 5 4 6 3 7 2 8 1 9 10 11 11 12 15 13 16 14
REMARK SMILES IDX 17 15 12 17 13 18 14 19
REMARK H PARENT
REMARK Flexibility Score: 70.00
ROOT
ATOM      1  C   UNL     1      13.298 -32.388 -30.306  1.00  0.00     0.136 C 
ATOM      2  O   UNL     1      13.884 -31.454 -29.776  1.00  0.00    -0.299 OA
ENDROOT
BRANCH   1   3
ATOM      3  C   UNL     1      13.426 -32.611 -31.800  1.00  0.00     0.053 C 
ATOM      4  C   UNL     1      14.372 -33.789 -32.053  1.00  0.00     0.016 C 
BRANCH   3   5
ATOM      5  C   UNL     1      12.065 -32.860 -32.490  1.00  0.00     0.015 C 
BRANCH   5   6
ATOM      6  C   UNL     1      11.213 -33.951 -31.815  1.00  0.00     0.028 C 
BRANCH   6   7
ATOM      7  C   UNL     1      11.731 -35.334 -32.134  1.00  0.00    -0.028 C 
ATOM      8  C   UNL     1      11.985 -36.307 -31.229  1.00  0.00    -0.070 CG0
ATOM      9  C   UNL     1      12.494 -37.631 -31.741  1.00  0.00     0.039 C 
ATOM     10  G   UNL     1      11.785 -36.122 -29.737  1.00  0.00     0.000 G0
ENDBRANCH   6   7
ENDBRANCH   5   6
ENDBRANCH   3   5
ENDBRANCH   1   3
BRANCH   1  11
ATOM     11  C   UNL     1      12.400 -33.266 -29.469  1.00  0.00     0.087 C 
BRANCH  11  12
ATOM     12  C   UNL     1      13.211 -34.225 -28.566  1.00  0.00     0.066 C 
BRANCH  12  13
ATOM     13  C   UNL     1      13.057 -35.661 -29.037  1.00  0.00     0.140 C 
ATOM     14  O   UNL     1      13.974 -36.455 -28.879  1.00  0.00    -0.299 OA
BRANCH  13  15
ATOM     15  C   UNL     1      11.805 -36.130 -29.734  1.00  0.00     0.106 CG0
ATOM     16  G   UNL     1      12.009 -36.316 -31.225  1.00  0.00     0.000 G0
ENDBRANCH  13  15
ENDBRANCH  12  13
BRANCH  12  17
ATOM     17  C   UNL     1      12.874 -34.097 -27.048  1.00  0.00    -0.006 C 
ATOM     18  C   UNL     1      13.753 -33.040 -26.360  1.00  0.00     0.008 C 
ATOM     19  C   UNL     1      11.390 -33.811 -26.755  1.00  0.00     0.008 C 
ENDBRANCH  12  17
ENDBRANCH  11  12
ENDBRANCH   1  11
TORSDOF 1
ENDMDL
MODEL 8
REMARK VINA RESULT:    -3.876      2.126      4.690
REMARK INTER + INTRA:          -4.520
REMARK INTER:                  -5.413
REMARK INTRA:                   0.893
REMARK UNBOUND:                 1.395
REMARK SMILES CC1=CCC[C@H](C)C(=O)C[C@@H](C(C)C)C(=O)C1
REMARK SMILES IDX 8 1 9 2 6 3 7 4 5 5 4 6 3 7 2 8 1 9 10 11 11 12 15 13 16 14
REMARK SMILES IDX 17 15 12 17 13 18 14 19
REMARK H PARENT
REMARK Flexibility Score: 70.00
ROOT
ATOM      1  C   UNL     1      12.805 -32.851 -30.812  1.00  0.00     0.136 C 
ATOM      2  O   UNL     1      13.887 -32.546 -31.295  1.00  0.00    -0.299 OA
ENDROOT
BRANCH   1   3
ATOM      3  C   UNL     1      11.797 -33.623 -31.639  1.00  0.00     0.053 C 
ATOM      4  C   UNL     1      11.228 -32.705 -32.725  1.00  0.00     0.016 C 
BRANCH   3   5
ATOM      5  C   UNL     1      12.395 -34.899 -32.277  1.00  0.00     0.015 C 
BRANCH   5   6
ATOM      6  C   UNL     1      12.125 -36.184 -31.473  1.00  0.00     0.028 C 
BRANCH   6   7
ATOM      7  C   UNL     1      13.268 -36.503 -30.537  1.00  0.00    -0.028 C 
ATOM      8  C   UNL     1      13.213 -36.460 -29.186  1.00  0.00    -0.070 CG0
ATOM      9  C   UNL     1      14.460 -36.819 -28.418  1.00  0.00     0.039 C 
ATOM     10  G   UNL     1      11.963 -36.069 -28.421  1.00  0.00     0.000 G0
ENDBRANCH   6   7
ENDBRANCH   5   6
ENDBRANCH   3   5
ENDBRANCH   1   3
BRANCH   1  11
ATOM     11  C   UNL     1      12.465 -32.391 -29.415  1.00  0.00     0.087 C 
BRANCH  11  12
ATOM     12  C   UNL     1      12.662 -33.519 -28.374  1.00  0.00     0.066 C 
BRANCH  12  13
ATOM     13  C   UNL     1      11.617 -34.606 -28.560  1.00  0.00     0.140 C 
ATOM     14  O   UNL     1      10.459 -34.301 -28.805  1.00  0.00    -0.299 OA
BRANCH  13  15
ATOM     15  C   UNL     1      11.966 -36.065 -28.414  1.00  0.00     0.106 CG0
ATOM     16  G   UNL     1      13.207 -36.443 -29.202  1.00  0.00     0.000 G0
ENDBRANCH  13  15
ENDBRANCH  12  13
BRANCH  12  17
ATOM     17  C   UNL     1      12.687 -33.015 -26.897  1.00  0.00    -0.006 C 
ATOM     18  C   UNL     1      11.672 -33.771 -26.024  1.00  0.00     0.008 C 
ATOM     19  C   UNL     1      14.078 -33.065 -26.240  1.00  0.00     0.008 C 
ENDBRANCH  12  17
ENDBRANCH  11  12
ENDBRANCH   1  11
TORSDOF 1
ENDMDL
MODEL 9
REMARK VINA RESULT:    -3.697      2.191      3.781
REMARK INTER + INTRA:          -4.247
REMARK INTER:                  -5.686
REMARK INTRA:                   1.439
REMARK UNBOUND:                 1.395
REMARK SMILES CC1=CCC[C@H](C)C(=O)C[C@@H](C(C)C)C(=O)C1
REMARK SMILES IDX 8 1 9 2 6 3 7 4 5 5 4 6 3 7 2 8 1 9 10 11 11 12 15 13 16 14
REMARK SMILES IDX 17 15 12 17 13 18 14 19
REMARK H PARENT
REMARK Flexibility Score: 70.00
ROOT
ATOM      1  C   UNL     1      12.824 -32.699 -28.666  1.00  0.00     0.136 C 
ATOM      2  O   UNL     1      13.628 -31.897 -29.122  1.00  0.00    -0.299 OA
ENDROOT
BRANCH   1   3
ATOM      3  C   UNL     1      13.250 -33.657 -27.572  1.00  0.00     0.053 C 
ATOM      4  C   UNL     1      12.761 -33.127 -26.221  1.00  0.00     0.016 C 
BRANCH   3   5
ATOM      5  C   UNL     1      12.734 -35.097 -27.800  1.00  0.00     0.015 C 
BRANCH   5   6
ATOM      6  C   UNL     1      13.717 -35.997 -28.573  1.00  0.00     0.028 C 
BRANCH   6   7
ATOM      7  C   UNL     1      13.057 -36.637 -29.772  1.00  0.00    -0.028 C 
ATOM      8  C   UNL     1      13.000 -36.106 -31.015  1.00  0.00    -0.070 CG0
ATOM      9  C   UNL     1      12.300 -36.899 -32.089  1.00  0.00     0.039 C 
ATOM     10  G   UNL     1      13.605 -34.760 -31.368  1.00  0.00     0.000 G0
ENDBRANCH   6   7
ENDBRANCH   5   6
ENDBRANCH   3   5
ENDBRANCH   1   3
BRANCH   1  11
ATOM     11  C   UNL     1      11.434 -32.763 -29.251  1.00  0.00     0.087 C 
BRANCH  11  12
ATOM     12  C   UNL     1      11.363 -33.724 -30.462  1.00  0.00     0.066 C 
BRANCH  12  13
ATOM     13  C   UNL     1      12.624 -33.619 -31.303  1.00  0.00     0.140 C 
ATOM     14  O   UNL     1      12.840 -32.606 -31.952  1.00  0.00    -0.299 OA
BRANCH  13  15
ATOM     15  C   UNL     1      13.611 -34.757 -31.386  1.00  0.00     0.106 CG0
ATOM     16  G   UNL     1      12.988 -36.088 -31.010  1.00  0.00     0.000 G0
ENDBRANCH  13  15
ENDBRANCH  12  13
BRANCH  12  17
ATOM     17  C   UNL     1      10.088 -33.537 -31.342  1.00  0.00    -0.006 C 
ATOM     18  C   UNL     1       9.927 -32.079 -31.802  1.00  0.00     0.008 C 
ATOM     19  C   UNL     1      10.020 -34.478 -32.558  1.00  0.00     0.008 C 
ENDBRANCH  12  17
ENDBRANCH  11  12
ENDBRANCH   1  11
TORSDOF 1
ENDMDL
