MODEL 1
REMARK VINA RESULT:    -6.808      0.000      0.000
REMARK INTER + INTRA:         -10.090
REMARK INTER:                  -9.594
REMARK INTRA:                  -0.497
REMARK UNBOUND:                -0.497
REMARK SMILES COc1ccc(-c2cc(=O)c3c(OC)c(OC)c(OC)c(OC)c3o2)cc1OC
REMARK SMILES IDX 7 1 8 2 9 3 10 4 11 5 24 6 25 7 21 8 18 9 15 10 12 11 6 12
REMARK SMILES IDX 3 13 27 14 4 15 26 16 5 17 2 18 1 19 28 20 29 21 22 22 23 23
REMARK SMILES IDX 13 24 14 25 19 26 20 27 16 28 17 29
REMARK H PARENT
REMARK Flexibility Score: inf
ROOT
ATOM      1  C   UNL     1      30.001  58.002  -4.073  1.00  0.00     0.138 A 
ATOM      2  C   UNL     1      31.198  58.660  -3.780  1.00  0.00     0.100 A 
ATOM      3  C   UNL     1      31.576  58.823  -2.451  1.00  0.00     0.197 A 
ATOM      4  O   UNL     1      32.665  59.409  -2.205  1.00  0.00    -0.289 OA
ATOM      5  C   UNL     1      30.743  58.333  -1.417  1.00  0.00     0.115 A 
ATOM      6  C   UNL     1      29.552  57.667  -1.789  1.00  0.00     0.188 A 
ATOM      7  O   UNL     1      29.250  57.534  -3.080  1.00  0.00    -0.452 OA
ATOM      8  C   UNL     1      28.681  57.149  -0.800  1.00  0.00     0.209 A 
ATOM      9  C   UNL     1      29.003  57.318   0.573  1.00  0.00     0.211 A 
ATOM     10  C   UNL     1      30.183  58.013   0.942  1.00  0.00     0.208 A 
ATOM     11  C   UNL     1      31.070  58.478  -0.052  1.00  0.00     0.179 A 
ENDROOT
BRANCH   1  12
ATOM     12  C   UNL     1      29.554  57.807  -5.473  1.00  0.00     0.021 A 
ATOM     13  C   UNL     1      28.705  57.400  -8.132  1.00  0.00     0.160 A 
ATOM     14  C   UNL     1      29.278  58.627  -7.763  1.00  0.00     0.161 A 
ATOM     15  C   UNL     1      28.535  56.393  -7.165  1.00  0.00     0.051 A 
ATOM     16  C   UNL     1      29.700  58.825  -6.433  1.00  0.00     0.062 A 
ATOM     17  C   UNL     1      28.950  56.600  -5.849  1.00  0.00     0.016 A 
BRANCH  13  18
ATOM     18  O   UNL     1      28.314  57.221  -9.468  1.00  0.00    -0.493 OA
ATOM     19  C   UNL     1      27.819  56.004 -10.010  1.00  0.00     0.278 C 
ENDBRANCH  13  18
BRANCH  14  20
ATOM     20  O   UNL     1      29.414  59.621  -8.744  1.00  0.00    -0.493 OA
ATOM     21  C   UNL     1      28.337  60.390  -9.271  1.00  0.00     0.278 C 
ENDBRANCH  14  20
ENDBRANCH   1  12
BRANCH   8  22
ATOM     22  O   UNL     1      27.481  56.486  -1.128  1.00  0.00    -0.490 OA
ATOM     23  C   UNL     1      26.155  56.994  -1.021  1.00  0.00     0.278 C 
ENDBRANCH   8  22
BRANCH  11  24
ATOM     24  O   UNL     1      32.275  59.121   0.292  1.00  0.00    -0.492 OA
ATOM     25  C   UNL     1      33.412  58.474   0.857  1.00  0.00     0.278 C 
ENDBRANCH  11  24
BRANCH   9  26
ATOM     26  O   UNL     1      28.189  56.814   1.606  1.00  0.00    -0.490 OA
ATOM     27  C   UNL     1      28.308  55.569   2.290  1.00  0.00     0.279 C 
ENDBRANCH   9  26
BRANCH  10  28
ATOM     28  O   UNL     1      30.517  58.295   2.282  1.00  0.00    -0.490 OA
ATOM     29  C   UNL     1      30.116  59.419   3.057  1.00  0.00     0.278 C 
ENDBRANCH  10  28
TORSDOF 7
ENDMDL
MODEL 2
REMARK VINA RESULT:    -6.289     15.792     18.168
REMARK INTER + INTRA:          -9.359
REMARK INTER:                  -8.718
REMARK INTRA:                  -0.642
REMARK UNBOUND:                -0.497
REMARK SMILES COc1ccc(-c2cc(=O)c3c(OC)c(OC)c(OC)c(OC)c3o2)cc1OC
REMARK SMILES IDX 7 1 8 2 9 3 10 4 11 5 24 6 25 7 21 8 18 9 15 10 12 11 6 12
REMARK SMILES IDX 3 13 27 14 4 15 26 16 5 17 2 18 1 19 28 20 29 21 22 22 23 23
REMARK SMILES IDX 13 24 14 25 19 26 20 27 16 28 17 29
REMARK H PARENT
REMARK Flexibility Score: inf
ROOT
ATOM      1  C   UNL     1      44.527  65.504   4.333  1.00  0.00     0.138 A 
ATOM      2  C   UNL     1      45.309  64.419   3.931  1.00  0.00     0.100 A 
ATOM      3  C   UNL     1      44.873  63.128   4.209  1.00  0.00     0.197 A 
ATOM      4  O   UNL     1      45.586  62.159   3.829  1.00  0.00    -0.289 OA
ATOM      5  C   UNL     1      43.655  62.928   4.902  1.00  0.00     0.115 A 
ATOM      6  C   UNL     1      42.910  64.074   5.267  1.00  0.00     0.188 A 
ATOM      7  O   UNL     1      43.376  65.285   4.964  1.00  0.00    -0.452 OA
ATOM      8  C   UNL     1      41.681  63.940   5.957  1.00  0.00     0.209 A 
ATOM      9  C   UNL     1      41.206  62.645   6.295  1.00  0.00     0.211 A 
ATOM     10  C   UNL     1      41.971  61.500   5.953  1.00  0.00     0.208 A 
ATOM     11  C   UNL     1      43.169  61.643   5.220  1.00  0.00     0.179 A 
ENDROOT
BRANCH   1  12
ATOM     12  C   UNL     1      44.949  66.899   4.063  1.00  0.00     0.021 A 
ATOM     13  C   UNL     1      45.756  69.559   3.583  1.00  0.00     0.160 A 
ATOM     14  C   UNL     1      45.002  68.874   2.618  1.00  0.00     0.161 A 
ATOM     15  C   UNL     1      46.125  68.904   4.771  1.00  0.00     0.051 A 
ATOM     16  C   UNL     1      44.602  67.546   2.862  1.00  0.00     0.062 A 
ATOM     17  C   UNL     1      45.729  67.586   5.003  1.00  0.00     0.016 A 
BRANCH  13  18
ATOM     18  O   UNL     1      46.122  70.890   3.324  1.00  0.00    -0.493 OA
ATOM     19  C   UNL     1      45.442  72.029   3.833  1.00  0.00     0.278 C 
ENDBRANCH  13  18
BRANCH  14  20
ATOM     20  O   UNL     1      44.669  69.547   1.432  1.00  0.00    -0.493 OA
ATOM     21  C   UNL     1      43.343  69.894   1.045  1.00  0.00     0.278 C 
ENDBRANCH  14  20
ENDBRANCH   1  12
BRANCH   8  22
ATOM     22  O   UNL     1      40.911  65.055   6.346  1.00  0.00    -0.490 OA
ATOM     23  C   UNL     1      39.712  65.533   5.743  1.00  0.00     0.278 C 
ENDBRANCH   8  22
BRANCH  11  24
ATOM     24  O   UNL     1      43.915  60.517   4.821  1.00  0.00    -0.492 OA
ATOM     25  C   UNL     1      43.526  59.600   3.802  1.00  0.00     0.278 C 
ENDBRANCH  11  24
BRANCH   9  26
ATOM     26  O   UNL     1      39.984  62.440   6.965  1.00  0.00    -0.490 OA
ATOM     27  C   UNL     1      39.675  62.707   8.330  1.00  0.00     0.279 C 
ENDBRANCH   9  26
BRANCH  10  28
ATOM     28  O   UNL     1      41.606  60.193   6.336  1.00  0.00    -0.490 OA
ATOM     29  C   UNL     1      41.708  59.610   7.630  1.00  0.00     0.278 C 
ENDBRANCH  10  28
TORSDOF 7
ENDMDL
MODEL 3
REMARK VINA RESULT:    -6.262      2.898      9.571
REMARK INTER + INTRA:          -9.321
REMARK INTER:                  -8.762
REMARK INTRA:                  -0.559
REMARK UNBOUND:                -0.497
REMARK SMILES COc1ccc(-c2cc(=O)c3c(OC)c(OC)c(OC)c(OC)c3o2)cc1OC
REMARK SMILES IDX 7 1 8 2 9 3 10 4 11 5 24 6 25 7 21 8 18 9 15 10 12 11 6 12
REMARK SMILES IDX 3 13 27 14 4 15 26 16 5 17 2 18 1 19 28 20 29 21 22 22 23 23
REMARK SMILES IDX 13 24 14 25 19 26 20 27 16 28 17 29
REMARK H PARENT
REMARK Flexibility Score: inf
ROOT
ATOM      1  C   UNL     1      27.831  56.164   2.198  1.00  0.00     0.138 A 
ATOM      2  C   UNL     1      27.049  55.680   1.148  1.00  0.00     0.100 A 
ATOM      3  C   UNL     1      27.341  56.071  -0.154  1.00  0.00     0.197 A 
ATOM      4  O   UNL     1      26.631  55.616  -1.092  1.00  0.00    -0.289 OA
ATOM      5  C   UNL     1      28.416  56.959  -0.398  1.00  0.00     0.115 A 
ATOM      6  C   UNL     1      29.173  57.400   0.713  1.00  0.00     0.188 A 
ATOM      7  O   UNL     1      28.848  56.981   1.936  1.00  0.00    -0.452 OA
ATOM      8  C   UNL     1      30.263  58.284   0.533  1.00  0.00     0.209 A 
ATOM      9  C   UNL     1      30.585  58.741  -0.773  1.00  0.00     0.211 A 
ATOM     10  C   UNL     1      29.804  58.322  -1.881  1.00  0.00     0.208 A 
ATOM     11  C   UNL     1      28.753  57.399  -1.696  1.00  0.00     0.179 A 
ENDROOT
BRANCH   1  12
ATOM     12  C   UNL     1      27.557  55.779   3.603  1.00  0.00     0.021 A 
ATOM     13  C   UNL     1      27.003  55.045   6.270  1.00  0.00     0.160 A 
ATOM     14  C   UNL     1      28.195  55.719   5.966  1.00  0.00     0.161 A 
ATOM     15  C   UNL     1      26.106  54.717   5.237  1.00  0.00     0.051 A 
ATOM     16  C   UNL     1      28.467  56.083   4.633  1.00  0.00     0.062 A 
ATOM     17  C   UNL     1      26.387  55.076   3.918  1.00  0.00     0.016 A 
BRANCH  13  18
ATOM     18  O   UNL     1      26.745  54.714   7.610  1.00  0.00    -0.493 OA
ATOM     19  C   UNL     1      25.877  55.439   8.469  1.00  0.00     0.278 C 
ENDBRANCH  13  18
BRANCH  14  20
ATOM     20  O   UNL     1      29.080  56.012   7.015  1.00  0.00    -0.493 OA
ATOM     21  C   UNL     1      29.620  57.303   7.280  1.00  0.00     0.278 C 
ENDBRANCH  14  20
ENDBRANCH   1  12
BRANCH   8  22
ATOM     22  O   UNL     1      31.038  58.753   1.613  1.00  0.00    -0.490 OA
ATOM     23  C   UNL     1      30.728  59.822   2.502  1.00  0.00     0.278 C 
ENDBRANCH   8  22
BRANCH  11  24
ATOM     24  O   UNL     1      28.001  56.925  -2.789  1.00  0.00    -0.492 OA
ATOM     25  C   UNL     1      28.508  56.088  -3.825  1.00  0.00     0.278 C 
ENDBRANCH  11  24
BRANCH   9  26
ATOM     26  O   UNL     1      31.666  59.609  -1.024  1.00  0.00    -0.490 OA
ATOM     27  C   UNL     1      33.012  59.265  -1.343  1.00  0.00     0.279 C 
ENDBRANCH   9  26
BRANCH  10  28
ATOM     28  O   UNL     1      30.010  58.806  -3.189  1.00  0.00    -0.490 OA
ATOM     29  C   UNL     1      30.978  58.365  -4.134  1.00  0.00     0.278 C 
ENDBRANCH  10  28
TORSDOF 7
ENDMDL
MODEL 4
REMARK VINA RESULT:    -6.124      3.150      6.698
REMARK INTER + INTRA:          -9.127
REMARK INTER:                  -8.742
REMARK INTRA:                  -0.385
REMARK UNBOUND:                -0.497
REMARK SMILES COc1ccc(-c2cc(=O)c3c(OC)c(OC)c(OC)c(OC)c3o2)cc1OC
REMARK SMILES IDX 7 1 8 2 9 3 10 4 11 5 24 6 25 7 21 8 18 9 15 10 12 11 6 12
REMARK SMILES IDX 3 13 27 14 4 15 26 16 5 17 2 18 1 19 28 20 29 21 22 22 23 23
REMARK SMILES IDX 13 24 14 25 19 26 20 27 16 28 17 29
REMARK H PARENT
REMARK Flexibility Score: inf
ROOT
ATOM      1  C   UNL     1      29.315  57.175   1.077  1.00  0.00     0.138 A 
ATOM      2  C   UNL     1      28.541  56.015   0.991  1.00  0.00     0.100 A 
ATOM      3  C   UNL     1      28.085  55.414   2.159  1.00  0.00     0.197 A 
ATOM      4  O   UNL     1      27.378  54.375   2.062  1.00  0.00    -0.289 OA
ATOM      5  C   UNL     1      28.417  55.974   3.416  1.00  0.00     0.115 A 
ATOM      6  C   UNL     1      29.195  57.156   3.426  1.00  0.00     0.188 A 
ATOM      7  O   UNL     1      29.594  57.689   2.272  1.00  0.00    -0.452 OA
ATOM      8  C   UNL     1      29.556  57.767   4.651  1.00  0.00     0.209 A 
ATOM      9  C   UNL     1      29.144  57.175   5.876  1.00  0.00     0.211 A 
ATOM     10  C   UNL     1      28.390  55.973   5.862  1.00  0.00     0.208 A 
ATOM     11  C   UNL     1      27.992  55.403   4.634  1.00  0.00     0.179 A 
ENDROOT
BRANCH   1  12
ATOM     12  C   UNL     1      29.827  57.850  -0.138  1.00  0.00     0.021 A 
ATOM     13  C   UNL     1      30.773  59.128  -2.469  1.00  0.00     0.160 A 
ATOM     14  C   UNL     1      31.685  58.673  -1.504  1.00  0.00     0.161 A 
ATOM     15  C   UNL     1      29.393  58.965  -2.253  1.00  0.00     0.051 A 
ATOM     16  C   UNL     1      31.207  58.036  -0.342  1.00  0.00     0.062 A 
ATOM     17  C   UNL     1      28.929  58.339  -1.096  1.00  0.00     0.016 A 
BRANCH  13  18
ATOM     18  O   UNL     1      31.277  59.738  -3.629  1.00  0.00    -0.493 OA
ATOM     19  C   UNL     1      31.149  59.210  -4.941  1.00  0.00     0.278 C 
ENDBRANCH  13  18
BRANCH  14  20
ATOM     20  O   UNL     1      33.055  58.870  -1.737  1.00  0.00    -0.493 OA
ATOM     21  C   UNL     1      34.098  58.289  -0.962  1.00  0.00     0.278 C 
ENDBRANCH  14  20
ENDBRANCH   1  12
BRANCH   8  22
ATOM     22  O   UNL     1      30.335  58.939   4.707  1.00  0.00    -0.490 OA
ATOM     23  C   UNL     1      29.979  60.238   4.245  1.00  0.00     0.278 C 
ENDBRANCH   8  22
BRANCH  11  24
ATOM     24  O   UNL     1      27.196  54.242   4.596  1.00  0.00    -0.492 OA
ATOM     25  C   UNL     1      25.875  54.141   5.123  1.00  0.00     0.278 C 
ENDBRANCH  11  24
BRANCH   9  26
ATOM     26  O   UNL     1      29.454  57.740   7.129  1.00  0.00    -0.490 OA
ATOM     27  C   UNL     1      30.638  57.566   7.901  1.00  0.00     0.279 C 
ENDBRANCH   9  26
BRANCH  10  28
ATOM     28  O   UNL     1      28.026  55.285   7.037  1.00  0.00    -0.490 OA
ATOM     29  C   UNL     1      27.255  55.778   8.126  1.00  0.00     0.278 C 
ENDBRANCH  10  28
TORSDOF 7
ENDMDL
MODEL 5
REMARK VINA RESULT:    -6.119      2.752      9.098
REMARK INTER + INTRA:          -9.119
REMARK INTER:                  -8.524
REMARK INTRA:                  -0.595
REMARK UNBOUND:                -0.497
REMARK SMILES COc1ccc(-c2cc(=O)c3c(OC)c(OC)c(OC)c(OC)c3o2)cc1OC
REMARK SMILES IDX 7 1 8 2 9 3 10 4 11 5 24 6 25 7 21 8 18 9 15 10 12 11 6 12
REMARK SMILES IDX 3 13 27 14 4 15 26 16 5 17 2 18 1 19 28 20 29 21 22 22 23 23
REMARK SMILES IDX 13 24 14 25 19 26 20 27 16 28 17 29
REMARK H PARENT
REMARK Flexibility Score: inf
ROOT
ATOM      1  C   UNL     1      29.270  57.111   2.539  1.00  0.00     0.138 A 
ATOM      2  C   UNL     1      30.483  57.800   2.604  1.00  0.00     0.100 A 
ATOM      3  C   UNL     1      31.081  58.236   1.426  1.00  0.00     0.197 A 
ATOM      4  O   UNL     1      32.170  58.866   1.504  1.00  0.00    -0.289 OA
ATOM      5  C   UNL     1      30.463  57.967   0.181  1.00  0.00     0.115 A 
ATOM      6  C   UNL     1      29.229  57.274   0.194  1.00  0.00     0.188 A 
ATOM      7  O   UNL     1      28.703  56.892   1.356  1.00  0.00    -0.452 OA
ATOM      8  C   UNL     1      28.560  56.982  -1.019  1.00  0.00     0.209 A 
ATOM      9  C   UNL     1      29.143  57.375  -2.253  1.00  0.00     0.211 A 
ATOM     10  C   UNL     1      30.395  58.042  -2.262  1.00  0.00     0.208 A 
ATOM     11  C   UNL     1      31.028  58.375  -1.046  1.00  0.00     0.179 A 
ENDROOT
BRANCH   1  12
ATOM     12  C   UNL     1      28.596  56.624   3.766  1.00  0.00     0.021 A 
ATOM     13  C   UNL     1      27.281  55.705   6.087  1.00  0.00     0.160 A 
ATOM     14  C   UNL     1      28.623  56.110   6.159  1.00  0.00     0.161 A 
ATOM     15  C   UNL     1      26.611  55.737   4.851  1.00  0.00     0.051 A 
ATOM     16  C   UNL     1      29.275  56.567   4.997  1.00  0.00     0.062 A 
ATOM     17  C   UNL     1      27.266  56.186   3.704  1.00  0.00     0.016 A 
BRANCH  13  18
ATOM     18  O   UNL     1      26.649  55.276   7.264  1.00  0.00    -0.493 OA
ATOM     19  C   UNL     1      26.476  53.916   7.640  1.00  0.00     0.278 C 
ENDBRANCH  13  18
BRANCH  14  20
ATOM     20  O   UNL     1      29.272  56.045   7.402  1.00  0.00    -0.493 OA
ATOM     21  C   UNL     1      29.547  57.170   8.230  1.00  0.00     0.278 C 
ENDBRANCH  14  20
ENDBRANCH   1  12
BRANCH   8  22
ATOM     22  O   UNL     1      27.334  56.287  -1.052  1.00  0.00    -0.490 OA
ATOM     23  C   UNL     1      26.024  56.838  -0.956  1.00  0.00     0.278 C 
ENDBRANCH   8  22
BRANCH  11  24
ATOM     24  O   UNL     1      32.243  59.087  -1.029  1.00  0.00    -0.492 OA
ATOM     25  C   UNL     1      33.511  58.546  -1.390  1.00  0.00     0.278 C 
ENDBRANCH  11  24
BRANCH   9  26
ATOM     26  O   UNL     1      28.522  57.129  -3.493  1.00  0.00    -0.490 OA
ATOM     27  C   UNL     1      28.850  56.133  -4.457  1.00  0.00     0.279 C 
ENDBRANCH   9  26
BRANCH  10  28
ATOM     28  O   UNL     1      31.073  58.379  -3.451  1.00  0.00    -0.490 OA
ATOM     29  C   UNL     1      30.884  59.536  -4.258  1.00  0.00     0.278 C 
ENDBRANCH  10  28
TORSDOF 7
ENDMDL
MODEL 6
REMARK VINA RESULT:    -6.115     13.526     16.797
REMARK INTER + INTRA:          -9.115
REMARK INTER:                  -8.365
REMARK INTRA:                  -0.749
REMARK UNBOUND:                -0.497
REMARK SMILES COc1ccc(-c2cc(=O)c3c(OC)c(OC)c(OC)c(OC)c3o2)cc1OC
REMARK SMILES IDX 7 1 8 2 9 3 10 4 11 5 24 6 25 7 21 8 18 9 15 10 12 11 6 12
REMARK SMILES IDX 3 13 27 14 4 15 26 16 5 17 2 18 1 19 28 20 29 21 22 22 23 23
REMARK SMILES IDX 13 24 14 25 19 26 20 27 16 28 17 29
REMARK H PARENT
REMARK Flexibility Score: inf
ROOT
ATOM      1  C   UNL     1      43.036  60.234   5.272  1.00  0.00     0.138 A 
ATOM      2  C   UNL     1      44.236  60.595   4.655  1.00  0.00     0.100 A 
ATOM      3  C   UNL     1      44.827  59.716   3.754  1.00  0.00     0.197 A 
ATOM      4  O   UNL     1      45.905  60.062   3.197  1.00  0.00    -0.289 OA
ATOM      5  C   UNL     1      44.216  58.468   3.482  1.00  0.00     0.115 A 
ATOM      6  C   UNL     1      42.996  58.175   4.135  1.00  0.00     0.188 A 
ATOM      7  O   UNL     1      42.474  59.063   4.980  1.00  0.00    -0.452 OA
ATOM      8  C   UNL     1      42.334  56.947   3.900  1.00  0.00     0.209 A 
ATOM      9  C   UNL     1      42.912  55.999   3.014  1.00  0.00     0.211 A 
ATOM     10  C   UNL     1      44.151  56.284   2.384  1.00  0.00     0.208 A 
ATOM     11  C   UNL     1      44.775  57.533   2.586  1.00  0.00     0.179 A 
ENDROOT
BRANCH   1  12
ATOM     12  C   UNL     1      42.368  61.134   6.242  1.00  0.00     0.021 A 
ATOM     13  C   UNL     1      41.081  62.822   8.101  1.00  0.00     0.160 A 
ATOM     14  C   UNL     1      41.563  63.352   6.894  1.00  0.00     0.161 A 
ATOM     15  C   UNL     1      41.268  61.456   8.384  1.00  0.00     0.051 A 
ATOM     16  C   UNL     1      42.205  62.506   5.970  1.00  0.00     0.062 A 
ATOM     17  C   UNL     1      41.911  60.626   7.465  1.00  0.00     0.016 A 
BRANCH  13  18
ATOM     18  O   UNL     1      40.425  63.682   8.994  1.00  0.00    -0.493 OA
ATOM     19  C   UNL     1      39.037  63.984   8.955  1.00  0.00     0.278 C 
ENDBRANCH  13  18
BRANCH  14  20
ATOM     20  O   UNL     1      41.381  64.722   6.650  1.00  0.00    -0.493 OA
ATOM     21  C   UNL     1      40.417  65.263   5.752  1.00  0.00     0.278 C 
ENDBRANCH  14  20
ENDBRANCH   1  12
BRANCH   8  22
ATOM     22  O   UNL     1      41.121  56.612   4.536  1.00  0.00    -0.490 OA
ATOM     23  C   UNL     1      39.801  56.912   4.094  1.00  0.00     0.278 C 
ENDBRANCH   8  22
BRANCH  11  24
ATOM     24  O   UNL     1      45.977  57.859   1.927  1.00  0.00    -0.492 OA
ATOM     25  C   UNL     1      46.090  58.158   0.538  1.00  0.00     0.278 C 
ENDBRANCH  11  24
BRANCH   9  26
ATOM     26  O   UNL     1      42.298  54.765   2.723  1.00  0.00    -0.490 OA
ATOM     27  C   UNL     1      41.397  54.460   1.662  1.00  0.00     0.279 C 
ENDBRANCH   9  26
BRANCH  10  28
ATOM     28  O   UNL     1      44.825  55.354   1.566  1.00  0.00    -0.490 OA
ATOM     29  C   UNL     1      45.678  54.293   1.981  1.00  0.00     0.278 C 
ENDBRANCH  10  28
TORSDOF 7
ENDMDL
MODEL 7
REMARK VINA RESULT:    -6.062     14.614     17.137
REMARK INTER + INTRA:          -9.039
REMARK INTER:                  -8.299
REMARK INTRA:                  -0.740
REMARK UNBOUND:                -0.497
REMARK SMILES COc1ccc(-c2cc(=O)c3c(OC)c(OC)c(OC)c(OC)c3o2)cc1OC
REMARK SMILES IDX 7 1 8 2 9 3 10 4 11 5 24 6 25 7 21 8 18 9 15 10 12 11 6 12
REMARK SMILES IDX 3 13 27 14 4 15 26 16 5 17 2 18 1 19 28 20 29 21 22 22 23 23
REMARK SMILES IDX 13 24 14 25 19 26 20 27 16 28 17 29
REMARK H PARENT
REMARK Flexibility Score: inf
ROOT
ATOM      1  C   UNL     1      41.982  59.616   5.723  1.00  0.00     0.138 A 
ATOM      2  C   UNL     1      41.389  58.354   5.808  1.00  0.00     0.100 A 
ATOM      3  C   UNL     1      41.859  57.327   4.996  1.00  0.00     0.197 A 
ATOM      4  O   UNL     1      41.319  56.192   5.094  1.00  0.00    -0.289 OA
ATOM      5  C   UNL     1      42.918  57.573   4.091  1.00  0.00     0.115 A 
ATOM      6  C   UNL     1      43.478  58.873   4.068  1.00  0.00     0.188 A 
ATOM      7  O   UNL     1      42.991  59.811   4.878  1.00  0.00    -0.452 OA
ATOM      8  C   UNL     1      44.544  59.179   3.188  1.00  0.00     0.209 A 
ATOM      9  C   UNL     1      45.040  58.175   2.314  1.00  0.00     0.211 A 
ATOM     10  C   UNL     1      44.455  56.882   2.318  1.00  0.00     0.208 A 
ATOM     11  C   UNL     1      43.429  56.573   3.236  1.00  0.00     0.179 A 
ENDROOT
BRANCH   1  12
ATOM     12  C   UNL     1      41.516  60.744   6.565  1.00  0.00     0.021 A 
ATOM     13  C   UNL     1      40.599  62.872   8.174  1.00  0.00     0.160 A 
ATOM     14  C   UNL     1      41.533  63.119   7.156  1.00  0.00     0.161 A 
ATOM     15  C   UNL     1      40.148  61.559   8.400  1.00  0.00     0.051 A 
ATOM     16  C   UNL     1      41.988  62.053   6.356  1.00  0.00     0.062 A 
ATOM     17  C   UNL     1      40.608  60.508   7.606  1.00  0.00     0.016 A 
BRANCH  13  18
ATOM     18  O   UNL     1      40.145  63.956   8.942  1.00  0.00    -0.493 OA
ATOM     19  C   UNL     1      38.992  64.732   8.643  1.00  0.00     0.278 C 
ENDBRANCH  13  18
BRANCH  14  20
ATOM     20  O   UNL     1      41.982  64.436   6.969  1.00  0.00    -0.493 OA
ATOM     21  C   UNL     1      41.738  65.215   5.803  1.00  0.00     0.278 C 
ENDBRANCH  14  20
ENDBRANCH   1  12
BRANCH   8  22
ATOM     22  O   UNL     1      45.125  60.461   3.128  1.00  0.00    -0.490 OA
ATOM     23  C   UNL     1      44.721  61.558   2.314  1.00  0.00     0.278 C 
ENDBRANCH   8  22
BRANCH  11  24
ATOM     24  O   UNL     1      42.873  55.281   3.297  1.00  0.00    -0.492 OA
ATOM     25  C   UNL     1      42.033  54.706   2.299  1.00  0.00     0.278 C 
ENDBRANCH  11  24
BRANCH   9  26
ATOM     26  O   UNL     1      46.108  58.408   1.425  1.00  0.00    -0.490 OA
ATOM     27  C   UNL     1      46.043  58.805   0.059  1.00  0.00     0.279 C 
ENDBRANCH   9  26
BRANCH  10  28
ATOM     28  O   UNL     1      44.835  55.868   1.416  1.00  0.00    -0.490 OA
ATOM     29  C   UNL     1      45.887  54.921   1.570  1.00  0.00     0.278 C 
ENDBRANCH  10  28
TORSDOF 7
ENDMDL
MODEL 8
REMARK VINA RESULT:    -6.001      9.777     14.883
REMARK INTER + INTRA:          -8.954
REMARK INTER:                  -8.206
REMARK INTRA:                  -0.748
REMARK UNBOUND:                -0.497
REMARK SMILES COc1ccc(-c2cc(=O)c3c(OC)c(OC)c(OC)c(OC)c3o2)cc1OC
REMARK SMILES IDX 7 1 8 2 9 3 10 4 11 5 24 6 25 7 21 8 18 9 15 10 12 11 6 12
REMARK SMILES IDX 3 13 27 14 4 15 26 16 5 17 2 18 1 19 28 20 29 21 22 22 23 23
REMARK SMILES IDX 13 24 14 25 19 26 20 27 16 28 17 29
REMARK H PARENT
REMARK Flexibility Score: inf
ROOT
ATOM      1  C   UNL     1      40.056  60.526   4.927  1.00  0.00     0.138 A 
ATOM      2  C   UNL     1      39.281  59.683   5.726  1.00  0.00     0.100 A 
ATOM      3  C   UNL     1      38.758  58.518   5.176  1.00  0.00     0.197 A 
ATOM      4  O   UNL     1      38.069  57.762   5.914  1.00  0.00    -0.289 OA
ATOM      5  C   UNL     1      39.006  58.206   3.818  1.00  0.00     0.115 A 
ATOM      6  C   UNL     1      39.810  59.101   3.073  1.00  0.00     0.188 A 
ATOM      7  O   UNL     1      40.290  60.196   3.660  1.00  0.00    -0.452 OA
ATOM      8  C   UNL     1      40.099  58.842   1.711  1.00  0.00     0.209 A 
ATOM      9  C   UNL     1      39.562  57.683   1.091  1.00  0.00     0.211 A 
ATOM     10  C   UNL     1      38.731  56.804   1.833  1.00  0.00     0.208 A 
ATOM     11  C   UNL     1      38.493  57.045   3.203  1.00  0.00     0.179 A 
ENDROOT
BRANCH   1  12
ATOM     12  C   UNL     1      40.634  61.780   5.467  1.00  0.00     0.021 A 
ATOM     13  C   UNL     1      41.759  64.164   6.473  1.00  0.00     0.160 A 
ATOM     14  C   UNL     1      40.840  63.444   7.251  1.00  0.00     0.161 A 
ATOM     15  C   UNL     1      42.092  63.703   5.186  1.00  0.00     0.051 A 
ATOM     16  C   UNL     1      40.280  62.255   6.744  1.00  0.00     0.062 A 
ATOM     17  C   UNL     1      41.528  62.527   4.689  1.00  0.00     0.016 A 
BRANCH  13  18
ATOM     18  O   UNL     1      42.319  65.333   7.010  1.00  0.00    -0.493 OA
ATOM     19  C   UNL     1      43.047  66.298   6.264  1.00  0.00     0.278 C 
ENDBRANCH  13  18
BRANCH  14  20
ATOM     20  O   UNL     1      40.510  63.941   8.521  1.00  0.00    -0.493 OA
ATOM     21  C   UNL     1      39.203  63.914   9.086  1.00  0.00     0.278 C 
ENDBRANCH  14  20
ENDBRANCH   1  12
BRANCH   8  22
ATOM     22  O   UNL     1      40.888  59.711   0.931  1.00  0.00    -0.490 OA
ATOM     23  C   UNL     1      42.295  59.645   0.718  1.00  0.00     0.278 C 
ENDBRANCH   8  22
BRANCH  11  24
ATOM     24  O   UNL     1      37.718  56.156   3.973  1.00  0.00    -0.492 OA
ATOM     25  C   UNL     1      38.147  54.870   4.412  1.00  0.00     0.278 C 
ENDBRANCH  11  24
BRANCH   9  26
ATOM     26  O   UNL     1      39.823  57.357  -0.255  1.00  0.00    -0.490 OA
ATOM     27  C   UNL     1      39.112  57.781  -1.415  1.00  0.00     0.279 C 
ENDBRANCH   9  26
BRANCH  10  28
ATOM     28  O   UNL     1      38.092  55.687   1.258  1.00  0.00    -0.490 OA
ATOM     29  C   UNL     1      36.820  55.649   0.620  1.00  0.00     0.278 C 
ENDBRANCH  10  28
TORSDOF 7
ENDMDL
MODEL 9
REMARK VINA RESULT:    -5.953      8.554     12.233
REMARK INTER + INTRA:          -8.885
REMARK INTER:                  -8.239
REMARK INTRA:                  -0.646
REMARK UNBOUND:                -0.497
REMARK SMILES COc1ccc(-c2cc(=O)c3c(OC)c(OC)c(OC)c(OC)c3o2)cc1OC
REMARK SMILES IDX 7 1 8 2 9 3 10 4 11 5 24 6 25 7 21 8 18 9 15 10 12 11 6 12
REMARK SMILES IDX 3 13 27 14 4 15 26 16 5 17 2 18 1 19 28 20 29 21 22 22 23 23
REMARK SMILES IDX 13 24 14 25 19 26 20 27 16 28 17 29
REMARK H PARENT
REMARK Flexibility Score: inf
ROOT
ATOM      1  C   UNL     1      39.852  59.074   1.989  1.00  0.00     0.138 A 
ATOM      2  C   UNL     1      40.228  60.418   1.924  1.00  0.00     0.100 A 
ATOM      3  C   UNL     1      40.513  61.102   3.100  1.00  0.00     0.197 A 
ATOM      4  O   UNL     1      40.860  62.312   3.022  1.00  0.00    -0.289 OA
ATOM      5  C   UNL     1      40.410  60.436   4.345  1.00  0.00     0.115 A 
ATOM      6  C   UNL     1      40.036  59.071   4.334  1.00  0.00     0.188 A 
ATOM      7  O   UNL     1      39.785  58.469   3.172  1.00  0.00    -0.452 OA
ATOM      8  C   UNL     1      39.922  58.349   5.546  1.00  0.00     0.209 A 
ATOM      9  C   UNL     1      40.170  59.009   6.779  1.00  0.00     0.211 A 
ATOM     10  C   UNL     1      40.515  60.385   6.788  1.00  0.00     0.208 A 
ATOM     11  C   UNL     1      40.676  61.081   5.571  1.00  0.00     0.179 A 
ENDROOT
BRANCH   1  12
ATOM     12  C   UNL     1      39.536  58.303   0.763  1.00  0.00     0.021 A 
ATOM     13  C   UNL     1      38.959  56.850  -1.585  1.00  0.00     0.160 A 
ATOM     14  C   UNL     1      37.934  57.132  -0.670  1.00  0.00     0.161 A 
ATOM     15  C   UNL     1      40.273  57.272  -1.310  1.00  0.00     0.051 A 
ATOM     16  C   UNL     1      38.227  57.858   0.501  1.00  0.00     0.062 A 
ATOM     17  C   UNL     1      40.555  57.986  -0.144  1.00  0.00     0.016 A 
BRANCH  13  18
ATOM     18  O   UNL     1      38.636  56.145  -2.755  1.00  0.00    -0.493 OA
ATOM     19  C   UNL     1      38.646  54.729  -2.875  1.00  0.00     0.278 C 
ENDBRANCH  13  18
BRANCH  14  20
ATOM     20  O   UNL     1      36.638  56.677  -0.961  1.00  0.00    -0.493 OA
ATOM     21  C   UNL     1      35.969  55.638  -0.255  1.00  0.00     0.278 C 
ENDBRANCH  14  20
ENDBRANCH   1  12
BRANCH   8  22
ATOM     22  O   UNL     1      39.545  56.992   5.580  1.00  0.00    -0.490 OA
ATOM     23  C   UNL     1      40.356  55.860   5.280  1.00  0.00     0.278 C 
ENDBRANCH   8  22
BRANCH  11  24
ATOM     24  O   UNL     1      41.074  62.432   5.554  1.00  0.00    -0.492 OA
ATOM     25  C   UNL     1      42.400  62.895   5.791  1.00  0.00     0.278 C 
ENDBRANCH  11  24
BRANCH   9  26
ATOM     26  O   UNL     1      40.090  58.345   8.019  1.00  0.00    -0.490 OA
ATOM     27  C   UNL     1      41.086  57.551   8.656  1.00  0.00     0.279 C 
ENDBRANCH   9  26
BRANCH  10  28
ATOM     28  O   UNL     1      40.685  61.123   7.977  1.00  0.00    -0.490 OA
ATOM     29  C   UNL     1      39.783  62.063   8.550  1.00  0.00     0.278 C 
ENDBRANCH  10  28
TORSDOF 7
ENDMDL
