MODEL 1
REMARK VINA RESULT:    -6.684      0.000      0.000
REMARK INTER + INTRA:          -8.639
REMARK INTER:                  -8.247
REMARK INTRA:                  -0.392
REMARK UNBOUND:                -0.392
REMARK SMILES COc1cc(-c2oc3cc(O)cc(O)c3c(=O)c2O)ccc1O
REMARK SMILES IDX 6 1 18 2 16 3 17 4 15 5 13 6 12 7 10 8 9 9 8 10 7 11 5 12
REMARK SMILES IDX 3 13 22 14 4 15 21 16 20 17 2 18 1 19 23 20 19 22 14 24
REMARK SMILES IDX 11 26
REMARK H PARENT 23 21 19 23 14 25 11 27
REMARK Flexibility Score: inf
ROOT
ATOM      1  C   UNL     1      -5.076  15.488   7.083  1.00  0.00     0.180 A 
ATOM      2  C   UNL     1      -5.552  14.617   6.088  1.00  0.00     0.208 A 
ATOM      3  C   UNL     1      -6.926  14.595   5.803  1.00  0.00     0.238 A 
ATOM      4  O   UNL     1      -7.354  13.775   4.949  1.00  0.00    -0.285 OA
ATOM      5  C   UNL     1      -7.806  15.453   6.506  1.00  0.00     0.111 A 
ATOM      6  C   UNL     1      -9.210  15.543   6.271  1.00  0.00     0.134 A 
ATOM      7  C   UNL     1     -10.002  16.332   7.115  1.00  0.00     0.093 A 
ATOM      8  C   UNL     1      -9.431  17.085   8.144  1.00  0.00     0.123 A 
ATOM      9  C   UNL     1      -8.052  17.050   8.342  1.00  0.00     0.094 A 
ATOM     10  C   UNL     1      -7.241  16.244   7.540  1.00  0.00     0.146 A 
ATOM     11  O   UNL     1      -5.934  16.233   7.770  1.00  0.00    -0.452 OA
ENDROOT
BRANCH   1  12
ATOM     12  C   UNL     1      -3.637  15.586   7.421  1.00  0.00     0.025 A 
ATOM     13  C   UNL     1      -1.408  16.520   7.042  1.00  0.00     0.161 A 
ATOM     14  C   UNL     1      -0.923  15.785   8.133  1.00  0.00     0.157 A 
ATOM     15  C   UNL     1      -2.771  16.423   6.695  1.00  0.00     0.062 A 
ATOM     16  C   UNL     1      -1.790  14.968   8.872  1.00  0.00     0.051 A 
ATOM     17  C   UNL     1      -3.138  14.875   8.523  1.00  0.00     0.016 A 
BRANCH  13  18
ATOM     18  O   UNL     1      -0.512  17.336   6.335  1.00  0.00    -0.493 OA
ATOM     19  C   UNL     1      -0.886  18.493   5.595  1.00  0.00     0.278 C 
ENDBRANCH  13  18
BRANCH  14  20
ATOM     20  O   UNL     1       0.424  15.874   8.480  1.00  0.00    -0.504 OA
ATOM     21  H   UNL     1       1.154  15.555   7.855  1.00  0.00     0.293 HD
ENDBRANCH  14  20
ENDBRANCH   1  12
BRANCH   2  22
ATOM     22  O   UNL     1      -4.669  13.763   5.421  1.00  0.00    -0.502 OA
ATOM     23  H   UNL     1      -4.554  12.790   5.679  1.00  0.00     0.293 HD
ENDBRANCH   2  22
BRANCH   6  24
ATOM     24  O   UNL     1      -9.868  14.905   5.216  1.00  0.00    -0.507 OA
ATOM     25  H   UNL     1      -9.485  14.782   4.291  1.00  0.00     0.293 HD
ENDBRANCH   6  24
BRANCH   8  26
ATOM     26  O   UNL     1     -10.224  17.880   8.968  1.00  0.00    -0.508 OA
ATOM     27  H   UNL     1      -9.993  18.850   9.151  1.00  0.00     0.293 HD
ENDBRANCH   8  26
TORSDOF 6
ENDMDL
MODEL 2
REMARK VINA RESULT:    -6.533      4.262      7.343
REMARK INTER + INTRA:          -8.452
REMARK INTER:                  -8.057
REMARK INTRA:                  -0.395
REMARK UNBOUND:                -0.392
REMARK SMILES COc1cc(-c2oc3cc(O)cc(O)c3c(=O)c2O)ccc1O
REMARK SMILES IDX 6 1 18 2 16 3 17 4 15 5 13 6 12 7 10 8 9 9 8 10 7 11 5 12
REMARK SMILES IDX 3 13 22 14 4 15 21 16 20 17 2 18 1 19 23 20 19 22 14 24
REMARK SMILES IDX 11 26
REMARK H PARENT 23 21 19 23 14 25 11 27
REMARK Flexibility Score: inf
ROOT
ATOM      1  C   UNL     1      -6.421  14.817  10.408  1.00  0.00     0.180 A 
ATOM      2  C   UNL     1      -5.142  15.394  10.490  1.00  0.00     0.208 A 
ATOM      3  C   UNL     1      -4.352  15.467   9.331  1.00  0.00     0.238 A 
ATOM      4  O   UNL     1      -3.188  15.935   9.421  1.00  0.00    -0.285 OA
ATOM      5  C   UNL     1      -4.857  14.976   8.102  1.00  0.00     0.111 A 
ATOM      6  C   UNL     1      -4.161  15.036   6.858  1.00  0.00     0.134 A 
ATOM      7  C   UNL     1      -4.702  14.402   5.733  1.00  0.00     0.093 A 
ATOM      8  C   UNL     1      -5.946  13.768   5.791  1.00  0.00     0.123 A 
ATOM      9  C   UNL     1      -6.660  13.757   6.986  1.00  0.00     0.094 A 
ATOM     10  C   UNL     1      -6.130  14.349   8.135  1.00  0.00     0.146 A 
ATOM     11  O   UNL     1      -6.840  14.307   9.256  1.00  0.00    -0.452 OA
ENDROOT
BRANCH   1  12
ATOM     12  C   UNL     1      -7.320  14.727  11.581  1.00  0.00     0.025 A 
ATOM     13  C   UNL     1      -8.129  13.563  13.575  1.00  0.00     0.161 A 
ATOM     14  C   UNL     1      -9.008  14.625  13.829  1.00  0.00     0.157 A 
ATOM     15  C   UNL     1      -7.279  13.624  12.452  1.00  0.00     0.062 A 
ATOM     16  C   UNL     1      -9.034  15.736  12.976  1.00  0.00     0.051 A 
ATOM     17  C   UNL     1      -8.191  15.790  11.864  1.00  0.00     0.016 A 
BRANCH  13  18
ATOM     18  O   UNL     1      -8.123  12.474  14.460  1.00  0.00    -0.493 OA
ATOM     19  C   UNL     1      -7.172  12.286  15.503  1.00  0.00     0.278 C 
ENDBRANCH  13  18
BRANCH  14  20
ATOM     20  O   UNL     1      -9.853  14.571  14.937  1.00  0.00    -0.504 OA
ATOM     21  H   UNL     1      -9.556  14.904  15.846  1.00  0.00     0.293 HD
ENDBRANCH  14  20
ENDBRANCH   1  12
BRANCH   2  22
ATOM     22  O   UNL     1      -4.654  15.852  11.716  1.00  0.00    -0.502 OA
ATOM     23  H   UNL     1      -4.808  15.353  12.584  1.00  0.00     0.293 HD
ENDBRANCH   2  22
BRANCH   6  24
ATOM     24  O   UNL     1      -2.957  15.722   6.669  1.00  0.00    -0.507 OA
ATOM     25  H   UNL     1      -2.539  16.345   7.343  1.00  0.00     0.293 HD
ENDBRANCH   6  24
BRANCH   8  26
ATOM     26  O   UNL     1      -6.484  13.154   4.663  1.00  0.00    -0.508 OA
ATOM     27  H   UNL     1      -6.729  12.171   4.661  1.00  0.00     0.293 HD
ENDBRANCH   8  26
TORSDOF 6
ENDMDL
MODEL 3
REMARK VINA RESULT:    -6.518      4.530      7.058
REMARK INTER + INTRA:          -8.434
REMARK INTER:                  -8.077
REMARK INTRA:                  -0.357
REMARK UNBOUND:                -0.392
REMARK SMILES COc1cc(-c2oc3cc(O)cc(O)c3c(=O)c2O)ccc1O
REMARK SMILES IDX 6 1 18 2 16 3 17 4 15 5 13 6 12 7 10 8 9 9 8 10 7 11 5 12
REMARK SMILES IDX 3 13 22 14 4 15 21 16 20 17 2 18 1 19 23 20 19 22 14 24
REMARK SMILES IDX 11 26
REMARK H PARENT 23 21 19 23 14 25 11 27
REMARK Flexibility Score: inf
ROOT
ATOM      1  C   UNL     1      -6.121  14.183  10.482  1.00  0.00     0.180 A 
ATOM      2  C   UNL     1      -5.205  15.249  10.478  1.00  0.00     0.208 A 
ATOM      3  C   UNL     1      -4.796  15.791   9.249  1.00  0.00     0.238 A 
ATOM      4  O   UNL     1      -3.935  16.709   9.250  1.00  0.00    -0.285 OA
ATOM      5  C   UNL     1      -5.319  15.271   8.040  1.00  0.00     0.111 A 
ATOM      6  C   UNL     1      -5.005  15.770   6.740  1.00  0.00     0.134 A 
ATOM      7  C   UNL     1      -5.479  15.094   5.609  1.00  0.00     0.093 A 
ATOM      8  C   UNL     1      -6.309  13.977   5.731  1.00  0.00     0.123 A 
ATOM      9  C   UNL     1      -6.669  13.519   6.996  1.00  0.00     0.094 A 
ATOM     10  C   UNL     1      -6.183  14.150   8.144  1.00  0.00     0.146 A 
ATOM     11  O   UNL     1      -6.543  13.674   9.330  1.00  0.00    -0.452 OA
ENDROOT
BRANCH   1  12
ATOM     12  C   UNL     1      -6.618  13.576  11.738  1.00  0.00     0.025 A 
ATOM     13  C   UNL     1      -8.055  13.627  13.718  1.00  0.00     0.161 A 
ATOM     14  C   UNL     1      -7.576  12.363  14.087  1.00  0.00     0.157 A 
ATOM     15  C   UNL     1      -7.577  14.227  12.534  1.00  0.00     0.062 A 
ATOM     16  C   UNL     1      -6.638  11.702  13.283  1.00  0.00     0.051 A 
ATOM     17  C   UNL     1      -6.168  12.302  12.113  1.00  0.00     0.016 A 
BRANCH  13  18
ATOM     18  O   UNL     1      -9.003  14.251  14.543  1.00  0.00    -0.493 OA
ATOM     19  C   UNL     1      -8.724  15.349  15.406  1.00  0.00     0.278 C 
ENDBRANCH  13  18
BRANCH  14  20
ATOM     20  O   UNL     1      -8.042  11.765  15.258  1.00  0.00    -0.504 OA
ATOM     21  H   UNL     1      -7.447  11.171  15.822  1.00  0.00     0.293 HD
ENDBRANCH  14  20
ENDBRANCH   1  12
BRANCH   2  22
ATOM     22  O   UNL     1      -4.685  15.733  11.681  1.00  0.00    -0.502 OA
ATOM     23  H   UNL     1      -4.484  15.130  12.470  1.00  0.00     0.293 HD
ENDBRANCH   2  22
BRANCH   6  24
ATOM     24  O   UNL     1      -4.261  16.930   6.508  1.00  0.00    -0.507 OA
ATOM     25  H   UNL     1      -4.618  17.762   6.064  1.00  0.00     0.293 HD
ENDBRANCH   6  24
BRANCH   8  26
ATOM     26  O   UNL     1      -6.789  13.321   4.600  1.00  0.00    -0.508 OA
ATOM     27  H   UNL     1      -7.213  12.402   4.661  1.00  0.00     0.293 HD
ENDBRANCH   8  26
TORSDOF 6
ENDMDL
MODEL 4
REMARK VINA RESULT:    -6.429      1.622      7.503
REMARK INTER + INTRA:          -8.324
REMARK INTER:                  -7.933
REMARK INTRA:                  -0.391
REMARK UNBOUND:                -0.392
REMARK SMILES COc1cc(-c2oc3cc(O)cc(O)c3c(=O)c2O)ccc1O
REMARK SMILES IDX 6 1 18 2 16 3 17 4 15 5 13 6 12 7 10 8 9 9 8 10 7 11 5 12
REMARK SMILES IDX 3 13 22 14 4 15 21 16 20 17 2 18 1 19 23 20 19 22 14 24
REMARK SMILES IDX 11 26
REMARK H PARENT 23 21 19 23 14 25 11 27
REMARK Flexibility Score: inf
ROOT
ATOM      1  C   UNL     1      -3.279  15.399   7.092  1.00  0.00     0.180 A 
ATOM      2  C   UNL     1      -2.718  14.715   8.184  1.00  0.00     0.208 A 
ATOM      3  C   UNL     1      -1.384  14.971   8.537  1.00  0.00     0.238 A 
ATOM      4  O   UNL     1      -0.871  14.316   9.481  1.00  0.00    -0.285 OA
ATOM      5  C   UNL     1      -0.631  15.920   7.804  1.00  0.00     0.111 A 
ATOM      6  C   UNL     1       0.716  16.288   8.098  1.00  0.00     0.134 A 
ATOM      7  C   UNL     1       1.405  17.141   7.227  1.00  0.00     0.093 A 
ATOM      8  C   UNL     1       0.774  17.691   6.108  1.00  0.00     0.123 A 
ATOM      9  C   UNL     1      -0.559  17.384   5.846  1.00  0.00     0.094 A 
ATOM     10  C   UNL     1      -1.262  16.507   6.676  1.00  0.00     0.146 A 
ATOM     11  O   UNL     1      -2.527  16.235   6.384  1.00  0.00    -0.452 OA
ENDROOT
BRANCH   1  12
ATOM     12  C   UNL     1      -4.686  15.201   6.676  1.00  0.00     0.025 A 
ATOM     13  C   UNL     1      -7.041  15.864   6.704  1.00  0.00     0.161 A 
ATOM     14  C   UNL     1      -7.337  14.820   5.816  1.00  0.00     0.157 A 
ATOM     15  C   UNL     1      -5.709  16.055   7.125  1.00  0.00     0.062 A 
ATOM     16  C   UNL     1      -6.316  13.983   5.349  1.00  0.00     0.051 A 
ATOM     17  C   UNL     1      -4.999  14.176   5.770  1.00  0.00     0.016 A 
BRANCH  13  18
ATOM     18  O   UNL     1      -8.089  16.689   7.140  1.00  0.00    -0.493 OA
ATOM     19  C   UNL     1      -8.770  16.541   8.381  1.00  0.00     0.278 C 
ENDBRANCH  13  18
BRANCH  14  20
ATOM     20  O   UNL     1      -8.652  14.624   5.398  1.00  0.00    -0.504 OA
ATOM     21  H   UNL     1      -9.057  13.697   5.339  1.00  0.00     0.293 HD
ENDBRANCH  14  20
ENDBRANCH   1  12
BRANCH   2  22
ATOM     22  O   UNL     1      -3.472  13.766   8.881  1.00  0.00    -0.502 OA
ATOM     23  H   UNL     1      -4.428  13.541   8.633  1.00  0.00     0.293 HD
ENDBRANCH   2  22
BRANCH   6  24
ATOM     24  O   UNL     1       1.408  15.870   9.238  1.00  0.00    -0.507 OA
ATOM     25  H   UNL     1       1.733  14.929   9.400  1.00  0.00     0.293 HD
ENDBRANCH   6  24
BRANCH   8  26
ATOM     26  O   UNL     1       1.462  18.551   5.255  1.00  0.00    -0.508 OA
ATOM     27  H   UNL     1       2.124  19.232   5.610  1.00  0.00     0.293 HD
ENDBRANCH   8  26
TORSDOF 6
ENDMDL
MODEL 5
REMARK VINA RESULT:    -6.389      5.300      8.765
REMARK INTER + INTRA:          -8.274
REMARK INTER:                  -7.897
REMARK INTRA:                  -0.377
REMARK UNBOUND:                -0.392
REMARK SMILES COc1cc(-c2oc3cc(O)cc(O)c3c(=O)c2O)ccc1O
REMARK SMILES IDX 6 1 18 2 16 3 17 4 15 5 13 6 12 7 10 8 9 9 8 10 7 11 5 12
REMARK SMILES IDX 3 13 22 14 4 15 21 16 20 17 2 18 1 19 23 20 19 22 14 24
REMARK SMILES IDX 11 26
REMARK H PARENT 23 21 19 23 14 25 11 27
REMARK Flexibility Score: inf
ROOT
ATOM      1  C   UNL     1     -13.375  15.034   6.730  1.00  0.00     0.180 A 
ATOM      2  C   UNL     1     -13.971  14.331   7.791  1.00  0.00     0.208 A 
ATOM      3  C   UNL     1     -15.252  13.784   7.612  1.00  0.00     0.238 A 
ATOM      4  O   UNL     1     -15.802  13.203   8.583  1.00  0.00    -0.285 OA
ATOM      5  C   UNL     1     -15.914  13.935   6.370  1.00  0.00     0.111 A 
ATOM      6  C   UNL     1     -17.197  13.388   6.064  1.00  0.00     0.134 A 
ATOM      7  C   UNL     1     -17.812  13.710   4.848  1.00  0.00     0.093 A 
ATOM      8  C   UNL     1     -17.164  14.505   3.900  1.00  0.00     0.123 A 
ATOM      9  C   UNL     1     -15.886  14.994   4.165  1.00  0.00     0.094 A 
ATOM     10  C   UNL     1     -15.261  14.720   5.384  1.00  0.00     0.146 A 
ATOM     11  O   UNL     1     -14.048  15.214   5.600  1.00  0.00    -0.452 OA
ENDROOT
BRANCH   1  12
ATOM     12  C   UNL     1     -12.017  15.616   6.835  1.00  0.00     0.025 A 
ATOM     13  C   UNL     1      -9.605  15.507   6.443  1.00  0.00     0.161 A 
ATOM     14  C   UNL     1      -9.464  16.783   7.005  1.00  0.00     0.157 A 
ATOM     15  C   UNL     1     -10.888  14.930   6.352  1.00  0.00     0.062 A 
ATOM     16  C   UNL     1     -10.590  17.478   7.465  1.00  0.00     0.051 A 
ATOM     17  C   UNL     1     -11.858  16.901   7.374  1.00  0.00     0.016 A 
BRANCH  13  18
ATOM     18  O   UNL     1      -8.455  14.849   5.981  1.00  0.00    -0.493 OA
ATOM     19  C   UNL     1      -8.457  13.588   5.320  1.00  0.00     0.278 C 
ENDBRANCH  13  18
BRANCH  14  20
ATOM     20  O   UNL     1      -8.197  17.358   7.100  1.00  0.00    -0.504 OA
ATOM     21  H   UNL     1      -7.369  16.794   7.248  1.00  0.00     0.293 HD
ENDBRANCH  14  20
ENDBRANCH   1  12
BRANCH   2  22
ATOM     22  O   UNL     1     -13.308  14.213   9.016  1.00  0.00    -0.502 OA
ATOM     23  H   UNL     1     -13.802  14.099   9.893  1.00  0.00     0.293 HD
ENDBRANCH   2  22
BRANCH   6  24
ATOM     24  O   UNL     1     -17.891  12.510   6.901  1.00  0.00    -0.507 OA
ATOM     25  H   UNL     1     -18.537  12.792   7.622  1.00  0.00     0.293 HD
ENDBRANCH   6  24
BRANCH   8  26
ATOM     26  O   UNL     1     -17.777  14.807   2.686  1.00  0.00    -0.508 OA
ATOM     27  H   UNL     1     -18.775  14.692   2.553  1.00  0.00     0.293 HD
ENDBRANCH   8  26
TORSDOF 6
ENDMDL
MODEL 6
REMARK VINA RESULT:    -6.340      4.504      5.331
REMARK INTER + INTRA:          -8.215
REMARK INTER:                  -7.821
REMARK INTRA:                  -0.393
REMARK UNBOUND:                -0.392
REMARK SMILES COc1cc(-c2oc3cc(O)cc(O)c3c(=O)c2O)ccc1O
REMARK SMILES IDX 6 1 18 2 16 3 17 4 15 5 13 6 12 7 10 8 9 9 8 10 7 11 5 12
REMARK SMILES IDX 3 13 22 14 4 15 21 16 20 17 2 18 1 19 23 20 19 22 14 24
REMARK SMILES IDX 11 26
REMARK H PARENT 23 21 19 23 14 25 11 27
REMARK Flexibility Score: inf
ROOT
ATOM      1  C   UNL     1      -6.962  14.128  10.918  1.00  0.00     0.180 A 
ATOM      2  C   UNL     1      -6.973  12.868  11.542  1.00  0.00     0.208 A 
ATOM      3  C   UNL     1      -8.146  12.436  12.183  1.00  0.00     0.238 A 
ATOM      4  O   UNL     1      -8.133  11.332  12.787  1.00  0.00    -0.285 OA
ATOM      5  C   UNL     1      -9.296  13.262  12.179  1.00  0.00     0.111 A 
ATOM      6  C   UNL     1     -10.550  12.908  12.762  1.00  0.00     0.134 A 
ATOM      7  C   UNL     1     -11.579  13.856  12.813  1.00  0.00     0.093 A 
ATOM      8  C   UNL     1     -11.423  15.122  12.243  1.00  0.00     0.123 A 
ATOM      9  C   UNL     1     -10.223  15.455  11.619  1.00  0.00     0.094 A 
ATOM     10  C   UNL     1      -9.164  14.544  11.584  1.00  0.00     0.146 A 
ATOM     11  O   UNL     1      -8.035  14.906  10.988  1.00  0.00    -0.452 OA
ENDROOT
BRANCH   1  12
ATOM     12  C   UNL     1      -5.772  14.640  10.201  1.00  0.00     0.025 A 
ATOM     13  C   UNL     1      -4.407  14.828   8.179  1.00  0.00     0.161 A 
ATOM     14  C   UNL     1      -3.528  15.680   8.862  1.00  0.00     0.157 A 
ATOM     15  C   UNL     1      -5.535  14.317   8.853  1.00  0.00     0.062 A 
ATOM     16  C   UNL     1      -3.774  16.022  10.198  1.00  0.00     0.051 A 
ATOM     17  C   UNL     1      -4.892  15.511  10.860  1.00  0.00     0.016 A 
BRANCH  13  18
ATOM     18  O   UNL     1      -4.133  14.519   6.838  1.00  0.00    -0.493 OA
ATOM     19  C   UNL     1      -5.107  14.086   5.894  1.00  0.00     0.278 C 
ENDBRANCH  13  18
BRANCH  14  20
ATOM     20  O   UNL     1      -2.410  16.188   8.202  1.00  0.00    -0.504 OA
ATOM     21  H   UNL     1      -2.463  16.518   7.246  1.00  0.00     0.293 HD
ENDBRANCH  14  20
ENDBRANCH   1  12
BRANCH   2  22
ATOM     22  O   UNL     1      -5.821  12.078  11.553  1.00  0.00    -0.502 OA
ATOM     23  H   UNL     1      -5.824  11.113  11.861  1.00  0.00     0.293 HD
ENDBRANCH   2  22
BRANCH   6  24
ATOM     24  O   UNL     1     -10.841  11.642  13.277  1.00  0.00    -0.507 OA
ATOM     25  H   UNL     1     -10.341  11.199  14.032  1.00  0.00     0.293 HD
ENDBRANCH   6  24
BRANCH   8  26
ATOM     26  O   UNL     1     -12.458  16.053  12.284  1.00  0.00    -0.508 OA
ATOM     27  H   UNL     1     -12.555  16.769  11.573  1.00  0.00     0.293 HD
ENDBRANCH   8  26
TORSDOF 6
ENDMDL
MODEL 7
REMARK VINA RESULT:    -6.269      4.868      6.248
REMARK INTER + INTRA:          -8.126
REMARK INTER:                  -7.806
REMARK INTRA:                  -0.320
REMARK UNBOUND:                -0.392
REMARK SMILES COc1cc(-c2oc3cc(O)cc(O)c3c(=O)c2O)ccc1O
REMARK SMILES IDX 6 1 18 2 16 3 17 4 15 5 13 6 12 7 10 8 9 9 8 10 7 11 5 12
REMARK SMILES IDX 3 13 22 14 4 15 21 16 20 17 2 18 1 19 23 20 19 22 14 24
REMARK SMILES IDX 11 26
REMARK H PARENT 23 21 19 23 14 25 11 27
REMARK Flexibility Score: inf
ROOT
ATOM      1  C   UNL     1      -6.308  14.191  10.658  1.00  0.00     0.180 A 
ATOM      2  C   UNL     1      -7.573  14.784  10.818  1.00  0.00     0.208 A 
ATOM      3  C   UNL     1      -8.395  14.360  11.874  1.00  0.00     0.238 A 
ATOM      4  O   UNL     1      -9.547  14.855  11.980  1.00  0.00    -0.285 OA
ATOM      5  C   UNL     1      -7.937  13.359  12.766  1.00  0.00     0.111 A 
ATOM      6  C   UNL     1      -8.670  12.882  13.894  1.00  0.00     0.134 A 
ATOM      7  C   UNL     1      -8.175  11.798  14.629  1.00  0.00     0.093 A 
ATOM      8  C   UNL     1      -6.943  11.217  14.319  1.00  0.00     0.123 A 
ATOM      9  C   UNL     1      -6.193  11.716  13.256  1.00  0.00     0.094 A 
ATOM     10  C   UNL     1      -6.677  12.772  12.480  1.00  0.00     0.146 A 
ATOM     11  O   UNL     1      -5.934  13.209  11.471  1.00  0.00    -0.452 OA
ENDROOT
BRANCH   1  12
ATOM     12  C   UNL     1      -5.376  14.603   9.584  1.00  0.00     0.025 A 
ATOM     13  C   UNL     1      -4.701  14.641   7.232  1.00  0.00     0.161 A 
ATOM     14  C   UNL     1      -3.610  15.456   7.567  1.00  0.00     0.157 A 
ATOM     15  C   UNL     1      -5.588  14.224   8.246  1.00  0.00     0.062 A 
ATOM     16  C   UNL     1      -3.411  15.853   8.895  1.00  0.00     0.051 A 
ATOM     17  C   UNL     1      -4.291  15.436   9.895  1.00  0.00     0.016 A 
BRANCH  13  18
ATOM     18  O   UNL     1      -4.874  14.275   5.889  1.00  0.00    -0.493 OA
ATOM     19  C   UNL     1      -6.051  13.669   5.363  1.00  0.00     0.278 C 
ENDBRANCH  13  18
BRANCH  14  20
ATOM     20  O   UNL     1      -2.728  15.870   6.570  1.00  0.00    -0.504 OA
ATOM     21  H   UNL     1      -1.829  16.279   6.795  1.00  0.00     0.293 HD
ENDBRANCH  14  20
ENDBRANCH   1  12
BRANCH   2  22
ATOM     22  O   UNL     1      -8.014  15.754   9.914  1.00  0.00    -0.502 OA
ATOM     23  H   UNL     1      -8.357  15.522   8.990  1.00  0.00     0.293 HD
ENDBRANCH   2  22
BRANCH   6  24
ATOM     24  O   UNL     1      -9.864  13.450  14.346  1.00  0.00    -0.507 OA
ATOM     25  H   UNL     1      -9.928  14.173  15.046  1.00  0.00     0.293 HD
ENDBRANCH   6  24
BRANCH   8  26
ATOM     26  O   UNL     1      -6.451  10.150  15.066  1.00  0.00    -0.508 OA
ATOM     27  H   UNL     1      -5.763   9.510  14.686  1.00  0.00     0.293 HD
ENDBRANCH   8  26
TORSDOF 6
ENDMDL
MODEL 8
REMARK VINA RESULT:    -6.183      2.582      7.583
REMARK INTER + INTRA:          -8.021
REMARK INTER:                  -7.704
REMARK INTRA:                  -0.316
REMARK UNBOUND:                -0.392
REMARK SMILES COc1cc(-c2oc3cc(O)cc(O)c3c(=O)c2O)ccc1O
REMARK SMILES IDX 6 1 18 2 16 3 17 4 15 5 13 6 12 7 10 8 9 9 8 10 7 11 5 12
REMARK SMILES IDX 3 13 22 14 4 15 21 16 20 17 2 18 1 19 23 20 19 22 14 24
REMARK SMILES IDX 11 26
REMARK H PARENT 23 21 19 23 14 25 11 27
REMARK Flexibility Score: inf
ROOT
ATOM      1  C   UNL     1      -8.152  15.859   7.999  1.00  0.00     0.180 A 
ATOM      2  C   UNL     1      -7.593  14.922   7.113  1.00  0.00     0.208 A 
ATOM      3  C   UNL     1      -6.260  14.521   7.297  1.00  0.00     0.238 A 
ATOM      4  O   UNL     1      -5.749  13.724   6.469  1.00  0.00    -0.285 OA
ATOM      5  C   UNL     1      -5.508  15.050   8.374  1.00  0.00     0.111 A 
ATOM      6  C   UNL     1      -4.162  14.684   8.679  1.00  0.00     0.134 A 
ATOM      7  C   UNL     1      -3.474  15.367   9.688  1.00  0.00     0.093 A 
ATOM      8  C   UNL     1      -4.102  16.357  10.448  1.00  0.00     0.123 A 
ATOM      9  C   UNL     1      -5.434  16.679  10.197  1.00  0.00     0.094 A 
ATOM     10  C   UNL     1      -6.137  16.040   9.171  1.00  0.00     0.146 A 
ATOM     11  O   UNL     1      -7.401  16.385   8.960  1.00  0.00    -0.452 OA
ENDROOT
BRANCH   1  12
ATOM     12  C   UNL     1      -9.558  16.310   7.884  1.00  0.00     0.025 A 
ATOM     13  C   UNL     1     -11.871  16.333   8.681  1.00  0.00     0.161 A 
ATOM     14  C   UNL     1     -12.204  17.237   7.662  1.00  0.00     0.157 A 
ATOM     15  C   UNL     1     -10.541  15.879   8.793  1.00  0.00     0.062 A 
ATOM     16  C   UNL     1     -11.221  17.686   6.771  1.00  0.00     0.051 A 
ATOM     17  C   UNL     1      -9.906  17.231   6.886  1.00  0.00     0.016 A 
BRANCH  13  18
ATOM     18  O   UNL     1     -12.881  15.917   9.562  1.00  0.00    -0.493 OA
ATOM     19  C   UNL     1     -12.659  15.134  10.731  1.00  0.00     0.278 C 
ENDBRANCH  13  18
BRANCH  14  20
ATOM     20  O   UNL     1     -13.518  17.688   7.544  1.00  0.00    -0.504 OA
ATOM     21  H   UNL     1     -13.977  18.184   8.299  1.00  0.00     0.293 HD
ENDBRANCH  14  20
ENDBRANCH   1  12
BRANCH   2  22
ATOM     22  O   UNL     1      -8.347  14.429   6.044  1.00  0.00    -0.502 OA
ATOM     23  H   UNL     1      -7.943  13.861   5.309  1.00  0.00     0.293 HD
ENDBRANCH   2  22
BRANCH   6  24
ATOM     24  O   UNL     1      -3.472  13.647   8.044  1.00  0.00    -0.507 OA
ATOM     25  H   UNL     1      -3.573  13.401   7.071  1.00  0.00     0.293 HD
ENDBRANCH   6  24
BRANCH   8  26
ATOM     26  O   UNL     1      -3.414  17.020  11.461  1.00  0.00    -0.508 OA
ATOM     27  H   UNL     1      -2.520  16.686  11.801  1.00  0.00     0.293 HD
ENDBRANCH   8  26
TORSDOF 6
ENDMDL
MODEL 9
REMARK VINA RESULT:    -6.150      1.702      3.340
REMARK INTER + INTRA:          -7.980
REMARK INTER:                  -7.738
REMARK INTRA:                  -0.242
REMARK UNBOUND:                -0.392
REMARK SMILES COc1cc(-c2oc3cc(O)cc(O)c3c(=O)c2O)ccc1O
REMARK SMILES IDX 6 1 18 2 16 3 17 4 15 5 13 6 12 7 10 8 9 9 8 10 7 11 5 12
REMARK SMILES IDX 3 13 22 14 4 15 21 16 20 17 2 18 1 19 23 20 19 22 14 24
REMARK SMILES IDX 11 26
REMARK H PARENT 23 21 19 23 14 25 11 27
REMARK Flexibility Score: inf
ROOT
ATOM      1  C   UNL     1      -3.528  15.534   8.164  1.00  0.00     0.180 A 
ATOM      2  C   UNL     1      -4.358  16.157   9.111  1.00  0.00     0.208 A 
ATOM      3  C   UNL     1      -5.750  16.112   8.931  1.00  0.00     0.238 A 
ATOM      4  O   UNL     1      -6.486  16.718   9.753  1.00  0.00    -0.285 OA
ATOM      5  C   UNL     1      -6.295  15.433   7.814  1.00  0.00     0.111 A 
ATOM      6  C   UNL     1      -7.691  15.290   7.554  1.00  0.00     0.134 A 
ATOM      7  C   UNL     1      -8.113  14.710   6.351  1.00  0.00     0.093 A 
ATOM      8  C   UNL     1      -7.190  14.209   5.430  1.00  0.00     0.123 A 
ATOM      9  C   UNL     1      -5.827  14.290   5.703  1.00  0.00     0.094 A 
ATOM     10  C   UNL     1      -5.374  14.896   6.878  1.00  0.00     0.146 A 
ATOM     11  O   UNL     1      -4.066  14.961   7.093  1.00  0.00    -0.452 OA
ENDROOT
BRANCH   1  12
ATOM     12  C   UNL     1      -2.053  15.517   8.300  1.00  0.00     0.025 A 
ATOM     13  C   UNL     1       0.170  16.257   7.595  1.00  0.00     0.161 A 
ATOM     14  C   UNL     1       0.740  15.500   8.629  1.00  0.00     0.157 A 
ATOM     15  C   UNL     1      -1.231  16.268   7.440  1.00  0.00     0.062 A 
ATOM     16  C   UNL     1      -0.079  14.770   9.500  1.00  0.00     0.051 A 
ATOM     17  C   UNL     1      -1.466  14.784   9.341  1.00  0.00     0.016 A 
BRANCH  13  18
ATOM     18  O   UNL     1       1.022  16.984   6.751  1.00  0.00    -0.493 OA
ATOM     19  C   UNL     1       1.597  16.476   5.551  1.00  0.00     0.278 C 
ENDBRANCH  13  18
BRANCH  14  20
ATOM     20  O   UNL     1       2.125  15.482   8.786  1.00  0.00    -0.504 OA
ATOM     21  H   UNL     1       2.557  15.160   9.645  1.00  0.00     0.293 HD
ENDBRANCH  14  20
ENDBRANCH   1  12
BRANCH   2  22
ATOM     22  O   UNL     1      -3.800  16.841  10.194  1.00  0.00    -0.502 OA
ATOM     23  H   UNL     1      -3.823  17.851  10.272  1.00  0.00     0.293 HD
ENDBRANCH   2  22
BRANCH   6  24
ATOM     24  O   UNL     1      -8.694  15.672   8.449  1.00  0.00    -0.507 OA
ATOM     25  H   UNL     1      -9.670  15.768   8.211  1.00  0.00     0.293 HD
ENDBRANCH   6  24
BRANCH   8  26
ATOM     26  O   UNL     1      -7.619  13.620   4.243  1.00  0.00    -0.508 OA
ATOM     27  H   UNL     1      -7.470  14.066   3.345  1.00  0.00     0.293 HD
ENDBRANCH   8  26
TORSDOF 6
ENDMDL
