MODEL 1
REMARK VINA RESULT:    15.082      0.000      0.000
REMARK INTER + INTRA:          31.696
REMARK INTER:                  32.716
REMARK INTRA:                  -1.019
REMARK UNBOUND:                -1.019
REMARK SMILES CCCCCCCCCCCCCCCCCCCCCC(=O)[O-]
REMARK SMILES IDX 12 1 11 2 10 3 9 4 8 5 7 6 6 7 5 8 4 9 3 10 2 11 1 12 13 13
REMARK SMILES IDX 14 14 15 15 16 16 17 17 18 18 19 19 20 20 21 21 22 22 23 23
REMARK SMILES IDX 24 24
REMARK H PARENT
REMARK Flexibility Score: inf
ROOT
ATOM      1  C   UNL     1      14.411  16.500  17.391  1.00  0.00     0.000 C 
ENDROOT
BRANCH   1   2
ATOM      2  C   UNL     1      14.599  15.007  17.708  1.00  0.00     0.000 C 
BRANCH   2   3
ATOM      3  C   UNL     1      13.896  14.035  16.741  1.00  0.00     0.000 C 
BRANCH   3   4
ATOM      4  C   UNL     1      14.045  12.547  17.126  1.00  0.00    -0.000 C 
BRANCH   4   5
ATOM      5  C   UNL     1      12.706  11.906  17.529  1.00  0.00    -0.000 C 
BRANCH   5   6
ATOM      6  C   UNL     1      11.504  12.527  16.798  1.00  0.00    -0.000 C 
BRANCH   6   7
ATOM      7  C   UNL     1      10.189  11.789  17.096  1.00  0.00    -0.000 C 
BRANCH   7   8
ATOM      8  C   UNL     1       9.033  12.747  17.439  1.00  0.00    -0.000 C 
BRANCH   8   9
ATOM      9  C   UNL     1       8.126  13.133  16.253  1.00  0.00    -0.000 C 
BRANCH   9  10
ATOM     10  C   UNL     1       8.083  12.110  15.101  1.00  0.00    -0.000 C 
BRANCH  10  11
ATOM     11  C   UNL     1       9.109  12.353  13.980  1.00  0.00    -0.003 C 
ATOM     12  C   UNL     1       9.230  11.172  13.017  1.00  0.00     0.004 C 
ENDBRANCH  10  11
ENDBRANCH   9  10
ENDBRANCH   8   9
ENDBRANCH   7   8
ENDBRANCH   6   7
ENDBRANCH   5   6
ENDBRANCH   4   5
ENDBRANCH   3   4
ENDBRANCH   2   3
ENDBRANCH   1   2
BRANCH   1  13
ATOM     13  C   UNL     1      13.478  16.744  16.193  1.00  0.00     0.000 C 
BRANCH  13  14
ATOM     14  C   UNL     1      13.283  18.240  15.888  1.00  0.00     0.000 C 
BRANCH  14  15
ATOM     15  C   UNL     1      14.565  19.002  15.492  1.00  0.00     0.000 C 
BRANCH  15  16
ATOM     16  C   UNL     1      14.390  20.519  15.293  1.00  0.00     0.000 C 
BRANCH  16  17
ATOM     17  C   UNL     1      15.689  21.219  14.859  1.00  0.00     0.000 C 
BRANCH  17  18
ATOM     18  C   UNL     1      16.425  21.887  16.030  1.00  0.00     0.000 C 
BRANCH  18  19
ATOM     19  C   UNL     1      15.753  21.605  17.385  1.00  0.00     0.000 C 
BRANCH  19  20
ATOM     20  C   UNL     1      16.742  21.664  18.564  1.00  0.00     0.006 C 
BRANCH  20  21
ATOM     21  C   UNL     1      16.239  20.983  19.848  1.00  0.00     0.053 C 
BRANCH  21  22
ATOM     22  C   UNL     1      16.746  19.579  19.978  1.00  0.00     0.041 C 
ATOM     23  O   UNL     1      17.361  19.221  21.017  1.00  0.00    -0.550 OA
ATOM     24  O   UNL     1      16.516  18.660  18.962  1.00  0.00    -0.550 OA
ENDBRANCH  21  22
ENDBRANCH  20  21
ENDBRANCH  19  20
ENDBRANCH  18  19
ENDBRANCH  17  18
ENDBRANCH  16  17
ENDBRANCH  15  16
ENDBRANCH  14  15
ENDBRANCH  13  14
ENDBRANCH   1  13
TORSDOF 20
ENDMDL
MODEL 2
REMARK VINA RESULT:    15.356      0.700      1.742
REMARK INTER + INTRA:          32.292
REMARK INTER:                  32.404
REMARK INTRA:                  -0.112
REMARK UNBOUND:                -1.019
REMARK SMILES CCCCCCCCCCCCCCCCCCCCCC(=O)[O-]
REMARK SMILES IDX 12 1 11 2 10 3 9 4 8 5 7 6 6 7 5 8 4 9 3 10 2 11 1 12 13 13
REMARK SMILES IDX 14 14 15 15 16 16 17 17 18 18 19 19 20 20 21 21 22 22 23 23
REMARK SMILES IDX 24 24
REMARK H PARENT
REMARK Flexibility Score: inf
ROOT
ATOM      1  C   UNL     1      14.386  16.573  17.295  1.00  0.00     0.000 C 
ENDROOT
BRANCH   1   2
ATOM      2  C   UNL     1      14.766  15.096  17.486  1.00  0.00     0.000 C 
BRANCH   2   3
ATOM      3  C   UNL     1      13.794  14.079  16.857  1.00  0.00     0.000 C 
BRANCH   3   4
ATOM      4  C   UNL     1      13.932  12.647  17.418  1.00  0.00    -0.000 C 
BRANCH   4   5
ATOM      5  C   UNL     1      12.572  12.024  17.779  1.00  0.00    -0.000 C 
BRANCH   5   6
ATOM      6  C   UNL     1      11.556  12.103  16.628  1.00  0.00    -0.000 C 
BRANCH   6   7
ATOM      7  C   UNL     1      10.202  11.473  16.993  1.00  0.00    -0.000 C 
BRANCH   7   8
ATOM      8  C   UNL     1       9.415  10.995  15.758  1.00  0.00    -0.000 C 
BRANCH   8   9
ATOM      9  C   UNL     1       8.719  12.110  14.951  1.00  0.00    -0.000 C 
BRANCH   9  10
ATOM     10  C   UNL     1       7.930  13.133  15.793  1.00  0.00    -0.000 C 
BRANCH  10  11
ATOM     11  C   UNL     1       8.371  13.240  17.262  1.00  0.00    -0.003 C 
ATOM     12  C   UNL     1       7.875  14.517  17.941  1.00  0.00     0.004 C 
ENDBRANCH  10  11
ENDBRANCH   9  10
ENDBRANCH   8   9
ENDBRANCH   7   8
ENDBRANCH   6   7
ENDBRANCH   5   6
ENDBRANCH   4   5
ENDBRANCH   3   4
ENDBRANCH   2   3
ENDBRANCH   1   2
BRANCH   1  13
ATOM     13  C   UNL     1      13.222  16.768  16.308  1.00  0.00     0.000 C 
BRANCH  13  14
ATOM     14  C   UNL     1      13.297  18.113  15.561  1.00  0.00     0.000 C 
BRANCH  14  15
ATOM     15  C   UNL     1      14.563  18.949  15.843  1.00  0.00     0.000 C 
BRANCH  15  16
ATOM     16  C   UNL     1      14.423  20.459  15.572  1.00  0.00     0.000 C 
BRANCH  16  17
ATOM     17  C   UNL     1      15.609  21.037  14.781  1.00  0.00     0.000 C 
BRANCH  17  18
ATOM     18  C   UNL     1      16.496  21.961  15.629  1.00  0.00     0.000 C 
BRANCH  18  19
ATOM     19  C   UNL     1      15.948  22.158  17.054  1.00  0.00     0.000 C 
BRANCH  19  20
ATOM     20  C   UNL     1      16.820  21.478  18.126  1.00  0.00     0.006 C 
BRANCH  20  21
ATOM     21  C   UNL     1      16.035  20.947  19.338  1.00  0.00     0.053 C 
BRANCH  21  22
ATOM     22  C   UNL     1      16.616  19.672  19.871  1.00  0.00     0.041 C 
ATOM     23  O   UNL     1      16.699  18.657  19.131  1.00  0.00    -0.550 OA
ATOM     24  O   UNL     1      17.088  19.616  21.176  1.00  0.00    -0.550 OA
ENDBRANCH  21  22
ENDBRANCH  20  21
ENDBRANCH  19  20
ENDBRANCH  18  19
ENDBRANCH  17  18
ENDBRANCH  16  17
ENDBRANCH  15  16
ENDBRANCH  14  15
ENDBRANCH  13  14
ENDBRANCH   1  13
TORSDOF 20
ENDMDL
MODEL 3
REMARK VINA RESULT:    15.838      3.423      9.995
REMARK INTER + INTRA:          33.337
REMARK INTER:                  34.724
REMARK INTRA:                  -1.387
REMARK UNBOUND:                -1.019
REMARK SMILES CCCCCCCCCCCCCCCCCCCCCC(=O)[O-]
REMARK SMILES IDX 12 1 11 2 10 3 9 4 8 5 7 6 6 7 5 8 4 9 3 10 2 11 1 12 13 13
REMARK SMILES IDX 14 14 15 15 16 16 17 17 18 18 19 19 20 20 21 21 22 22 23 23
REMARK SMILES IDX 24 24
REMARK H PARENT
REMARK Flexibility Score: inf
ROOT
ATOM      1  C   UNL     1      14.279  16.632  17.433  1.00  0.00     0.000 C 
ENDROOT
BRANCH   1   2
ATOM      2  C   UNL     1      13.181  16.765  16.365  1.00  0.00     0.000 C 
BRANCH   2   3
ATOM      3  C   UNL     1      13.198  18.080  15.563  1.00  0.00     0.000 C 
BRANCH   3   4
ATOM      4  C   UNL     1      14.528  18.859  15.660  1.00  0.00    -0.000 C 
BRANCH   4   5
ATOM      5  C   UNL     1      14.368  20.344  15.291  1.00  0.00    -0.000 C 
BRANCH   5   6
ATOM      6  C   UNL     1      15.712  21.040  15.023  1.00  0.00    -0.000 C 
BRANCH   6   7
ATOM      7  C   UNL     1      15.866  22.351  15.810  1.00  0.00    -0.000 C 
BRANCH   7   8
ATOM      8  C   UNL     1      16.762  22.198  17.053  1.00  0.00    -0.000 C 
BRANCH   8   9
ATOM      9  C   UNL     1      16.108  21.478  18.250  1.00  0.00    -0.000 C 
BRANCH   9  10
ATOM     10  C   UNL     1      17.066  21.124  19.405  1.00  0.00    -0.000 C 
BRANCH  10  11
ATOM     11  C   UNL     1      16.690  19.857  20.192  1.00  0.00    -0.003 C 
ATOM     12  C   UNL     1      16.572  18.618  19.304  1.00  0.00     0.004 C 
ENDBRANCH  10  11
ENDBRANCH   9  10
ENDBRANCH   8   9
ENDBRANCH   7   8
ENDBRANCH   6   7
ENDBRANCH   5   6
ENDBRANCH   4   5
ENDBRANCH   3   4
ENDBRANCH   2   3
ENDBRANCH   1   2
BRANCH   1  13
ATOM     13  C   UNL     1      14.699  15.174  17.681  1.00  0.00     0.000 C 
BRANCH  13  14
ATOM     14  C   UNL     1      13.984  14.183  16.744  1.00  0.00     0.000 C 
BRANCH  14  15
ATOM     15  C   UNL     1      14.675  12.812  16.588  1.00  0.00     0.000 C 
BRANCH  15  16
ATOM     16  C   UNL     1      13.865  11.609  17.105  1.00  0.00     0.000 C 
BRANCH  16  17
ATOM     17  C   UNL     1      12.623  12.028  17.912  1.00  0.00     0.000 C 
BRANCH  17  18
ATOM     18  C   UNL     1      11.319  11.454  17.337  1.00  0.00     0.000 C 
BRANCH  18  19
ATOM     19  C   UNL     1      10.591  12.454  16.421  1.00  0.00     0.000 C 
BRANCH  19  20
ATOM     20  C   UNL     1       9.127  12.687  16.839  1.00  0.00     0.006 C 
BRANCH  20  21
ATOM     21  C   UNL     1       8.128  12.700  15.670  1.00  0.00     0.053 C 
BRANCH  21  22
ATOM     22  C   UNL     1       8.737  12.184  14.402  1.00  0.00     0.041 C 
ATOM     23  O   UNL     1       8.652  10.961  14.111  1.00  0.00    -0.550 OA
ATOM     24  O   UNL     1       9.376  13.057  13.531  1.00  0.00    -0.550 OA
ENDBRANCH  21  22
ENDBRANCH  20  21
ENDBRANCH  19  20
ENDBRANCH  18  19
ENDBRANCH  17  18
ENDBRANCH  16  17
ENDBRANCH  15  16
ENDBRANCH  14  15
ENDBRANCH  13  14
ENDBRANCH   1  13
TORSDOF 20
ENDMDL
MODEL 4
REMARK VINA RESULT:    16.110      3.840      9.842
REMARK INTER + INTRA:          33.926
REMARK INTER:                  35.331
REMARK INTRA:                  -1.405
REMARK UNBOUND:                -1.019
REMARK SMILES CCCCCCCCCCCCCCCCCCCCCC(=O)[O-]
REMARK SMILES IDX 12 1 11 2 10 3 9 4 8 5 7 6 6 7 5 8 4 9 3 10 2 11 1 12 13 13
REMARK SMILES IDX 14 14 15 15 16 16 17 17 18 18 19 19 20 20 21 21 22 22 23 23
REMARK SMILES IDX 24 24
REMARK H PARENT
REMARK Flexibility Score: inf
ROOT
ATOM      1  C   UNL     1      14.163  16.579  16.834  1.00  0.00     0.000 C 
ENDROOT
BRANCH   1   2
ATOM      2  C   UNL     1      14.761  16.823  18.230  1.00  0.00     0.000 C 
BRANCH   2   3
ATOM      3  C   UNL     1      16.282  17.073  18.259  1.00  0.00     0.000 C 
BRANCH   3   4
ATOM      4  C   UNL     1      16.672  18.547  18.502  1.00  0.00    -0.000 C 
BRANCH   4   5
ATOM      5  C   UNL     1      16.871  18.864  19.995  1.00  0.00    -0.000 C 
BRANCH   5   6
ATOM      6  C   UNL     1      16.511  20.316  20.349  1.00  0.00    -0.000 C 
BRANCH   6   7
ATOM      7  C   UNL     1      16.726  21.280  19.171  1.00  0.00    -0.000 C 
BRANCH   7   8
ATOM      8  C   UNL     1      15.402  21.780  18.562  1.00  0.00    -0.000 C 
BRANCH   8   9
ATOM      9  C   UNL     1      15.440  22.055  17.045  1.00  0.00    -0.000 C 
BRANCH   9  10
ATOM     10  C   UNL     1      14.910  20.910  16.159  1.00  0.00    -0.000 C 
BRANCH  10  11
ATOM     11  C   UNL     1      15.496  20.868  14.737  1.00  0.00    -0.003 C 
ATOM     12  C   UNL     1      16.755  21.723  14.587  1.00  0.00     0.004 C 
ENDBRANCH  10  11
ENDBRANCH   9  10
ENDBRANCH   8   9
ENDBRANCH   7   8
ENDBRANCH   6   7
ENDBRANCH   5   6
ENDBRANCH   4   5
ENDBRANCH   3   4
ENDBRANCH   2   3
ENDBRANCH   1   2
BRANCH   1  13
ATOM     13  C   UNL     1      13.465  15.214  16.713  1.00  0.00     0.000 C 
BRANCH  13  14
ATOM     14  C   UNL     1      14.295  14.069  17.321  1.00  0.00     0.000 C 
BRANCH  14  15
ATOM     15  C   UNL     1      14.225  12.730  16.556  1.00  0.00     0.000 C 
BRANCH  15  16
ATOM     16  C   UNL     1      13.582  11.566  17.332  1.00  0.00     0.000 C 
BRANCH  16  17
ATOM     17  C   UNL     1      12.180  11.907  17.867  1.00  0.00     0.000 C 
BRANCH  17  18
ATOM     18  C   UNL     1      11.196  12.296  16.753  1.00  0.00     0.000 C 
BRANCH  18  19
ATOM     19  C   UNL     1       9.728  12.221  17.213  1.00  0.00     0.000 C 
BRANCH  19  20
ATOM     20  C   UNL     1       8.750  12.805  16.177  1.00  0.00     0.006 C 
BRANCH  20  21
ATOM     21  C   UNL     1       9.318  12.896  14.750  1.00  0.00     0.053 C 
BRANCH  21  22
ATOM     22  C   UNL     1       8.995  11.679  13.937  1.00  0.00     0.041 C 
ATOM     23  O   UNL     1       8.253  10.779  14.412  1.00  0.00    -0.550 OA
ATOM     24  O   UNL     1       9.493  11.553  12.647  1.00  0.00    -0.550 OA
ENDBRANCH  21  22
ENDBRANCH  20  21
ENDBRANCH  19  20
ENDBRANCH  18  19
ENDBRANCH  17  18
ENDBRANCH  16  17
ENDBRANCH  15  16
ENDBRANCH  14  15
ENDBRANCH  13  14
ENDBRANCH   1  13
TORSDOF 20
ENDMDL
MODEL 5
REMARK VINA RESULT:    16.212      1.934      3.092
REMARK INTER + INTRA:          34.147
REMARK INTER:                  33.832
REMARK INTRA:                   0.315
REMARK UNBOUND:                -1.019
REMARK SMILES CCCCCCCCCCCCCCCCCCCCCC(=O)[O-]
REMARK SMILES IDX 12 1 11 2 10 3 9 4 8 5 7 6 6 7 5 8 4 9 3 10 2 11 1 12 13 13
REMARK SMILES IDX 14 14 15 15 16 16 17 17 18 18 19 19 20 20 21 21 22 22 23 23
REMARK SMILES IDX 24 24
REMARK H PARENT
REMARK Flexibility Score: inf
ROOT
ATOM      1  C   UNL     1      14.645  14.407  17.515  1.00  0.00     0.000 C 
ENDROOT
BRANCH   1   2
ATOM      2  C   UNL     1      13.961  13.374  16.605  1.00  0.00     0.000 C 
BRANCH   2   3
ATOM      3  C   UNL     1      13.993  11.921  17.118  1.00  0.00     0.000 C 
BRANCH   3   4
ATOM      4  C   UNL     1      12.612  11.370  17.532  1.00  0.00    -0.000 C 
BRANCH   4   5
ATOM      5  C   UNL     1      11.492  12.414  17.383  1.00  0.00    -0.000 C 
BRANCH   5   6
ATOM      6  C   UNL     1      10.123  11.782  17.084  1.00  0.00    -0.000 C 
BRANCH   6   7
ATOM      7  C   UNL     1       8.990  12.411  17.911  1.00  0.00    -0.000 C 
BRANCH   7   8
ATOM      8  C   UNL     1       8.125  13.386  17.091  1.00  0.00    -0.000 C 
BRANCH   8   9
ATOM      9  C   UNL     1       7.876  12.971  15.626  1.00  0.00    -0.000 C 
BRANCH   9  10
ATOM     10  C   UNL     1       9.037  12.211  14.954  1.00  0.00    -0.000 C 
BRANCH  10  11
ATOM     11  C   UNL     1       8.617  11.254  13.825  1.00  0.00    -0.003 C 
ATOM     12  C   UNL     1       9.608  11.237  12.660  1.00  0.00     0.004 C 
ENDBRANCH  10  11
ENDBRANCH   9  10
ENDBRANCH   8   9
ENDBRANCH   7   8
ENDBRANCH   6   7
ENDBRANCH   5   6
ENDBRANCH   4   5
ENDBRANCH   3   4
ENDBRANCH   2   3
ENDBRANCH   1   2
BRANCH   1  13
ATOM     13  C   UNL     1      14.147  15.842  17.271  1.00  0.00     0.000 C 
BRANCH  13  14
ATOM     14  C   UNL     1      14.678  16.839  18.316  1.00  0.00     0.000 C 
BRANCH  14  15
ATOM     15  C   UNL     1      15.853  17.721  17.843  1.00  0.00     0.000 C 
BRANCH  15  16
ATOM     16  C   UNL     1      16.912  18.030  18.917  1.00  0.00     0.000 C 
BRANCH  16  17
ATOM     17  C   UNL     1      16.428  19.056  19.956  1.00  0.00     0.000 C 
BRANCH  17  18
ATOM     18  C   UNL     1      16.995  20.463  19.714  1.00  0.00     0.000 C 
BRANCH  18  19
ATOM     19  C   UNL     1      15.948  21.424  19.122  1.00  0.00     0.000 C 
BRANCH  19  20
ATOM     20  C   UNL     1      16.266  21.832  17.672  1.00  0.00     0.006 C 
BRANCH  20  21
ATOM     21  C   UNL     1      15.040  21.891  16.746  1.00  0.00     0.053 C 
BRANCH  21  22
ATOM     22  C   UNL     1      15.243  21.101  15.489  1.00  0.00     0.041 C 
ATOM     23  O   UNL     1      16.132  21.441  14.665  1.00  0.00    -0.550 OA
ATOM     24  O   UNL     1      14.468  19.975  15.243  1.00  0.00    -0.550 OA
ENDBRANCH  21  22
ENDBRANCH  20  21
ENDBRANCH  19  20
ENDBRANCH  18  19
ENDBRANCH  17  18
ENDBRANCH  16  17
ENDBRANCH  15  16
ENDBRANCH  14  15
ENDBRANCH  13  14
ENDBRANCH   1  13
TORSDOF 20
ENDMDL
MODEL 6
REMARK VINA RESULT:    16.367      1.845      3.131
REMARK INTER + INTRA:          34.483
REMARK INTER:                  35.278
REMARK INTRA:                  -0.794
REMARK UNBOUND:                -1.019
REMARK SMILES CCCCCCCCCCCCCCCCCCCCCC(=O)[O-]
REMARK SMILES IDX 12 1 11 2 10 3 9 4 8 5 7 6 6 7 5 8 4 9 3 10 2 11 1 12 13 13
REMARK SMILES IDX 14 14 15 15 16 16 17 17 18 18 19 19 20 20 21 21 22 22 23 23
REMARK SMILES IDX 24 24
REMARK H PARENT
REMARK Flexibility Score: inf
ROOT
ATOM      1  C   UNL     1      14.498  16.526  17.429  1.00  0.00     0.000 C 
ENDROOT
BRANCH   1   2
ATOM      2  C   UNL     1      14.502  15.040  17.822  1.00  0.00     0.000 C 
BRANCH   2   3
ATOM      3  C   UNL     1      13.957  14.074  16.751  1.00  0.00     0.000 C 
BRANCH   3   4
ATOM      4  C   UNL     1      14.631  12.685  16.755  1.00  0.00    -0.000 C 
BRANCH   4   5
ATOM      5  C   UNL     1      13.656  11.560  17.144  1.00  0.00    -0.000 C 
BRANCH   5   6
ATOM      6  C   UNL     1      12.358  12.087  17.775  1.00  0.00    -0.000 C 
BRANCH   6   7
ATOM      7  C   UNL     1      11.252  12.328  16.735  1.00  0.00    -0.000 C 
BRANCH   7   8
ATOM      8  C   UNL     1       9.864  11.877  17.226  1.00  0.00    -0.000 C 
BRANCH   8   9
ATOM      9  C   UNL     1       8.673  12.667  16.644  1.00  0.00    -0.000 C 
BRANCH   9  10
ATOM     10  C   UNL     1       8.714  12.884  15.118  1.00  0.00    -0.000 C 
BRANCH  10  11
ATOM     11  C   UNL     1       8.472  11.618  14.278  1.00  0.00    -0.003 C 
ATOM     12  C   UNL     1       9.442  11.490  13.102  1.00  0.00     0.004 C 
ENDBRANCH  10  11
ENDBRANCH   9  10
ENDBRANCH   8   9
ENDBRANCH   7   8
ENDBRANCH   6   7
ENDBRANCH   5   6
ENDBRANCH   4   5
ENDBRANCH   3   4
ENDBRANCH   2   3
ENDBRANCH   1   2
BRANCH   1  13
ATOM     13  C   UNL     1      15.804  17.247  17.802  1.00  0.00     0.000 C 
BRANCH  13  14
ATOM     14  C   UNL     1      15.662  18.112  19.068  1.00  0.00     0.000 C 
BRANCH  14  15
ATOM     15  C   UNL     1      16.934  18.883  19.481  1.00  0.00     0.000 C 
BRANCH  15  16
ATOM     16  C   UNL     1      16.687  20.288  20.062  1.00  0.00     0.000 C 
BRANCH  16  17
ATOM     17  C   UNL     1      17.208  21.412  19.150  1.00  0.00     0.000 C 
BRANCH  17  18
ATOM     18  C   UNL     1      16.295  21.671  17.942  1.00  0.00     0.000 C 
BRANCH  18  19
ATOM     19  C   UNL     1      17.089  21.985  16.662  1.00  0.00     0.000 C 
BRANCH  19  20
ATOM     20  C   UNL     1      16.194  22.059  15.410  1.00  0.00     0.006 C 
BRANCH  20  21
ATOM     21  C   UNL     1      15.668  20.697  14.926  1.00  0.00     0.053 C 
BRANCH  21  22
ATOM     22  C   UNL     1      14.314  20.384  15.486  1.00  0.00     0.041 C 
ATOM     23  O   UNL     1      13.635  21.287  16.043  1.00  0.00    -0.550 OA
ATOM     24  O   UNL     1      13.792  19.102  15.370  1.00  0.00    -0.550 OA
ENDBRANCH  21  22
ENDBRANCH  20  21
ENDBRANCH  19  20
ENDBRANCH  18  19
ENDBRANCH  17  18
ENDBRANCH  16  17
ENDBRANCH  15  16
ENDBRANCH  14  15
ENDBRANCH  13  14
ENDBRANCH   1  13
TORSDOF 20
ENDMDL
MODEL 7
REMARK VINA RESULT:    16.376      3.423      9.682
REMARK INTER + INTRA:          34.503
REMARK INTER:                  35.801
REMARK INTRA:                  -1.298
REMARK UNBOUND:                -1.019
REMARK SMILES CCCCCCCCCCCCCCCCCCCCCC(=O)[O-]
REMARK SMILES IDX 12 1 11 2 10 3 9 4 8 5 7 6 6 7 5 8 4 9 3 10 2 11 1 12 13 13
REMARK SMILES IDX 14 14 15 15 16 16 17 17 18 18 19 19 20 20 21 21 22 22 23 23
REMARK SMILES IDX 24 24
REMARK H PARENT
REMARK Flexibility Score: inf
ROOT
ATOM      1  C   UNL     1      15.677  16.475  17.734  1.00  0.00     0.000 C 
ENDROOT
BRANCH   1   2
ATOM      2  C   UNL     1      15.748  17.936  18.208  1.00  0.00     0.000 C 
BRANCH   2   3
ATOM      3  C   UNL     1      16.824  18.231  19.272  1.00  0.00     0.000 C 
BRANCH   3   4
ATOM      4  C   UNL     1      16.572  19.522  20.080  1.00  0.00    -0.000 C 
BRANCH   4   5
ATOM      5  C   UNL     1      17.134  20.773  19.382  1.00  0.00    -0.000 C 
BRANCH   5   6
ATOM      6  C   UNL     1      16.061  21.841  19.118  1.00  0.00    -0.000 C 
BRANCH   6   7
ATOM      7  C   UNL     1      15.434  21.713  17.720  1.00  0.00    -0.000 C 
BRANCH   7   8
ATOM      8  C   UNL     1      16.418  22.070  16.591  1.00  0.00    -0.000 C 
BRANCH   8   9
ATOM      9  C   UNL     1      15.905  21.796  15.162  1.00  0.00    -0.000 C 
BRANCH   9  10
ATOM     10  C   UNL     1      15.404  20.360  14.911  1.00  0.00    -0.000 C 
BRANCH  10  11
ATOM     11  C   UNL     1      13.921  20.124  15.246  1.00  0.00    -0.003 C 
ATOM     12  C   UNL     1      13.623  18.677  15.642  1.00  0.00     0.004 C 
ENDBRANCH  10  11
ENDBRANCH   9  10
ENDBRANCH   8   9
ENDBRANCH   7   8
ENDBRANCH   6   7
ENDBRANCH   5   6
ENDBRANCH   4   5
ENDBRANCH   3   4
ENDBRANCH   2   3
ENDBRANCH   1   2
BRANCH   1  13
ATOM     13  C   UNL     1      14.274  15.864  17.886  1.00  0.00     0.000 C 
BRANCH  13  14
ATOM     14  C   UNL     1      13.930  14.882  16.752  1.00  0.00     0.000 C 
BRANCH  14  15
ATOM     15  C   UNL     1      14.347  13.417  17.003  1.00  0.00     0.000 C 
BRANCH  15  16
ATOM     16  C   UNL     1      13.491  12.661  18.036  1.00  0.00     0.000 C 
BRANCH  16  17
ATOM     17  C   UNL     1      12.484  11.696  17.385  1.00  0.00     0.000 C 
BRANCH  17  18
ATOM     18  C   UNL     1      11.366  12.425  16.626  1.00  0.00     0.000 C 
BRANCH  18  19
ATOM     19  C   UNL     1       9.963  12.021  17.115  1.00  0.00     0.000 C 
BRANCH  19  20
ATOM     20  C   UNL     1       8.866  12.994  16.645  1.00  0.00     0.006 C 
BRANCH  20  21
ATOM     21  C   UNL     1       7.919  12.415  15.580  1.00  0.00     0.053 C 
BRANCH  21  22
ATOM     22  C   UNL     1       8.630  12.114  14.296  1.00  0.00     0.041 C 
ATOM     23  O   UNL     1       9.413  12.962  13.793  1.00  0.00    -0.550 OA
ATOM     24  O   UNL     1       8.446  10.888  13.671  1.00  0.00    -0.550 OA
ENDBRANCH  21  22
ENDBRANCH  20  21
ENDBRANCH  19  20
ENDBRANCH  18  19
ENDBRANCH  17  18
ENDBRANCH  16  17
ENDBRANCH  15  16
ENDBRANCH  14  15
ENDBRANCH  13  14
ENDBRANCH   1  13
TORSDOF 20
ENDMDL
MODEL 8
REMARK VINA RESULT:    16.836      2.023      3.465
REMARK INTER + INTRA:          35.501
REMARK INTER:                  36.075
REMARK INTRA:                  -0.574
REMARK UNBOUND:                -1.019
REMARK SMILES CCCCCCCCCCCCCCCCCCCCCC(=O)[O-]
REMARK SMILES IDX 12 1 11 2 10 3 9 4 8 5 7 6 6 7 5 8 4 9 3 10 2 11 1 12 13 13
REMARK SMILES IDX 14 14 15 15 16 16 17 17 18 18 19 19 20 20 21 21 22 22 23 23
REMARK SMILES IDX 24 24
REMARK H PARENT
REMARK Flexibility Score: inf
ROOT
ATOM      1  C   UNL     1      15.197  15.015  17.572  1.00  0.00     0.000 C 
ENDROOT
BRANCH   1   2
ATOM      2  C   UNL     1      14.030  14.471  16.731  1.00  0.00     0.000 C 
BRANCH   2   3
ATOM      3  C   UNL     1      13.863  12.940  16.752  1.00  0.00     0.000 C 
BRANCH   3   4
ATOM      4  C   UNL     1      13.543  12.360  18.147  1.00  0.00    -0.000 C 
BRANCH   4   5
ATOM      5  C   UNL     1      12.111  11.805  18.239  1.00  0.00    -0.000 C 
BRANCH   5   6
ATOM      6  C   UNL     1      11.364  11.855  16.897  1.00  0.00    -0.000 C 
BRANCH   6   7
ATOM      7  C   UNL     1       9.980  11.190  16.967  1.00  0.00    -0.000 C 
BRANCH   7   8
ATOM      8  C   UNL     1       9.454  10.763  15.584  1.00  0.00    -0.000 C 
BRANCH   8   9
ATOM      9  C   UNL     1       8.925  11.912  14.701  1.00  0.00    -0.000 C 
BRANCH   9  10
ATOM     10  C   UNL     1       7.875  12.822  15.368  1.00  0.00    -0.000 C 
BRANCH  10  11
ATOM     11  C   UNL     1       8.433  13.778  16.436  1.00  0.00    -0.003 C 
ATOM     12  C   UNL     1       7.877  13.499  17.833  1.00  0.00     0.004 C 
ENDBRANCH  10  11
ENDBRANCH   9  10
ENDBRANCH   8   9
ENDBRANCH   7   8
ENDBRANCH   6   7
ENDBRANCH   5   6
ENDBRANCH   4   5
ENDBRANCH   3   4
ENDBRANCH   2   3
ENDBRANCH   1   2
BRANCH   1  13
ATOM     13  C   UNL     1      15.057  16.513  17.891  1.00  0.00     0.000 C 
BRANCH  13  14
ATOM     14  C   UNL     1      16.400  17.169  18.261  1.00  0.00     0.000 C 
BRANCH  14  15
ATOM     15  C   UNL     1      16.336  18.686  18.534  1.00  0.00     0.000 C 
BRANCH  15  16
ATOM     16  C   UNL     1      16.696  19.108  19.970  1.00  0.00     0.000 C 
BRANCH  16  17
ATOM     17  C   UNL     1      16.906  20.626  20.113  1.00  0.00     0.000 C 
BRANCH  17  18
ATOM     18  C   UNL     1      16.726  21.379  18.786  1.00  0.00     0.000 C 
BRANCH  18  19
ATOM     19  C   UNL     1      15.309  21.961  18.628  1.00  0.00     0.000 C 
BRANCH  19  20
ATOM     20  C   UNL     1      14.925  22.198  17.155  1.00  0.00     0.006 C 
BRANCH  20  21
ATOM     21  C   UNL     1      16.097  22.079  16.167  1.00  0.00     0.053 C 
BRANCH  21  22
ATOM     22  C   UNL     1      15.765  21.197  15.002  1.00  0.00     0.041 C 
ATOM     23  O   UNL     1      14.968  20.233  15.145  1.00  0.00    -0.550 OA
ATOM     24  O   UNL     1      16.316  21.457  13.754  1.00  0.00    -0.550 OA
ENDBRANCH  21  22
ENDBRANCH  20  21
ENDBRANCH  19  20
ENDBRANCH  18  19
ENDBRANCH  17  18
ENDBRANCH  16  17
ENDBRANCH  15  16
ENDBRANCH  14  15
ENDBRANCH  13  14
ENDBRANCH   1  13
TORSDOF 20
ENDMDL
MODEL 9
REMARK VINA RESULT:    17.470      5.509      8.273
REMARK INTER + INTRA:          36.876
REMARK INTER:                  37.593
REMARK INTRA:                  -0.717
REMARK UNBOUND:                -1.019
REMARK SMILES CCCCCCCCCCCCCCCCCCCCCC(=O)[O-]
REMARK SMILES IDX 12 1 11 2 10 3 9 4 8 5 7 6 6 7 5 8 4 9 3 10 2 11 1 12 13 13
REMARK SMILES IDX 14 14 15 15 16 16 17 17 18 18 19 19 20 20 21 21 22 22 23 23
REMARK SMILES IDX 24 24
REMARK H PARENT
REMARK Flexibility Score: inf
ROOT
ATOM      1  C   UNL     1      15.601  11.027  16.005  1.00  0.00     0.000 C 
ENDROOT
BRANCH   1   2
ATOM      2  C   UNL     1      15.412  12.489  15.567  1.00  0.00     0.000 C 
BRANCH   2   3
ATOM      3  C   UNL     1      15.114  13.484  16.705  1.00  0.00     0.000 C 
BRANCH   3   4
ATOM      4  C   UNL     1      13.642  13.485  17.170  1.00  0.00    -0.000 C 
BRANCH   4   5
ATOM      5  C   UNL     1      13.064  12.064  17.297  1.00  0.00    -0.000 C 
BRANCH   5   6
ATOM      6  C   UNL     1      11.595  12.056  17.751  1.00  0.00    -0.000 C 
BRANCH   6   7
ATOM      7  C   UNL     1      10.865  10.760  17.363  1.00  0.00    -0.000 C 
BRANCH   7   8
ATOM      8  C   UNL     1       9.456  11.017  16.797  1.00  0.00    -0.000 C 
BRANCH   8   9
ATOM      9  C   UNL     1       9.186  12.465  16.339  1.00  0.00    -0.000 C 
BRANCH   9  10
ATOM     10  C   UNL     1       8.005  12.635  15.363  1.00  0.00    -0.000 C 
BRANCH  10  11
ATOM     11  C   UNL     1       8.051  11.720  14.128  1.00  0.00    -0.003 C 
ATOM     12  C   UNL     1       9.384  11.792  13.383  1.00  0.00     0.004 C 
ENDBRANCH  10  11
ENDBRANCH   9  10
ENDBRANCH   8   9
ENDBRANCH   7   8
ENDBRANCH   6   7
ENDBRANCH   5   6
ENDBRANCH   4   5
ENDBRANCH   3   4
ENDBRANCH   2   3
ENDBRANCH   1   2
BRANCH   1  13
ATOM     13  C   UNL     1      16.511  10.231  15.055  1.00  0.00     0.000 C 
BRANCH  13  14
ATOM     14  C   UNL     1      15.813   8.989  14.470  1.00  0.00     0.000 C 
BRANCH  14  15
ATOM     15  C   UNL     1      15.792   8.914  12.928  1.00  0.00     0.000 C 
BRANCH  15  16
ATOM     16  C   UNL     1      16.902   9.712  12.219  1.00  0.00     0.000 C 
BRANCH  16  17
ATOM     17  C   UNL     1      17.135   9.252  10.769  1.00  0.00     0.000 C 
BRANCH  17  18
ATOM     18  C   UNL     1      16.264  10.012   9.757  1.00  0.00     0.000 C 
BRANCH  18  19
ATOM     19  C   UNL     1      16.666  11.492   9.630  1.00  0.00     0.000 C 
BRANCH  19  20
ATOM     20  C   UNL     1      15.453  12.426   9.469  1.00  0.00     0.006 C 
BRANCH  20  21
ATOM     21  C   UNL     1      15.814  13.911   9.296  1.00  0.00     0.053 C 
BRANCH  21  22
ATOM     22  C   UNL     1      17.050  14.283  10.057  1.00  0.00     0.041 C 
ATOM     23  O   UNL     1      18.088  14.644   9.441  1.00  0.00    -0.550 OA
ATOM     24  O   UNL     1      17.047  14.254  11.445  1.00  0.00    -0.550 OA
ENDBRANCH  21  22
ENDBRANCH  20  21
ENDBRANCH  19  20
ENDBRANCH  18  19
ENDBRANCH  17  18
ENDBRANCH  16  17
ENDBRANCH  15  16
ENDBRANCH  14  15
ENDBRANCH  13  14
ENDBRANCH   1  13
TORSDOF 20
ENDMDL
