MODEL 1
REMARK VINA RESULT:    -3.259      0.000      0.000
REMARK INTER + INTRA:          -4.057
REMARK INTER:                  -3.830
REMARK INTRA:                  -0.227
REMARK UNBOUND:                -0.227
REMARK SMILES [NH3+][C@H](CO)C(=O)[O-]
REMARK SMILES IDX 3 1 2 2 1 3 5 7 6 8 7 9 4 10
REMARK H PARENT 1 4 1 5 1 6 4 11
REMARK Flexibility Score: inf
ROOT
ATOM      1  C   UNL     1    -476.836 293.543   0.594  1.00  0.00     0.227 C 
ENDROOT
BRANCH   1   2
ATOM      2  C   UNL     1    -476.855 295.007   0.118  1.00  0.00     0.253 C 
BRANCH   2   3
ATOM      3  N   UNL     1    -475.502 295.577   0.098  1.00  0.00    -0.348 N 
ATOM      4  H   UNL     1    -474.941 295.172  -0.687  1.00  0.00     0.345 HD
ATOM      5  H   UNL     1    -475.557 296.616  -0.019  1.00  0.00     0.345 HD
ATOM      6  H   UNL     1    -475.019 295.381   1.004  1.00  0.00     0.345 HD
ENDBRANCH   2   3
BRANCH   2   7
ATOM      7  C   UNL     1    -477.475 295.092  -1.250  1.00  0.00     0.102 C 
ATOM      8  O   UNL     1    -477.911 294.053  -1.814  1.00  0.00    -0.544 OA
ATOM      9  O   UNL     1    -477.556 296.313  -1.908  1.00  0.00    -0.544 OA
ENDBRANCH   2   7
ENDBRANCH   1   2
BRANCH   1  10
ATOM     10  O   UNL     1    -478.123 293.130   0.968  1.00  0.00    -0.390 OA
ATOM     11  H   UNL     1    -478.611 293.941   1.269  1.00  0.00     0.210 HD
ENDBRANCH   1  10
TORSDOF 4
ENDMDL
MODEL 2
REMARK VINA RESULT:    -2.920      2.099      3.148
REMARK INTER + INTRA:          -3.658
REMARK INTER:                  -3.428
REMARK INTRA:                  -0.231
REMARK UNBOUND:                -0.227
REMARK SMILES [NH3+][C@H](CO)C(=O)[O-]
REMARK SMILES IDX 3 1 2 2 1 3 5 7 6 8 7 9 4 10
REMARK H PARENT 1 4 1 5 1 6 4 11
REMARK Flexibility Score: inf
ROOT
ATOM      1  C   UNL     1    -476.706 295.553   0.047  1.00  0.00     0.227 C 
ENDROOT
BRANCH   1   2
ATOM      2  C   UNL     1    -477.750 294.495  -0.350  1.00  0.00     0.253 C 
BRANCH   2   3
ATOM      3  N   UNL     1    -477.714 294.224  -1.792  1.00  0.00    -0.348 N 
ATOM      4  H   UNL     1    -476.934 294.752  -2.248  1.00  0.00     0.345 HD
ATOM      5  H   UNL     1    -477.576 293.200  -1.957  1.00  0.00     0.345 HD
ATOM      6  H   UNL     1    -478.620 294.502  -2.231  1.00  0.00     0.345 HD
ENDBRANCH   2   3
BRANCH   2   7
ATOM      7  C   UNL     1    -477.511 293.226   0.424  1.00  0.00     0.102 C 
ATOM      8  O   UNL     1    -476.893 293.260   1.521  1.00  0.00    -0.544 OA
ATOM      9  O   UNL     1    -477.956 292.007  -0.074  1.00  0.00    -0.544 OA
ENDBRANCH   2   7
ENDBRANCH   1   2
BRANCH   1  10
ATOM     10  O   UNL     1    -475.407 295.058  -0.138  1.00  0.00    -0.390 OA
ATOM     11  H   UNL     1    -475.321 294.825  -1.100  1.00  0.00     0.210 HD
ENDBRANCH   1  10
TORSDOF 4
ENDMDL
MODEL 3
REMARK VINA RESULT:    -2.857     10.662     11.596
REMARK INTER + INTRA:          -3.585
REMARK INTER:                  -3.371
REMARK INTRA:                  -0.215
REMARK UNBOUND:                -0.227
REMARK SMILES [NH3+][C@H](CO)C(=O)[O-]
REMARK SMILES IDX 3 1 2 2 1 3 5 7 6 8 7 9 4 10
REMARK H PARENT 1 4 1 5 1 6 4 11
REMARK Flexibility Score: inf
ROOT
ATOM      1  C   UNL     1    -476.729 284.119  -0.624  1.00  0.00     0.227 C 
ENDROOT
BRANCH   1   2
ATOM      2  C   UNL     1    -475.198 284.108  -0.465  1.00  0.00     0.253 C 
BRANCH   2   3
ATOM      3  N   UNL     1    -474.809 283.941   0.940  1.00  0.00    -0.348 N 
ATOM      4  H   UNL     1    -475.317 284.624   1.549  1.00  0.00     0.345 HD
ATOM      5  H   UNL     1    -475.031 282.969   1.257  1.00  0.00     0.345 HD
ATOM      6  H   UNL     1    -473.779 284.086   1.045  1.00  0.00     0.345 HD
ENDBRANCH   2   3
BRANCH   2   7
ATOM      7  C   UNL     1    -474.605 283.006  -1.303  1.00  0.00     0.102 C 
ATOM      8  O   UNL     1    -474.747 283.017  -2.554  1.00  0.00    -0.544 OA
ATOM      9  O   UNL     1    -473.914 281.962  -0.700  1.00  0.00    -0.544 OA
ENDBRANCH   2   7
ENDBRANCH   1   2
BRANCH   1  10
ATOM     10  O   UNL     1    -477.085 284.435  -1.943  1.00  0.00    -0.390 OA
ATOM     11  H   UNL     1    -477.919 284.972  -1.896  1.00  0.00     0.210 HD
ENDBRANCH   1  10
TORSDOF 4
ENDMDL
MODEL 4
REMARK VINA RESULT:    -2.756      1.173      2.785
REMARK INTER + INTRA:          -3.466
REMARK INTER:                  -3.240
REMARK INTRA:                  -0.226
REMARK UNBOUND:                -0.227
REMARK SMILES [NH3+][C@H](CO)C(=O)[O-]
REMARK SMILES IDX 3 1 2 2 1 3 5 7 6 8 7 9 4 10
REMARK H PARENT 1 4 1 5 1 6 4 11
REMARK Flexibility Score: inf
ROOT
ATOM      1  C   UNL     1    -477.339 295.543  -1.723  1.00  0.00     0.227 C 
ENDROOT
BRANCH   1   2
ATOM      2  C   UNL     1    -476.513 294.988  -0.549  1.00  0.00     0.253 C 
BRANCH   2   3
ATOM      3  N   UNL     1    -476.236 296.030   0.448  1.00  0.00    -0.348 N 
ATOM      4  H   UNL     1    -475.399 296.594   0.172  1.00  0.00     0.345 HD
ATOM      5  H   UNL     1    -477.063 296.666   0.536  1.00  0.00     0.345 HD
ATOM      6  H   UNL     1    -476.065 295.595   1.382  1.00  0.00     0.345 HD
ENDBRANCH   2   3
BRANCH   2   7
ATOM      7  C   UNL     1    -477.243 293.838   0.091  1.00  0.00     0.102 C 
ATOM      8  O   UNL     1    -478.108 293.196  -0.561  1.00  0.00    -0.544 OA
ATOM      9  O   UNL     1    -476.980 293.488   1.410  1.00  0.00    -0.544 OA
ENDBRANCH   2   7
ENDBRANCH   1   2
BRANCH   1  10
ATOM     10  O   UNL     1    -477.180 294.740  -2.861  1.00  0.00    -0.390 OA
ATOM     11  H   UNL     1    -478.088 294.567  -3.223  1.00  0.00     0.210 HD
ENDBRANCH   1  10
TORSDOF 4
ENDMDL
MODEL 5
REMARK VINA RESULT:    -2.738      1.956      2.128
REMARK INTER + INTRA:          -3.444
REMARK INTER:                  -3.214
REMARK INTRA:                  -0.231
REMARK UNBOUND:                -0.227
REMARK SMILES [NH3+][C@H](CO)C(=O)[O-]
REMARK SMILES IDX 3 1 2 2 1 3 5 7 6 8 7 9 4 10
REMARK H PARENT 1 4 1 5 1 6 4 11
REMARK Flexibility Score: inf
ROOT
ATOM      1  C   UNL     1    -477.849 293.339   0.516  1.00  0.00     0.227 C 
ENDROOT
BRANCH   1   2
ATOM      2  C   UNL     1    -477.320 294.031  -0.753  1.00  0.00     0.253 C 
BRANCH   2   3
ATOM      3  N   UNL     1    -478.124 293.675  -1.929  1.00  0.00    -0.348 N 
ATOM      4  H   UNL     1    -478.604 294.520  -2.319  1.00  0.00     0.345 HD
ATOM      5  H   UNL     1    -477.510 293.259  -2.666  1.00  0.00     0.345 HD
ATOM      6  H   UNL     1    -478.842 292.962  -1.668  1.00  0.00     0.345 HD
ENDBRANCH   2   3
BRANCH   2   7
ATOM      7  C   UNL     1    -477.318 295.524  -0.557  1.00  0.00     0.102 C 
ATOM      8  O   UNL     1    -478.124 296.248  -1.199  1.00  0.00    -0.544 OA
ATOM      9  O   UNL     1    -476.415 296.114   0.319  1.00  0.00    -0.544 OA
ENDBRANCH   2   7
ENDBRANCH   1   2
BRANCH   1  10
ATOM     10  O   UNL     1    -477.011 293.606   1.608  1.00  0.00    -0.390 OA
ATOM     11  H   UNL     1    -476.809 294.578   1.587  1.00  0.00     0.210 HD
ENDBRANCH   1  10
TORSDOF 4
ENDMDL
MODEL 6
REMARK VINA RESULT:    -2.701      1.877      2.373
REMARK INTER + INTRA:          -3.401
REMARK INTER:                  -3.164
REMARK INTRA:                  -0.237
REMARK UNBOUND:                -0.227
REMARK SMILES [NH3+][C@H](CO)C(=O)[O-]
REMARK SMILES IDX 3 1 2 2 1 3 5 7 6 8 7 9 4 10
REMARK H PARENT 1 4 1 5 1 6 4 11
REMARK Flexibility Score: inf
ROOT
ATOM      1  C   UNL     1    -476.577 295.775   0.146  1.00  0.00     0.227 C 
ENDROOT
BRANCH   1   2
ATOM      2  C   UNL     1    -477.616 295.643  -0.982  1.00  0.00     0.253 C 
BRANCH   2   3
ATOM      3  N   UNL     1    -477.198 296.379  -2.181  1.00  0.00    -0.348 N 
ATOM      4  H   UNL     1    -476.299 296.887  -2.009  1.00  0.00     0.345 HD
ATOM      5  H   UNL     1    -477.068 295.714  -2.979  1.00  0.00     0.345 HD
ATOM      6  H   UNL     1    -477.936 297.067  -2.453  1.00  0.00     0.345 HD
ENDBRANCH   2   3
BRANCH   2   7
ATOM      7  C   UNL     1    -477.829 294.190  -1.313  1.00  0.00     0.102 C 
ATOM      8  O   UNL     1    -477.815 293.324  -0.398  1.00  0.00    -0.544 OA
ATOM      9  O   UNL     1    -478.025 293.792  -2.630  1.00  0.00    -0.544 OA
ENDBRANCH   2   7
ENDBRANCH   1   2
BRANCH   1  10
ATOM     10  O   UNL     1    -475.394 295.102  -0.192  1.00  0.00    -0.390 OA
ATOM     11  H   UNL     1    -474.770 295.213   0.572  1.00  0.00     0.210 HD
ENDBRANCH   1  10
TORSDOF 4
ENDMDL
MODEL 7
REMARK VINA RESULT:    -2.674     11.171     11.720
REMARK INTER + INTRA:          -3.370
REMARK INTER:                  -3.363
REMARK INTRA:                  -0.007
REMARK UNBOUND:                -0.227
REMARK SMILES [NH3+][C@H](CO)C(=O)[O-]
REMARK SMILES IDX 3 1 2 2 1 3 5 7 6 8 7 9 4 10
REMARK H PARENT 1 4 1 5 1 6 4 11
REMARK Flexibility Score: inf
ROOT
ATOM      1  C   UNL     1    -475.577 284.070  -0.146  1.00  0.00     0.227 C 
ENDROOT
BRANCH   1   2
ATOM      2  C   UNL     1    -474.726 283.576  -1.329  1.00  0.00     0.253 C 
BRANCH   2   3
ATOM      3  N   UNL     1    -473.881 282.440  -0.940  1.00  0.00    -0.348 N 
ATOM      4  H   UNL     1    -473.895 281.698  -1.678  1.00  0.00     0.345 HD
ATOM      5  H   UNL     1    -472.896 282.763  -0.797  1.00  0.00     0.345 HD
ATOM      6  H   UNL     1    -474.221 282.035  -0.038  1.00  0.00     0.345 HD
ENDBRANCH   2   3
BRANCH   2   7
ATOM      7  C   UNL     1    -475.621 283.189  -2.476  1.00  0.00     0.102 C 
ATOM      8  O   UNL     1    -476.679 283.836  -2.700  1.00  0.00    -0.544 OA
ATOM      9  O   UNL     1    -475.296 282.106  -3.285  1.00  0.00    -0.544 OA
ENDBRANCH   2   7
ENDBRANCH   1   2
BRANCH   1  10
ATOM     10  O   UNL     1    -474.845 284.007   1.048  1.00  0.00    -0.390 OA
ATOM     11  H   UNL     1    -475.248 284.668   1.670  1.00  0.00     0.210 HD
ENDBRANCH   1  10
TORSDOF 4
ENDMDL
MODEL 8
REMARK VINA RESULT:    -2.647      2.404      3.986
REMARK INTER + INTRA:          -3.338
REMARK INTER:                  -3.133
REMARK INTRA:                  -0.205
REMARK UNBOUND:                -0.227
REMARK SMILES [NH3+][C@H](CO)C(=O)[O-]
REMARK SMILES IDX 3 1 2 2 1 3 5 7 6 8 7 9 4 10
REMARK H PARENT 1 4 1 5 1 6 4 11
REMARK Flexibility Score: inf
ROOT
ATOM      1  C   UNL     1    -477.508 296.813  -4.085  1.00  0.00     0.227 C 
ENDROOT
BRANCH   1   2
ATOM      2  C   UNL     1    -477.125 295.419  -3.559  1.00  0.00     0.253 C 
BRANCH   2   3
ATOM      3  N   UNL     1    -475.702 295.137  -3.783  1.00  0.00    -0.348 N 
ATOM      4  H   UNL     1    -475.170 295.175  -2.882  1.00  0.00     0.345 HD
ATOM      5  H   UNL     1    -475.590 294.187  -4.207  1.00  0.00     0.345 HD
ATOM      6  H   UNL     1    -475.300 295.835  -4.449  1.00  0.00     0.345 HD
ENDBRANCH   2   3
BRANCH   2   7
ATOM      7  C   UNL     1    -477.450 295.319  -2.092  1.00  0.00     0.102 C 
ATOM      8  O   UNL     1    -477.694 294.198  -1.573  1.00  0.00    -0.544 OA
ATOM      9  O   UNL     1    -477.500 296.464  -1.306  1.00  0.00    -0.544 OA
ENDBRANCH   2   7
ENDBRANCH   1   2
BRANCH   1  10
ATOM     10  O   UNL     1    -476.438 297.707  -3.935  1.00  0.00    -0.390 OA
ATOM     11  H   UNL     1    -476.525 298.386  -4.655  1.00  0.00     0.210 HD
ENDBRANCH   1  10
TORSDOF 4
ENDMDL
MODEL 9
REMARK VINA RESULT:    -2.573     10.855     11.572
REMARK INTER + INTRA:          -3.251
REMARK INTER:                  -3.015
REMARK INTRA:                  -0.236
REMARK UNBOUND:                -0.227
REMARK SMILES [NH3+][C@H](CO)C(=O)[O-]
REMARK SMILES IDX 3 1 2 2 1 3 5 7 6 8 7 9 4 10
REMARK H PARENT 1 4 1 5 1 6 4 11
REMARK Flexibility Score: inf
ROOT
ATOM      1  C   UNL     1    -473.976 282.597  -1.602  1.00  0.00     0.227 C 
ENDROOT
BRANCH   1   2
ATOM      2  C   UNL     1    -475.206 283.361  -1.079  1.00  0.00     0.253 C 
BRANCH   2   3
ATOM      3  N   UNL     1    -474.815 284.428  -0.149  1.00  0.00    -0.348 N 
ATOM      4  H   UNL     1    -475.599 285.107  -0.014  1.00  0.00     0.345 HD
ATOM      5  H   UNL     1    -474.557 284.014   0.777  1.00  0.00     0.345 HD
ATOM      6  H   UNL     1    -473.979 284.935  -0.518  1.00  0.00     0.345 HD
ENDBRANCH   2   3
BRANCH   2   7
ATOM      7  C   UNL     1    -475.978 283.938  -2.236  1.00  0.00     0.102 C 
ATOM      8  O   UNL     1    -477.205 284.194  -2.112  1.00  0.00    -0.544 OA
ATOM      9  O   UNL     1    -475.347 284.174  -3.452  1.00  0.00    -0.544 OA
ENDBRANCH   2   7
ENDBRANCH   1   2
BRANCH   1  10
ATOM     10  O   UNL     1    -474.370 281.543  -2.438  1.00  0.00    -0.390 OA
ATOM     11  H   UNL     1    -474.222 280.701  -1.931  1.00  0.00     0.210 HD
ENDBRANCH   1  10
TORSDOF 4
ENDMDL
