MODEL 1
REMARK VINA RESULT:    -4.284      0.000      0.000
REMARK INTER + INTRA:          -4.986
REMARK INTER:                  -5.035
REMARK INTRA:                   0.049
REMARK UNBOUND:                 0.049
REMARK SMILES CCCCC(=O)[O-]
REMARK SMILES IDX 4 1 5 2 6 3 7 4 3 5 2 6 1 7
REMARK H PARENT
REMARK Flexibility Score: inf
ROOT
ATOM      1  C   UNL     1     -22.542  25.003  -2.792  1.00  0.00     0.053 C 
ENDROOT
BRANCH   1   2
ATOM      2  C   UNL     1     -23.268  25.651  -3.931  1.00  0.00     0.041 C 
ATOM      3  O   UNL     1     -24.125  25.003  -4.588  1.00  0.00    -0.550 OA
ATOM      4  O   UNL     1     -23.020  26.981  -4.246  1.00  0.00    -0.550 OA
ENDBRANCH   1   2
BRANCH   1   5
ATOM      5  C   UNL     1     -21.612  23.882  -3.275  1.00  0.00     0.006 C 
BRANCH   5   6
ATOM      6  C   UNL     1     -20.990  24.192  -4.644  1.00  0.00    -0.003 C 
ATOM      7  C   UNL     1     -19.982  23.120  -5.046  1.00  0.00     0.004 C 
ENDBRANCH   5   6
ENDBRANCH   1   5
TORSDOF 3
ENDMDL
MODEL 2
REMARK VINA RESULT:    -4.263     12.678     13.426
REMARK INTER + INTRA:          -4.961
REMARK INTER:                  -4.943
REMARK INTRA:                  -0.019
REMARK UNBOUND:                 0.049
REMARK SMILES CCCCC(=O)[O-]
REMARK SMILES IDX 4 1 5 2 6 3 7 4 3 5 2 6 1 7
REMARK H PARENT
REMARK Flexibility Score: inf
ROOT
ATOM      1  C   UNL     1     -15.391  33.688 -10.963  1.00  0.00     0.053 C 
ENDROOT
BRANCH   1   2
ATOM      2  C   UNL     1     -14.606  34.464  -9.950  1.00  0.00     0.041 C 
ATOM      3  O   UNL     1     -14.844  34.324  -8.721  1.00  0.00    -0.550 OA
ATOM      4  O   UNL     1     -13.589  35.315 -10.363  1.00  0.00    -0.550 OA
ENDBRANCH   1   2
BRANCH   1   5
ATOM      5  C   UNL     1     -16.893  33.695 -10.644  1.00  0.00     0.006 C 
BRANCH   5   6
ATOM      6  C   UNL     1     -17.723  33.016 -11.742  1.00  0.00    -0.003 C 
ATOM      7  C   UNL     1     -18.210  34.031 -12.771  1.00  0.00     0.004 C 
ENDBRANCH   5   6
ENDBRANCH   1   5
TORSDOF 3
ENDMDL
MODEL 3
REMARK VINA RESULT:    -4.121     12.628     13.291
REMARK INTER + INTRA:          -4.794
REMARK INTER:                  -4.767
REMARK INTRA:                  -0.026
REMARK UNBOUND:                 0.049
REMARK SMILES CCCCC(=O)[O-]
REMARK SMILES IDX 4 1 5 2 6 3 7 4 3 5 2 6 1 7
REMARK H PARENT
REMARK Flexibility Score: inf
ROOT
ATOM      1  C   UNL     1     -15.503  33.630 -11.227  1.00  0.00     0.053 C 
ENDROOT
BRANCH   1   2
ATOM      2  C   UNL     1     -16.978  33.382 -11.134  1.00  0.00     0.041 C 
ATOM      3  O   UNL     1     -17.676  34.021 -10.304  1.00  0.00    -0.550 OA
ATOM      4  O   UNL     1     -17.584  32.468 -11.986  1.00  0.00    -0.550 OA
ENDBRANCH   1   2
BRANCH   1   5
ATOM      5  C   UNL     1     -14.937  34.194  -9.917  1.00  0.00     0.006 C 
BRANCH   5   6
ATOM      6  C   UNL     1     -13.701  35.073 -10.149  1.00  0.00    -0.003 C 
ATOM      7  C   UNL     1     -13.213  35.692  -8.842  1.00  0.00     0.004 C 
ENDBRANCH   5   6
ENDBRANCH   1   5
TORSDOF 3
ENDMDL
MODEL 4
REMARK VINA RESULT:    -4.085      2.380      3.054
REMARK INTER + INTRA:          -4.752
REMARK INTER:                  -4.685
REMARK INTRA:                  -0.067
REMARK UNBOUND:                 0.049
REMARK SMILES CCCCC(=O)[O-]
REMARK SMILES IDX 4 1 5 2 6 3 7 4 3 5 2 6 1 7
REMARK H PARENT
REMARK Flexibility Score: inf
ROOT
ATOM      1  C   UNL     1     -22.227  26.106  -5.249  1.00  0.00     0.053 C 
ENDROOT
BRANCH   1   2
ATOM      2  C   UNL     1     -21.743  25.195  -6.336  1.00  0.00     0.041 C 
ATOM      3  O   UNL     1     -22.216  25.290  -7.499  1.00  0.00    -0.550 OA
ATOM      4  O   UNL     1     -20.747  24.265  -6.071  1.00  0.00    -0.550 OA
ENDBRANCH   1   2
BRANCH   1   5
ATOM      5  C   UNL     1     -23.233  25.405  -4.327  1.00  0.00     0.006 C 
BRANCH   5   6
ATOM      6  C   UNL     1     -22.659  25.149  -2.927  1.00  0.00    -0.003 C 
ATOM      7  C   UNL     1     -21.885  23.835  -2.882  1.00  0.00     0.004 C 
ENDBRANCH   5   6
ENDBRANCH   1   5
TORSDOF 3
ENDMDL
MODEL 5
REMARK VINA RESULT:    -4.058      2.760      3.885
REMARK INTER + INTRA:          -4.720
REMARK INTER:                  -4.693
REMARK INTRA:                  -0.027
REMARK UNBOUND:                 0.049
REMARK SMILES CCCCC(=O)[O-]
REMARK SMILES IDX 4 1 5 2 6 3 7 4 3 5 2 6 1 7
REMARK H PARENT
REMARK Flexibility Score: inf
ROOT
ATOM      1  C   UNL     1     -21.479  24.328  -3.688  1.00  0.00     0.053 C 
ENDROOT
BRANCH   1   2
ATOM      2  C   UNL     1     -20.677  23.099  -3.988  1.00  0.00     0.041 C 
ATOM      3  O   UNL     1     -19.913  23.069  -4.988  1.00  0.00    -0.550 OA
ATOM      4  O   UNL     1     -20.749  21.999  -3.142  1.00  0.00    -0.550 OA
ENDBRANCH   1   2
BRANCH   1   5
ATOM      5  C   UNL     1     -21.950  25.026  -4.972  1.00  0.00     0.006 C 
BRANCH   5   6
ATOM      6  C   UNL     1     -22.864  26.224  -4.680  1.00  0.00    -0.003 C 
ATOM      7  C   UNL     1     -24.020  25.824  -3.768  1.00  0.00     0.004 C 
ENDBRANCH   5   6
ENDBRANCH   1   5
TORSDOF 3
ENDMDL
MODEL 6
REMARK VINA RESULT:    -3.971      2.903      3.663
REMARK INTER + INTRA:          -4.618
REMARK INTER:                  -4.573
REMARK INTRA:                  -0.045
REMARK UNBOUND:                 0.049
REMARK SMILES CCCCC(=O)[O-]
REMARK SMILES IDX 4 1 5 2 6 3 7 4 3 5 2 6 1 7
REMARK H PARENT
REMARK Flexibility Score: inf
ROOT
ATOM      1  C   UNL     1     -20.862  23.567  -4.021  1.00  0.00     0.053 C 
ENDROOT
BRANCH   1   2
ATOM      2  C   UNL     1     -20.965  22.421  -3.061  1.00  0.00     0.041 C 
ATOM      3  O   UNL     1     -21.773  22.472  -2.097  1.00  0.00    -0.550 OA
ATOM      4  O   UNL     1     -20.190  21.284  -3.251  1.00  0.00    -0.550 OA
ENDBRANCH   1   2
BRANCH   1   5
ATOM      5  C   UNL     1     -21.945  24.623  -3.762  1.00  0.00     0.006 C 
BRANCH   5   6
ATOM      6  C   UNL     1     -22.414  25.303  -5.055  1.00  0.00    -0.003 C 
ATOM      7  C   UNL     1     -21.455  25.017  -6.207  1.00  0.00     0.004 C 
ENDBRANCH   5   6
ENDBRANCH   1   5
TORSDOF 3
ENDMDL
MODEL 7
REMARK VINA RESULT:    -3.593      2.272      2.632
REMARK INTER + INTRA:          -4.173
REMARK INTER:                  -4.110
REMARK INTRA:                  -0.063
REMARK UNBOUND:                 0.049
REMARK SMILES CCCCC(=O)[O-]
REMARK SMILES IDX 4 1 5 2 6 3 7 4 3 5 2 6 1 7
REMARK H PARENT
REMARK Flexibility Score: inf
ROOT
ATOM      1  C   UNL     1     -23.082  25.715  -3.743  1.00  0.00     0.053 C 
ENDROOT
BRANCH   1   2
ATOM      2  C   UNL     1     -22.452  24.676  -2.865  1.00  0.00     0.041 C 
ATOM      3  O   UNL     1     -22.874  24.498  -1.693  1.00  0.00    -0.550 OA
ATOM      4  O   UNL     1     -21.422  23.885  -3.356  1.00  0.00    -0.550 OA
ENDBRANCH   1   2
BRANCH   1   5
ATOM      5  C   UNL     1     -23.029  25.316  -5.224  1.00  0.00     0.006 C 
BRANCH   5   6
ATOM      6  C   UNL     1     -21.900  26.032  -5.978  1.00  0.00    -0.003 C 
ATOM      7  C   UNL     1     -20.945  25.029  -6.620  1.00  0.00     0.004 C 
ENDBRANCH   5   6
ENDBRANCH   1   5
TORSDOF 3
ENDMDL
MODEL 8
REMARK VINA RESULT:    -3.510     18.608     19.142
REMARK INTER + INTRA:          -4.076
REMARK INTER:                  -4.003
REMARK INTRA:                  -0.073
REMARK UNBOUND:                 0.049
REMARK SMILES CCCCC(=O)[O-]
REMARK SMILES IDX 4 1 5 2 6 3 7 4 3 5 2 6 1 7
REMARK H PARENT
REMARK Flexibility Score: inf
ROOT
ATOM      1  C   UNL     1      -6.354  34.280   1.496  1.00  0.00     0.053 C 
ENDROOT
BRANCH   1   2
ATOM      2  C   UNL     1      -7.536  33.534   0.956  1.00  0.00     0.041 C 
ATOM      3  O   UNL     1      -8.349  34.108   0.184  1.00  0.00    -0.550 OA
ATOM      4  O   UNL     1      -7.720  32.195   1.278  1.00  0.00    -0.550 OA
ENDBRANCH   1   2
BRANCH   1   5
ATOM      5  C   UNL     1      -5.228  34.389   0.459  1.00  0.00     0.006 C 
BRANCH   5   6
ATOM      6  C   UNL     1      -3.884  33.891   1.006  1.00  0.00    -0.003 C 
ATOM      7  C   UNL     1      -4.072  33.117   2.307  1.00  0.00     0.004 C 
ENDBRANCH   5   6
ENDBRANCH   1   5
TORSDOF 3
ENDMDL
MODEL 9
REMARK VINA RESULT:    -3.468     18.619     19.137
REMARK INTER + INTRA:          -4.027
REMARK INTER:                  -3.931
REMARK INTRA:                  -0.096
REMARK UNBOUND:                 0.049
REMARK SMILES CCCCC(=O)[O-]
REMARK SMILES IDX 4 1 5 2 6 3 7 4 3 5 2 6 1 7
REMARK H PARENT
REMARK Flexibility Score: inf
ROOT
ATOM      1  C   UNL     1      -6.128  34.145   1.278  1.00  0.00     0.053 C 
ENDROOT
BRANCH   1   2
ATOM      2  C   UNL     1      -7.408  33.429   0.972  1.00  0.00     0.041 C 
ATOM      3  O   UNL     1      -8.331  34.019   0.351  1.00  0.00    -0.550 OA
ATOM      4  O   UNL     1      -7.567  32.100   1.344  1.00  0.00    -0.550 OA
ENDBRANCH   1   2
BRANCH   1   5
ATOM      5  C   UNL     1      -6.373  35.615   1.644  1.00  0.00     0.006 C 
BRANCH   5   6
ATOM      6  C   UNL     1      -5.842  36.578   0.573  1.00  0.00    -0.003 C 
ATOM      7  C   UNL     1      -6.949  37.490   0.054  1.00  0.00     0.004 C 
ENDBRANCH   5   6
ENDBRANCH   1   5
TORSDOF 3
ENDMDL
