MODEL 1
REMARK VINA RESULT:    -5.790      0.000      0.000
REMARK INTER + INTRA:          -5.960
REMARK INTER:                  -5.960
REMARK INTRA:                   0.000
REMARK UNBOUND:                 0.000
REMARK SMILES Cc1cccc(O)c1C
REMARK SMILES IDX 1 1 2 2 8 3 6 4 5 5 4 6 3 7 9 8 7 9
REMARK H PARENT 7 10
REMARK Flexibility Score: inf
ROOT
ATOM      1  C   UNL     1      14.111 -11.370 -26.591  1.00  0.00     0.045 C 
ATOM      2  C   UNL     1      12.899 -11.947 -27.276  1.00  0.00    -0.045 A 
ATOM      3  C   UNL     1      12.278 -13.147 -26.828  1.00  0.00    -0.006 A 
ATOM      4  C   UNL     1      11.139 -13.632 -27.521  1.00  0.00     0.118 A 
ATOM      5  C   UNL     1      10.641 -12.936 -28.625  1.00  0.00     0.046 A 
ATOM      6  C   UNL     1      11.254 -11.762 -29.057  1.00  0.00     0.004 A 
ATOM      7  C   UNL     1      12.373 -11.271 -28.390  1.00  0.00     0.004 A 
ATOM      8  C   UNL     1      12.798 -13.916 -25.635  1.00  0.00     0.048 C 
ENDROOT
BRANCH   4   9
ATOM      9  O   UNL     1      10.478 -14.803 -27.138  1.00  0.00    -0.508 OA
ATOM     10  H   UNL     1      10.653 -15.705 -27.559  1.00  0.00     0.293 HD
ENDBRANCH   4   9
TORSDOF 1
ENDMDL
MODEL 2
REMARK VINA RESULT:    -5.654      1.407      2.580
REMARK INTER + INTRA:          -5.820
REMARK INTER:                  -5.820
REMARK INTRA:                   0.000
REMARK UNBOUND:                 0.000
REMARK SMILES Cc1cccc(O)c1C
REMARK SMILES IDX 1 1 2 2 8 3 6 4 5 5 4 6 3 7 9 8 7 9
REMARK H PARENT 7 10
REMARK Flexibility Score: inf
ROOT
ATOM      1  C   UNL     1      14.746 -11.357 -26.663  1.00  0.00     0.045 C 
ATOM      2  C   UNL     1      13.541 -12.194 -27.009  1.00  0.00    -0.045 A 
ATOM      3  C   UNL     1      12.401 -11.644 -27.660  1.00  0.00    -0.006 A 
ATOM      4  C   UNL     1      11.303 -12.491 -27.956  1.00  0.00     0.118 A 
ATOM      5  C   UNL     1      11.348 -13.844 -27.610  1.00  0.00     0.046 A 
ATOM      6  C   UNL     1      12.467 -14.375 -26.974  1.00  0.00     0.004 A 
ATOM      7  C   UNL     1      13.555 -13.559 -26.675  1.00  0.00     0.004 A 
ATOM      8  C   UNL     1      12.330 -10.183 -28.044  1.00  0.00     0.048 C 
ENDROOT
BRANCH   4   9
ATOM      9  O   UNL     1      10.151 -12.021 -28.593  1.00  0.00    -0.508 OA
ATOM     10  H   UNL     1       9.900 -11.042 -28.641  1.00  0.00     0.293 HD
ENDBRANCH   4   9
TORSDOF 1
ENDMDL
MODEL 3
REMARK VINA RESULT:    -5.648      1.523      2.287
REMARK INTER + INTRA:          -5.813
REMARK INTER:                  -5.813
REMARK INTRA:                   0.000
REMARK UNBOUND:                 0.000
REMARK SMILES Cc1cccc(O)c1C
REMARK SMILES IDX 1 1 2 2 8 3 6 4 5 5 4 6 3 7 9 8 7 9
REMARK H PARENT 7 10
REMARK Flexibility Score: inf
ROOT
ATOM      1  C   UNL     1      12.740  -9.756 -27.850  1.00  0.00     0.045 C 
ATOM      2  C   UNL     1      12.494 -11.232 -27.665  1.00  0.00    -0.045 A 
ATOM      3  C   UNL     1      13.463 -12.093 -27.079  1.00  0.00    -0.006 A 
ATOM      4  C   UNL     1      13.163 -13.471 -26.936  1.00  0.00     0.118 A 
ATOM      5  C   UNL     1      11.931 -13.969 -27.367  1.00  0.00     0.046 A 
ATOM      6  C   UNL     1      10.986 -13.121 -27.940  1.00  0.00     0.004 A 
ATOM      7  C   UNL     1      11.263 -11.764 -28.088  1.00  0.00     0.004 A 
ATOM      8  C   UNL     1      14.803 -11.577 -26.605  1.00  0.00     0.048 C 
ENDROOT
BRANCH   4   9
ATOM      9  O   UNL     1      14.067 -14.375 -26.369  1.00  0.00    -0.508 OA
ATOM     10  H   UNL     1      15.021 -14.481 -26.686  1.00  0.00     0.293 HD
ENDBRANCH   4   9
TORSDOF 1
ENDMDL
MODEL 4
REMARK VINA RESULT:    -5.563      1.868      2.794
REMARK INTER + INTRA:          -5.725
REMARK INTER:                  -5.725
REMARK INTRA:                   0.000
REMARK UNBOUND:                 0.000
REMARK SMILES Cc1cccc(O)c1C
REMARK SMILES IDX 1 1 2 2 8 3 6 4 5 5 4 6 3 7 9 8 7 9
REMARK H PARENT 7 10
REMARK Flexibility Score: inf
ROOT
ATOM      1  C   UNL     1      11.375 -11.759 -29.012  1.00  0.00     0.045 C 
ATOM      2  C   UNL     1      11.378 -11.864 -27.508  1.00  0.00    -0.045 A 
ATOM      3  C   UNL     1      11.363 -13.119 -26.838  1.00  0.00    -0.006 A 
ATOM      4  C   UNL     1      11.367 -13.143 -25.420  1.00  0.00     0.118 A 
ATOM      5  C   UNL     1      11.386 -11.946 -24.700  1.00  0.00     0.046 A 
ATOM      6  C   UNL     1      11.401 -10.721 -25.362  1.00  0.00     0.004 A 
ATOM      7  C   UNL     1      11.397 -10.678 -26.754  1.00  0.00     0.004 A 
ATOM      8  C   UNL     1      11.343 -14.427 -27.596  1.00  0.00     0.048 C 
ENDROOT
BRANCH   4   9
ATOM      9  O   UNL     1      11.353 -14.338 -24.695  1.00  0.00    -0.508 OA
ATOM     10  H   UNL     1      10.821 -14.468 -23.846  1.00  0.00     0.293 HD
ENDBRANCH   4   9
TORSDOF 1
ENDMDL
MODEL 5
REMARK VINA RESULT:    -5.557      1.326      2.666
REMARK INTER + INTRA:          -5.719
REMARK INTER:                  -5.719
REMARK INTRA:                   0.000
REMARK UNBOUND:                 0.000
REMARK SMILES Cc1cccc(O)c1C
REMARK SMILES IDX 1 1 2 2 8 3 6 4 5 5 4 6 3 7 9 8 7 9
REMARK H PARENT 7 10
REMARK Flexibility Score: inf
ROOT
ATOM      1  C   UNL     1      12.493  -9.701 -27.599  1.00  0.00     0.045 C 
ATOM      2  C   UNL     1      12.033 -11.059 -27.134  1.00  0.00    -0.045 A 
ATOM      3  C   UNL     1      11.485 -12.020 -28.030  1.00  0.00    -0.006 A 
ATOM      4  C   UNL     1      11.074 -13.278 -27.523  1.00  0.00     0.118 A 
ATOM      5  C   UNL     1      11.207 -13.563 -26.161  1.00  0.00     0.046 A 
ATOM      6  C   UNL     1      11.744 -12.618 -25.290  1.00  0.00     0.004 A 
ATOM      7  C   UNL     1      12.154 -11.377 -25.770  1.00  0.00     0.004 A 
ATOM      8  C   UNL     1      11.332 -11.735 -29.507  1.00  0.00     0.048 C 
ENDROOT
BRANCH   4   9
ATOM      9  O   UNL     1      10.528 -14.269 -28.344  1.00  0.00    -0.508 OA
ATOM     10  H   UNL     1       9.891 -14.981 -28.011  1.00  0.00     0.293 HD
ENDBRANCH   4   9
TORSDOF 1
ENDMDL
MODEL 6
REMARK VINA RESULT:    -5.446      1.091      2.614
REMARK INTER + INTRA:          -5.605
REMARK INTER:                  -5.605
REMARK INTRA:                   0.000
REMARK UNBOUND:                 0.000
REMARK SMILES Cc1cccc(O)c1C
REMARK SMILES IDX 1 1 2 2 8 3 6 4 5 5 4 6 3 7 9 8 7 9
REMARK H PARENT 7 10
REMARK Flexibility Score: inf
ROOT
ATOM      1  C   UNL     1      12.422 -10.088 -27.987  1.00  0.00     0.045 C 
ATOM      2  C   UNL     1      12.680 -11.510 -27.561  1.00  0.00    -0.045 A 
ATOM      3  C   UNL     1      11.798 -12.573 -27.901  1.00  0.00    -0.006 A 
ATOM      4  C   UNL     1      12.105 -13.888 -27.467  1.00  0.00     0.118 A 
ATOM      5  C   UNL     1      13.258 -14.127 -26.716  1.00  0.00     0.046 A 
ATOM      6  C   UNL     1      14.118 -13.082 -26.387  1.00  0.00     0.004 A 
ATOM      7  C   UNL     1      13.833 -11.784 -26.805  1.00  0.00     0.004 A 
ATOM      8  C   UNL     1      10.544 -12.339 -28.713  1.00  0.00     0.048 C 
ENDROOT
BRANCH   4   9
ATOM      9  O   UNL     1      11.284 -14.980 -27.764  1.00  0.00    -0.508 OA
ATOM     10  H   UNL     1      10.872 -15.576 -27.059  1.00  0.00     0.293 HD
ENDBRANCH   4   9
TORSDOF 1
ENDMDL
MODEL 7
REMARK VINA RESULT:    -5.369      2.260      3.806
REMARK INTER + INTRA:          -5.526
REMARK INTER:                  -5.526
REMARK INTRA:                   0.000
REMARK UNBOUND:                 0.000
REMARK SMILES Cc1cccc(O)c1C
REMARK SMILES IDX 1 1 2 2 8 3 6 4 5 5 4 6 3 7 9 8 7 9
REMARK H PARENT 7 10
REMARK Flexibility Score: inf
ROOT
ATOM      1  C   UNL     1      10.608 -12.152 -28.621  1.00  0.00     0.045 C 
ATOM      2  C   UNL     1      11.867 -12.464 -27.853  1.00  0.00    -0.045 A 
ATOM      3  C   UNL     1      12.824 -11.461 -27.531  1.00  0.00    -0.006 A 
ATOM      4  C   UNL     1      13.986 -11.826 -26.805  1.00  0.00     0.118 A 
ATOM      5  C   UNL     1      14.180 -13.153 -26.415  1.00  0.00     0.046 A 
ATOM      6  C   UNL     1      13.240 -14.130 -26.734  1.00  0.00     0.004 A 
ATOM      7  C   UNL     1      12.093 -13.790 -27.446  1.00  0.00     0.004 A 
ATOM      8  C   UNL     1      12.634 -10.018 -27.941  1.00  0.00     0.048 C 
ENDROOT
BRANCH   4   9
ATOM      9  O   UNL     1      14.967 -10.894 -26.454  1.00  0.00    -0.508 OA
ATOM     10  H   UNL     1      15.045 -10.488 -25.531  1.00  0.00     0.293 HD
ENDBRANCH   4   9
TORSDOF 1
ENDMDL
MODEL 8
REMARK VINA RESULT:    -5.297      1.977      2.900
REMARK INTER + INTRA:          -5.452
REMARK INTER:                  -5.452
REMARK INTRA:                   0.000
REMARK UNBOUND:                 0.000
REMARK SMILES Cc1cccc(O)c1C
REMARK SMILES IDX 1 1 2 2 8 3 6 4 5 5 4 6 3 7 9 8 7 9
REMARK H PARENT 7 10
REMARK Flexibility Score: inf
ROOT
ATOM      1  C   UNL     1      13.626 -14.285 -26.074  1.00  0.00     0.045 C 
ATOM      2  C   UNL     1      12.849 -13.295 -26.905  1.00  0.00    -0.045 A 
ATOM      3  C   UNL     1      13.283 -11.952 -27.082  1.00  0.00    -0.006 A 
ATOM      4  C   UNL     1      12.502 -11.076 -27.878  1.00  0.00     0.118 A 
ATOM      5  C   UNL     1      11.325 -11.534 -28.476  1.00  0.00     0.046 A 
ATOM      6  C   UNL     1      10.906 -12.850 -28.298  1.00  0.00     0.004 A 
ATOM      7  C   UNL     1      11.660 -13.725 -27.520  1.00  0.00     0.004 A 
ATOM      8  C   UNL     1      14.553 -11.434 -26.446  1.00  0.00     0.048 C 
ENDROOT
BRANCH   4   9
ATOM      9  O   UNL     1      12.866  -9.744 -28.096  1.00  0.00    -0.508 OA
ATOM     10  H   UNL     1      12.841  -9.034 -27.376  1.00  0.00     0.293 HD
ENDBRANCH   4   9
TORSDOF 1
ENDMDL
MODEL 9
REMARK VINA RESULT:    -5.293      2.459      3.492
REMARK INTER + INTRA:          -5.448
REMARK INTER:                  -5.448
REMARK INTRA:                   0.000
REMARK UNBOUND:                 0.000
REMARK SMILES Cc1cccc(O)c1C
REMARK SMILES IDX 1 1 2 2 8 3 6 4 5 5 4 6 3 7 9 8 7 9
REMARK H PARENT 7 10
REMARK Flexibility Score: inf
ROOT
ATOM      1  C   UNL     1      11.006 -10.385 -25.613  1.00  0.00     0.045 C 
ATOM      2  C   UNL     1      11.828 -11.620 -25.882  1.00  0.00    -0.045 A 
ATOM      3  C   UNL     1      12.961 -11.602 -26.741  1.00  0.00    -0.006 A 
ATOM      4  C   UNL     1      13.688 -12.801 -26.948  1.00  0.00     0.118 A 
ATOM      5  C   UNL     1      13.290 -13.980 -26.313  1.00  0.00     0.046 A 
ATOM      6  C   UNL     1      12.179 -13.992 -25.473  1.00  0.00     0.004 A 
ATOM      7  C   UNL     1      11.453 -12.823 -25.258  1.00  0.00     0.004 A 
ATOM      8  C   UNL     1      13.411 -10.338 -27.439  1.00  0.00     0.048 C 
ENDROOT
BRANCH   4   9
ATOM      9  O   UNL     1      14.812 -12.858 -27.779  1.00  0.00    -0.508 OA
ATOM     10  H   UNL     1      15.311 -13.712 -27.983  1.00  0.00     0.293 HD
ENDBRANCH   4   9
TORSDOF 1
ENDMDL
