MODEL 1
REMARK VINA RESULT:    -1.885      0.000      0.000
REMARK INTER + INTRA:          -3.619
REMARK INTER:                  -2.767
REMARK INTRA:                  -0.852
REMARK UNBOUND:                -0.852
REMARK SMILES CC(C)(O)CC[C@H](O)[C@@](C)(O)[C@H]1CC[C@]2(O)C3=CC(=O)[C@@H]4C[C@@H](O)[C@@H](O)C[C@@]4(C)[C@@H]3CC[C@]12C
REMARK SMILES IDX 6 1 7 2 9 3 10 4 12 5 34 6 33 7 32 8 15 9 31 10 17 11 14 12
REMARK SMILES IDX 13 13 30 14 18 15 28 16 19 17 21 18 27 19 29 20 20 21 22 22
REMARK SMILES IDX 25 23 23 24 16 25 26 27 24 29 11 31 8 33 5 35 2 36 1 37 3 38
REMARK SMILES IDX 4 39
REMARK H PARENT 16 26 26 28 24 30 11 32 8 34 4 40
REMARK Flexibility Score: inf
ROOT
ATOM      1  C   UNL     1      91.496  29.874  15.211  1.00  0.00     0.038 C 
ENDROOT
BRANCH   1   2
ATOM      2  C   UNL     1      90.989  28.427  15.515  1.00  0.00     0.146 C 
BRANCH   2   3
ATOM      3  C   UNL     1      90.196  27.721  14.330  1.00  0.00     0.091 C 
ATOM      4  C   UNL     1      90.010  26.220  14.684  1.00  0.00     0.045 C 
BRANCH   3   5
ATOM      5  C   UNL     1      91.002  27.820  12.949  1.00  0.00     0.032 C 
ATOM      6  C   UNL     1      88.799  27.634  11.538  1.00  0.00     0.015 C 
ATOM      7  C   UNL     1      90.279  28.123  11.563  1.00  0.00     0.006 C 
ATOM      8  C   UNL     1      90.260  29.662  11.298  1.00  0.00     0.011 C 
ATOM      9  C   UNL     1      91.119  27.307  10.463  1.00  0.00     0.092 C 
ATOM     10  C   UNL     1      91.528  30.185  10.641  1.00  0.00     0.009 C 
ATOM     11  C   UNL     1      91.654  28.102   9.256  1.00  0.00    -0.031 C 
ATOM     12  C   UNL     1      92.328  26.755  11.241  1.00  0.00     0.041 C 
ATOM     13  C   UNL     1      91.850  26.578  12.657  1.00  0.00     0.010 C 
ATOM     14  C   UNL     1      91.630  29.629   9.216  1.00  0.00     0.025 C 
ATOM     15  C   UNL     1      92.191  27.419   8.218  1.00  0.00     0.050 C 
ATOM     16  C   UNL     1      92.828  30.230   8.384  1.00  0.00    -0.013 C 
ATOM     17  C   UNL     1      92.794  28.091   7.057  1.00  0.00     0.159 C 
ATOM     18  C   UNL     1      92.737  29.592   6.961  1.00  0.00     0.070 C 
ATOM     19  C   UNL     1      92.681  31.775   8.227  1.00  0.00     0.042 C 
ATOM     20  C   UNL     1      94.185  29.908   9.086  1.00  0.00     0.013 C 
ATOM     21  O   UNL     1      93.284  27.399   6.126  1.00  0.00    -0.295 OA
ATOM     22  C   UNL     1      93.761  30.180   5.966  1.00  0.00     0.047 C 
ATOM     23  C   UNL     1      93.684  32.387   7.222  1.00  0.00     0.143 C 
ATOM     24  C   UNL     1      93.596  31.707   5.844  1.00  0.00     0.143 C 
BRANCH   9  25
ATOM     25  O   UNL     1      90.322  26.243   9.962  1.00  0.00    -0.385 OA
ATOM     26  H   UNL     1      89.366  26.367  10.197  1.00  0.00     0.211 HD
ENDBRANCH   9  25
BRANCH  23  27
ATOM     27  O   UNL     1      93.425  33.759   7.072  1.00  0.00    -0.390 OA
ATOM     28  H   UNL     1      93.350  33.933   6.096  1.00  0.00     0.211 HD
ENDBRANCH  23  27
BRANCH  24  29
ATOM     29  O   UNL     1      92.365  32.019   5.240  1.00  0.00    -0.390 OA
ATOM     30  H   UNL     1      92.415  32.971   4.953  1.00  0.00     0.211 HD
ENDBRANCH  24  29
ENDBRANCH   3   5
BRANCH   3  31
ATOM     31  O   UNL     1      88.899  28.250  14.157  1.00  0.00    -0.387 OA
ATOM     32  H   UNL     1      88.236  27.706  14.660  1.00  0.00     0.211 HD
ENDBRANCH   3  31
ENDBRANCH   2   3
BRANCH   2  33
ATOM     33  O   UNL     1      92.108  27.659  15.874  1.00  0.00    -0.390 OA
ATOM     34  H   UNL     1      91.773  26.870  16.376  1.00  0.00     0.211 HD
ENDBRANCH   2  33
ENDBRANCH   1   2
BRANCH   1  35
ATOM     35  C   UNL     1      93.025  30.013  15.378  1.00  0.00     0.037 C 
BRANCH  35  36
ATOM     36  C   UNL     1      93.744  30.630  14.150  1.00  0.00     0.059 C 
ATOM     37  C   UNL     1      95.125  31.155  14.603  1.00  0.00     0.042 C 
ATOM     38  C   UNL     1      92.924  31.801  13.563  1.00  0.00     0.042 C 
BRANCH  36  39
ATOM     39  O   UNL     1      93.923  29.631  13.174  1.00  0.00    -0.390 OA
ATOM     40  H   UNL     1      94.163  30.079  12.322  1.00  0.00     0.211 HD
ENDBRANCH  36  39
ENDBRANCH  35  36
ENDBRANCH   1  35
TORSDOF 11
ENDMDL
MODEL 2
REMARK VINA RESULT:    -1.794      1.479      1.613
REMARK INTER + INTRA:          -3.484
REMARK INTER:                  -2.249
REMARK INTRA:                  -1.235
REMARK UNBOUND:                -0.852
REMARK SMILES CC(C)(O)CC[C@H](O)[C@@](C)(O)[C@H]1CC[C@]2(O)C3=CC(=O)[C@@H]4C[C@@H](O)[C@@H](O)C[C@@]4(C)[C@@H]3CC[C@]12C
REMARK SMILES IDX 6 1 7 2 9 3 10 4 12 5 34 6 33 7 32 8 15 9 31 10 17 11 14 12
REMARK SMILES IDX 13 13 30 14 18 15 28 16 19 17 21 18 27 19 29 20 20 21 22 22
REMARK SMILES IDX 25 23 23 24 16 25 26 27 24 29 11 31 8 33 5 35 2 36 1 37 3 38
REMARK SMILES IDX 4 39
REMARK H PARENT 16 26 26 28 24 30 11 32 8 34 4 40
REMARK Flexibility Score: inf
ROOT
ATOM      1  C   UNL     1      91.184  30.417  14.160  1.00  0.00     0.038 C 
ENDROOT
BRANCH   1   2
ATOM      2  C   UNL     1      91.002  28.934  14.622  1.00  0.00     0.146 C 
BRANCH   2   3
ATOM      3  C   UNL     1      90.599  27.908  13.476  1.00  0.00     0.091 C 
ATOM      4  C   UNL     1      91.129  26.500  13.861  1.00  0.00     0.045 C 
BRANCH   3   5
ATOM      5  C   UNL     1      91.243  28.324  12.069  1.00  0.00     0.032 C 
ATOM      6  C   UNL     1      89.386  27.044  10.730  1.00  0.00     0.015 C 
ATOM      7  C   UNL     1      90.448  28.184  10.696  1.00  0.00     0.006 C 
ATOM      8  C   UNL     1      89.689  29.512  10.383  1.00  0.00     0.011 C 
ATOM      9  C   UNL     1      91.566  27.827   9.598  1.00  0.00     0.092 C 
ATOM     10  C   UNL     1      90.541  30.552   9.673  1.00  0.00     0.009 C 
ATOM     11  C   UNL     1      91.639  28.729   8.351  1.00  0.00    -0.031 C 
ATOM     12  C   UNL     1      92.900  27.957  10.357  1.00  0.00     0.041 C 
ATOM     13  C   UNL     1      92.581  27.631  11.791  1.00  0.00     0.010 C 
ATOM     14  C   UNL     1      90.883  30.054   8.264  1.00  0.00     0.025 C 
ATOM     15  C   UNL     1      92.427  28.345   7.320  1.00  0.00     0.050 C 
ATOM     16  C   UNL     1      91.636  31.121   7.378  1.00  0.00    -0.013 C 
ATOM     17  C   UNL     1      92.620  29.175   6.121  1.00  0.00     0.159 C 
ATOM     18  C   UNL     1      91.848  30.459   5.980  1.00  0.00     0.070 C 
ATOM     19  C   UNL     1      90.761  32.397   7.177  1.00  0.00     0.042 C 
ATOM     20  C   UNL     1      92.988  31.520   8.049  1.00  0.00     0.013 C 
ATOM     21  O   UNL     1      93.373  28.765   5.198  1.00  0.00    -0.295 OA
ATOM     22  C   UNL     1      92.451  31.424   4.936  1.00  0.00     0.047 C 
ATOM     23  C   UNL     1      91.336  33.373   6.123  1.00  0.00     0.143 C 
ATOM     24  C   UNL     1      91.570  32.677   4.771  1.00  0.00     0.143 C 
BRANCH   9  25
ATOM     25  O   UNL     1      91.374  26.491   9.154  1.00  0.00    -0.385 OA
ATOM     26  H   UNL     1      91.940  25.856   9.666  1.00  0.00     0.211 HD
ENDBRANCH   9  25
BRANCH  23  27
ATOM     27  O   UNL     1      90.447  34.444   5.938  1.00  0.00    -0.390 OA
ATOM     28  H   UNL     1      90.150  34.411   4.990  1.00  0.00     0.211 HD
ENDBRANCH  23  27
BRANCH  24  29
ATOM     29  O   UNL     1      90.335  32.334   4.194  1.00  0.00    -0.390 OA
ATOM     30  H   UNL     1      90.422  32.479   3.213  1.00  0.00     0.211 HD
ENDBRANCH  24  29
ENDBRANCH   3   5
BRANCH   3  31
ATOM     31  O   UNL     1      89.200  27.779  13.334  1.00  0.00    -0.387 OA
ATOM     32  H   UNL     1      88.933  27.954  12.392  1.00  0.00     0.211 HD
ENDBRANCH   3  31
ENDBRANCH   2   3
BRANCH   2  33
ATOM     33  O   UNL     1      92.203  28.535  15.229  1.00  0.00    -0.390 OA
ATOM     34  H   UNL     1      92.635  27.878  14.622  1.00  0.00     0.211 HD
ENDBRANCH   2  33
ENDBRANCH   1   2
BRANCH   1  35
ATOM     35  C   UNL     1      92.481  31.052  14.707  1.00  0.00     0.037 C 
BRANCH  35  36
ATOM     36  C   UNL     1      93.611  31.194  13.654  1.00  0.00     0.059 C 
ATOM     37  C   UNL     1      94.538  32.354  14.082  1.00  0.00     0.042 C 
ATOM     38  C   UNL     1      93.026  31.502  12.257  1.00  0.00     0.042 C 
BRANCH  36  39
ATOM     39  O   UNL     1      94.353  29.997  13.612  1.00  0.00    -0.390 OA
ATOM     40  H   UNL     1      95.305  30.224  13.769  1.00  0.00     0.211 HD
ENDBRANCH  36  39
ENDBRANCH  35  36
ENDBRANCH   1  35
TORSDOF 11
ENDMDL
MODEL 3
REMARK VINA RESULT:    -1.743      1.657      2.195
REMARK INTER + INTRA:          -3.410
REMARK INTER:                  -2.554
REMARK INTRA:                  -0.856
REMARK UNBOUND:                -0.852
REMARK SMILES CC(C)(O)CC[C@H](O)[C@@](C)(O)[C@H]1CC[C@]2(O)C3=CC(=O)[C@@H]4C[C@@H](O)[C@@H](O)C[C@@]4(C)[C@@H]3CC[C@]12C
REMARK SMILES IDX 6 1 7 2 9 3 10 4 12 5 34 6 33 7 32 8 15 9 31 10 17 11 14 12
REMARK SMILES IDX 13 13 30 14 18 15 28 16 19 17 21 18 27 19 29 20 20 21 22 22
REMARK SMILES IDX 25 23 23 24 16 25 26 27 24 29 11 31 8 33 5 35 2 36 1 37 3 38
REMARK SMILES IDX 4 39
REMARK H PARENT 16 26 26 28 24 30 11 32 8 34 4 40
REMARK Flexibility Score: inf
ROOT
ATOM      1  C   UNL     1      91.210  29.135  15.575  1.00  0.00     0.038 C 
ENDROOT
BRANCH   1   2
ATOM      2  C   UNL     1      90.775  27.666  15.267  1.00  0.00     0.146 C 
BRANCH   2   3
ATOM      3  C   UNL     1      90.255  27.406  13.786  1.00  0.00     0.091 C 
ATOM      4  C   UNL     1      90.251  25.875  13.524  1.00  0.00     0.045 C 
BRANCH   3   5
ATOM      5  C   UNL     1      91.209  28.103  12.704  1.00  0.00     0.032 C 
ATOM      6  C   UNL     1      89.227  28.417  11.016  1.00  0.00     0.015 C 
ATOM      7  C   UNL     1      90.633  28.918  11.464  1.00  0.00     0.006 C 
ATOM      8  C   UNL     1      90.486  30.427  11.840  1.00  0.00     0.011 C 
ATOM      9  C   UNL     1      91.682  28.669  10.272  1.00  0.00     0.092 C 
ATOM     10  C   UNL     1      91.763  31.231  11.653  1.00  0.00     0.009 C 
ATOM     11  C   UNL     1      92.274  29.914   9.584  1.00  0.00    -0.031 C 
ATOM     12  C   UNL     1      92.838  27.899  10.939  1.00  0.00     0.041 C 
ATOM     13  C   UNL     1      92.212  27.132  12.071  1.00  0.00     0.010 C 
ATOM     14  C   UNL     1      92.096  31.318  10.159  1.00  0.00     0.025 C 
ATOM     15  C   UNL     1      93.002  29.746   8.456  1.00  0.00     0.050 C 
ATOM     16  C   UNL     1      93.318  32.263   9.835  1.00  0.00    -0.013 C 
ATOM     17  C   UNL     1      93.670  30.864   7.772  1.00  0.00     0.159 C 
ATOM     18  C   UNL     1      93.469  32.266   8.280  1.00  0.00     0.070 C 
ATOM     19  C   UNL     1      93.030  33.726  10.292  1.00  0.00     0.042 C 
ATOM     20  C   UNL     1      94.605  31.741  10.548  1.00  0.00     0.013 C 
ATOM     21  O   UNL     1      94.339  30.641   6.729  1.00  0.00    -0.295 OA
ATOM     22  C   UNL     1      94.539  33.259   7.777  1.00  0.00     0.047 C 
ATOM     23  C   UNL     1      94.079  34.743   9.785  1.00  0.00     0.143 C 
ATOM     24  C   UNL     1      94.231  34.690   8.255  1.00  0.00     0.143 C 
BRANCH   9  25
ATOM     25  O   UNL     1      91.068  27.872   9.269  1.00  0.00    -0.385 OA
ATOM     26  H   UNL     1      90.136  27.635   9.516  1.00  0.00     0.211 HD
ENDBRANCH   9  25
BRANCH  23  27
ATOM     27  O   UNL     1      93.698  36.041  10.162  1.00  0.00    -0.390 OA
ATOM     28  H   UNL     1      94.380  36.365  10.809  1.00  0.00     0.211 HD
ENDBRANCH  23  27
BRANCH  24  29
ATOM     29  O   UNL     1      93.058  35.168   7.645  1.00  0.00    -0.390 OA
ATOM     30  H   UNL     1      92.843  34.544   6.901  1.00  0.00     0.211 HD
ENDBRANCH  24  29
ENDBRANCH   3   5
BRANCH   3  31
ATOM     31  O   UNL     1      88.927  27.844  13.594  1.00  0.00    -0.387 OA
ATOM     32  H   UNL     1      88.914  28.805  13.341  1.00  0.00     0.211 HD
ENDBRANCH   3  31
ENDBRANCH   2   3
BRANCH   2  33
ATOM     33  O   UNL     1      91.872  26.837  15.549  1.00  0.00    -0.390 OA
ATOM     34  H   UNL     1      91.621  26.274  16.328  1.00  0.00     0.211 HD
ENDBRANCH   2  33
ENDBRANCH   1   2
BRANCH   1  35
ATOM     35  C   UNL     1      92.687  29.235  16.016  1.00  0.00     0.037 C 
BRANCH  35  36
ATOM     36  C   UNL     1      93.477  30.383  15.335  1.00  0.00     0.059 C 
ATOM     37  C   UNL     1      94.707  30.716  16.207  1.00  0.00     0.042 C 
ATOM     38  C   UNL     1      92.598  31.646  15.192  1.00  0.00     0.042 C 
BRANCH  36  39
ATOM     39  O   UNL     1      93.910  29.951  14.065  1.00  0.00    -0.390 OA
ATOM     40  H   UNL     1      93.220  29.338  13.703  1.00  0.00     0.211 HD
ENDBRANCH  36  39
ENDBRANCH  35  36
ENDBRANCH   1  35
TORSDOF 11
ENDMDL
MODEL 4
REMARK VINA RESULT:    -1.727      2.840      4.377
REMARK INTER + INTRA:          -3.386
REMARK INTER:                  -2.105
REMARK INTRA:                  -1.281
REMARK UNBOUND:                -0.852
REMARK SMILES CC(C)(O)CC[C@H](O)[C@@](C)(O)[C@H]1CC[C@]2(O)C3=CC(=O)[C@@H]4C[C@@H](O)[C@@H](O)C[C@@]4(C)[C@@H]3CC[C@]12C
REMARK SMILES IDX 6 1 7 2 9 3 10 4 12 5 34 6 33 7 32 8 15 9 31 10 17 11 14 12
REMARK SMILES IDX 13 13 30 14 18 15 28 16 19 17 21 18 27 19 29 20 20 21 22 22
REMARK SMILES IDX 25 23 23 24 16 25 26 27 24 29 11 31 8 33 5 35 2 36 1 37 3 38
REMARK SMILES IDX 4 39
REMARK H PARENT 16 26 26 28 24 30 11 32 8 34 4 40
REMARK Flexibility Score: inf
ROOT
ATOM      1  C   UNL     1      90.729  30.611  14.791  1.00  0.00     0.038 C 
ENDROOT
BRANCH   1   2
ATOM      2  C   UNL     1      91.883  29.752  14.179  1.00  0.00     0.146 C 
BRANCH   2   3
ATOM      3  C   UNL     1      93.061  30.579  13.501  1.00  0.00     0.091 C 
ATOM      4  C   UNL     1      93.109  31.992  14.144  1.00  0.00     0.045 C 
BRANCH   3   5
ATOM      5  C   UNL     1      92.822  30.748  11.926  1.00  0.00     0.032 C 
ATOM      6  C   UNL     1      92.847  28.153  11.546  1.00  0.00     0.015 C 
ATOM      7  C   UNL     1      92.371  29.533  11.000  1.00  0.00     0.006 C 
ATOM      8  C   UNL     1      90.813  29.481  10.912  1.00  0.00     0.011 C 
ATOM      9  C   UNL     1      93.071  29.804   9.580  1.00  0.00     0.092 C 
ATOM     10  C   UNL     1      90.230  30.389   9.840  1.00  0.00     0.009 C 
ATOM     11  C   UNL     1      92.157  29.831   8.339  1.00  0.00    -0.031 C 
ATOM     12  C   UNL     1      93.709  31.198   9.730  1.00  0.00     0.041 C 
ATOM     13  C   UNL     1      94.031  31.338  11.193  1.00  0.00     0.010 C 
ATOM     14  C   UNL     1      90.634  29.867   8.456  1.00  0.00     0.025 C 
ATOM     15  C   UNL     1      92.730  29.858   7.114  1.00  0.00     0.050 C 
ATOM     16  C   UNL     1      89.955  30.643   7.262  1.00  0.00    -0.013 C 
ATOM     17  C   UNL     1      91.942  29.961   5.876  1.00  0.00     0.159 C 
ATOM     18  C   UNL     1      90.440  29.943   5.953  1.00  0.00     0.070 C 
ATOM     19  C   UNL     1      88.401  30.519   7.326  1.00  0.00     0.042 C 
ATOM     20  C   UNL     1      90.357  32.151   7.303  1.00  0.00     0.013 C 
ATOM     21  O   UNL     1      92.535  29.989   4.765  1.00  0.00    -0.295 OA
ATOM     22  C   UNL     1      89.755  30.492   4.682  1.00  0.00     0.047 C 
ATOM     23  C   UNL     1      87.693  31.047   6.056  1.00  0.00     0.143 C 
ATOM     24  C   UNL     1      88.223  30.366   4.783  1.00  0.00     0.143 C 
BRANCH   9  25
ATOM     25  O   UNL     1      94.072  28.820   9.357  1.00  0.00    -0.385 OA
ATOM     26  H   UNL     1      94.381  28.420  10.211  1.00  0.00     0.211 HD
ENDBRANCH   9  25
BRANCH  23  27
ATOM     27  O   UNL     1      86.311  30.816   6.157  1.00  0.00    -0.390 OA
ATOM     28  H   UNL     1      85.869  31.427   5.509  1.00  0.00     0.211 HD
ENDBRANCH  23  27
BRANCH  24  29
ATOM     29  O   UNL     1      87.843  29.012   4.776  1.00  0.00    -0.390 OA
ATOM     30  H   UNL     1      88.679  28.475   4.823  1.00  0.00     0.211 HD
ENDBRANCH  24  29
ENDBRANCH   3   5
BRANCH   3  31
ATOM     31  O   UNL     1      94.328  29.999  13.726  1.00  0.00    -0.387 OA
ATOM     32  H   UNL     1      94.488  29.891  14.701  1.00  0.00     0.211 HD
ENDBRANCH   3  31
ENDBRANCH   2   3
BRANCH   2  33
ATOM     33  O   UNL     1      92.390  28.940  15.206  1.00  0.00    -0.390 OA
ATOM     34  H   UNL     1      92.149  28.002  14.984  1.00  0.00     0.211 HD
ENDBRANCH   2  33
ENDBRANCH   1   2
BRANCH   1  35
ATOM     35  C   UNL     1      89.347  30.247  14.206  1.00  0.00     0.037 C 
BRANCH  35  36
ATOM     36  C   UNL     1      88.593  31.443  13.568  1.00  0.00     0.059 C 
ATOM     37  C   UNL     1      87.645  30.898  12.476  1.00  0.00     0.042 C 
ATOM     38  C   UNL     1      89.584  32.441  12.928  1.00  0.00     0.042 C 
BRANCH  36  39
ATOM     39  O   UNL     1      87.834  32.089  14.563  1.00  0.00    -0.390 OA
ATOM     40  H   UNL     1      87.783  33.051  14.329  1.00  0.00     0.211 HD
ENDBRANCH  36  39
ENDBRANCH  35  36
ENDBRANCH   1  35
TORSDOF 11
ENDMDL
MODEL 5
REMARK VINA RESULT:    -1.690      2.492      7.737
REMARK INTER + INTRA:          -3.333
REMARK INTER:                  -2.022
REMARK INTRA:                  -1.310
REMARK UNBOUND:                -0.852
REMARK SMILES CC(C)(O)CC[C@H](O)[C@@](C)(O)[C@H]1CC[C@]2(O)C3=CC(=O)[C@@H]4C[C@@H](O)[C@@H](O)C[C@@]4(C)[C@@H]3CC[C@]12C
REMARK SMILES IDX 6 1 7 2 9 3 10 4 12 5 34 6 33 7 32 8 15 9 31 10 17 11 14 12
REMARK SMILES IDX 13 13 30 14 18 15 28 16 19 17 21 18 27 19 29 20 20 21 22 22
REMARK SMILES IDX 25 23 23 24 16 25 26 27 24 29 11 31 8 33 5 35 2 36 1 37 3 38
REMARK SMILES IDX 4 39
REMARK H PARENT 16 26 26 28 24 30 11 32 8 34 4 40
REMARK Flexibility Score: inf
ROOT
ATOM      1  C   UNL     1      91.840  30.001   6.527  1.00  0.00     0.038 C 
ENDROOT
BRANCH   1   2
ATOM      2  C   UNL     1      92.981  30.326   7.545  1.00  0.00     0.146 C 
BRANCH   2   3
ATOM      3  C   UNL     1      93.581  29.072   8.318  1.00  0.00     0.091 C 
ATOM      4  C   UNL     1      93.565  27.847   7.363  1.00  0.00     0.045 C 
BRANCH   3   5
ATOM      5  C   UNL     1      92.709  28.715   9.614  1.00  0.00     0.032 C 
ATOM      6  C   UNL     1      93.602  30.813  10.912  1.00  0.00     0.015 C 
ATOM      7  C   UNL     1      92.453  29.768  10.781  1.00  0.00     0.006 C 
ATOM      8  C   UNL     1      91.138  30.562  10.503  1.00  0.00     0.011 C 
ATOM      9  C   UNL     1      92.385  28.894  12.128  1.00  0.00     0.092 C 
ATOM     10  C   UNL     1      89.882  29.857  10.993  1.00  0.00     0.009 C 
ATOM     11  C   UNL     1      91.133  29.060  13.012  1.00  0.00    -0.031 C 
ATOM     12  C   UNL     1      92.428  27.434  11.636  1.00  0.00     0.041 C 
ATOM     13  C   UNL     1      93.206  27.466  10.348  1.00  0.00     0.010 C 
ATOM     14  C   UNL     1      89.892  29.806  12.525  1.00  0.00     0.025 C 
ATOM     15  C   UNL     1      91.130  28.495  14.241  1.00  0.00     0.050 C 
ATOM     16  C   UNL     1      88.561  29.234  13.150  1.00  0.00    -0.013 C 
ATOM     17  C   UNL     1      89.955  28.536  15.126  1.00  0.00     0.159 C 
ATOM     18  C   UNL     1      88.736  29.309  14.700  1.00  0.00     0.070 C 
ATOM     19  C   UNL     1      87.336  30.118  12.762  1.00  0.00     0.042 C 
ATOM     20  C   UNL     1      88.320  27.772  12.657  1.00  0.00     0.013 C 
ATOM     21  O   UNL     1      90.012  27.985  16.257  1.00  0.00    -0.295 OA
ATOM     22  C   UNL     1      87.460  28.915  15.475  1.00  0.00     0.047 C 
ATOM     23  C   UNL     1      86.048  29.755  13.538  1.00  0.00     0.143 C 
ATOM     24  C   UNL     1      86.269  29.799  15.060  1.00  0.00     0.143 C 
BRANCH   9  25
ATOM     25  O   UNL     1      93.521  29.182  12.930  1.00  0.00    -0.385 OA
ATOM     26  H   UNL     1      93.425  28.804  13.842  1.00  0.00     0.211 HD
ENDBRANCH   9  25
BRANCH  23  27
ATOM     27  O   UNL     1      85.023  30.653  13.199  1.00  0.00    -0.390 OA
ATOM     28  H   UNL     1      85.107  31.431  13.811  1.00  0.00     0.211 HD
ENDBRANCH  23  27
BRANCH  24  29
ATOM     29  O   UNL     1      86.480  31.127  15.470  1.00  0.00    -0.390 OA
ATOM     30  H   UNL     1      86.946  31.592  14.724  1.00  0.00     0.211 HD
ENDBRANCH  24  29
ENDBRANCH   3   5
BRANCH   3  31
ATOM     31  O   UNL     1      94.928  29.263   8.694  1.00  0.00    -0.387 OA
ATOM     32  H   UNL     1      95.534  28.968   7.964  1.00  0.00     0.211 HD
ENDBRANCH   3  31
ENDBRANCH   2   3
BRANCH   2  33
ATOM     33  O   UNL     1      93.995  30.991   6.838  1.00  0.00    -0.390 OA
ATOM     34  H   UNL     1      94.809  30.423   6.889  1.00  0.00     0.211 HD
ENDBRANCH   2  33
ENDBRANCH   1   2
BRANCH   1  35
ATOM     35  C   UNL     1      90.483  30.609   6.944  1.00  0.00     0.037 C 
BRANCH  35  36
ATOM     36  C   UNL     1      89.306  29.599   6.939  1.00  0.00     0.059 C 
ATOM     37  C   UNL     1      88.129  30.213   7.728  1.00  0.00     0.042 C 
ATOM     38  C   UNL     1      89.722  28.266   7.601  1.00  0.00     0.042 C 
BRANCH  36  39
ATOM     39  O   UNL     1      88.905  29.371   5.608  1.00  0.00    -0.390 OA
ATOM     40  H   UNL     1      89.700  29.069   5.099  1.00  0.00     0.211 HD
ENDBRANCH  36  39
ENDBRANCH  35  36
ENDBRANCH   1  35
TORSDOF 11
ENDMDL
MODEL 6
REMARK VINA RESULT:    -1.678      3.420      8.046
REMARK INTER + INTRA:          -3.315
REMARK INTER:                  -2.105
REMARK INTRA:                  -1.210
REMARK UNBOUND:                -0.852
REMARK SMILES CC(C)(O)CC[C@H](O)[C@@](C)(O)[C@H]1CC[C@]2(O)C3=CC(=O)[C@@H]4C[C@@H](O)[C@@H](O)C[C@@]4(C)[C@@H]3CC[C@]12C
REMARK SMILES IDX 6 1 7 2 9 3 10 4 12 5 34 6 33 7 32 8 15 9 31 10 17 11 14 12
REMARK SMILES IDX 13 13 30 14 18 15 28 16 19 17 21 18 27 19 29 20 20 21 22 22
REMARK SMILES IDX 25 23 23 24 16 25 26 27 24 29 11 31 8 33 5 35 2 36 1 37 3 38
REMARK SMILES IDX 4 39
REMARK H PARENT 16 26 26 28 24 30 11 32 8 34 4 40
REMARK Flexibility Score: inf
ROOT
ATOM      1  C   UNL     1      92.934  31.443  12.969  1.00  0.00     0.038 C 
ENDROOT
BRANCH   1   2
ATOM      2  C   UNL     1      93.956  31.341  14.148  1.00  0.00     0.146 C 
BRANCH   2   3
ATOM      3  C   UNL     1      93.313  31.160  15.592  1.00  0.00     0.091 C 
ATOM      4  C   UNL     1      94.322  30.393  16.490  1.00  0.00     0.045 C 
BRANCH   3   5
ATOM      5  C   UNL     1      91.953  30.316  15.523  1.00  0.00     0.032 C 
ATOM      6  C   UNL     1      91.081  31.354  17.768  1.00  0.00     0.015 C 
ATOM      7  C   UNL     1      90.689  30.667  16.425  1.00  0.00     0.006 C 
ATOM      8  C   UNL     1      89.747  31.651  15.662  1.00  0.00     0.011 C 
ATOM      9  C   UNL     1      89.994  29.254  16.743  1.00  0.00     0.092 C 
ATOM     10  C   UNL     1      88.768  30.960  14.726  1.00  0.00     0.009 C 
ATOM     11  C   UNL     1      88.499  29.111  16.396  1.00  0.00    -0.031 C 
ATOM     12  C   UNL     1      90.778  28.243  15.885  1.00  0.00     0.041 C 
ATOM     13  C   UNL     1      92.163  28.816  15.752  1.00  0.00     0.010 C 
ATOM     14  C   UNL     1      87.761  30.149  15.552  1.00  0.00     0.025 C 
ATOM     15  C   UNL     1      87.836  28.014  16.828  1.00  0.00     0.050 C 
ATOM     16  C   UNL     1      86.601  29.513  14.692  1.00  0.00    -0.013 C 
ATOM     17  C   UNL     1      86.430  27.754  16.484  1.00  0.00     0.159 C 
ATOM     18  C   UNL     1      85.659  28.782  15.701  1.00  0.00     0.070 C 
ATOM     19  C   UNL     1      85.768  30.619  13.973  1.00  0.00     0.042 C 
ATOM     20  C   UNL     1      87.193  28.536  13.628  1.00  0.00     0.013 C 
ATOM     21  O   UNL     1      85.870  26.709  16.911  1.00  0.00    -0.295 OA
ATOM     22  C   UNL     1      84.383  28.217  15.039  1.00  0.00     0.047 C 
ATOM     23  C   UNL     1      84.475  30.080  13.316  1.00  0.00     0.143 C 
ATOM     24  C   UNL     1      83.592  29.331  14.328  1.00  0.00     0.143 C 
BRANCH   9  25
ATOM     25  O   UNL     1      90.147  28.958  18.124  1.00  0.00    -0.385 OA
ATOM     26  H   UNL     1      89.281  28.706  18.537  1.00  0.00     0.211 HD
ENDBRANCH   9  25
BRANCH  23  27
ATOM     27  O   UNL     1      83.742  31.148  12.773  1.00  0.00    -0.390 OA
ATOM     28  H   UNL     1      82.785  30.976  12.981  1.00  0.00     0.211 HD
ENDBRANCH  23  27
BRANCH  24  29
ATOM     29  O   UNL     1      83.073  30.238  15.269  1.00  0.00    -0.390 OA
ATOM     30  H   UNL     1      82.245  29.831  15.640  1.00  0.00     0.211 HD
ENDBRANCH  24  29
ENDBRANCH   3   5
BRANCH   3  31
ATOM     31  O   UNL     1      93.070  32.393  16.234  1.00  0.00    -0.387 OA
ATOM     32  H   UNL     1      93.187  32.298  17.217  1.00  0.00     0.211 HD
ENDBRANCH   3  31
ENDBRANCH   2   3
BRANCH   2  33
ATOM     33  O   UNL     1      94.817  30.271  13.863  1.00  0.00    -0.390 OA
ATOM     34  H   UNL     1      95.166  29.936  14.731  1.00  0.00     0.211 HD
ENDBRANCH   2  33
ENDBRANCH   1   2
BRANCH   1  35
ATOM     35  C   UNL     1      93.344  30.581  11.755  1.00  0.00     0.037 C 
BRANCH  35  36
ATOM     36  C   UNL     1      92.543  29.260  11.615  1.00  0.00     0.059 C 
ATOM     37  C   UNL     1      92.539  28.844  10.128  1.00  0.00     0.042 C 
ATOM     38  C   UNL     1      91.085  29.446  12.094  1.00  0.00     0.042 C 
BRANCH  36  39
ATOM     39  O   UNL     1      93.175  28.258  12.377  1.00  0.00    -0.390 OA
ATOM     40  H   UNL     1      94.121  28.527  12.506  1.00  0.00     0.211 HD
ENDBRANCH  36  39
ENDBRANCH  35  36
ENDBRANCH   1  35
TORSDOF 11
ENDMDL
MODEL 7
REMARK VINA RESULT:    -1.671      3.385      5.166
REMARK INTER + INTRA:          -3.305
REMARK INTER:                  -1.988
REMARK INTRA:                  -1.317
REMARK UNBOUND:                -0.852
REMARK SMILES CC(C)(O)CC[C@H](O)[C@@](C)(O)[C@H]1CC[C@]2(O)C3=CC(=O)[C@@H]4C[C@@H](O)[C@@H](O)C[C@@]4(C)[C@@H]3CC[C@]12C
REMARK SMILES IDX 6 1 7 2 9 3 10 4 12 5 34 6 33 7 32 8 15 9 31 10 17 11 14 12
REMARK SMILES IDX 13 13 30 14 18 15 28 16 19 17 21 18 27 19 29 20 20 21 22 22
REMARK SMILES IDX 25 23 23 24 16 25 26 27 24 29 11 31 8 33 5 35 2 36 1 37 3 38
REMARK SMILES IDX 4 39
REMARK H PARENT 16 26 26 28 24 30 11 32 8 34 4 40
REMARK Flexibility Score: inf
ROOT
ATOM      1  C   UNL     1      88.643  28.568  16.936  1.00  0.00     0.038 C 
ENDROOT
BRANCH   1   2
ATOM      2  C   UNL     1      89.718  27.795  16.105  1.00  0.00     0.146 C 
BRANCH   2   3
ATOM      3  C   UNL     1      91.225  28.235  16.364  1.00  0.00     0.091 C 
ATOM      4  C   UNL     1      91.355  28.711  17.838  1.00  0.00     0.045 C 
BRANCH   3   5
ATOM      5  C   UNL     1      91.653  29.443  15.403  1.00  0.00     0.032 C 
ATOM      6  C   UNL     1      91.545  27.914  13.274  1.00  0.00     0.015 C 
ATOM      7  C   UNL     1      91.479  29.372  13.822  1.00  0.00     0.006 C 
ATOM      8  C   UNL     1      90.090  29.955  13.412  1.00  0.00     0.011 C 
ATOM      9  C   UNL     1      92.712  30.211  13.225  1.00  0.00     0.092 C 
ATOM     10  C   UNL     1      90.085  31.467  13.250  1.00  0.00     0.009 C 
ATOM     11  C   UNL     1      92.377  31.353  12.245  1.00  0.00    -0.031 C 
ATOM     12  C   UNL     1      93.385  30.832  14.464  1.00  0.00     0.041 C 
ATOM     13  C   UNL     1      93.111  29.876  15.593  1.00  0.00     0.010 C 
ATOM     14  C   UNL     1      90.947  31.852  12.042  1.00  0.00     0.025 C 
ATOM     15  C   UNL     1      93.390  31.948  11.574  1.00  0.00     0.050 C 
ATOM     16  C   UNL     1      90.890  33.387  11.683  1.00  0.00    -0.013 C 
ATOM     17  C   UNL     1      93.177  33.093  10.676  1.00  0.00     0.159 C 
ATOM     18  C   UNL     1      91.776  33.574  10.411  1.00  0.00     0.070 C 
ATOM     19  C   UNL     1      89.436  33.823  11.323  1.00  0.00     0.042 C 
ATOM     20  C   UNL     1      91.403  34.240  12.886  1.00  0.00     0.013 C 
ATOM     21  O   UNL     1      94.163  33.609  10.085  1.00  0.00    -0.295 OA
ATOM     22  C   UNL     1      91.719  35.006   9.836  1.00  0.00     0.047 C 
ATOM     23  C   UNL     1      89.354  35.249  10.728  1.00  0.00     0.143 C 
ATOM     24  C   UNL     1      90.270  35.408   9.503  1.00  0.00     0.143 C 
BRANCH   9  25
ATOM     25  O   UNL     1      93.606  29.325  12.566  1.00  0.00    -0.385 OA
ATOM     26  H   UNL     1      94.407  29.140  13.122  1.00  0.00     0.211 HD
ENDBRANCH   9  25
BRANCH  23  27
ATOM     27  O   UNL     1      88.031  35.526  10.349  1.00  0.00    -0.390 OA
ATOM     28  H   UNL     1      87.865  36.483  10.560  1.00  0.00     0.211 HD
ENDBRANCH  23  27
BRANCH  24  29
ATOM     29  O   UNL     1      89.779  34.631   8.439  1.00  0.00    -0.390 OA
ATOM     30  H   UNL     1      89.181  35.217   7.902  1.00  0.00     0.211 HD
ENDBRANCH  24  29
ENDBRANCH   3   5
BRANCH   3  31
ATOM     31  O   UNL     1      92.134  27.166  16.212  1.00  0.00    -0.387 OA
ATOM     32  H   UNL     1      92.741  27.116  16.998  1.00  0.00     0.211 HD
ENDBRANCH   3  31
ENDBRANCH   2   3
BRANCH   2  33
ATOM     33  O   UNL     1      89.557  26.429  16.380  1.00  0.00    -0.390 OA
ATOM     34  H   UNL     1      88.709  26.141  15.951  1.00  0.00     0.211 HD
ENDBRANCH   2  33
ENDBRANCH   1   2
BRANCH   1  35
ATOM     35  C   UNL     1      87.664  29.362  16.045  1.00  0.00     0.037 C 
BRANCH  35  36
ATOM     36  C   UNL     1      87.521  30.857  16.433  1.00  0.00     0.059 C 
ATOM     37  C   UNL     1      86.956  31.627  15.219  1.00  0.00     0.042 C 
ATOM     38  C   UNL     1      88.891  31.458  16.823  1.00  0.00     0.042 C 
BRANCH  36  39
ATOM     39  O   UNL     1      86.623  30.966  17.513  1.00  0.00    -0.390 OA
ATOM     40  H   UNL     1      87.157  31.046  18.344  1.00  0.00     0.211 HD
ENDBRANCH  36  39
ENDBRANCH  35  36
ENDBRANCH   1  35
TORSDOF 11
ENDMDL
MODEL 8
REMARK VINA RESULT:    -1.668      2.678      4.003
REMARK INTER + INTRA:          -3.299
REMARK INTER:                  -1.998
REMARK INTRA:                  -1.301
REMARK UNBOUND:                -0.852
REMARK SMILES CC(C)(O)CC[C@H](O)[C@@](C)(O)[C@H]1CC[C@]2(O)C3=CC(=O)[C@@H]4C[C@@H](O)[C@@H](O)C[C@@]4(C)[C@@H]3CC[C@]12C
REMARK SMILES IDX 6 1 7 2 9 3 10 4 12 5 34 6 33 7 32 8 15 9 31 10 17 11 14 12
REMARK SMILES IDX 13 13 30 14 18 15 28 16 19 17 21 18 27 19 29 20 20 21 22 22
REMARK SMILES IDX 25 23 23 24 16 25 26 27 24 29 11 31 8 33 5 35 2 36 1 37 3 38
REMARK SMILES IDX 4 39
REMARK H PARENT 16 26 26 28 24 30 11 32 8 34 4 40
REMARK Flexibility Score: inf
ROOT
ATOM      1  C   UNL     1      89.414  30.719  16.701  1.00  0.00     0.038 C 
ENDROOT
BRANCH   1   2
ATOM      2  C   UNL     1      90.194  29.428  16.289  1.00  0.00     0.146 C 
BRANCH   2   3
ATOM      3  C   UNL     1      91.755  29.624  16.052  1.00  0.00     0.091 C 
ATOM      4  C   UNL     1      92.281  30.681  17.062  1.00  0.00     0.045 C 
BRANCH   3   5
ATOM      5  C   UNL     1      92.058  30.146  14.568  1.00  0.00     0.032 C 
ATOM      6  C   UNL     1      91.423  27.829  13.519  1.00  0.00     0.015 C 
ATOM      7  C   UNL     1      91.564  29.361  13.274  1.00  0.00     0.006 C 
ATOM      8  C   UNL     1      90.161  29.888  12.835  1.00  0.00     0.011 C 
ATOM      9  C   UNL     1      92.703  29.613  12.170  1.00  0.00     0.092 C 
ATOM     10  C   UNL     1      90.222  31.121  11.947  1.00  0.00     0.009 C 
ATOM     11  C   UNL     1      92.252  30.188  10.813  1.00  0.00    -0.031 C 
ATOM     12  C   UNL     1      93.651  30.634  12.826  1.00  0.00     0.041 C 
ATOM     13  C   UNL     1      93.549  30.385  14.306  1.00  0.00     0.010 C 
ATOM     14  C   UNL     1      90.846  30.747  10.597  1.00  0.00     0.025 C 
ATOM     15  C   UNL     1      93.144  30.227   9.797  1.00  0.00     0.050 C 
ATOM     16  C   UNL     1      90.817  31.915   9.537  1.00  0.00    -0.013 C 
ATOM     17  C   UNL     1      92.830  30.826   8.491  1.00  0.00     0.159 C 
ATOM     18  C   UNL     1      91.438  31.334   8.228  1.00  0.00     0.070 C 
ATOM     19  C   UNL     1      89.351  32.348   9.222  1.00  0.00     0.042 C 
ATOM     20  C   UNL     1      91.617  33.145  10.071  1.00  0.00     0.013 C 
ATOM     21  O   UNL     1      93.707  30.838   7.587  1.00  0.00    -0.295 OA
ATOM     22  C   UNL     1      91.359  32.311   7.034  1.00  0.00     0.047 C 
ATOM     23  C   UNL     1      89.244  33.313   8.019  1.00  0.00     0.143 C 
ATOM     24  C   UNL     1      89.902  32.726   6.758  1.00  0.00     0.143 C 
BRANCH   9  25
ATOM     25  O   UNL     1      93.385  28.393  11.916  1.00  0.00    -0.385 OA
ATOM     26  H   UNL     1      93.366  27.797  12.709  1.00  0.00     0.211 HD
ENDBRANCH   9  25
BRANCH  23  27
ATOM     27  O   UNL     1      87.892  33.579   7.747  1.00  0.00    -0.390 OA
ATOM     28  H   UNL     1      87.726  33.298   6.808  1.00  0.00     0.211 HD
ENDBRANCH  23  27
BRANCH  24  29
ATOM     29  O   UNL     1      89.157  31.624   6.303  1.00  0.00    -0.390 OA
ATOM     30  H   UNL     1      88.361  31.547   6.895  1.00  0.00     0.211 HD
ENDBRANCH  24  29
ENDBRANCH   3   5
BRANCH   3  31
ATOM     31  O   UNL     1      92.491  28.444  16.296  1.00  0.00    -0.387 OA
ATOM     32  H   UNL     1      91.989  27.652  15.968  1.00  0.00     0.211 HD
ENDBRANCH   3  31
ENDBRANCH   2   3
BRANCH   2  33
ATOM     33  O   UNL     1      89.972  28.468  17.289  1.00  0.00    -0.390 OA
ATOM     34  H   UNL     1      90.778  28.457  17.869  1.00  0.00     0.211 HD
ENDBRANCH   2  33
ENDBRANCH   1   2
BRANCH   1  35
ATOM     35  C   UNL     1      88.402  31.167  15.623  1.00  0.00     0.037 C 
BRANCH  35  36
ATOM     36  C   UNL     1      88.477  32.676  15.272  1.00  0.00     0.059 C 
ATOM     37  C   UNL     1      87.690  32.915  13.964  1.00  0.00     0.042 C 
ATOM     38  C   UNL     1      89.943  33.123  15.071  1.00  0.00     0.042 C 
BRANCH  36  39
ATOM     39  O   UNL     1      87.886  33.419  16.313  1.00  0.00    -0.390 OA
ATOM     40  H   UNL     1      88.388  34.270  16.401  1.00  0.00     0.211 HD
ENDBRANCH  36  39
ENDBRANCH  35  36
ENDBRANCH   1  35
TORSDOF 11
ENDMDL
MODEL 9
REMARK VINA RESULT:    -1.639      2.748      3.875
REMARK INTER + INTRA:          -3.257
REMARK INTER:                  -2.043
REMARK INTRA:                  -1.214
REMARK UNBOUND:                -0.852
REMARK SMILES CC(C)(O)CC[C@H](O)[C@@](C)(O)[C@H]1CC[C@]2(O)C3=CC(=O)[C@@H]4C[C@@H](O)[C@@H](O)C[C@@]4(C)[C@@H]3CC[C@]12C
REMARK SMILES IDX 6 1 7 2 9 3 10 4 12 5 34 6 33 7 32 8 15 9 31 10 17 11 14 12
REMARK SMILES IDX 13 13 30 14 18 15 28 16 19 17 21 18 27 19 29 20 20 21 22 22
REMARK SMILES IDX 25 23 23 24 16 25 26 27 24 29 11 31 8 33 5 35 2 36 1 37 3 38
REMARK SMILES IDX 4 39
REMARK H PARENT 16 26 26 28 24 30 11 32 8 34 4 40
REMARK Flexibility Score: inf
ROOT
ATOM      1  C   UNL     1      92.134  33.296  16.370  1.00  0.00     0.038 C 
ENDROOT
BRANCH   1   2
ATOM      2  C   UNL     1      92.268  31.965  17.179  1.00  0.00     0.146 C 
BRANCH   2   3
ATOM      3  C   UNL     1      92.162  30.632  16.318  1.00  0.00     0.091 C 
ATOM      4  C   UNL     1      93.184  29.602  16.872  1.00  0.00     0.045 C 
BRANCH   3   5
ATOM      5  C   UNL     1      92.503  30.905  14.777  1.00  0.00     0.032 C 
ATOM      6  C   UNL     1      91.379  28.657  14.029  1.00  0.00     0.015 C 
ATOM      7  C   UNL     1      91.812  30.090  13.596  1.00  0.00     0.006 C 
ATOM      8  C   UNL     1      90.526  30.835  13.117  1.00  0.00     0.011 C 
ATOM      9  C   UNL     1      92.934  29.975  12.452  1.00  0.00     0.092 C 
ATOM     10  C   UNL     1      90.796  31.917  12.083  1.00  0.00     0.009 C 
ATOM     11  C   UNL     1      92.553  30.467  11.042  1.00  0.00    -0.031 C 
ATOM     12  C   UNL     1      94.091  30.854  12.964  1.00  0.00     0.041 C 
ATOM     13  C   UNL     1      94.000  30.805  14.465  1.00  0.00     0.010 C 
ATOM     14  C   UNL     1      91.279  31.269  10.781  1.00  0.00     0.025 C 
ATOM     15  C   UNL     1      93.395  30.206  10.015  1.00  0.00     0.050 C 
ATOM     16  C   UNL     1      91.440  32.287   9.586  1.00  0.00    -0.013 C 
ATOM     17  C   UNL     1      93.154  30.699   8.651  1.00  0.00     0.159 C 
ATOM     18  C   UNL     1      91.882  31.444   8.348  1.00  0.00     0.070 C 
ATOM     19  C   UNL     1      90.079  32.967   9.243  1.00  0.00     0.042 C 
ATOM     20  C   UNL     1      92.489  33.384   9.953  1.00  0.00     0.013 C 
ATOM     21  O   UNL     1      93.980  30.427   7.739  1.00  0.00    -0.295 OA
ATOM     22  C   UNL     1      91.951  32.269   7.045  1.00  0.00     0.047 C 
ATOM     23  C   UNL     1      90.118  33.786   7.932  1.00  0.00     0.143 C 
ATOM     24  C   UNL     1      90.596  32.936   6.742  1.00  0.00     0.143 C 
BRANCH   9  25
ATOM     25  O   UNL     1      93.350  28.622  12.339  1.00  0.00    -0.385 OA
ATOM     26  H   UNL     1      93.621  28.253  13.220  1.00  0.00     0.211 HD
ENDBRANCH   9  25
BRANCH  23  27
ATOM     27  O   UNL     1      88.836  34.287   7.650  1.00  0.00    -0.390 OA
ATOM     28  H   UNL     1      88.217  33.509   7.650  1.00  0.00     0.211 HD
ENDBRANCH  23  27
BRANCH  24  29
ATOM     29  O   UNL     1      89.629  31.961   6.437  1.00  0.00    -0.390 OA
ATOM     30  H   UNL     1      90.015  31.382   5.726  1.00  0.00     0.211 HD
ENDBRANCH  24  29
ENDBRANCH   3   5
BRANCH   3  31
ATOM     31  O   UNL     1      90.893  30.022  16.419  1.00  0.00    -0.387 OA
ATOM     32  H   UNL     1      90.653  29.884  17.373  1.00  0.00     0.211 HD
ENDBRANCH   3  31
ENDBRANCH   2   3
BRANCH   2  33
ATOM     33  O   UNL     1      93.496  32.009  17.856  1.00  0.00    -0.390 OA
ATOM     34  H   UNL     1      94.153  31.507  17.305  1.00  0.00     0.211 HD
ENDBRANCH   2  33
ENDBRANCH   1   2
BRANCH   1  35
ATOM     35  C   UNL     1      93.433  34.131  16.386  1.00  0.00     0.037 C 
BRANCH  35  36
ATOM     36  C   UNL     1      93.760  34.822  15.036  1.00  0.00     0.059 C 
ATOM     37  C   UNL     1      92.653  34.465  14.021  1.00  0.00     0.042 C 
ATOM     38  C   UNL     1      95.125  34.345  14.489  1.00  0.00     0.042 C 
BRANCH  36  39
ATOM     39  O   UNL     1      93.782  36.218  15.230  1.00  0.00    -0.390 OA
ATOM     40  H   UNL     1      94.690  36.467  15.540  1.00  0.00     0.211 HD
ENDBRANCH  36  39
ENDBRANCH  35  36
ENDBRANCH   1  35
TORSDOF 11
ENDMDL
