MODEL 1
REMARK VINA RESULT:    -4.755      0.000      0.000
REMARK INTER + INTRA:         -12.013
REMARK INTER:                 -10.314
REMARK INTRA:                  -1.699
REMARK UNBOUND:                -1.699
REMARK SMILES CCCCCCCCCCCCCCCCCCCCCC(=O)[O-]
REMARK SMILES IDX 12 1 11 2 10 3 9 4 8 5 7 6 6 7 5 8 4 9 3 10 2 11 1 12 13 13
REMARK SMILES IDX 14 14 15 15 16 16 17 17 18 18 19 19 20 20 21 21 22 22 23 23
REMARK SMILES IDX 24 24
REMARK H PARENT
REMARK Flexibility Score: inf
ROOT
ATOM      1  C   UNL     1      -1.454  13.121 -36.304  1.00  0.00     0.000 C 
ENDROOT
BRANCH   1   2
ATOM      2  C   UNL     1      -0.786  12.939 -37.676  1.00  0.00     0.000 C 
BRANCH   2   3
ATOM      3  C   UNL     1       0.639  12.374 -37.571  1.00  0.00     0.000 C 
BRANCH   3   4
ATOM      4  C   UNL     1       0.836  11.208 -38.551  1.00  0.00    -0.000 C 
BRANCH   4   5
ATOM      5  C   UNL     1       0.069   9.944 -38.129  1.00  0.00    -0.000 C 
BRANCH   5   6
ATOM      6  C   UNL     1      -0.773   9.351 -39.274  1.00  0.00    -0.000 C 
BRANCH   6   7
ATOM      7  C   UNL     1      -0.970   7.827 -39.121  1.00  0.00    -0.000 C 
BRANCH   7   8
ATOM      8  C   UNL     1      -0.851   7.056 -40.448  1.00  0.00    -0.000 C 
BRANCH   8   9
ATOM      9  C   UNL     1       0.014   7.788 -41.484  1.00  0.00    -0.000 C 
BRANCH   9  10
ATOM     10  C   UNL     1       0.987   6.846 -42.222  1.00  0.00    -0.000 C 
BRANCH  10  11
ATOM     11  C   UNL     1       1.421   5.603 -41.424  1.00  0.00    -0.003 C 
ATOM     12  C   UNL     1       2.871   5.203 -41.678  1.00  0.00     0.004 C 
ENDBRANCH  10  11
ENDBRANCH   9  10
ENDBRANCH   8   9
ENDBRANCH   7   8
ENDBRANCH   6   7
ENDBRANCH   5   6
ENDBRANCH   4   5
ENDBRANCH   3   4
ENDBRANCH   2   3
ENDBRANCH   1   2
BRANCH   1  13
ATOM     13  C   UNL     1      -2.212  11.865 -35.848  1.00  0.00     0.000 C 
BRANCH  13  14
ATOM     14  C   UNL     1      -2.785  11.104 -37.052  1.00  0.00     0.000 C 
BRANCH  14  15
ATOM     15  C   UNL     1      -3.290   9.698 -36.685  1.00  0.00     0.000 C 
BRANCH  15  16
ATOM     16  C   UNL     1      -4.585   9.257 -37.399  1.00  0.00     0.000 C 
BRANCH  16  17
ATOM     17  C   UNL     1      -4.455   9.029 -38.917  1.00  0.00     0.000 C 
BRANCH  17  18
ATOM     18  C   UNL     1      -5.802   9.134 -39.651  1.00  0.00     0.000 C 
BRANCH  18  19
ATOM     19  C   UNL     1      -6.792   8.025 -39.255  1.00  0.00     0.000 C 
BRANCH  19  20
ATOM     20  C   UNL     1      -7.315   7.163 -40.418  1.00  0.00     0.006 C 
BRANCH  20  21
ATOM     21  C   UNL     1      -7.897   5.820 -39.957  1.00  0.00     0.053 C 
BRANCH  21  22
ATOM     22  C   UNL     1      -8.188   4.934 -41.128  1.00  0.00     0.041 C 
ATOM     23  O   UNL     1      -8.832   3.864 -40.969  1.00  0.00    -0.550 OA
ATOM     24  O   UNL     1      -7.751   5.291 -42.398  1.00  0.00    -0.550 OA
ENDBRANCH  21  22
ENDBRANCH  20  21
ENDBRANCH  19  20
ENDBRANCH  18  19
ENDBRANCH  17  18
ENDBRANCH  16  17
ENDBRANCH  15  16
ENDBRANCH  14  15
ENDBRANCH  13  14
ENDBRANCH   1  13
TORSDOF 20
ENDMDL
MODEL 2
REMARK VINA RESULT:    -4.594      1.472      2.422
REMARK INTER + INTRA:         -11.663
REMARK INTER:                  -9.968
REMARK INTRA:                  -1.696
REMARK UNBOUND:                -1.699
REMARK SMILES CCCCCCCCCCCCCCCCCCCCCC(=O)[O-]
REMARK SMILES IDX 12 1 11 2 10 3 9 4 8 5 7 6 6 7 5 8 4 9 3 10 2 11 1 12 13 13
REMARK SMILES IDX 14 14 15 15 16 16 17 17 18 18 19 19 20 20 21 21 22 22 23 23
REMARK SMILES IDX 24 24
REMARK H PARENT
REMARK Flexibility Score: inf
ROOT
ATOM      1  C   UNL     1      -0.249  11.837 -38.077  1.00  0.00     0.000 C 
ENDROOT
BRANCH   1   2
ATOM      2  C   UNL     1       1.117  11.295 -38.529  1.00  0.00     0.000 C 
BRANCH   2   3
ATOM      3  C   UNL     1       1.634  11.983 -39.801  1.00  0.00     0.000 C 
BRANCH   3   4
ATOM      4  C   UNL     1       2.560  11.044 -40.590  1.00  0.00    -0.000 C 
BRANCH   4   5
ATOM      5  C   UNL     1       2.433  11.228 -42.111  1.00  0.00    -0.000 C 
BRANCH   5   6
ATOM      6  C   UNL     1       1.657  10.082 -42.786  1.00  0.00    -0.000 C 
BRANCH   6   7
ATOM      7  C   UNL     1       1.678   8.790 -41.942  1.00  0.00    -0.000 C 
BRANCH   7   8
ATOM      8  C   UNL     1       0.388   7.958 -42.060  1.00  0.00    -0.000 C 
BRANCH   8   9
ATOM      9  C   UNL     1       0.623   6.460 -41.814  1.00  0.00    -0.000 C 
BRANCH   9  10
ATOM     10  C   UNL     1       1.981   5.971 -42.355  1.00  0.00    -0.000 C 
BRANCH  10  11
ATOM     11  C   UNL     1       2.836   5.179 -41.348  1.00  0.00    -0.003 C 
ATOM     12  C   UNL     1       4.324   5.196 -41.683  1.00  0.00     0.004 C 
ENDBRANCH  10  11
ENDBRANCH   9  10
ENDBRANCH   8   9
ENDBRANCH   7   8
ENDBRANCH   6   7
ENDBRANCH   5   6
ENDBRANCH   4   5
ENDBRANCH   3   4
ENDBRANCH   2   3
ENDBRANCH   1   2
BRANCH   1  13
ATOM     13  C   UNL     1      -1.331  10.747 -38.041  1.00  0.00     0.000 C 
BRANCH  13  14
ATOM     14  C   UNL     1      -0.800   9.428 -38.621  1.00  0.00     0.000 C 
BRANCH  14  15
ATOM     15  C   UNL     1      -1.920   8.506 -39.131  1.00  0.00     0.000 C 
BRANCH  15  16
ATOM     16  C   UNL     1      -3.220   9.221 -39.553  1.00  0.00     0.000 C 
BRANCH  16  17
ATOM     17  C   UNL     1      -4.519   8.605 -39.000  1.00  0.00     0.000 C 
BRANCH  17  18
ATOM     18  C   UNL     1      -5.781   9.321 -39.511  1.00  0.00     0.000 C 
BRANCH  18  19
ATOM     19  C   UNL     1      -7.044   8.444 -39.435  1.00  0.00     0.000 C 
BRANCH  19  20
ATOM     20  C   UNL     1      -7.124   7.315 -40.477  1.00  0.00     0.006 C 
BRANCH  20  21
ATOM     21  C   UNL     1      -7.641   5.994 -39.893  1.00  0.00     0.053 C 
BRANCH  21  22
ATOM     22  C   UNL     1      -8.109   5.076 -40.980  1.00  0.00     0.041 C 
ATOM     23  O   UNL     1      -7.825   5.321 -42.182  1.00  0.00    -0.550 OA
ATOM     24  O   UNL     1      -8.856   3.948 -40.666  1.00  0.00    -0.550 OA
ENDBRANCH  21  22
ENDBRANCH  20  21
ENDBRANCH  19  20
ENDBRANCH  18  19
ENDBRANCH  17  18
ENDBRANCH  16  17
ENDBRANCH  15  16
ENDBRANCH  14  15
ENDBRANCH  13  14
ENDBRANCH   1  13
TORSDOF 20
ENDMDL
MODEL 3
REMARK VINA RESULT:    -4.125      3.109      7.290
REMARK INTER + INTRA:         -10.647
REMARK INTER:                  -9.151
REMARK INTRA:                  -1.496
REMARK UNBOUND:                -1.699
REMARK SMILES CCCCCCCCCCCCCCCCCCCCCC(=O)[O-]
REMARK SMILES IDX 12 1 11 2 10 3 9 4 8 5 7 6 6 7 5 8 4 9 3 10 2 11 1 12 13 13
REMARK SMILES IDX 14 14 15 15 16 16 17 17 18 18 19 19 20 20 21 21 22 22 23 23
REMARK SMILES IDX 24 24
REMARK H PARENT
REMARK Flexibility Score: inf
ROOT
ATOM      1  C   UNL     1       0.491  11.025 -37.809  1.00  0.00     0.000 C 
ENDROOT
BRANCH   1   2
ATOM      2  C   UNL     1      -0.847  10.428 -38.273  1.00  0.00     0.000 C 
BRANCH   2   3
ATOM      3  C   UNL     1      -0.794   8.899 -38.419  1.00  0.00     0.000 C 
BRANCH   3   4
ATOM      4  C   UNL     1      -1.919   8.401 -39.338  1.00  0.00    -0.000 C 
BRANCH   4   5
ATOM      5  C   UNL     1      -3.060   9.421 -39.484  1.00  0.00    -0.000 C 
BRANCH   5   6
ATOM      6  C   UNL     1      -4.348   8.981 -38.763  1.00  0.00    -0.000 C 
BRANCH   6   7
ATOM      7  C   UNL     1      -5.576   9.015 -39.697  1.00  0.00    -0.000 C 
BRANCH   7   8
ATOM      8  C   UNL     1      -6.902   8.702 -38.979  1.00  0.00    -0.000 C 
BRANCH   8   9
ATOM      9  C   UNL     1      -7.490   7.343 -39.384  1.00  0.00    -0.000 C 
BRANCH   9  10
ATOM     10  C   UNL     1      -7.378   7.069 -40.897  1.00  0.00    -0.000 C 
BRANCH  10  11
ATOM     11  C   UNL     1      -7.716   5.630 -41.326  1.00  0.00    -0.003 C 
ATOM     12  C   UNL     1      -8.389   4.818 -40.223  1.00  0.00     0.004 C 
ENDBRANCH  10  11
ENDBRANCH   9  10
ENDBRANCH   8   9
ENDBRANCH   7   8
ENDBRANCH   6   7
ENDBRANCH   5   6
ENDBRANCH   4   5
ENDBRANCH   3   4
ENDBRANCH   2   3
ENDBRANCH   1   2
BRANCH   1  13
ATOM     13  C   UNL     1       0.512  12.558 -37.892  1.00  0.00     0.000 C 
BRANCH  13  14
ATOM     14  C   UNL     1       1.398  13.032 -39.053  1.00  0.00     0.000 C 
BRANCH  14  15
ATOM     15  C   UNL     1       1.879  11.877 -39.948  1.00  0.00     0.000 C 
BRANCH  15  16
ATOM     16  C   UNL     1       2.686  12.302 -41.193  1.00  0.00     0.000 C 
BRANCH  16  17
ATOM     17  C   UNL     1       2.859  11.211 -42.267  1.00  0.00     0.000 C 
BRANCH  17  18
ATOM     18  C   UNL     1       1.589  10.367 -42.467  1.00  0.00     0.000 C 
BRANCH  18  19
ATOM     19  C   UNL     1       1.729   8.932 -41.929  1.00  0.00     0.000 C 
BRANCH  19  20
ATOM     20  C   UNL     1       0.469   8.057 -42.056  1.00  0.00     0.006 C 
BRANCH  20  21
ATOM     21  C   UNL     1       0.747   6.697 -42.712  1.00  0.00     0.053 C 
BRANCH  21  22
ATOM     22  C   UNL     1       1.109   5.672 -41.682  1.00  0.00     0.041 C 
ATOM     23  O   UNL     1       0.211   5.127 -40.986  1.00  0.00    -0.550 OA
ATOM     24  O   UNL     1       2.438   5.314 -41.492  1.00  0.00    -0.550 OA
ENDBRANCH  21  22
ENDBRANCH  20  21
ENDBRANCH  19  20
ENDBRANCH  18  19
ENDBRANCH  17  18
ENDBRANCH  16  17
ENDBRANCH  15  16
ENDBRANCH  14  15
ENDBRANCH  13  14
ENDBRANCH   1  13
TORSDOF 20
ENDMDL
MODEL 4
REMARK VINA RESULT:    -4.091      1.534      4.985
REMARK INTER + INTRA:         -10.573
REMARK INTER:                  -8.884
REMARK INTRA:                  -1.689
REMARK UNBOUND:                -1.699
REMARK SMILES CCCCCCCCCCCCCCCCCCCCCC(=O)[O-]
REMARK SMILES IDX 12 1 11 2 10 3 9 4 8 5 7 6 6 7 5 8 4 9 3 10 2 11 1 12 13 13
REMARK SMILES IDX 14 14 15 15 16 16 17 17 18 18 19 19 20 20 21 21 22 22 23 23
REMARK SMILES IDX 24 24
REMARK H PARENT
REMARK Flexibility Score: inf
ROOT
ATOM      1  C   UNL     1       0.162   7.165 -40.584  1.00  0.00     0.000 C 
ENDROOT
BRANCH   1   2
ATOM      2  C   UNL     1       0.236   7.079 -42.116  1.00  0.00     0.000 C 
BRANCH   2   3
ATOM      3  C   UNL     1       0.971   8.275 -42.742  1.00  0.00     0.000 C 
BRANCH   3   4
ATOM      4  C   UNL     1       1.336   9.312 -41.669  1.00  0.00    -0.000 C 
BRANCH   4   5
ATOM      5  C   UNL     1       2.023  10.555 -42.257  1.00  0.00    -0.000 C 
BRANCH   5   6
ATOM      6  C   UNL     1       2.870  11.313 -41.218  1.00  0.00    -0.000 C 
BRANCH   6   7
ATOM      7  C   UNL     1       2.310  12.722 -40.928  1.00  0.00    -0.000 C 
BRANCH   7   8
ATOM      8  C   UNL     1       1.676  12.855 -39.532  1.00  0.00    -0.000 C 
BRANCH   8   9
ATOM      9  C   UNL     1       1.243  11.504 -38.944  1.00  0.00    -0.000 C 
BRANCH   9  10
ATOM     10  C   UNL     1       0.460  11.649 -37.625  1.00  0.00    -0.000 C 
BRANCH  10  11
ATOM     11  C   UNL     1      -0.809  12.517 -37.713  1.00  0.00    -0.003 C 
ATOM     12  C   UNL     1      -1.278  13.032 -36.356  1.00  0.00     0.004 C 
ENDBRANCH  10  11
ENDBRANCH   9  10
ENDBRANCH   8   9
ENDBRANCH   7   8
ENDBRANCH   6   7
ENDBRANCH   5   6
ENDBRANCH   4   5
ENDBRANCH   3   4
ENDBRANCH   2   3
ENDBRANCH   1   2
BRANCH   1  13
ATOM     13  C   UNL     1      -1.251   7.498 -40.080  1.00  0.00     0.000 C 
BRANCH  13  14
ATOM     14  C   UNL     1      -1.201   8.555 -38.968  1.00  0.00     0.000 C 
BRANCH  14  15
ATOM     15  C   UNL     1      -2.513   9.347 -38.837  1.00  0.00     0.000 C 
BRANCH  15  16
ATOM     16  C   UNL     1      -3.410   9.346 -40.093  1.00  0.00     0.000 C 
BRANCH  16  17
ATOM     17  C   UNL     1      -4.905   9.616 -39.833  1.00  0.00     0.000 C 
BRANCH  17  18
ATOM     18  C   UNL     1      -5.559   8.540 -38.951  1.00  0.00     0.000 C 
BRANCH  18  19
ATOM     19  C   UNL     1      -7.048   8.320 -39.273  1.00  0.00     0.000 C 
BRANCH  19  20
ATOM     20  C   UNL     1      -7.335   7.311 -40.399  1.00  0.00     0.006 C 
BRANCH  20  21
ATOM     21  C   UNL     1      -7.753   5.930 -39.876  1.00  0.00     0.053 C 
BRANCH  21  22
ATOM     22  C   UNL     1      -8.093   5.011 -41.007  1.00  0.00     0.041 C 
ATOM     23  O   UNL     1      -8.716   3.938 -40.788  1.00  0.00    -0.550 OA
ATOM     24  O   UNL     1      -7.726   5.339 -42.307  1.00  0.00    -0.550 OA
ENDBRANCH  21  22
ENDBRANCH  20  21
ENDBRANCH  19  20
ENDBRANCH  18  19
ENDBRANCH  17  18
ENDBRANCH  16  17
ENDBRANCH  15  16
ENDBRANCH  14  15
ENDBRANCH  13  14
ENDBRANCH   1  13
TORSDOF 20
ENDMDL
MODEL 5
REMARK VINA RESULT:    -4.066      2.908      6.694
REMARK INTER + INTRA:         -10.518
REMARK INTER:                  -9.586
REMARK INTRA:                  -0.932
REMARK UNBOUND:                -1.699
REMARK SMILES CCCCCCCCCCCCCCCCCCCCCC(=O)[O-]
REMARK SMILES IDX 12 1 11 2 10 3 9 4 8 5 7 6 6 7 5 8 4 9 3 10 2 11 1 12 13 13
REMARK SMILES IDX 14 14 15 15 16 16 17 17 18 18 19 19 20 20 21 21 22 22 23 23
REMARK SMILES IDX 24 24
REMARK H PARENT
REMARK Flexibility Score: inf
ROOT
ATOM      1  C   UNL     1      -1.548  13.098 -36.275  1.00  0.00     0.000 C 
ENDROOT
BRANCH   1   2
ATOM      2  C   UNL     1      -2.419  11.916 -35.823  1.00  0.00     0.000 C 
BRANCH   2   3
ATOM      3  C   UNL     1      -2.629  10.876 -36.934  1.00  0.00     0.000 C 
BRANCH   3   4
ATOM      4  C   UNL     1      -3.429   9.674 -36.411  1.00  0.00    -0.000 C 
BRANCH   4   5
ATOM      5  C   UNL     1      -4.645   9.344 -37.292  1.00  0.00    -0.000 C 
BRANCH   5   6
ATOM      6  C   UNL     1      -4.277   9.184 -38.779  1.00  0.00    -0.000 C 
BRANCH   6   7
ATOM      7  C   UNL     1      -5.505   9.339 -39.701  1.00  0.00    -0.000 C 
BRANCH   7   8
ATOM      8  C   UNL     1      -6.808   8.797 -39.085  1.00  0.00    -0.000 C 
BRANCH   8   9
ATOM      9  C   UNL     1      -7.086   7.337 -39.473  1.00  0.00    -0.000 C 
BRANCH   9  10
ATOM     10  C   UNL     1      -7.346   7.159 -40.982  1.00  0.00    -0.000 C 
BRANCH  10  11
ATOM     11  C   UNL     1      -7.834   5.759 -41.398  1.00  0.00    -0.003 C 
ATOM     12  C   UNL     1      -8.310   4.915 -40.220  1.00  0.00     0.004 C 
ENDBRANCH  10  11
ENDBRANCH   9  10
ENDBRANCH   8   9
ENDBRANCH   7   8
ENDBRANCH   6   7
ENDBRANCH   5   6
ENDBRANCH   4   5
ENDBRANCH   3   4
ENDBRANCH   2   3
ENDBRANCH   1   2
BRANCH   1  13
ATOM     13  C   UNL     1      -0.866  12.844 -37.627  1.00  0.00     0.000 C 
BRANCH  13  14
ATOM     14  C   UNL     1       0.591  12.401 -37.431  1.00  0.00     0.000 C 
BRANCH  14  15
ATOM     15  C   UNL     1       0.873  11.003 -38.009  1.00  0.00     0.000 C 
BRANCH  15  16
ATOM     16  C   UNL     1      -0.266  10.399 -38.856  1.00  0.00     0.000 C 
BRANCH  16  17
ATOM     17  C   UNL     1      -0.585   8.919 -38.569  1.00  0.00     0.000 C 
BRANCH  17  18
ATOM     18  C   UNL     1      -1.342   8.240 -39.722  1.00  0.00     0.000 C 
BRANCH  18  19
ATOM     19  C   UNL     1      -0.514   7.151 -40.428  1.00  0.00     0.000 C 
BRANCH  19  20
ATOM     20  C   UNL     1       0.257   7.617 -41.676  1.00  0.00     0.006 C 
BRANCH  20  21
ATOM     21  C   UNL     1       0.775   6.453 -42.531  1.00  0.00     0.053 C 
BRANCH  21  22
ATOM     22  C   UNL     1       1.607   5.516 -41.711  1.00  0.00     0.041 C 
ATOM     23  O   UNL     1       1.064   4.565 -41.088  1.00  0.00    -0.550 OA
ATOM     24  O   UNL     1       2.983   5.690 -41.635  1.00  0.00    -0.550 OA
ENDBRANCH  21  22
ENDBRANCH  20  21
ENDBRANCH  19  20
ENDBRANCH  18  19
ENDBRANCH  17  18
ENDBRANCH  16  17
ENDBRANCH  15  16
ENDBRANCH  14  15
ENDBRANCH  13  14
ENDBRANCH   1  13
TORSDOF 20
ENDMDL
MODEL 6
REMARK VINA RESULT:    -3.924      3.685      7.376
REMARK INTER + INTRA:         -10.210
REMARK INTER:                  -9.512
REMARK INTRA:                  -0.699
REMARK UNBOUND:                -1.699
REMARK SMILES CCCCCCCCCCCCCCCCCCCCCC(=O)[O-]
REMARK SMILES IDX 12 1 11 2 10 3 9 4 8 5 7 6 6 7 5 8 4 9 3 10 2 11 1 12 13 13
REMARK SMILES IDX 14 14 15 15 16 16 17 17 18 18 19 19 20 20 21 21 22 22 23 23
REMARK SMILES IDX 24 24
REMARK H PARENT
REMARK Flexibility Score: inf
ROOT
ATOM      1  C   UNL     1       0.536  12.550 -37.646  1.00  0.00     0.000 C 
ENDROOT
BRANCH   1   2
ATOM      2  C   UNL     1      -0.947  12.930 -37.509  1.00  0.00     0.000 C 
BRANCH   2   3
ATOM      3  C   UNL     1      -1.365  13.169 -36.050  1.00  0.00     0.000 C 
BRANCH   3   4
ATOM      4  C   UNL     1      -2.496  12.213 -35.644  1.00  0.00    -0.000 C 
BRANCH   4   5
ATOM      5  C   UNL     1      -2.460  10.888 -36.424  1.00  0.00    -0.000 C 
BRANCH   5   6
ATOM      6  C   UNL     1      -3.782  10.105 -36.326  1.00  0.00    -0.000 C 
BRANCH   6   7
ATOM      7  C   UNL     1      -4.071   9.289 -37.604  1.00  0.00    -0.000 C 
BRANCH   7   8
ATOM      8  C   UNL     1      -5.562   8.961 -37.800  1.00  0.00    -0.000 C 
BRANCH   8   9
ATOM      9  C   UNL     1      -5.896   8.556 -39.243  1.00  0.00    -0.000 C 
BRANCH   9  10
ATOM     10  C   UNL     1      -7.272   7.871 -39.368  1.00  0.00    -0.000 C 
BRANCH  10  11
ATOM     11  C   UNL     1      -7.447   6.984 -40.615  1.00  0.00    -0.003 C 
ATOM     12  C   UNL     1      -7.819   5.544 -40.278  1.00  0.00     0.004 C 
ENDBRANCH  10  11
ENDBRANCH   9  10
ENDBRANCH   8   9
ENDBRANCH   7   8
ENDBRANCH   6   7
ENDBRANCH   5   6
ENDBRANCH   4   5
ENDBRANCH   3   4
ENDBRANCH   2   3
ENDBRANCH   1   2
BRANCH   1  13
ATOM     13  C   UNL     1       0.731  11.130 -38.199  1.00  0.00     0.000 C 
BRANCH  13  14
ATOM     14  C   UNL     1      -0.619  10.494 -38.562  1.00  0.00     0.000 C 
BRANCH  14  15
ATOM     15  C   UNL     1      -0.595   8.958 -38.486  1.00  0.00     0.000 C 
BRANCH  15  16
ATOM     16  C   UNL     1      -1.363   8.232 -39.610  1.00  0.00     0.000 C 
BRANCH  16  17
ATOM     17  C   UNL     1      -0.586   7.103 -40.314  1.00  0.00     0.000 C 
BRANCH  17  18
ATOM     18  C   UNL     1      -0.019   7.534 -41.677  1.00  0.00     0.000 C 
BRANCH  18  19
ATOM     19  C   UNL     1       0.591   6.366 -42.472  1.00  0.00     0.000 C 
BRANCH  19  20
ATOM     20  C   UNL     1       1.675   5.561 -41.732  1.00  0.00     0.006 C 
BRANCH  20  21
ATOM     21  C   UNL     1       2.945   5.354 -42.567  1.00  0.00     0.053 C 
BRANCH  21  22
ATOM     22  C   UNL     1       4.154   5.272 -41.688  1.00  0.00     0.041 C 
ATOM     23  O   UNL     1       4.026   5.216 -40.436  1.00  0.00    -0.550 OA
ATOM     24  O   UNL     1       5.425   5.254 -42.250  1.00  0.00    -0.550 OA
ENDBRANCH  21  22
ENDBRANCH  20  21
ENDBRANCH  19  20
ENDBRANCH  18  19
ENDBRANCH  17  18
ENDBRANCH  16  17
ENDBRANCH  15  16
ENDBRANCH  14  15
ENDBRANCH  13  14
ENDBRANCH   1  13
TORSDOF 20
ENDMDL
MODEL 7
REMARK VINA RESULT:    -3.690      1.408      2.522
REMARK INTER + INTRA:          -9.702
REMARK INTER:                  -7.982
REMARK INTRA:                  -1.720
REMARK UNBOUND:                -1.699
REMARK SMILES CCCCCCCCCCCCCCCCCCCCCC(=O)[O-]
REMARK SMILES IDX 12 1 11 2 10 3 9 4 8 5 7 6 6 7 5 8 4 9 3 10 2 11 1 12 13 13
REMARK SMILES IDX 14 14 15 15 16 16 17 17 18 18 19 19 20 20 21 21 22 22 23 23
REMARK SMILES IDX 24 24
REMARK H PARENT
REMARK Flexibility Score: inf
ROOT
ATOM      1  C   UNL     1      -1.577  10.261 -37.781  1.00  0.00     0.000 C 
ENDROOT
BRANCH   1   2
ATOM      2  C   UNL     1      -1.221  11.653 -38.327  1.00  0.00     0.000 C 
BRANCH   2   3
ATOM      3  C   UNL     1      -0.147  12.362 -37.487  1.00  0.00     0.000 C 
BRANCH   3   4
ATOM      4  C   UNL     1       1.260  11.988 -37.975  1.00  0.00    -0.000 C 
BRANCH   4   5
ATOM      5  C   UNL     1       1.421  12.145 -39.496  1.00  0.00    -0.000 C 
BRANCH   5   6
ATOM      6  C   UNL     1       2.030  10.897 -40.161  1.00  0.00    -0.000 C 
BRANCH   6   7
ATOM      7  C   UNL     1       2.384  11.143 -41.643  1.00  0.00    -0.000 C 
BRANCH   7   8
ATOM      8  C   UNL     1       1.704  10.157 -42.609  1.00  0.00    -0.000 C 
BRANCH   8   9
ATOM      9  C   UNL     1       1.818   8.697 -42.145  1.00  0.00    -0.000 C 
BRANCH   9  10
ATOM     10  C   UNL     1       0.454   7.981 -42.084  1.00  0.00    -0.000 C 
BRANCH  10  11
ATOM     11  C   UNL     1       0.528   6.451 -41.921  1.00  0.00    -0.003 C 
ATOM     12  C   UNL     1       1.951   5.908 -42.001  1.00  0.00     0.004 C 
ENDBRANCH  10  11
ENDBRANCH   9  10
ENDBRANCH   8   9
ENDBRANCH   7   8
ENDBRANCH   6   7
ENDBRANCH   5   6
ENDBRANCH   4   5
ENDBRANCH   3   4
ENDBRANCH   2   3
ENDBRANCH   1   2
BRANCH   1  13
ATOM     13  C   UNL     1      -0.812   9.136 -38.494  1.00  0.00     0.000 C 
BRANCH  13  14
ATOM     14  C   UNL     1      -1.777   8.209 -39.247  1.00  0.00     0.000 C 
BRANCH  14  15
ATOM     15  C   UNL     1      -2.896   8.975 -39.974  1.00  0.00     0.000 C 
BRANCH  15  16
ATOM     16  C   UNL     1      -4.289   8.886 -39.316  1.00  0.00     0.000 C 
BRANCH  16  17
ATOM     17  C   UNL     1      -5.282   9.989 -39.727  1.00  0.00     0.000 C 
BRANCH  17  18
ATOM     18  C   UNL     1      -6.745   9.516 -39.690  1.00  0.00     0.000 C 
BRANCH  18  19
ATOM     19  C   UNL     1      -6.885   8.016 -39.375  1.00  0.00     0.000 C 
BRANCH  19  20
ATOM     20  C   UNL     1      -7.401   7.146 -40.536  1.00  0.00     0.006 C 
BRANCH  20  21
ATOM     21  C   UNL     1      -7.691   5.698 -40.118  1.00  0.00     0.053 C 
BRANCH  21  22
ATOM     22  C   UNL     1      -8.150   4.887 -41.290  1.00  0.00     0.041 C 
ATOM     23  O   UNL     1      -7.848   5.237 -42.462  1.00  0.00    -0.550 OA
ATOM     24  O   UNL     1      -8.908   3.740 -41.090  1.00  0.00    -0.550 OA
ENDBRANCH  21  22
ENDBRANCH  20  21
ENDBRANCH  19  20
ENDBRANCH  18  19
ENDBRANCH  17  18
ENDBRANCH  16  17
ENDBRANCH  15  16
ENDBRANCH  14  15
ENDBRANCH  13  14
ENDBRANCH   1  13
TORSDOF 20
ENDMDL
MODEL 8
REMARK VINA RESULT:    -3.638      3.841      7.660
REMARK INTER + INTRA:          -9.591
REMARK INTER:                  -8.440
REMARK INTRA:                  -1.151
REMARK UNBOUND:                -1.699
REMARK SMILES CCCCCCCCCCCCCCCCCCCCCC(=O)[O-]
REMARK SMILES IDX 12 1 11 2 10 3 9 4 8 5 7 6 6 7 5 8 4 9 3 10 2 11 1 12 13 13
REMARK SMILES IDX 14 14 15 15 16 16 17 17 18 18 19 19 20 20 21 21 22 22 23 23
REMARK SMILES IDX 24 24
REMARK H PARENT
REMARK Flexibility Score: inf
ROOT
ATOM      1  C   UNL     1       1.055  12.926 -38.697  1.00  0.00     0.000 C 
ENDROOT
BRANCH   1   2
ATOM      2  C   UNL     1       0.433  12.299 -37.439  1.00  0.00     0.000 C 
BRANCH   2   3
ATOM      3  C   UNL     1      -0.903  11.597 -37.726  1.00  0.00     0.000 C 
BRANCH   3   4
ATOM      4  C   UNL     1      -0.689  10.359 -38.610  1.00  0.00    -0.000 C 
BRANCH   4   5
ATOM      5  C   UNL     1      -1.654   9.212 -38.268  1.00  0.00    -0.000 C 
BRANCH   5   6
ATOM      6  C   UNL     1      -2.336   8.617 -39.513  1.00  0.00    -0.000 C 
BRANCH   6   7
ATOM      7  C   UNL     1      -3.667   9.327 -39.842  1.00  0.00    -0.000 C 
BRANCH   7   8
ATOM      8  C   UNL     1      -4.839   8.878 -38.952  1.00  0.00    -0.000 C 
BRANCH   8   9
ATOM      9  C   UNL     1      -6.206   9.088 -39.618  1.00  0.00    -0.000 C 
BRANCH   9  10
ATOM     10  C   UNL     1      -7.172   7.909 -39.387  1.00  0.00    -0.000 C 
BRANCH  10  11
ATOM     11  C   UNL     1      -7.286   6.921 -40.562  1.00  0.00    -0.003 C 
ATOM     12  C   UNL     1      -8.001   5.626 -40.189  1.00  0.00     0.004 C 
ENDBRANCH  10  11
ENDBRANCH   9  10
ENDBRANCH   8   9
ENDBRANCH   7   8
ENDBRANCH   6   7
ENDBRANCH   5   6
ENDBRANCH   4   5
ENDBRANCH   3   4
ENDBRANCH   2   3
ENDBRANCH   1   2
BRANCH   1  13
ATOM     13  C   UNL     1       1.978  11.953 -39.445  1.00  0.00     0.000 C 
BRANCH  13  14
ATOM     14  C   UNL     1       2.297  12.474 -40.853  1.00  0.00     0.000 C 
BRANCH  14  15
ATOM     15  C   UNL     1       2.922  11.401 -41.761  1.00  0.00     0.000 C 
BRANCH  15  16
ATOM     16  C   UNL     1       1.914  10.490 -42.492  1.00  0.00     0.000 C 
BRANCH  16  17
ATOM     17  C   UNL     1       1.324   9.347 -41.643  1.00  0.00     0.000 C 
BRANCH  17  18
ATOM     18  C   UNL     1       1.073   8.069 -42.459  1.00  0.00     0.000 C 
BRANCH  18  19
ATOM     19  C   UNL     1       0.440   6.938 -41.629  1.00  0.00     0.000 C 
BRANCH  19  20
ATOM     20  C   UNL     1       1.333   5.704 -41.411  1.00  0.00     0.006 C 
BRANCH  20  21
ATOM     21  C   UNL     1       2.529   5.651 -42.370  1.00  0.00     0.053 C 
BRANCH  21  22
ATOM     22  C   UNL     1       3.787   5.301 -41.637  1.00  0.00     0.041 C 
ATOM     23  O   UNL     1       4.905   5.673 -42.082  1.00  0.00    -0.550 OA
ATOM     24  O   UNL     1       3.726   4.566 -40.459  1.00  0.00    -0.550 OA
ENDBRANCH  21  22
ENDBRANCH  20  21
ENDBRANCH  19  20
ENDBRANCH  18  19
ENDBRANCH  17  18
ENDBRANCH  16  17
ENDBRANCH  15  16
ENDBRANCH  14  15
ENDBRANCH  13  14
ENDBRANCH   1  13
TORSDOF 20
ENDMDL
MODEL 9
REMARK VINA RESULT:    -3.220     13.823     17.118
REMARK INTER + INTRA:          -8.684
REMARK INTER:                  -6.046
REMARK INTRA:                  -2.638
REMARK UNBOUND:                -1.699
REMARK SMILES CCCCCCCCCCCCCCCCCCCCCC(=O)[O-]
REMARK SMILES IDX 12 1 11 2 10 3 9 4 8 5 7 6 6 7 5 8 4 9 3 10 2 11 1 12 13 13
REMARK SMILES IDX 14 14 15 15 16 16 17 17 18 18 19 19 20 20 21 21 22 22 23 23
REMARK SMILES IDX 24 24
REMARK H PARENT
REMARK Flexibility Score: inf
ROOT
ATOM      1  C   UNL     1     -10.630   4.490 -25.887  1.00  0.00     0.000 C 
ENDROOT
BRANCH   1   2
ATOM      2  C   UNL     1     -10.956   2.994 -26.024  1.00  0.00     0.000 C 
BRANCH   2   3
ATOM      3  C   UNL     1     -12.338   2.635 -25.457  1.00  0.00     0.000 C 
BRANCH   3   4
ATOM      4  C   UNL     1     -13.427   2.805 -26.526  1.00  0.00    -0.000 C 
BRANCH   4   5
ATOM      5  C   UNL     1     -12.986   2.294 -27.907  1.00  0.00    -0.000 C 
BRANCH   5   6
ATOM      6  C   UNL     1     -12.584   3.434 -28.862  1.00  0.00    -0.000 C 
BRANCH   6   7
ATOM      7  C   UNL     1     -13.294   4.760 -28.515  1.00  0.00    -0.000 C 
BRANCH   7   8
ATOM      8  C   UNL     1     -12.447   6.008 -28.819  1.00  0.00    -0.000 C 
BRANCH   8   9
ATOM      9  C   UNL     1     -12.556   7.081 -27.725  1.00  0.00    -0.000 C 
BRANCH   9  10
ATOM     10  C   UNL     1     -13.242   6.562 -26.446  1.00  0.00    -0.000 C 
BRANCH  10  11
ATOM     11  C   UNL     1     -13.105   7.478 -25.216  1.00  0.00    -0.003 C 
ATOM     12  C   UNL     1     -12.792   6.715 -23.932  1.00  0.00     0.004 C 
ENDBRANCH  10  11
ENDBRANCH   9  10
ENDBRANCH   8   9
ENDBRANCH   7   8
ENDBRANCH   6   7
ENDBRANCH   5   6
ENDBRANCH   4   5
ENDBRANCH   3   4
ENDBRANCH   2   3
ENDBRANCH   1   2
BRANCH   1  13
ATOM     13  C   UNL     1      -9.215   4.736 -25.345  1.00  0.00     0.000 C 
BRANCH  13  14
ATOM     14  C   UNL     1      -9.262   5.522 -24.027  1.00  0.00     0.000 C 
BRANCH  14  15
ATOM     15  C   UNL     1      -8.539   4.802 -22.875  1.00  0.00     0.000 C 
BRANCH  15  16
ATOM     16  C   UNL     1      -7.177   4.178 -23.242  1.00  0.00     0.000 C 
BRANCH  16  17
ATOM     17  C   UNL     1      -7.075   2.655 -23.037  1.00  0.00     0.000 C 
BRANCH  17  18
ATOM     18  C   UNL     1      -7.086   1.875 -24.363  1.00  0.00     0.000 C 
BRANCH  18  19
ATOM     19  C   UNL     1      -6.351   2.608 -25.499  1.00  0.00     0.000 C 
BRANCH  19  20
ATOM     20  C   UNL     1      -6.633   2.076 -26.916  1.00  0.00     0.006 C 
BRANCH  20  21
ATOM     21  C   UNL     1      -5.434   2.220 -27.862  1.00  0.00     0.053 C 
BRANCH  21  22
ATOM     22  C   UNL     1      -5.610   3.395 -28.773  1.00  0.00     0.041 C 
ATOM     23  O   UNL     1      -6.253   4.407 -28.387  1.00  0.00    -0.550 OA
ATOM     24  O   UNL     1      -5.062   3.375 -30.050  1.00  0.00    -0.550 OA
ENDBRANCH  21  22
ENDBRANCH  20  21
ENDBRANCH  19  20
ENDBRANCH  18  19
ENDBRANCH  17  18
ENDBRANCH  16  17
ENDBRANCH  15  16
ENDBRANCH  14  15
ENDBRANCH  13  14
ENDBRANCH   1  13
TORSDOF 20
ENDMDL
