MODEL 1
REMARK VINA RESULT:    -4.844      0.000      0.000
REMARK INTER + INTRA:          -7.049
REMARK INTER:                  -6.543
REMARK INTRA:                  -0.506
REMARK UNBOUND:                -0.506
REMARK SMILES CCCCCCCC(=O)[O-]
REMARK SMILES IDX 5 1 6 2 7 3 8 4 9 5 10 6 4 7 3 8 2 9 1 10
REMARK H PARENT
REMARK Flexibility Score: inf
ROOT
ATOM      1  C   UNL     1      21.368  57.381  33.235  1.00  0.00     0.000 C 
ENDROOT
BRANCH   1   2
ATOM      2  C   UNL     1      21.365  58.473  34.316  1.00  0.00     0.006 C 
BRANCH   2   3
ATOM      3  C   UNL     1      22.263  58.125  35.510  1.00  0.00     0.053 C 
BRANCH   3   4
ATOM      4  C   UNL     1      22.341  59.279  36.459  1.00  0.00     0.041 C 
ATOM      5  O   UNL     1      23.291  60.101  36.381  1.00  0.00    -0.550 OA
ATOM      6  O   UNL     1      21.389  59.420  37.461  1.00  0.00    -0.550 OA
ENDBRANCH   3   4
ENDBRANCH   2   3
ENDBRANCH   1   2
BRANCH   1   7
ATOM      7  C   UNL     1      22.753  56.746  33.040  1.00  0.00     0.000 C 
BRANCH   7   8
ATOM      8  C   UNL     1      23.521  57.441  31.909  1.00  0.00    -0.000 C 
BRANCH   8   9
ATOM      9  C   UNL     1      24.845  58.022  32.420  1.00  0.00    -0.003 C 
ATOM     10  C   UNL     1      24.666  59.455  32.911  1.00  0.00     0.004 C 
ENDBRANCH   8   9
ENDBRANCH   7   8
ENDBRANCH   1   7
TORSDOF 6
ENDMDL
MODEL 2
REMARK VINA RESULT:    -4.825      1.116      2.601
REMARK INTER + INTRA:          -7.024
REMARK INTER:                  -6.496
REMARK INTRA:                  -0.528
REMARK UNBOUND:                -0.506
REMARK SMILES CCCCCCCC(=O)[O-]
REMARK SMILES IDX 5 1 6 2 7 3 8 4 9 5 10 6 4 7 3 8 2 9 1 10
REMARK H PARENT
REMARK Flexibility Score: inf
ROOT
ATOM      1  C   UNL     1      24.483  58.477  32.548  1.00  0.00     0.000 C 
ENDROOT
BRANCH   1   2
ATOM      2  C   UNL     1      23.957  59.352  33.696  1.00  0.00     0.006 C 
BRANCH   2   3
ATOM      3  C   UNL     1      23.876  58.594  35.028  1.00  0.00     0.053 C 
BRANCH   3   4
ATOM      4  C   UNL     1      22.887  59.247  35.940  1.00  0.00     0.041 C 
ATOM      5  O   UNL     1      21.711  58.806  36.022  1.00  0.00    -0.550 OA
ATOM      6  O   UNL     1      23.250  60.375  36.665  1.00  0.00    -0.550 OA
ENDBRANCH   3   4
ENDBRANCH   2   3
ENDBRANCH   1   2
BRANCH   1   7
ATOM      7  C   UNL     1      23.991  57.025  32.637  1.00  0.00     0.000 C 
BRANCH   7   8
ATOM      8  C   UNL     1      22.680  56.841  31.863  1.00  0.00    -0.000 C 
BRANCH   8   9
ATOM      9  C   UNL     1      21.516  56.542  32.816  1.00  0.00    -0.003 C 
ATOM     10  C   UNL     1      20.625  57.767  33.000  1.00  0.00     0.004 C 
ENDBRANCH   8   9
ENDBRANCH   7   8
ENDBRANCH   1   7
TORSDOF 6
ENDMDL
MODEL 3
REMARK VINA RESULT:    -4.709      2.176      3.565
REMARK INTER + INTRA:          -6.868
REMARK INTER:                  -6.448
REMARK INTRA:                  -0.419
REMARK UNBOUND:                -0.506
REMARK SMILES CCCCCCCC(=O)[O-]
REMARK SMILES IDX 5 1 6 2 7 3 8 4 9 5 10 6 4 7 3 8 2 9 1 10
REMARK H PARENT
REMARK Flexibility Score: inf
ROOT
ATOM      1  C   UNL     1      21.689  58.424  34.948  1.00  0.00     0.000 C 
ENDROOT
BRANCH   1   2
ATOM      2  C   UNL     1      23.147  58.824  35.217  1.00  0.00     0.006 C 
BRANCH   2   3
ATOM      3  C   UNL     1      24.120  58.239  34.185  1.00  0.00     0.053 C 
BRANCH   3   4
ATOM      4  C   UNL     1      24.754  59.334  33.387  1.00  0.00     0.041 C 
ATOM      5  O   UNL     1      24.991  60.451  33.919  1.00  0.00    -0.550 OA
ATOM      6  O   UNL     1      25.040  59.138  32.042  1.00  0.00    -0.550 OA
ENDBRANCH   3   4
ENDBRANCH   2   3
ENDBRANCH   1   2
BRANCH   1   7
ATOM      7  C   UNL     1      21.270  58.657  33.489  1.00  0.00     0.000 C 
BRANCH   7   8
ATOM      8  C   UNL     1      20.492  57.454  32.942  1.00  0.00    -0.000 C 
BRANCH   8   9
ATOM      9  C   UNL     1      21.419  56.254  32.716  1.00  0.00    -0.003 C 
ATOM     10  C   UNL     1      22.417  56.533  31.596  1.00  0.00     0.004 C 
ENDBRANCH   8   9
ENDBRANCH   7   8
ENDBRANCH   1   7
TORSDOF 6
ENDMDL
MODEL 4
REMARK VINA RESULT:    -4.614      1.316      2.161
REMARK INTER + INTRA:          -6.739
REMARK INTER:                  -6.447
REMARK INTRA:                  -0.292
REMARK UNBOUND:                -0.506
REMARK SMILES CCCCCCCC(=O)[O-]
REMARK SMILES IDX 5 1 6 2 7 3 8 4 9 5 10 6 4 7 3 8 2 9 1 10
REMARK H PARENT
REMARK Flexibility Score: inf
ROOT
ATOM      1  C   UNL     1      21.254  58.642  34.928  1.00  0.00     0.000 C 
ENDROOT
BRANCH   1   2
ATOM      2  C   UNL     1      22.476  58.550  35.854  1.00  0.00     0.006 C 
BRANCH   2   3
ATOM      3  C   UNL     1      22.109  58.717  37.334  1.00  0.00     0.053 C 
BRANCH   3   4
ATOM      4  C   UNL     1      22.715  59.970  37.883  1.00  0.00     0.041 C 
ATOM      5  O   UNL     1      23.228  60.819  37.107  1.00  0.00    -0.550 OA
ATOM      6  O   UNL     1      22.757  60.179  39.255  1.00  0.00    -0.550 OA
ENDBRANCH   3   4
ENDBRANCH   2   3
ENDBRANCH   1   2
BRANCH   1   7
ATOM      7  C   UNL     1      21.561  58.185  33.494  1.00  0.00     0.000 C 
BRANCH   7   8
ATOM      8  C   UNL     1      23.067  58.244  33.211  1.00  0.00    -0.000 C 
BRANCH   8   9
ATOM      9  C   UNL     1      23.467  57.217  32.145  1.00  0.00    -0.003 C 
ATOM     10  C   UNL     1      22.278  56.349  31.743  1.00  0.00     0.004 C 
ENDBRANCH   8   9
ENDBRANCH   7   8
ENDBRANCH   1   7
TORSDOF 6
ENDMDL
MODEL 5
REMARK VINA RESULT:    -4.560      1.629      2.699
REMARK INTER + INTRA:          -6.666
REMARK INTER:                  -6.394
REMARK INTRA:                  -0.273
REMARK UNBOUND:                -0.506
REMARK SMILES CCCCCCCC(=O)[O-]
REMARK SMILES IDX 5 1 6 2 7 3 8 4 9 5 10 6 4 7 3 8 2 9 1 10
REMARK H PARENT
REMARK Flexibility Score: inf
ROOT
ATOM      1  C   UNL     1      23.000  58.234  35.253  1.00  0.00     0.000 C 
ENDROOT
BRANCH   1   2
ATOM      2  C   UNL     1      21.903  58.884  36.109  1.00  0.00     0.006 C 
BRANCH   2   3
ATOM      3  C   UNL     1      22.187  58.780  37.613  1.00  0.00     0.053 C 
BRANCH   3   4
ATOM      4  C   UNL     1      22.662  60.095  38.146  1.00  0.00     0.041 C 
ATOM      5  O   UNL     1      23.064  60.991  37.357  1.00  0.00    -0.550 OA
ATOM      6  O   UNL     1      22.706  60.315  39.516  1.00  0.00    -0.550 OA
ENDBRANCH   3   4
ENDBRANCH   2   3
ENDBRANCH   1   2
BRANCH   1   7
ATOM      7  C   UNL     1      22.754  58.403  33.747  1.00  0.00     0.000 C 
BRANCH   7   8
ATOM      8  C   UNL     1      21.259  58.304  33.420  1.00  0.00    -0.000 C 
BRANCH   8   9
ATOM      9  C   UNL     1      20.930  56.961  32.756  1.00  0.00    -0.003 C 
ATOM     10  C   UNL     1      22.029  56.542  31.784  1.00  0.00     0.004 C 
ENDBRANCH   8   9
ENDBRANCH   7   8
ENDBRANCH   1   7
TORSDOF 6
ENDMDL
MODEL 6
REMARK VINA RESULT:    -4.394      2.878      3.734
REMARK INTER + INTRA:          -6.442
REMARK INTER:                  -6.250
REMARK INTRA:                  -0.192
REMARK UNBOUND:                -0.506
REMARK SMILES CCCCCCCC(=O)[O-]
REMARK SMILES IDX 5 1 6 2 7 3 8 4 9 5 10 6 4 7 3 8 2 9 1 10
REMARK H PARENT
REMARK Flexibility Score: inf
ROOT
ATOM      1  C   UNL     1      22.486  57.767  34.794  1.00  0.00     0.000 C 
ENDROOT
BRANCH   1   2
ATOM      2  C   UNL     1      21.569  58.534  33.831  1.00  0.00     0.006 C 
BRANCH   2   3
ATOM      3  C   UNL     1      20.638  57.608  33.037  1.00  0.00     0.053 C 
BRANCH   3   4
ATOM      4  C   UNL     1      21.394  56.422  32.527  1.00  0.00     0.041 C 
ATOM      5  O   UNL     1      21.431  55.357  33.197  1.00  0.00    -0.550 OA
ATOM      6  O   UNL     1      22.099  56.508  31.333  1.00  0.00    -0.550 OA
ENDBRANCH   3   4
ENDBRANCH   2   3
ENDBRANCH   1   2
BRANCH   1   7
ATOM      7  C   UNL     1      23.970  58.116  34.603  1.00  0.00     0.000 C 
BRANCH   7   8
ATOM      8  C   UNL     1      24.129  59.462  33.887  1.00  0.00    -0.000 C 
BRANCH   8   9
ATOM      9  C   UNL     1      24.921  59.303  32.584  1.00  0.00    -0.003 C 
ATOM     10  C   UNL     1      24.972  57.842  32.146  1.00  0.00     0.004 C 
ENDBRANCH   8   9
ENDBRANCH   7   8
ENDBRANCH   1   7
TORSDOF 6
ENDMDL
MODEL 7
REMARK VINA RESULT:    -4.304      2.415      4.976
REMARK INTER + INTRA:          -6.320
REMARK INTER:                  -6.050
REMARK INTRA:                  -0.269
REMARK UNBOUND:                -0.506
REMARK SMILES CCCCCCCC(=O)[O-]
REMARK SMILES IDX 5 1 6 2 7 3 8 4 9 5 10 6 4 7 3 8 2 9 1 10
REMARK H PARENT
REMARK Flexibility Score: inf
ROOT
ATOM      1  C   UNL     1      21.957  58.590  35.559  1.00  0.00     0.000 C 
ENDROOT
BRANCH   1   2
ATOM      2  C   UNL     1      23.336  58.189  35.013  1.00  0.00     0.006 C 
BRANCH   2   3
ATOM      3  C   UNL     1      23.422  58.303  33.485  1.00  0.00     0.053 C 
BRANCH   3   4
ATOM      4  C   UNL     1      24.506  59.258  33.094  1.00  0.00     0.041 C 
ATOM      5  O   UNL     1      24.796  60.228  33.842  1.00  0.00    -0.550 OA
ATOM      6  O   UNL     1      25.163  59.104  31.881  1.00  0.00    -0.550 OA
ENDBRANCH   3   4
ENDBRANCH   2   3
ENDBRANCH   1   2
BRANCH   1   7
ATOM      7  C   UNL     1      21.992  58.942  37.053  1.00  0.00     0.000 C 
BRANCH   7   8
ATOM      8  C   UNL     1      22.925  60.131  37.315  1.00  0.00    -0.000 C 
BRANCH   8   9
ATOM      9  C   UNL     1      22.892  60.542  38.792  1.00  0.00    -0.003 C 
ATOM     10  C   UNL     1      22.267  59.449  39.654  1.00  0.00     0.004 C 
ENDBRANCH   8   9
ENDBRANCH   7   8
ENDBRANCH   1   7
TORSDOF 6
ENDMDL
MODEL 8
REMARK VINA RESULT:    -4.111     11.859     13.529
REMARK INTER + INTRA:          -6.059
REMARK INTER:                  -5.635
REMARK INTRA:                  -0.424
REMARK UNBOUND:                -0.506
REMARK SMILES CCCCCCCC(=O)[O-]
REMARK SMILES IDX 5 1 6 2 7 3 8 4 9 5 10 6 4 7 3 8 2 9 1 10
REMARK H PARENT
REMARK Flexibility Score: inf
ROOT
ATOM      1  C   UNL     1      34.891  57.152  26.619  1.00  0.00     0.000 C 
ENDROOT
BRANCH   1   2
ATOM      2  C   UNL     1      33.485  56.558  26.438  1.00  0.00     0.006 C 
BRANCH   2   3
ATOM      3  C   UNL     1      33.102  55.593  27.568  1.00  0.00     0.053 C 
BRANCH   3   4
ATOM      4  C   UNL     1      31.704  55.096  27.376  1.00  0.00     0.041 C 
ATOM      5  O   UNL     1      30.733  55.895  27.437  1.00  0.00    -0.550 OA
ATOM      6  O   UNL     1      31.469  53.741  27.180  1.00  0.00    -0.550 OA
ENDBRANCH   3   4
ENDBRANCH   2   3
ENDBRANCH   1   2
BRANCH   1   7
ATOM      7  C   UNL     1      35.690  56.453  27.729  1.00  0.00     0.000 C 
BRANCH   7   8
ATOM      8  C   UNL     1      36.539  57.463  28.511  1.00  0.00    -0.000 C 
BRANCH   8   9
ATOM      9  C   UNL     1      35.758  58.033  29.702  1.00  0.00    -0.003 C 
ATOM     10  C   UNL     1      35.067  56.924  30.489  1.00  0.00     0.004 C 
ENDBRANCH   8   9
ENDBRANCH   7   8
ENDBRANCH   1   7
TORSDOF 6
ENDMDL
MODEL 9
REMARK VINA RESULT:    -4.083      2.823      4.668
REMARK INTER + INTRA:          -6.021
REMARK INTER:                  -5.764
REMARK INTRA:                  -0.257
REMARK UNBOUND:                -0.506
REMARK SMILES CCCCCCCC(=O)[O-]
REMARK SMILES IDX 5 1 6 2 7 3 8 4 9 5 10 6 4 7 3 8 2 9 1 10
REMARK H PARENT
REMARK Flexibility Score: inf
ROOT
ATOM      1  C   UNL     1      23.915  58.121  34.639  1.00  0.00     0.000 C 
ENDROOT
BRANCH   1   2
ATOM      2  C   UNL     1      23.621  58.399  33.157  1.00  0.00     0.006 C 
BRANCH   2   3
ATOM      3  C   UNL     1      23.438  57.113  32.340  1.00  0.00     0.053 C 
BRANCH   3   4
ATOM      4  C   UNL     1      22.071  56.546  32.559  1.00  0.00     0.041 C 
ATOM      5  O   UNL     1      21.076  57.041  31.966  1.00  0.00    -0.550 OA
ATOM      6  O   UNL     1      21.888  55.502  33.456  1.00  0.00    -0.550 OA
ENDBRANCH   3   4
ENDBRANCH   2   3
ENDBRANCH   1   2
BRANCH   1   7
ATOM      7  C   UNL     1      23.354  59.208  35.568  1.00  0.00     0.000 C 
BRANCH   7   8
ATOM      8  C   UNL     1      22.019  58.769  36.182  1.00  0.00    -0.000 C 
BRANCH   8   9
ATOM      9  C   UNL     1      21.952  59.135  37.670  1.00  0.00    -0.003 C 
ATOM     10  C   UNL     1      22.934  60.252  38.008  1.00  0.00     0.004 C 
ENDBRANCH   8   9
ENDBRANCH   7   8
ENDBRANCH   1   7
TORSDOF 6
ENDMDL
