MODEL 1
REMARK VINA RESULT:    -4.234      0.000      0.000
REMARK INTER + INTRA:          -4.234
REMARK INTER:                  -4.234
REMARK INTRA:                   0.000
REMARK UNBOUND:                 0.000
REMARK SMILES CC(C)=C1CC[C@@H](C)CC1=O
REMARK SMILES IDX 8 1 7 2 6 3 5 4 4 5 2 6 1 7 3 8 10 9 11 10 9 11
REMARK H PARENT
REMARK Flexibility Score: inf
ROOT
ATOM      1  C   UNL     1      -4.397  -5.679   2.716  1.00  0.00     0.008 C 
ATOM      2  C   UNL     1      -4.689  -4.602   3.767  1.00  0.00    -0.006 C 
ATOM      3  C   UNL     1      -3.384  -4.104   4.408  1.00  0.00     0.008 C 
ATOM      4  C   UNL     1      -3.647  -2.954   5.388  1.00  0.00     0.039 C 
ATOM      5  C   UNL     1      -4.711  -3.300   6.422  1.00  0.00    -0.006 C 
ATOM      6  C   UNL     1      -4.669  -2.783   7.685  1.00  0.00    -0.070 C 
ATOM      7  C   UNL     1      -5.686  -3.163   8.735  1.00  0.00     0.039 C 
ATOM      8  C   UNL     1      -3.573  -1.829   8.105  1.00  0.00     0.039 C 
ATOM      9  C   UNL     1      -5.849  -4.136   5.936  1.00  0.00     0.159 C 
ATOM     10  O   UNL     1      -7.007  -4.007   6.415  1.00  0.00    -0.295 OA
ATOM     11  C   UNL     1      -5.629  -5.149   4.850  1.00  0.00     0.084 C 
ENDROOT
TORSDOF 0
ENDMDL
MODEL 2
REMARK VINA RESULT:    -4.177      3.753      4.734
REMARK INTER + INTRA:          -4.177
REMARK INTER:                  -4.177
REMARK INTRA:                   0.000
REMARK UNBOUND:                 0.000
REMARK SMILES CC(C)=C1CC[C@@H](C)CC1=O
REMARK SMILES IDX 8 1 7 2 6 3 5 4 4 5 2 6 1 7 3 8 10 9 11 10 9 11
REMARK H PARENT
REMARK Flexibility Score: inf
ROOT
ATOM      1  C   UNL     1      -2.939  -1.988   1.046  1.00  0.00     0.008 C 
ATOM      2  C   UNL     1      -3.694  -2.959   1.961  1.00  0.00    -0.006 C 
ATOM      3  C   UNL     1      -2.773  -4.103   2.413  1.00  0.00     0.008 C 
ATOM      4  C   UNL     1      -3.481  -5.028   3.411  1.00  0.00     0.039 C 
ATOM      5  C   UNL     1      -4.824  -5.528   2.893  1.00  0.00    -0.006 C 
ATOM      6  C   UNL     1      -5.304  -6.759   3.236  1.00  0.00    -0.070 C 
ATOM      7  C   UNL     1      -6.607  -7.288   2.684  1.00  0.00     0.039 C 
ATOM      8  C   UNL     1      -4.530  -7.671   4.162  1.00  0.00     0.039 C 
ATOM      9  C   UNL     1      -5.621  -4.552   2.092  1.00  0.00     0.159 C 
ATOM     10  O   UNL     1      -6.881  -4.560   2.116  1.00  0.00    -0.295 OA
ATOM     11  C   UNL     1      -4.925  -3.529   1.242  1.00  0.00     0.084 C 
ENDROOT
TORSDOF 0
ENDMDL
MODEL 3
REMARK VINA RESULT:    -4.138     12.718     14.004
REMARK INTER + INTRA:          -4.138
REMARK INTER:                  -4.138
REMARK INTRA:                   0.000
REMARK UNBOUND:                 0.000
REMARK SMILES CC(C)=C1CC[C@@H](C)CC1=O
REMARK SMILES IDX 8 1 7 2 6 3 5 4 4 5 2 6 1 7 3 8 10 9 11 10 9 11
REMARK H PARENT
REMARK Flexibility Score: inf
ROOT
ATOM      1  C   UNL     1       2.251  -2.761  -4.212  1.00  0.00     0.008 C 
ATOM      2  C   UNL     1       2.693  -4.196  -3.907  1.00  0.00    -0.006 C 
ATOM      3  C   UNL     1       4.040  -4.201  -3.166  1.00  0.00     0.008 C 
ATOM      4  C   UNL     1       4.449  -5.623  -2.761  1.00  0.00     0.039 C 
ATOM      5  C   UNL     1       4.423  -6.595  -3.935  1.00  0.00    -0.006 C 
ATOM      6  C   UNL     1       5.290  -7.646  -4.005  1.00  0.00    -0.070 C 
ATOM      7  C   UNL     1       5.312  -8.583  -5.190  1.00  0.00     0.039 C 
ATOM      8  C   UNL     1       6.303  -7.902  -2.911  1.00  0.00     0.039 C 
ATOM      9  C   UNL     1       3.327  -6.392  -4.928  1.00  0.00     0.159 C 
ATOM     10  O   UNL     1       2.816  -7.365  -5.546  1.00  0.00    -0.295 OA
ATOM     11  C   UNL     1       2.804  -5.012  -5.202  1.00  0.00     0.084 C 
ENDROOT
TORSDOF 0
ENDMDL
MODEL 4
REMARK VINA RESULT:    -4.034     13.050     13.793
REMARK INTER + INTRA:          -4.034
REMARK INTER:                  -4.034
REMARK INTRA:                   0.000
REMARK UNBOUND:                 0.000
REMARK SMILES CC(C)=C1CC[C@@H](C)CC1=O
REMARK SMILES IDX 8 1 7 2 6 3 5 4 4 5 2 6 1 7 3 8 10 9 11 10 9 11
REMARK H PARENT
REMARK Flexibility Score: inf
ROOT
ATOM      1  C   UNL     1       6.826  -8.641  -2.493  1.00  0.00     0.008 C 
ATOM      2  C   UNL     1       5.452  -7.980  -2.653  1.00  0.00    -0.006 C 
ATOM      3  C   UNL     1       4.617  -8.715  -3.713  1.00  0.00     0.008 C 
ATOM      4  C   UNL     1       3.202  -8.131  -3.814  1.00  0.00     0.039 C 
ATOM      5  C   UNL     1       3.207  -6.621  -4.017  1.00  0.00    -0.006 C 
ATOM      6  C   UNL     1       2.227  -5.999  -4.735  1.00  0.00    -0.070 C 
ATOM      7  C   UNL     1       2.251  -4.510  -4.991  1.00  0.00     0.039 C 
ATOM      8  C   UNL     1       1.086  -6.781  -5.345  1.00  0.00     0.039 C 
ATOM      9  C   UNL     1       4.272  -5.866  -3.292  1.00  0.00     0.159 C 
ATOM     10  O   UNL     1       4.073  -4.694  -2.873  1.00  0.00    -0.295 OA
ATOM     11  C   UNL     1       5.608  -6.502  -3.040  1.00  0.00     0.084 C 
ENDROOT
TORSDOF 0
ENDMDL
MODEL 5
REMARK VINA RESULT:    -4.011     13.057     14.225
REMARK INTER + INTRA:          -4.011
REMARK INTER:                  -4.011
REMARK INTRA:                   0.000
REMARK UNBOUND:                 0.000
REMARK SMILES CC(C)=C1CC[C@@H](C)CC1=O
REMARK SMILES IDX 8 1 7 2 6 3 5 4 4 5 2 6 1 7 3 8 10 9 11 10 9 11
REMARK H PARENT
REMARK Flexibility Score: inf
ROOT
ATOM      1  C   UNL     1       6.551  -8.518  -2.402  1.00  0.00     0.008 C 
ATOM      2  C   UNL     1       5.905  -7.460  -3.306  1.00  0.00    -0.006 C 
ATOM      3  C   UNL     1       5.169  -6.406  -2.464  1.00  0.00     0.008 C 
ATOM      4  C   UNL     1       4.605  -5.284  -3.345  1.00  0.00     0.039 C 
ATOM      5  C   UNL     1       3.755  -5.814  -4.492  1.00  0.00    -0.006 C 
ATOM      6  C   UNL     1       2.694  -5.104  -4.977  1.00  0.00    -0.070 C 
ATOM      7  C   UNL     1       1.810  -5.645  -6.076  1.00  0.00     0.039 C 
ATOM      8  C   UNL     1       2.329  -3.752  -4.406  1.00  0.00     0.039 C 
ATOM      9  C   UNL     1       4.221  -7.086  -5.120  1.00  0.00     0.159 C 
ATOM     10  O   UNL     1       4.040  -7.316  -6.345  1.00  0.00    -0.295 OA
ATOM     11  C   UNL     1       4.930  -8.118  -4.292  1.00  0.00     0.084 C 
ENDROOT
TORSDOF 0
ENDMDL
MODEL 6
REMARK VINA RESULT:    -3.971      2.265      4.180
REMARK INTER + INTRA:          -3.971
REMARK INTER:                  -3.971
REMARK INTRA:                   0.000
REMARK UNBOUND:                 0.000
REMARK SMILES CC(C)=C1CC[C@@H](C)CC1=O
REMARK SMILES IDX 8 1 7 2 6 3 5 4 4 5 2 6 1 7 3 8 10 9 11 10 9 11
REMARK H PARENT
REMARK Flexibility Score: inf
ROOT
ATOM      1  C   UNL     1      -2.142  -4.941   3.890  1.00  0.00     0.008 C 
ATOM      2  C   UNL     1      -3.599  -5.381   4.072  1.00  0.00    -0.006 C 
ATOM      3  C   UNL     1      -4.248  -5.681   2.711  1.00  0.00     0.008 C 
ATOM      4  C   UNL     1      -5.674  -6.221   2.879  1.00  0.00     0.039 C 
ATOM      5  C   UNL     1      -6.539  -5.323   3.755  1.00  0.00    -0.006 C 
ATOM      6  C   UNL     1      -7.883  -5.211   3.547  1.00  0.00    -0.070 C 
ATOM      7  C   UNL     1      -8.742  -4.282   4.372  1.00  0.00     0.039 C 
ATOM      8  C   UNL     1      -8.574  -5.989   2.449  1.00  0.00     0.039 C 
ATOM      9  C   UNL     1      -5.850  -4.675   4.910  1.00  0.00     0.159 C 
ATOM     10  O   UNL     1      -6.460  -4.439   5.987  1.00  0.00    -0.295 OA
ATOM     11  C   UNL     1      -4.400  -4.298   4.808  1.00  0.00     0.084 C 
ENDROOT
TORSDOF 0
ENDMDL
MODEL 7
REMARK VINA RESULT:    -3.905      3.275      4.860
REMARK INTER + INTRA:          -3.905
REMARK INTER:                  -3.905
REMARK INTRA:                   0.000
REMARK UNBOUND:                 0.000
REMARK SMILES CC(C)=C1CC[C@@H](C)CC1=O
REMARK SMILES IDX 8 1 7 2 6 3 5 4 4 5 2 6 1 7 3 8 10 9 11 10 9 11
REMARK H PARENT
REMARK Flexibility Score: inf
ROOT
ATOM      1  C   UNL     1      -1.767  -5.156   4.146  1.00  0.00     0.008 C 
ATOM      2  C   UNL     1      -3.219  -4.728   3.901  1.00  0.00    -0.006 C 
ATOM      3  C   UNL     1      -4.191  -5.681   4.613  1.00  0.00     0.008 C 
ATOM      4  C   UNL     1      -5.643  -5.210   4.465  1.00  0.00     0.039 C 
ATOM      5  C   UNL     1      -6.030  -4.957   3.012  1.00  0.00    -0.006 C 
ATOM      6  C   UNL     1      -7.305  -5.161   2.571  1.00  0.00    -0.070 C 
ATOM      7  C   UNL     1      -7.687  -4.968   1.123  1.00  0.00     0.039 C 
ATOM      8  C   UNL     1      -8.394  -5.630   3.511  1.00  0.00     0.039 C 
ATOM      9  C   UNL     1      -4.966  -4.369   2.145  1.00  0.00     0.159 C 
ATOM     10  O   UNL     1      -5.252  -3.589   1.198  1.00  0.00    -0.295 OA
ATOM     11  C   UNL     1      -3.523  -4.696   2.397  1.00  0.00     0.084 C 
ENDROOT
TORSDOF 0
ENDMDL
MODEL 8
REMARK VINA RESULT:    -3.890      1.919      2.874
REMARK INTER + INTRA:          -3.890
REMARK INTER:                  -3.890
REMARK INTRA:                   0.000
REMARK UNBOUND:                 0.000
REMARK SMILES CC(C)=C1CC[C@@H](C)CC1=O
REMARK SMILES IDX 8 1 7 2 6 3 5 4 4 5 2 6 1 7 3 8 10 9 11 10 9 11
REMARK H PARENT
REMARK Flexibility Score: inf
ROOT
ATOM      1  C   UNL     1      -5.560  -8.376   2.068  1.00  0.00     0.008 C 
ATOM      2  C   UNL     1      -5.613  -6.997   2.735  1.00  0.00    -0.006 C 
ATOM      3  C   UNL     1      -4.685  -6.953   3.960  1.00  0.00     0.008 C 
ATOM      4  C   UNL     1      -4.646  -5.551   4.580  1.00  0.00     0.039 C 
ATOM      5  C   UNL     1      -6.037  -5.006   4.880  1.00  0.00    -0.006 C 
ATOM      6  C   UNL     1      -6.259  -4.167   5.933  1.00  0.00    -0.070 C 
ATOM      7  C   UNL     1      -7.643  -3.665   6.274  1.00  0.00     0.039 C 
ATOM      8  C   UNL     1      -5.129  -3.728   6.837  1.00  0.00     0.039 C 
ATOM      9  C   UNL     1      -7.102  -5.351   3.892  1.00  0.00     0.159 C 
ATOM     10  O   UNL     1      -8.054  -4.560   3.653  1.00  0.00    -0.295 OA
ATOM     11  C   UNL     1      -7.050  -6.657   3.153  1.00  0.00     0.084 C 
ENDROOT
TORSDOF 0
ENDMDL
MODEL 9
REMARK VINA RESULT:    -3.884      1.541      2.759
REMARK INTER + INTRA:          -3.884
REMARK INTER:                  -3.884
REMARK INTRA:                   0.000
REMARK UNBOUND:                 0.000
REMARK SMILES CC(C)=C1CC[C@@H](C)CC1=O
REMARK SMILES IDX 8 1 7 2 6 3 5 4 4 5 2 6 1 7 3 8 10 9 11 10 9 11
REMARK H PARENT
REMARK Flexibility Score: inf
ROOT
ATOM      1  C   UNL     1      -2.788  -4.355   2.966  1.00  0.00     0.008 C 
ATOM      2  C   UNL     1      -3.709  -4.484   4.184  1.00  0.00    -0.006 C 
ATOM      3  C   UNL     1      -5.150  -4.786   3.744  1.00  0.00     0.008 C 
ATOM      4  C   UNL     1      -6.066  -5.020   4.952  1.00  0.00     0.039 C 
ATOM      5  C   UNL     1      -5.990  -3.888   5.969  1.00  0.00    -0.006 C 
ATOM      6  C   UNL     1      -7.073  -3.539   6.724  1.00  0.00    -0.070 C 
ATOM      7  C   UNL     1      -7.027  -2.383   7.695  1.00  0.00     0.039 C 
ATOM      8  C   UNL     1      -8.388  -4.274   6.595  1.00  0.00     0.039 C 
ATOM      9  C   UNL     1      -4.644  -3.274   6.166  1.00  0.00     0.159 C 
ATOM     10  O   UNL     1      -4.291  -2.817   7.286  1.00  0.00    -0.295 OA
ATOM     11  C   UNL     1      -3.675  -3.198   5.021  1.00  0.00     0.084 C 
ENDROOT
TORSDOF 0
ENDMDL
