MODEL 1
REMARK VINA RESULT:    -4.232      0.000      0.000
REMARK INTER + INTRA:          -6.637
REMARK INTER:                  -6.211
REMARK INTRA:                  -0.427
REMARK UNBOUND:                -0.427
REMARK SMILES O=C([O-])CCCCCCCC(=O)[O-]
REMARK SMILES IDX 7 1 6 2 5 3 4 4 2 5 1 6 3 7 8 8 9 9 10 10 11 11 12 12 13 13
REMARK H PARENT
REMARK Flexibility Score: inf
ROOT
ATOM      1  C   UNL     1      12.099  -9.923  -4.472  1.00  0.00     0.000 C 
ENDROOT
BRANCH   1   2
ATOM      2  C   UNL     1      11.895 -10.563  -5.853  1.00  0.00     0.000 C 
BRANCH   2   3
ATOM      3  C   UNL     1      11.970  -9.508  -6.964  1.00  0.00     0.006 C 
BRANCH   3   4
ATOM      4  C   UNL     1      11.125  -9.920  -8.172  1.00  0.00     0.053 C 
BRANCH   4   5
ATOM      5  C   UNL     1       9.670  -9.908  -7.823  1.00  0.00     0.041 C 
ATOM      6  O   UNL     1       8.946 -10.902  -8.095  1.00  0.00    -0.550 OA
ATOM      7  O   UNL     1       9.103  -8.781  -7.243  1.00  0.00    -0.550 OA
ENDBRANCH   4   5
ENDBRANCH   3   4
ENDBRANCH   2   3
ENDBRANCH   1   2
BRANCH   1   8
ATOM      8  C   UNL     1      12.271  -8.395  -4.538  1.00  0.00     0.000 C 
BRANCH   8   9
ATOM      9  C   UNL     1      12.068  -7.656  -3.199  1.00  0.00     0.006 C 
BRANCH   9  10
ATOM     10  C   UNL     1      13.269  -6.811  -2.748  1.00  0.00     0.053 C 
BRANCH  10  11
ATOM     11  C   UNL     1      14.293  -7.633  -2.027  1.00  0.00     0.041 C 
ATOM     12  O   UNL     1      15.338  -8.009  -2.621  1.00  0.00    -0.550 OA
ATOM     13  O   UNL     1      14.077  -8.009  -0.708  1.00  0.00    -0.550 OA
ENDBRANCH  10  11
ENDBRANCH   9  10
ENDBRANCH   8   9
ENDBRANCH   1   8
TORSDOF 8
ENDMDL
MODEL 2
REMARK VINA RESULT:    -4.200     12.661     14.786
REMARK INTER + INTRA:          -6.591
REMARK INTER:                  -6.268
REMARK INTRA:                  -0.323
REMARK UNBOUND:                -0.427
REMARK SMILES O=C([O-])CCCCCCCC(=O)[O-]
REMARK SMILES IDX 7 1 6 2 5 3 4 4 2 5 1 6 3 7 8 8 9 9 10 10 11 11 12 12 13 13
REMARK H PARENT
REMARK Flexibility Score: inf
ROOT
ATOM      1  C   UNL     1       3.600 -17.763   0.249  1.00  0.00     0.000 C 
ENDROOT
BRANCH   1   2
ATOM      2  C   UNL     1       4.445 -18.684   1.143  1.00  0.00     0.000 C 
BRANCH   2   3
ATOM      3  C   UNL     1       3.706 -19.013   2.446  1.00  0.00     0.006 C 
BRANCH   3   4
ATOM      4  C   UNL     1       4.486 -18.509   3.663  1.00  0.00     0.053 C 
BRANCH   4   5
ATOM      5  C   UNL     1       4.150 -17.079   3.945  1.00  0.00     0.041 C 
ATOM      6  O   UNL     1       4.943 -16.361   4.610  1.00  0.00    -0.550 OA
ATOM      7  O   UNL     1       2.938 -16.551   3.517  1.00  0.00    -0.550 OA
ENDBRANCH   4   5
ENDBRANCH   3   4
ENDBRANCH   2   3
ENDBRANCH   1   2
BRANCH   1   8
ATOM      8  C   UNL     1       4.123 -17.685  -1.196  1.00  0.00     0.000 C 
BRANCH   8   9
ATOM      9  C   UNL     1       3.121 -17.119  -2.224  1.00  0.00     0.006 C 
BRANCH   9  10
ATOM     10  C   UNL     1       2.292 -18.184  -2.958  1.00  0.00     0.053 C 
BRANCH  10  11
ATOM     11  C   UNL     1       3.125 -18.981  -3.915  1.00  0.00     0.041 C 
ATOM     12  O   UNL     1       3.476 -18.484  -5.017  1.00  0.00    -0.550 OA
ATOM     13  O   UNL     1       3.485 -20.285  -3.602  1.00  0.00    -0.550 OA
ENDBRANCH  10  11
ENDBRANCH   9  10
ENDBRANCH   8   9
ENDBRANCH   1   8
TORSDOF 8
ENDMDL
MODEL 3
REMARK VINA RESULT:    -4.171     12.986     14.886
REMARK INTER + INTRA:          -6.549
REMARK INTER:                  -6.195
REMARK INTRA:                  -0.354
REMARK UNBOUND:                -0.427
REMARK SMILES O=C([O-])CCCCCCCC(=O)[O-]
REMARK SMILES IDX 7 1 6 2 5 3 4 4 2 5 1 6 3 7 8 8 9 9 10 10 11 11 12 12 13 13
REMARK H PARENT
REMARK Flexibility Score: inf
ROOT
ATOM      1  C   UNL     1       5.035 -15.840   3.634  1.00  0.00     0.000 C 
ENDROOT
BRANCH   1   2
ATOM      2  C   UNL     1       6.230 -16.339   4.460  1.00  0.00     0.000 C 
BRANCH   2   3
ATOM      3  C   UNL     1       6.895 -15.183   5.217  1.00  0.00     0.006 C 
BRANCH   3   4
ATOM      4  C   UNL     1       7.503 -15.668   6.536  1.00  0.00     0.053 C 
BRANCH   4   5
ATOM      5  C   UNL     1       8.531 -14.699   7.026  1.00  0.00     0.041 C 
ATOM      6  O   UNL     1       9.703 -15.090   7.273  1.00  0.00    -0.550 OA
ATOM      7  O   UNL     1       8.185 -13.374   7.258  1.00  0.00    -0.550 OA
ENDBRANCH   4   5
ENDBRANCH   3   4
ENDBRANCH   2   3
ENDBRANCH   1   2
BRANCH   1   8
ATOM      8  C   UNL     1       3.819 -16.782   3.708  1.00  0.00     0.000 C 
BRANCH   8   9
ATOM      9  C   UNL     1       4.158 -18.287   3.696  1.00  0.00     0.006 C 
BRANCH   9  10
ATOM     10  C   UNL     1       3.699 -19.034   2.434  1.00  0.00     0.053 C 
BRANCH  10  11
ATOM     11  C   UNL     1       4.235 -18.405   1.185  1.00  0.00     0.041 C 
ATOM     12  O   UNL     1       5.477 -18.266   1.027  1.00  0.00    -0.550 OA
ATOM     13  O   UNL     1       3.362 -17.943   0.209  1.00  0.00    -0.550 OA
ENDBRANCH  10  11
ENDBRANCH   9  10
ENDBRANCH   8   9
ENDBRANCH   1   8
TORSDOF 8
ENDMDL
MODEL 4
REMARK VINA RESULT:    -4.143     10.223     11.785
REMARK INTER + INTRA:          -6.507
REMARK INTER:                  -6.081
REMARK INTRA:                  -0.426
REMARK UNBOUND:                -0.427
REMARK SMILES O=C([O-])CCCCCCCC(=O)[O-]
REMARK SMILES IDX 7 1 6 2 5 3 4 4 2 5 1 6 3 7 8 8 9 9 10 10 11 11 12 12 13 13
REMARK H PARENT
REMARK Flexibility Score: inf
ROOT
ATOM      1  C   UNL     1       8.705 -11.887   6.124  1.00  0.00     0.000 C 
ENDROOT
BRANCH   1   2
ATOM      2  C   UNL     1       8.132 -12.977   7.042  1.00  0.00     0.000 C 
BRANCH   2   3
ATOM      3  C   UNL     1       8.844 -14.316   6.816  1.00  0.00     0.006 C 
BRANCH   3   4
ATOM      4  C   UNL     1       7.836 -15.458   6.666  1.00  0.00     0.053 C 
BRANCH   4   5
ATOM      5  C   UNL     1       7.416 -15.603   5.238  1.00  0.00     0.041 C 
ATOM      6  O   UNL     1       6.237 -15.943   4.956  1.00  0.00    -0.550 OA
ATOM      7  O   UNL     1       8.340 -15.412   4.218  1.00  0.00    -0.550 OA
ENDBRANCH   4   5
ENDBRANCH   3   4
ENDBRANCH   2   3
ENDBRANCH   1   2
BRANCH   1   8
ATOM      8  C   UNL     1       9.898 -12.377   5.284  1.00  0.00     0.000 C 
BRANCH   8   9
ATOM      9  C   UNL     1      10.757 -11.259   4.656  1.00  0.00     0.006 C 
BRANCH   9  10
ATOM     10  C   UNL     1      12.049 -10.940   5.424  1.00  0.00     0.053 C 
BRANCH  10  11
ATOM     11  C   UNL     1      12.842  -9.856   4.760  1.00  0.00     0.041 C 
ATOM     12  O   UNL     1      14.090  -9.970   4.634  1.00  0.00    -0.550 OA
ATOM     13  O   UNL     1      12.207  -8.706   4.311  1.00  0.00    -0.550 OA
ENDBRANCH  10  11
ENDBRANCH   9  10
ENDBRANCH   8   9
ENDBRANCH   1   8
TORSDOF 8
ENDMDL
MODEL 5
REMARK VINA RESULT:    -4.134      1.575      6.604
REMARK INTER + INTRA:          -6.494
REMARK INTER:                  -6.080
REMARK INTRA:                  -0.414
REMARK UNBOUND:                -0.427
REMARK SMILES O=C([O-])CCCCCCCC(=O)[O-]
REMARK SMILES IDX 7 1 6 2 5 3 4 4 2 5 1 6 3 7 8 8 9 9 10 10 11 11 12 12 13 13
REMARK H PARENT
REMARK Flexibility Score: inf
ROOT
ATOM      1  C   UNL     1      12.228  -8.048  -3.874  1.00  0.00     0.000 C 
ENDROOT
BRANCH   1   2
ATOM      2  C   UNL     1      13.206  -7.250  -2.999  1.00  0.00     0.000 C 
BRANCH   2   3
ATOM      3  C   UNL     1      14.274  -8.169  -2.391  1.00  0.00     0.006 C 
BRANCH   3   4
ATOM      4  C   UNL     1      14.394  -7.949  -0.880  1.00  0.00     0.053 C 
BRANCH   4   5
ATOM      5  C   UNL     1      13.430  -8.824  -0.145  1.00  0.00     0.041 C 
ATOM      6  O   UNL     1      13.074  -9.928  -0.636  1.00  0.00    -0.550 OA
ATOM      7  O   UNL     1      12.884  -8.400   1.060  1.00  0.00    -0.550 OA
ENDBRANCH   4   5
ENDBRANCH   3   4
ENDBRANCH   2   3
ENDBRANCH   1   2
BRANCH   1   8
ATOM      8  C   UNL     1      12.779  -9.425  -4.287  1.00  0.00     0.000 C 
BRANCH   8   9
ATOM      9  C   UNL     1      12.058 -10.086  -5.480  1.00  0.00     0.006 C 
BRANCH   9  10
ATOM     10  C   UNL     1      12.253  -9.363  -6.822  1.00  0.00     0.053 C 
BRANCH  10  11
ATOM     11  C   UNL     1      11.521 -10.045  -7.937  1.00  0.00     0.041 C 
ATOM     12  O   UNL     1      12.033 -11.039  -8.517  1.00  0.00    -0.550 OA
ATOM     13  O   UNL     1      10.289  -9.563  -8.357  1.00  0.00    -0.550 OA
ENDBRANCH  10  11
ENDBRANCH   9  10
ENDBRANCH   8   9
ENDBRANCH   1   8
TORSDOF 8
ENDMDL
MODEL 6
REMARK VINA RESULT:    -4.127      0.550      6.595
REMARK INTER + INTRA:          -6.484
REMARK INTER:                  -6.095
REMARK INTRA:                  -0.389
REMARK UNBOUND:                -0.427
REMARK SMILES O=C([O-])CCCCCCCC(=O)[O-]
REMARK SMILES IDX 7 1 6 2 5 3 4 4 2 5 1 6 3 7 8 8 9 9 10 10 11 11 12 12 13 13
REMARK H PARENT
REMARK Flexibility Score: inf
ROOT
ATOM      1  C   UNL     1      12.610  -9.629  -4.612  1.00  0.00     0.000 C 
ENDROOT
BRANCH   1   2
ATOM      2  C   UNL     1      11.732  -8.503  -4.045  1.00  0.00     0.000 C 
BRANCH   2   3
ATOM      3  C   UNL     1      12.593  -7.338  -3.540  1.00  0.00     0.006 C 
BRANCH   3   4
ATOM      4  C   UNL     1      12.709  -7.362  -2.013  1.00  0.00     0.053 C 
BRANCH   4   5
ATOM      5  C   UNL     1      14.050  -7.876  -1.598  1.00  0.00     0.041 C 
ATOM      6  O   UNL     1      15.045  -7.737  -2.357  1.00  0.00    -0.550 OA
ATOM      7  O   UNL     1      14.193  -8.553  -0.393  1.00  0.00    -0.550 OA
ENDBRANCH   4   5
ENDBRANCH   3   4
ENDBRANCH   2   3
ENDBRANCH   1   2
BRANCH   1   8
ATOM      8  C   UNL     1      11.990 -10.308  -5.847  1.00  0.00     0.000 C 
BRANCH   8   9
ATOM      9  C   UNL     1      12.154  -9.530  -7.170  1.00  0.00     0.006 C 
BRANCH   9  10
ATOM     10  C   UNL     1      11.226  -9.997  -8.303  1.00  0.00     0.053 C 
BRANCH  10  11
ATOM     11  C   UNL     1       9.784  -9.958  -7.898  1.00  0.00     0.041 C 
ATOM     12  O   UNL     1       9.254  -8.872  -7.544  1.00  0.00    -0.550 OA
ATOM     13  O   UNL     1       9.036 -11.128  -7.880  1.00  0.00    -0.550 OA
ENDBRANCH  10  11
ENDBRANCH   9  10
ENDBRANCH   8   9
ENDBRANCH   1   8
TORSDOF 8
ENDMDL
MODEL 7
REMARK VINA RESULT:    -4.124     12.711     14.663
REMARK INTER + INTRA:          -6.480
REMARK INTER:                  -6.120
REMARK INTRA:                  -0.360
REMARK UNBOUND:                -0.427
REMARK SMILES O=C([O-])CCCCCCCC(=O)[O-]
REMARK SMILES IDX 7 1 6 2 5 3 4 4 2 5 1 6 3 7 8 8 9 9 10 10 11 11 12 12 13 13
REMARK H PARENT
REMARK Flexibility Score: inf
ROOT
ATOM      1  C   UNL     1       7.027 -16.380   4.241  1.00  0.00     0.000 C 
ENDROOT
BRANCH   1   2
ATOM      2  C   UNL     1       7.114 -15.820   5.669  1.00  0.00     0.000 C 
BRANCH   2   3
ATOM      3  C   UNL     1       8.508 -15.246   5.950  1.00  0.00     0.006 C 
BRANCH   3   4
ATOM      4  C   UNL     1       8.464 -14.227   7.092  1.00  0.00     0.053 C 
BRANCH   4   5
ATOM      5  C   UNL     1       8.291 -12.843   6.554  1.00  0.00     0.041 C 
ATOM      6  O   UNL     1       7.163 -12.285   6.590  1.00  0.00    -0.550 OA
ATOM      7  O   UNL     1       9.365 -12.186   5.966  1.00  0.00    -0.550 OA
ENDBRANCH   4   5
ENDBRANCH   3   4
ENDBRANCH   2   3
ENDBRANCH   1   2
BRANCH   1   8
ATOM      8  C   UNL     1       5.665 -16.116   3.575  1.00  0.00     0.000 C 
BRANCH   8   9
ATOM      9  C   UNL     1       4.438 -16.560   4.399  1.00  0.00     0.006 C 
BRANCH   9  10
ATOM     10  C   UNL     1       3.451 -17.459   3.638  1.00  0.00     0.053 C 
BRANCH  10  11
ATOM     11  C   UNL     1       4.119 -18.678   3.080  1.00  0.00     0.041 C 
ATOM     12  O   UNL     1       4.063 -18.923   1.846  1.00  0.00    -0.550 OA
ATOM     13  O   UNL     1       4.775 -19.560   3.928  1.00  0.00    -0.550 OA
ENDBRANCH  10  11
ENDBRANCH   9  10
ENDBRANCH   8   9
ENDBRANCH   1   8
TORSDOF 8
ENDMDL
MODEL 8
REMARK VINA RESULT:    -4.102     10.165     12.581
REMARK INTER + INTRA:          -6.447
REMARK INTER:                  -6.022
REMARK INTRA:                  -0.425
REMARK UNBOUND:                -0.427
REMARK SMILES O=C([O-])CCCCCCCC(=O)[O-]
REMARK SMILES IDX 7 1 6 2 5 3 4 4 2 5 1 6 3 7 8 8 9 9 10 10 11 11 12 12 13 13
REMARK H PARENT
REMARK Flexibility Score: inf
ROOT
ATOM      1  C   UNL     1       9.012 -11.871   5.954  1.00  0.00     0.000 C 
ENDROOT
BRANCH   1   2
ATOM      2  C   UNL     1      10.157 -12.524   5.165  1.00  0.00     0.000 C 
BRANCH   2   3
ATOM      3  C   UNL     1      11.414 -11.646   5.194  1.00  0.00     0.006 C 
BRANCH   3   4
ATOM      4  C   UNL     1      11.231 -10.395   4.330  1.00  0.00     0.053 C 
BRANCH   4   5
ATOM      5  C   UNL     1      12.402  -9.477   4.483  1.00  0.00     0.041 C 
ATOM      6  O   UNL     1      12.297  -8.260   4.174  1.00  0.00    -0.550 OA
ATOM      7  O   UNL     1      13.623  -9.973   4.921  1.00  0.00    -0.550 OA
ENDBRANCH   4   5
ENDBRANCH   3   4
ENDBRANCH   2   3
ENDBRANCH   1   2
BRANCH   1   8
ATOM      8  C   UNL     1       8.044 -12.899   6.567  1.00  0.00     0.000 C 
BRANCH   8   9
ATOM      9  C   UNL     1       8.704 -14.200   7.070  1.00  0.00     0.006 C 
BRANCH   9  10
ATOM     10  C   UNL     1       7.874 -15.470   6.829  1.00  0.00     0.053 C 
BRANCH  10  11
ATOM     11  C   UNL     1       7.449 -15.599   5.398  1.00  0.00     0.041 C 
ATOM     12  O   UNL     1       6.227 -15.672   5.104  1.00  0.00    -0.550 OA
ATOM     13  O   UNL     1       8.405 -15.671   4.393  1.00  0.00    -0.550 OA
ENDBRANCH  10  11
ENDBRANCH   9  10
ENDBRANCH   8   9
ENDBRANCH   1   8
TORSDOF 8
ENDMDL
MODEL 9
REMARK VINA RESULT:    -4.073      4.478      8.409
REMARK INTER + INTRA:          -6.405
REMARK INTER:                  -6.088
REMARK INTRA:                  -0.317
REMARK UNBOUND:                -0.427
REMARK SMILES O=C([O-])CCCCCCCC(=O)[O-]
REMARK SMILES IDX 7 1 6 2 5 3 4 4 2 5 1 6 3 7 8 8 9 9 10 10 11 11 12 12 13 13
REMARK H PARENT
REMARK Flexibility Score: inf
ROOT
ATOM      1  C   UNL     1      12.628  -8.747   0.402  1.00  0.00     0.000 C 
ENDROOT
BRANCH   1   2
ATOM      2  C   UNL     1      12.625  -9.471   1.757  1.00  0.00     0.000 C 
BRANCH   2   3
ATOM      3  C   UNL     1      11.707  -8.758   2.758  1.00  0.00     0.006 C 
BRANCH   3   4
ATOM      4  C   UNL     1      12.454  -8.428   4.052  1.00  0.00     0.053 C 
BRANCH   4   5
ATOM      5  C   UNL     1      12.970  -9.677   4.693  1.00  0.00     0.041 C 
ATOM      6  O   UNL     1      14.210  -9.874   4.790  1.00  0.00    -0.550 OA
ATOM      7  O   UNL     1      12.082 -10.648   5.140  1.00  0.00    -0.550 OA
ENDBRANCH   4   5
ENDBRANCH   3   4
ENDBRANCH   2   3
ENDBRANCH   1   2
BRANCH   1   8
ATOM      8  C   UNL     1      14.047  -8.485  -0.134  1.00  0.00     0.000 C 
BRANCH   8   9
ATOM      9  C   UNL     1      14.205  -8.633  -1.662  1.00  0.00     0.006 C 
BRANCH   9  10
ATOM     10  C   UNL     1      13.982  -7.337  -2.455  1.00  0.00     0.053 C 
BRANCH  10  11
ATOM     11  C   UNL     1      12.606  -7.270  -3.043  1.00  0.00     0.041 C 
ATOM     12  O   UNL     1      12.367  -7.798  -4.161  1.00  0.00    -0.550 OA
ATOM     13  O   UNL     1      11.595  -6.595  -2.371  1.00  0.00    -0.550 OA
ENDBRANCH  10  11
ENDBRANCH   9  10
ENDBRANCH   8   9
ENDBRANCH   1   8
TORSDOF 8
ENDMDL
