MODEL 1
REMARK VINA RESULT:    -6.952      0.000      0.000
REMARK INTER + INTRA:          -8.430
REMARK INTER:                  -8.171
REMARK INTRA:                  -0.259
REMARK UNBOUND:                -0.259
REMARK SMILES O=c1c(O)c(-c2ccc(O)cc2)oc2cc(O)cc(O)c12
REMARK SMILES IDX 5 1 3 2 2 3 1 4 21 5 19 6 18 7 16 8 15 9 14 10 13 11 6 12
REMARK SMILES IDX 7 13 8 14 9 15 12 16 11 17 10 18 4 20 20 22 17 24
REMARK H PARENT 10 19 4 21 20 23 17 25
REMARK Flexibility Score: inf
ROOT
ATOM      1  C   UNL     1      23.710 -33.273  -8.940  1.00  0.00     0.180 A 
ATOM      2  C   UNL     1      22.722 -33.506  -7.968  1.00  0.00     0.208 A 
ATOM      3  C   UNL     1      22.131 -34.778  -7.890  1.00  0.00     0.238 A 
ATOM      4  O   UNL     1      21.209 -34.965  -7.054  1.00  0.00    -0.285 OA
ATOM      5  C   UNL     1      22.546 -35.804  -8.773  1.00  0.00     0.111 A 
ATOM      6  C   UNL     1      22.045 -37.140  -8.756  1.00  0.00     0.134 A 
ATOM      7  C   UNL     1      22.432 -38.036  -9.760  1.00  0.00     0.093 A 
ATOM      8  C   UNL     1      23.352 -37.665 -10.741  1.00  0.00     0.123 A 
ATOM      9  C   UNL     1      23.895 -36.379 -10.731  1.00  0.00     0.094 A 
ATOM     10  C   UNL     1      23.500 -35.452  -9.763  1.00  0.00     0.146 A 
ATOM     11  O   UNL     1      24.032 -34.235  -9.796  1.00  0.00    -0.452 OA
ENDROOT
BRANCH   1  12
ATOM     12  C   UNL     1      24.396 -31.967  -9.068  1.00  0.00     0.021 A 
ATOM     13  C   UNL     1      23.768 -30.921  -9.765  1.00  0.00     0.016 A 
ATOM     14  C   UNL     1      24.408 -29.687  -9.917  1.00  0.00     0.047 A 
ATOM     15  C   UNL     1      25.689 -29.489  -9.387  1.00  0.00     0.115 A 
ATOM     16  C   UNL     1      25.692 -31.766  -8.556  1.00  0.00     0.016 A 
ATOM     17  C   UNL     1      26.329 -30.531  -8.711  1.00  0.00     0.047 A 
BRANCH  15  18
ATOM     18  O   UNL     1      26.337 -28.263  -9.532  1.00  0.00    -0.508 OA
ATOM     19  H   UNL     1      27.289 -28.127  -9.213  1.00  0.00     0.293 HD
ENDBRANCH  15  18
ENDBRANCH   1  12
BRANCH   2  20
ATOM     20  O   UNL     1      22.311 -32.474  -7.122  1.00  0.00    -0.502 OA
ATOM     21  H   UNL     1      22.594 -31.511  -7.259  1.00  0.00     0.293 HD
ENDBRANCH   2  20
BRANCH   6  22
ATOM     22  O   UNL     1      21.192 -37.641  -7.768  1.00  0.00    -0.507 OA
ATOM     23  H   UNL     1      20.733 -38.538  -7.806  1.00  0.00     0.293 HD
ENDBRANCH   6  22
BRANCH   8  24
ATOM     24  O   UNL     1      23.728 -38.587 -11.715  1.00  0.00    -0.508 OA
ATOM     25  H   UNL     1      23.186 -39.425 -11.889  1.00  0.00     0.293 HD
ENDBRANCH   8  24
TORSDOF 5
ENDMDL
MODEL 2
REMARK VINA RESULT:    -6.843      3.124      7.117
REMARK INTER + INTRA:          -8.302
REMARK INTER:                  -8.145
REMARK INTRA:                  -0.158
REMARK UNBOUND:                -0.259
REMARK SMILES O=c1c(O)c(-c2ccc(O)cc2)oc2cc(O)cc(O)c12
REMARK SMILES IDX 5 1 3 2 2 3 1 4 21 5 19 6 18 7 16 8 15 9 14 10 13 11 6 12
REMARK SMILES IDX 7 13 8 14 9 15 12 16 11 17 10 18 4 20 20 22 17 24
REMARK H PARENT 10 19 4 21 20 23 17 25
REMARK Flexibility Score: inf
ROOT
ATOM      1  C   UNL     1      20.423 -36.754  -7.498  1.00  0.00     0.180 A 
ATOM      2  C   UNL     1      20.829 -35.425  -7.292  1.00  0.00     0.208 A 
ATOM      3  C   UNL     1      21.845 -34.891  -8.102  1.00  0.00     0.238 A 
ATOM      4  O   UNL     1      22.242 -33.718  -7.878  1.00  0.00    -0.285 OA
ATOM      5  C   UNL     1      22.429 -35.687  -9.117  1.00  0.00     0.111 A 
ATOM      6  C   UNL     1      23.436 -35.236 -10.021  1.00  0.00     0.134 A 
ATOM      7  C   UNL     1      24.034 -36.147 -10.900  1.00  0.00     0.093 A 
ATOM      8  C   UNL     1      23.617 -37.477 -10.952  1.00  0.00     0.123 A 
ATOM      9  C   UNL     1      22.591 -37.915 -10.113  1.00  0.00     0.094 A 
ATOM     10  C   UNL     1      21.999 -37.037  -9.201  1.00  0.00     0.146 A 
ATOM     11  O   UNL     1      21.034 -37.496  -8.413  1.00  0.00    -0.452 OA
ENDROOT
BRANCH   1  12
ATOM     12  C   UNL     1      19.342 -37.380  -6.701  1.00  0.00     0.021 A 
ATOM     13  C   UNL     1      19.629 -38.505  -5.909  1.00  0.00     0.016 A 
ATOM     14  C   UNL     1      18.619 -39.124  -5.167  1.00  0.00     0.047 A 
ATOM     15  C   UNL     1      17.307 -38.635  -5.219  1.00  0.00     0.115 A 
ATOM     16  C   UNL     1      18.018 -36.907  -6.763  1.00  0.00     0.016 A 
ATOM     17  C   UNL     1      17.010 -37.530  -6.020  1.00  0.00     0.047 A 
BRANCH  15  18
ATOM     18  O   UNL     1      16.292 -39.244  -4.483  1.00  0.00    -0.508 OA
ATOM     19  H   UNL     1      16.499 -39.848  -3.695  1.00  0.00     0.293 HD
ENDBRANCH  15  18
ENDBRANCH   1  12
BRANCH   2  20
ATOM     20  O   UNL     1      20.256 -34.664  -6.271  1.00  0.00    -0.502 OA
ATOM     21  H   UNL     1      19.646 -35.066  -5.567  1.00  0.00     0.293 HD
ENDBRANCH   2  20
BRANCH   6  22
ATOM     22  O   UNL     1      23.862 -33.907 -10.116  1.00  0.00    -0.507 OA
ATOM     23  H   UNL     1      24.180 -33.349  -9.339  1.00  0.00     0.293 HD
ENDBRANCH   6  22
BRANCH   8  24
ATOM     24  O   UNL     1      24.223 -38.354 -11.849  1.00  0.00    -0.508 OA
ATOM     25  H   UNL     1      24.483 -39.294 -11.578  1.00  0.00     0.293 HD
ENDBRANCH   8  24
TORSDOF 5
ENDMDL
MODEL 3
REMARK VINA RESULT:    -6.789      3.150      7.103
REMARK INTER + INTRA:          -8.238
REMARK INTER:                  -7.990
REMARK INTRA:                  -0.249
REMARK UNBOUND:                -0.259
REMARK SMILES O=c1c(O)c(-c2ccc(O)cc2)oc2cc(O)cc(O)c12
REMARK SMILES IDX 5 1 3 2 2 3 1 4 21 5 19 6 18 7 16 8 15 9 14 10 13 11 6 12
REMARK SMILES IDX 7 13 8 14 9 15 12 16 11 17 10 18 4 20 20 22 17 24
REMARK H PARENT 10 19 4 21 20 23 17 25
REMARK Flexibility Score: inf
ROOT
ATOM      1  C   UNL     1      20.467 -36.951  -7.510  1.00  0.00     0.180 A 
ATOM      2  C   UNL     1      20.918 -35.658  -7.194  1.00  0.00     0.208 A 
ATOM      3  C   UNL     1      21.963 -35.099  -7.947  1.00  0.00     0.238 A 
ATOM      4  O   UNL     1      22.400 -33.963  -7.625  1.00  0.00    -0.285 OA
ATOM      5  C   UNL     1      22.534 -35.833  -9.015  1.00  0.00     0.111 A 
ATOM      6  C   UNL     1      23.569 -35.349  -9.869  1.00  0.00     0.134 A 
ATOM      7  C   UNL     1      24.148 -36.210 -10.810  1.00  0.00     0.093 A 
ATOM      8  C   UNL     1      23.683 -37.515 -10.972  1.00  0.00     0.123 A 
ATOM      9  C   UNL     1      22.630 -37.980 -10.184  1.00  0.00     0.094 A 
ATOM     10  C   UNL     1      22.057 -37.155  -9.212  1.00  0.00     0.146 A 
ATOM     11  O   UNL     1      21.065 -37.640  -8.474  1.00  0.00    -0.452 OA
ENDROOT
BRANCH   1  12
ATOM     12  C   UNL     1      19.352 -37.597  -6.778  1.00  0.00     0.021 A 
ATOM     13  C   UNL     1      18.029 -37.216  -7.057  1.00  0.00     0.016 A 
ATOM     14  C   UNL     1      16.964 -37.797  -6.362  1.00  0.00     0.047 A 
ATOM     15  C   UNL     1      17.210 -38.754  -5.369  1.00  0.00     0.115 A 
ATOM     16  C   UNL     1      19.592 -38.544  -5.766  1.00  0.00     0.016 A 
ATOM     17  C   UNL     1      18.525 -39.122  -5.072  1.00  0.00     0.047 A 
BRANCH  15  18
ATOM     18  O   UNL     1      16.157 -39.340  -4.670  1.00  0.00    -0.508 OA
ATOM     19  H   UNL     1      15.739 -40.211  -4.976  1.00  0.00     0.293 HD
ENDBRANCH  15  18
ENDBRANCH   1  12
BRANCH   2  20
ATOM     20  O   UNL     1      20.357 -34.959  -6.122  1.00  0.00    -0.502 OA
ATOM     21  H   UNL     1      19.404 -35.111  -5.811  1.00  0.00     0.293 HD
ENDBRANCH   2  20
BRANCH   6  22
ATOM     22  O   UNL     1      24.044 -34.034  -9.852  1.00  0.00    -0.507 OA
ATOM     23  H   UNL     1      23.741 -33.322  -9.205  1.00  0.00     0.293 HD
ENDBRANCH   6  22
BRANCH   8  24
ATOM     24  O   UNL     1      24.271 -38.339 -11.930  1.00  0.00    -0.508 OA
ATOM     25  H   UNL     1      24.844 -39.132 -11.667  1.00  0.00     0.293 HD
ENDBRANCH   8  24
TORSDOF 5
ENDMDL
MODEL 4
REMARK VINA RESULT:    -6.741      3.054      6.357
REMARK INTER + INTRA:          -8.182
REMARK INTER:                  -7.916
REMARK INTRA:                  -0.266
REMARK UNBOUND:                -0.259
REMARK SMILES O=c1c(O)c(-c2ccc(O)cc2)oc2cc(O)cc(O)c12
REMARK SMILES IDX 5 1 3 2 2 3 1 4 21 5 19 6 18 7 16 8 15 9 14 10 13 11 6 12
REMARK SMILES IDX 7 13 8 14 9 15 12 16 11 17 10 18 4 20 20 22 17 24
REMARK H PARENT 10 19 4 21 20 23 17 25
REMARK Flexibility Score: inf
ROOT
ATOM      1  C   UNL     1      22.081 -34.137  -9.277  1.00  0.00     0.180 A 
ATOM      2  C   UNL     1      22.211 -33.875  -7.902  1.00  0.00     0.208 A 
ATOM      3  C   UNL     1      21.633 -32.710  -7.374  1.00  0.00     0.238 A 
ATOM      4  O   UNL     1      21.799 -32.453  -6.153  1.00  0.00    -0.285 OA
ATOM      5  C   UNL     1      20.920 -31.829  -8.223  1.00  0.00     0.111 A 
ATOM      6  C   UNL     1      20.260 -30.642  -7.788  1.00  0.00     0.134 A 
ATOM      7  C   UNL     1      19.696 -29.778  -8.735  1.00  0.00     0.093 A 
ATOM      8  C   UNL     1      19.710 -30.092 -10.094  1.00  0.00     0.123 A 
ATOM      9  C   UNL     1      20.300 -31.280 -10.525  1.00  0.00     0.094 A 
ATOM     10  C   UNL     1      20.903 -32.145  -9.607  1.00  0.00     0.146 A 
ATOM     11  O   UNL     1      21.463 -33.260 -10.059  1.00  0.00    -0.452 OA
ENDROOT
BRANCH   1  12
ATOM     12  C   UNL     1      22.642 -35.357  -9.903  1.00  0.00     0.021 A 
ATOM     13  C   UNL     1      23.814 -35.264 -10.671  1.00  0.00     0.016 A 
ATOM     14  C   UNL     1      24.348 -36.398 -11.290  1.00  0.00     0.047 A 
ATOM     15  C   UNL     1      23.707 -37.637 -11.160  1.00  0.00     0.115 A 
ATOM     16  C   UNL     1      21.993 -36.601  -9.795  1.00  0.00     0.016 A 
ATOM     17  C   UNL     1      22.528 -37.734 -10.416  1.00  0.00     0.047 A 
BRANCH  15  18
ATOM     18  O   UNL     1      24.229 -38.775 -11.772  1.00  0.00    -0.508 OA
ATOM     19  H   UNL     1      23.628 -39.525 -12.095  1.00  0.00     0.293 HD
ENDBRANCH  15  18
ENDBRANCH   1  12
BRANCH   2  20
ATOM     20  O   UNL     1      22.938 -34.745  -7.087  1.00  0.00    -0.502 OA
ATOM     21  H   UNL     1      22.756 -34.843  -6.094  1.00  0.00     0.293 HD
ENDBRANCH   2  20
BRANCH   6  22
ATOM     22  O   UNL     1      20.108 -30.280  -6.445  1.00  0.00    -0.507 OA
ATOM     23  H   UNL     1      20.470 -29.434  -6.034  1.00  0.00     0.293 HD
ENDBRANCH   6  22
BRANCH   8  24
ATOM     24  O   UNL     1      19.125 -29.218 -11.007  1.00  0.00    -0.508 OA
ATOM     25  H   UNL     1      19.685 -28.634 -11.616  1.00  0.00     0.293 HD
ENDBRANCH   8  24
TORSDOF 5
ENDMDL
MODEL 5
REMARK VINA RESULT:    -6.494      1.782      2.503
REMARK INTER + INTRA:          -7.892
REMARK INTER:                  -7.631
REMARK INTRA:                  -0.261
REMARK UNBOUND:                -0.259
REMARK SMILES O=c1c(O)c(-c2ccc(O)cc2)oc2cc(O)cc(O)c12
REMARK SMILES IDX 5 1 3 2 2 3 1 4 21 5 19 6 18 7 16 8 15 9 14 10 13 11 6 12
REMARK SMILES IDX 7 13 8 14 9 15 12 16 11 17 10 18 4 20 20 22 17 24
REMARK H PARENT 10 19 4 21 20 23 17 25
REMARK Flexibility Score: inf
ROOT
ATOM      1  C   UNL     1      23.185 -32.027  -9.311  1.00  0.00     0.180 A 
ATOM      2  C   UNL     1      21.980 -31.500  -8.814  1.00  0.00     0.208 A 
ATOM      3  C   UNL     1      21.045 -32.371  -8.233  1.00  0.00     0.238 A 
ATOM      4  O   UNL     1      19.945 -31.902  -7.839  1.00  0.00    -0.285 OA
ATOM      5  C   UNL     1      21.331 -33.755  -8.141  1.00  0.00     0.111 A 
ATOM      6  C   UNL     1      20.474 -34.721  -7.536  1.00  0.00     0.134 A 
ATOM      7  C   UNL     1      20.800 -36.081  -7.619  1.00  0.00     0.093 A 
ATOM      8  C   UNL     1      21.983 -36.503  -8.226  1.00  0.00     0.123 A 
ATOM      9  C   UNL     1      22.858 -35.561  -8.768  1.00  0.00     0.094 A 
ATOM     10  C   UNL     1      22.543 -34.200  -8.733  1.00  0.00     0.146 A 
ATOM     11  O   UNL     1      23.397 -33.337  -9.270  1.00  0.00    -0.452 OA
ENDROOT
BRANCH   1  12
ATOM     12  C   UNL     1      24.230 -31.169  -9.915  1.00  0.00     0.021 A 
ATOM     13  C   UNL     1      24.108 -30.771 -11.257  1.00  0.00     0.016 A 
ATOM     14  C   UNL     1      25.095 -29.980 -11.853  1.00  0.00     0.047 A 
ATOM     15  C   UNL     1      26.223 -29.590 -11.120  1.00  0.00     0.115 A 
ATOM     16  C   UNL     1      25.376 -30.790  -9.191  1.00  0.00     0.016 A 
ATOM     17  C   UNL     1      26.362 -30.000  -9.791  1.00  0.00     0.047 A 
BRANCH  15  18
ATOM     18  O   UNL     1      27.213 -28.802 -11.703  1.00  0.00    -0.508 OA
ATOM     19  H   UNL     1      28.146 -28.748 -11.311  1.00  0.00     0.293 HD
ENDBRANCH  15  18
ENDBRANCH   1  12
BRANCH   2  20
ATOM     20  O   UNL     1      21.707 -30.135  -8.935  1.00  0.00    -0.502 OA
ATOM     21  H   UNL     1      21.940 -29.466  -8.210  1.00  0.00     0.293 HD
ENDBRANCH   2  20
BRANCH   6  22
ATOM     22  O   UNL     1      19.314 -34.400  -6.825  1.00  0.00    -0.507 OA
ATOM     23  H   UNL     1      18.389 -34.354  -7.224  1.00  0.00     0.293 HD
ENDBRANCH   6  22
BRANCH   8  24
ATOM     24  O   UNL     1      22.283 -37.862  -8.275  1.00  0.00    -0.508 OA
ATOM     25  H   UNL     1      22.711 -38.281  -9.092  1.00  0.00     0.293 HD
ENDBRANCH   8  24
TORSDOF 5
ENDMDL
MODEL 6
REMARK VINA RESULT:    -6.425      3.287      5.016
REMARK INTER + INTRA:          -7.811
REMARK INTER:                  -7.531
REMARK INTRA:                  -0.280
REMARK UNBOUND:                -0.259
REMARK SMILES O=c1c(O)c(-c2ccc(O)cc2)oc2cc(O)cc(O)c12
REMARK SMILES IDX 5 1 3 2 2 3 1 4 21 5 19 6 18 7 16 8 15 9 14 10 13 11 6 12
REMARK SMILES IDX 7 13 8 14 9 15 12 16 11 17 10 18 4 20 20 22 17 24
REMARK H PARENT 10 19 4 21 20 23 17 25
REMARK Flexibility Score: inf
ROOT
ATOM      1  C   UNL     1      23.779 -30.641  -9.938  1.00  0.00     0.180 A 
ATOM      2  C   UNL     1      23.734 -31.890  -9.294  1.00  0.00     0.208 A 
ATOM      3  C   UNL     1      22.487 -32.433  -8.947  1.00  0.00     0.238 A 
ATOM      4  O   UNL     1      22.455 -33.524  -8.322  1.00  0.00    -0.285 OA
ATOM      5  C   UNL     1      21.299 -31.729  -9.264  1.00  0.00     0.111 A 
ATOM      6  C   UNL     1      19.981 -32.203  -8.996  1.00  0.00     0.134 A 
ATOM      7  C   UNL     1      18.883 -31.366  -9.233  1.00  0.00     0.093 A 
ATOM      8  C   UNL     1      19.053 -30.098  -9.789  1.00  0.00     0.123 A 
ATOM      9  C   UNL     1      20.334 -29.647 -10.111  1.00  0.00     0.094 A 
ATOM     10  C   UNL     1      21.451 -30.446  -9.852  1.00  0.00     0.146 A 
ATOM     11  O   UNL     1      22.653 -29.976 -10.162  1.00  0.00    -0.452 OA
ENDROOT
BRANCH   1  12
ATOM     12  C   UNL     1      25.055 -30.016 -10.356  1.00  0.00     0.021 A 
ATOM     13  C   UNL     1      25.774 -29.232  -9.439  1.00  0.00     0.016 A 
ATOM     14  C   UNL     1      26.969 -28.614  -9.819  1.00  0.00     0.047 A 
ATOM     15  C   UNL     1      27.452 -28.760 -11.126  1.00  0.00     0.115 A 
ATOM     16  C   UNL     1      25.536 -30.141 -11.672  1.00  0.00     0.016 A 
ATOM     17  C   UNL     1      26.731 -29.521 -12.051  1.00  0.00     0.047 A 
BRANCH  15  18
ATOM     18  O   UNL     1      28.642 -28.149 -11.517  1.00  0.00    -0.508 OA
ATOM     19  H   UNL     1      29.270 -28.591 -12.178  1.00  0.00     0.293 HD
ENDBRANCH  15  18
ENDBRANCH   1  12
BRANCH   2  20
ATOM     20  O   UNL     1      24.918 -32.557  -8.970  1.00  0.00    -0.502 OA
ATOM     21  H   UNL     1      25.762 -32.068  -8.693  1.00  0.00     0.293 HD
ENDBRANCH   2  20
BRANCH   6  22
ATOM     22  O   UNL     1      19.694 -33.488  -8.526  1.00  0.00    -0.507 OA
ATOM     23  H   UNL     1      20.137 -34.333  -8.853  1.00  0.00     0.293 HD
ENDBRANCH   6  22
BRANCH   8  24
ATOM     24  O   UNL     1      17.938 -29.297 -10.027  1.00  0.00    -0.508 OA
ATOM     25  H   UNL     1      17.093 -29.388  -9.476  1.00  0.00     0.293 HD
ENDBRANCH   8  24
TORSDOF 5
ENDMDL
MODEL 7
REMARK VINA RESULT:    -6.245      2.151      6.741
REMARK INTER + INTRA:          -7.599
REMARK INTER:                  -7.316
REMARK INTRA:                  -0.284
REMARK UNBOUND:                -0.259
REMARK SMILES O=c1c(O)c(-c2ccc(O)cc2)oc2cc(O)cc(O)c12
REMARK SMILES IDX 5 1 3 2 2 3 1 4 21 5 19 6 18 7 16 8 15 9 14 10 13 11 6 12
REMARK SMILES IDX 7 13 8 14 9 15 12 16 11 17 10 18 4 20 20 22 17 24
REMARK H PARENT 10 19 4 21 20 23 17 25
REMARK Flexibility Score: inf
ROOT
ATOM      1  C   UNL     1      22.596 -33.308  -9.304  1.00  0.00     0.180 A 
ATOM      2  C   UNL     1      21.950 -33.053 -10.525  1.00  0.00     0.208 A 
ATOM      3  C   UNL     1      22.469 -32.064 -11.377  1.00  0.00     0.238 A 
ATOM      4  O   UNL     1      21.856 -31.802 -12.444  1.00  0.00    -0.285 OA
ATOM      5  C   UNL     1      23.636 -31.354 -11.003  1.00  0.00     0.111 A 
ATOM      6  C   UNL     1      24.272 -30.360 -11.806  1.00  0.00     0.134 A 
ATOM      7  C   UNL     1      25.345 -29.630 -11.280  1.00  0.00     0.093 A 
ATOM      8  C   UNL     1      25.847 -29.903 -10.008  1.00  0.00     0.123 A 
ATOM      9  C   UNL     1      25.271 -30.913  -9.237  1.00  0.00     0.094 A 
ATOM     10  C   UNL     1      24.175 -31.635  -9.721  1.00  0.00     0.146 A 
ATOM     11  O   UNL     1      23.649 -32.581  -8.952  1.00  0.00    -0.452 OA
ENDROOT
BRANCH   1  12
ATOM     12  C   UNL     1      22.123 -34.351  -8.365  1.00  0.00     0.021 A 
ATOM     13  C   UNL     1      22.643 -35.653  -8.458  1.00  0.00     0.016 A 
ATOM     14  C   UNL     1      22.194 -36.658  -7.597  1.00  0.00     0.047 A 
ATOM     15  C   UNL     1      21.207 -36.379  -6.643  1.00  0.00     0.115 A 
ATOM     16  C   UNL     1      21.118 -34.083  -7.418  1.00  0.00     0.016 A 
ATOM     17  C   UNL     1      20.669 -35.092  -6.559  1.00  0.00     0.047 A 
BRANCH  15  18
ATOM     18  O   UNL     1      20.751 -37.373  -5.779  1.00  0.00    -0.508 OA
ATOM     19  H   UNL     1      20.760 -38.350  -6.046  1.00  0.00     0.293 HD
ENDBRANCH  15  18
ENDBRANCH   1  12
BRANCH   2  20
ATOM     20  O   UNL     1      20.787 -33.748 -10.865  1.00  0.00    -0.502 OA
ATOM     21  H   UNL     1      20.571 -34.018 -11.818  1.00  0.00     0.293 HD
ENDBRANCH   2  20
BRANCH   6  22
ATOM     22  O   UNL     1      23.908 -30.072 -13.125  1.00  0.00    -0.507 OA
ATOM     23  H   UNL     1      22.989 -30.218 -13.513  1.00  0.00     0.293 HD
ENDBRANCH   6  22
BRANCH   8  24
ATOM     24  O   UNL     1      26.926 -29.168  -9.522  1.00  0.00    -0.508 OA
ATOM     25  H   UNL     1      27.616 -29.583  -8.908  1.00  0.00     0.293 HD
ENDBRANCH   8  24
TORSDOF 5
ENDMDL
MODEL 8
REMARK VINA RESULT:    -6.234      3.665      6.381
REMARK INTER + INTRA:          -7.587
REMARK INTER:                  -7.302
REMARK INTRA:                  -0.285
REMARK UNBOUND:                -0.259
REMARK SMILES O=c1c(O)c(-c2ccc(O)cc2)oc2cc(O)cc(O)c12
REMARK SMILES IDX 5 1 3 2 2 3 1 4 21 5 19 6 18 7 16 8 15 9 14 10 13 11 6 12
REMARK SMILES IDX 7 13 8 14 9 15 12 16 11 17 10 18 4 20 20 22 17 24
REMARK H PARENT 10 19 4 21 20 23 17 25
REMARK Flexibility Score: inf
ROOT
ATOM      1  C   UNL     1      21.507 -31.470  -9.931  1.00  0.00     0.180 A 
ATOM      2  C   UNL     1      21.833 -32.346  -8.881  1.00  0.00     0.208 A 
ATOM      3  C   UNL     1      23.162 -32.405  -8.432  1.00  0.00     0.238 A 
ATOM      4  O   UNL     1      23.459 -33.230  -7.530  1.00  0.00    -0.285 OA
ATOM      5  C   UNL     1      24.145 -31.578  -9.028  1.00  0.00     0.111 A 
ATOM      6  C   UNL     1      25.513 -31.526  -8.626  1.00  0.00     0.134 A 
ATOM      7  C   UNL     1      26.424 -30.768  -9.370  1.00  0.00     0.093 A 
ATOM      8  C   UNL     1      26.005 -30.007 -10.462  1.00  0.00     0.123 A 
ATOM      9  C   UNL     1      24.658 -30.003 -10.828  1.00  0.00     0.094 A 
ATOM     10  C   UNL     1      23.732 -30.778 -10.125  1.00  0.00     0.146 A 
ATOM     11  O   UNL     1      22.462 -30.755 -10.513  1.00  0.00    -0.452 OA
ENDROOT
BRANCH   1  12
ATOM     12  C   UNL     1      20.123 -31.334 -10.442  1.00  0.00     0.021 A 
ATOM     13  C   UNL     1      19.671 -32.198 -11.453  1.00  0.00     0.016 A 
ATOM     14  C   UNL     1      18.376 -32.072 -11.965  1.00  0.00     0.047 A 
ATOM     15  C   UNL     1      17.523 -31.070 -11.484  1.00  0.00     0.115 A 
ATOM     16  C   UNL     1      19.267 -30.318  -9.978  1.00  0.00     0.016 A 
ATOM     17  C   UNL     1      17.973 -30.193 -10.494  1.00  0.00     0.047 A 
BRANCH  15  18
ATOM     18  O   UNL     1      16.230 -30.935 -11.987  1.00  0.00    -0.508 OA
ATOM     19  H   UNL     1      15.766 -31.699 -12.464  1.00  0.00     0.293 HD
ENDBRANCH  15  18
ENDBRANCH   1  12
BRANCH   2  20
ATOM     20  O   UNL     1      20.853 -33.170  -8.323  1.00  0.00    -0.502 OA
ATOM     21  H   UNL     1      20.457 -33.961  -8.820  1.00  0.00     0.293 HD
ENDBRANCH   2  20
BRANCH   6  22
ATOM     22  O   UNL     1      26.019 -32.175  -7.495  1.00  0.00    -0.507 OA
ATOM     23  H   UNL     1      26.935 -32.593  -7.434  1.00  0.00     0.293 HD
ENDBRANCH   6  22
BRANCH   8  24
ATOM     24  O   UNL     1      26.935 -29.251 -11.171  1.00  0.00    -0.508 OA
ATOM     25  H   UNL     1      27.444 -29.637 -11.957  1.00  0.00     0.293 HD
ENDBRANCH   8  24
TORSDOF 5
ENDMDL
MODEL 9
REMARK VINA RESULT:    -6.123      3.251      7.967
REMARK INTER + INTRA:          -7.455
REMARK INTER:                  -7.315
REMARK INTRA:                  -0.140
REMARK UNBOUND:                -0.259
REMARK SMILES O=c1c(O)c(-c2ccc(O)cc2)oc2cc(O)cc(O)c12
REMARK SMILES IDX 5 1 3 2 2 3 1 4 21 5 19 6 18 7 16 8 15 9 14 10 13 11 6 12
REMARK SMILES IDX 7 13 8 14 9 15 12 16 11 17 10 18 4 20 20 22 17 24
REMARK H PARENT 10 19 4 21 20 23 17 25
REMARK Flexibility Score: inf
ROOT
ATOM      1  C   UNL     1      20.210 -36.654  -7.326  1.00  0.00     0.180 A 
ATOM      2  C   UNL     1      21.330 -37.118  -8.037  1.00  0.00     0.208 A 
ATOM      3  C   UNL     1      22.238 -36.184  -8.561  1.00  0.00     0.238 A 
ATOM      4  O   UNL     1      23.209 -36.602  -9.243  1.00  0.00    -0.285 OA
ATOM      5  C   UNL     1      22.023 -34.800  -8.354  1.00  0.00     0.111 A 
ATOM      6  C   UNL     1      22.899 -33.768  -8.805  1.00  0.00     0.134 A 
ATOM      7  C   UNL     1      22.521 -32.427  -8.659  1.00  0.00     0.093 A 
ATOM      8  C   UNL     1      21.331 -32.081  -8.019  1.00  0.00     0.123 A 
ATOM      9  C   UNL     1      20.495 -33.081  -7.521  1.00  0.00     0.094 A 
ATOM     10  C   UNL     1      20.828 -34.428  -7.684  1.00  0.00     0.146 A 
ATOM     11  O   UNL     1      20.000 -35.349  -7.205  1.00  0.00    -0.452 OA
ENDROOT
BRANCH   1  12
ATOM     12  C   UNL     1      19.222 -37.579  -6.723  1.00  0.00     0.021 A 
ATOM     13  C   UNL     1      17.877 -37.511  -7.124  1.00  0.00     0.016 A 
ATOM     14  C   UNL     1      16.924 -38.359  -6.551  1.00  0.00     0.047 A 
ATOM     15  C   UNL     1      17.301 -39.273  -5.559  1.00  0.00     0.115 A 
ATOM     16  C   UNL     1      19.589 -38.486  -5.712  1.00  0.00     0.016 A 
ATOM     17  C   UNL     1      18.633 -39.331  -5.140  1.00  0.00     0.047 A 
BRANCH  15  18
ATOM     18  O   UNL     1      16.360 -40.124  -4.981  1.00  0.00    -0.508 OA
ATOM     19  H   UNL     1      16.383 -40.342  -3.991  1.00  0.00     0.293 HD
ENDBRANCH  15  18
ENDBRANCH   1  12
BRANCH   2  20
ATOM     20  O   UNL     1      21.511 -38.487  -8.249  1.00  0.00    -0.502 OA
ATOM     21  H   UNL     1      22.428 -38.919  -8.269  1.00  0.00     0.293 HD
ENDBRANCH   2  20
BRANCH   6  22
ATOM     22  O   UNL     1      24.154 -34.003  -9.375  1.00  0.00    -0.507 OA
ATOM     23  H   UNL     1      24.434 -33.697 -10.294  1.00  0.00     0.293 HD
ENDBRANCH   6  22
BRANCH   8  24
ATOM     24  O   UNL     1      20.993 -30.737  -7.876  1.00  0.00    -0.508 OA
ATOM     25  H   UNL     1      20.140 -30.451  -7.411  1.00  0.00     0.293 HD
ENDBRANCH   8  24
TORSDOF 5
ENDMDL
