MODEL 1
REMARK VINA RESULT:    -4.827      0.000      0.000
REMARK INTER + INTRA:          -7.440
REMARK INTER:                  -6.943
REMARK INTRA:                  -0.497
REMARK UNBOUND:                -0.497
REMARK SMILES O=C(CO)[C@@H](O)[C@H](O)[C@@H](O)CO
REMARK SMILES IDX 7 1 9 2 11 3 12 4 10 6 5 8 2 9 1 10 3 11 4 12 6 14 8 16
REMARK H PARENT 12 5 10 7 4 13 6 15 8 17
REMARK Flexibility Score: inf
ROOT
ATOM      1  C   UNL     1       1.992  19.481  33.437  1.00  0.00     0.181 C 
ENDROOT
BRANCH   1   2
ATOM      2  C   UNL     1       1.436  20.256  32.213  1.00  0.00     0.171 C 
BRANCH   2   3
ATOM      3  C   UNL     1       0.054  20.888  32.472  1.00  0.00     0.190 C 
BRANCH   3   4
ATOM      4  O   UNL     1      -0.494  21.415  31.293  1.00  0.00    -0.394 OA
ATOM      5  H   UNL     1       0.225  21.394  30.609  1.00  0.00     0.210 HD
ENDBRANCH   3   4
ENDBRANCH   2   3
BRANCH   2   6
ATOM      6  O   UNL     1       1.307  19.368  31.130  1.00  0.00    -0.388 OA
ATOM      7  H   UNL     1       0.983  19.894  30.354  1.00  0.00     0.211 HD
ENDBRANCH   2   6
ENDBRANCH   1   2
BRANCH   1   8
ATOM      8  C   UNL     1       3.510  19.686  33.651  1.00  0.00     0.214 C 
BRANCH   8   9
ATOM      9  C   UNL     1       4.195  18.371  33.957  1.00  0.00     0.189 C 
ATOM     10  O   UNL     1       3.820  17.699  34.908  1.00  0.00    -0.294 OA
BRANCH   9  11
ATOM     11  C   UNL     1       5.332  17.867  33.109  1.00  0.00     0.234 C 
BRANCH  11  12
ATOM     12  O   UNL     1       5.143  16.513  32.805  1.00  0.00    -0.388 OA
ATOM     13  H   UNL     1       5.088  16.030  33.671  1.00  0.00     0.211 HD
ENDBRANCH  11  12
ENDBRANCH   9  11
ENDBRANCH   8   9
BRANCH   8  14
ATOM     14  O   UNL     1       4.083  20.264  32.506  1.00  0.00    -0.382 OA
ATOM     15  H   UNL     1       4.494  19.525  31.986  1.00  0.00     0.211 HD
ENDBRANCH   8  14
ENDBRANCH   1   8
BRANCH   1  16
ATOM     16  O   UNL     1       1.724  18.112  33.253  1.00  0.00    -0.387 OA
ATOM     17  H   UNL     1       1.604  17.960  32.279  1.00  0.00     0.211 HD
ENDBRANCH   1  16
TORSDOF 10
ENDMDL
MODEL 2
REMARK VINA RESULT:    -4.771     17.316     18.837
REMARK INTER + INTRA:          -7.359
REMARK INTER:                  -6.671
REMARK INTRA:                  -0.689
REMARK UNBOUND:                -0.497
REMARK SMILES O=C(CO)[C@@H](O)[C@H](O)[C@@H](O)CO
REMARK SMILES IDX 7 1 9 2 11 3 12 4 10 6 5 8 2 9 1 10 3 11 4 12 6 14 8 16
REMARK H PARENT 12 5 10 7 4 13 6 15 8 17
REMARK Flexibility Score: inf
ROOT
ATOM      1  C   UNL     1       8.208  11.979  17.119  1.00  0.00     0.181 C 
ENDROOT
BRANCH   1   2
ATOM      2  C   UNL     1       8.889  11.950  18.513  1.00  0.00     0.171 C 
BRANCH   2   3
ATOM      3  C   UNL     1       9.490  13.310  18.922  1.00  0.00     0.190 C 
BRANCH   3   4
ATOM      4  O   UNL     1       8.505  14.168  19.434  1.00  0.00    -0.394 OA
ATOM      5  H   UNL     1       8.901  14.619  20.225  1.00  0.00     0.210 HD
ENDBRANCH   3   4
ENDBRANCH   2   3
BRANCH   2   6
ATOM      6  O   UNL     1       9.931  11.007  18.492  1.00  0.00    -0.388 OA
ATOM      7  H   UNL     1      10.195  10.880  17.543  1.00  0.00     0.211 HD
ENDBRANCH   2   6
ENDBRANCH   1   2
BRANCH   1   8
ATOM      8  C   UNL     1       7.463  10.668  16.776  1.00  0.00     0.214 C 
BRANCH   8   9
ATOM      9  C   UNL     1       6.400  10.909  15.727  1.00  0.00     0.189 C 
ATOM     10  O   UNL     1       6.457  11.908  15.024  1.00  0.00    -0.294 OA
BRANCH   9  11
ATOM     11  C   UNL     1       5.268   9.937  15.525  1.00  0.00     0.234 C 
BRANCH  11  12
ATOM     12  O   UNL     1       5.215   9.030  16.592  1.00  0.00    -0.388 OA
ATOM     13  H   UNL     1       5.164   9.570  17.423  1.00  0.00     0.211 HD
ENDBRANCH  11  12
ENDBRANCH   9  11
ENDBRANCH   8   9
BRANCH   8  14
ATOM     14  O   UNL     1       8.375   9.703  16.316  1.00  0.00    -0.382 OA
ATOM     15  H   UNL     1       9.253   9.919  16.726  1.00  0.00     0.211 HD
ENDBRANCH   8  14
ENDBRANCH   1   8
BRANCH   1  16
ATOM     16  O   UNL     1       9.196  12.225  16.148  1.00  0.00    -0.387 OA
ATOM     17  H   UNL     1       9.449  13.184  16.216  1.00  0.00     0.211 HD
ENDBRANCH   1  16
TORSDOF 10
ENDMDL
MODEL 3
REMARK VINA RESULT:    -4.689     17.689     18.945
REMARK INTER + INTRA:          -7.242
REMARK INTER:                  -6.080
REMARK INTRA:                  -1.161
REMARK UNBOUND:                -0.497
REMARK SMILES O=C(CO)[C@@H](O)[C@H](O)[C@@H](O)CO
REMARK SMILES IDX 7 1 9 2 11 3 12 4 10 6 5 8 2 9 1 10 3 11 4 12 6 14 8 16
REMARK H PARENT 12 5 10 7 4 13 6 15 8 17
REMARK Flexibility Score: inf
ROOT
ATOM      1  C   UNL     1       6.975  11.794  15.981  1.00  0.00     0.181 C 
ENDROOT
BRANCH   1   2
ATOM      2  C   UNL     1       6.824  10.544  15.073  1.00  0.00     0.171 C 
BRANCH   2   3
ATOM      3  C   UNL     1       5.357  10.107  14.883  1.00  0.00     0.190 C 
BRANCH   3   4
ATOM      4  O   UNL     1       4.909   9.344  15.973  1.00  0.00    -0.394 OA
ATOM      5  H   UNL     1       5.351   8.458  15.902  1.00  0.00     0.210 HD
ENDBRANCH   3   4
ENDBRANCH   2   3
BRANCH   2   6
ATOM      6  O   UNL     1       7.522   9.471  15.654  1.00  0.00    -0.388 OA
ATOM      7  H   UNL     1       6.952   9.107  16.380  1.00  0.00     0.211 HD
ENDBRANCH   2   6
ENDBRANCH   1   2
BRANCH   1   8
ATOM      8  C   UNL     1       8.448  12.203  16.215  1.00  0.00     0.214 C 
BRANCH   8   9
ATOM      9  C   UNL     1       8.903  11.809  17.604  1.00  0.00     0.189 C 
ATOM     10  O   UNL     1       9.011  10.626  17.894  1.00  0.00    -0.294 OA
BRANCH   9  11
ATOM     11  C   UNL     1       9.231  12.848  18.642  1.00  0.00     0.234 C 
BRANCH  11  12
ATOM     12  O   UNL     1       8.062  13.499  19.059  1.00  0.00    -0.388 OA
ATOM     13  H   UNL     1       7.502  13.627  18.250  1.00  0.00     0.211 HD
ENDBRANCH  11  12
ENDBRANCH   9  11
ENDBRANCH   8   9
BRANCH   8  14
ATOM     14  O   UNL     1       9.274  11.596  15.255  1.00  0.00    -0.382 OA
ATOM     15  H   UNL     1      10.190  11.574  15.637  1.00  0.00     0.211 HD
ENDBRANCH   8  14
ENDBRANCH   1   8
BRANCH   1  16
ATOM     16  O   UNL     1       6.361  11.521  17.217  1.00  0.00    -0.387 OA
ATOM     17  H   UNL     1       5.790  10.717  17.095  1.00  0.00     0.211 HD
ENDBRANCH   1  16
TORSDOF 10
ENDMDL
MODEL 4
REMARK VINA RESULT:    -4.651      1.250      4.628
REMARK INTER + INTRA:          -7.188
REMARK INTER:                  -5.995
REMARK INTRA:                  -1.193
REMARK UNBOUND:                -0.497
REMARK SMILES O=C(CO)[C@@H](O)[C@H](O)[C@@H](O)CO
REMARK SMILES IDX 7 1 9 2 11 3 12 4 10 6 5 8 2 9 1 10 3 11 4 12 6 14 8 16
REMARK H PARENT 12 5 10 7 4 13 6 15 8 17
REMARK Flexibility Score: inf
ROOT
ATOM      1  C   UNL     1       3.103  19.580  34.057  1.00  0.00     0.181 C 
ENDROOT
BRANCH   1   2
ATOM      2  C   UNL     1       3.777  18.267  34.540  1.00  0.00     0.171 C 
BRANCH   2   3
ATOM      3  C   UNL     1       5.073  17.935  33.773  1.00  0.00     0.190 C 
BRANCH   3   4
ATOM      4  O   UNL     1       4.793  17.463  32.481  1.00  0.00    -0.394 OA
ATOM      5  H   UNL     1       4.223  18.147  32.044  1.00  0.00     0.210 HD
ENDBRANCH   3   4
ENDBRANCH   2   3
BRANCH   2   6
ATOM      6  O   UNL     1       2.881  17.200  34.355  1.00  0.00    -0.388 OA
ATOM      7  H   UNL     1       3.399  16.442  33.977  1.00  0.00     0.211 HD
ENDBRANCH   2   6
ENDBRANCH   1   2
BRANCH   1   8
ATOM      8  C   UNL     1       1.748  19.346  33.351  1.00  0.00     0.214 C 
BRANCH   8   9
ATOM      9  C   UNL     1       1.006  20.651  33.159  1.00  0.00     0.189 C 
ATOM     10  O   UNL     1       1.421  21.669  33.695  1.00  0.00    -0.294 OA
BRANCH   9  11
ATOM     11  C   UNL     1      -0.238  20.725  32.315  1.00  0.00     0.234 C 
BRANCH  11  12
ATOM     12  O   UNL     1       0.036  20.285  31.013  1.00  0.00    -0.388 OA
ATOM     13  H   UNL     1      -0.388  20.936  30.396  1.00  0.00     0.211 HD
ENDBRANCH  11  12
ENDBRANCH   9  11
ENDBRANCH   8   9
BRANCH   8  14
ATOM     14  O   UNL     1       1.954  18.729  32.105  1.00  0.00    -0.382 OA
ATOM     15  H   UNL     1       1.234  18.055  31.995  1.00  0.00     0.211 HD
ENDBRANCH   8  14
ENDBRANCH   1   8
BRANCH   1  16
ATOM     16  O   UNL     1       3.985  20.233  33.176  1.00  0.00    -0.387 OA
ATOM     17  H   UNL     1       4.828  20.406  33.673  1.00  0.00     0.211 HD
ENDBRANCH   1  16
TORSDOF 10
ENDMDL
MODEL 5
REMARK VINA RESULT:    -4.589     11.305     13.342
REMARK INTER + INTRA:          -7.099
REMARK INTER:                  -5.922
REMARK INTRA:                  -1.177
REMARK UNBOUND:                -0.497
REMARK SMILES O=C(CO)[C@@H](O)[C@H](O)[C@@H](O)CO
REMARK SMILES IDX 7 1 9 2 11 3 12 4 10 6 5 8 2 9 1 10 3 11 4 12 6 14 8 16
REMARK H PARENT 12 5 10 7 4 13 6 15 8 17
REMARK Flexibility Score: inf
ROOT
ATOM      1  C   UNL     1      11.656  13.654  25.856  1.00  0.00     0.181 C 
ENDROOT
BRANCH   1   2
ATOM      2  C   UNL     1      13.150  13.338  25.577  1.00  0.00     0.171 C 
BRANCH   2   3
ATOM      3  C   UNL     1      14.118  14.284  26.316  1.00  0.00     0.190 C 
BRANCH   3   4
ATOM      4  O   UNL     1      14.114  15.565  25.743  1.00  0.00    -0.394 OA
ATOM      5  H   UNL     1      13.189  15.915  25.830  1.00  0.00     0.210 HD
ENDBRANCH   3   4
ENDBRANCH   2   3
BRANCH   2   6
ATOM      6  O   UNL     1      13.393  13.465  24.197  1.00  0.00    -0.388 OA
ATOM      7  H   UNL     1      14.120  14.132  24.087  1.00  0.00     0.211 HD
ENDBRANCH   2   6
ENDBRANCH   1   2
BRANCH   1   8
ATOM      8  C   UNL     1      10.897  14.164  24.610  1.00  0.00     0.214 C 
BRANCH   8   9
ATOM      9  C   UNL     1       9.431  14.382  24.921  1.00  0.00     0.189 C 
ATOM     10  O   UNL     1       9.015  14.180  26.053  1.00  0.00    -0.294 OA
BRANCH   9  11
ATOM     11  C   UNL     1       8.469  14.849  23.862  1.00  0.00     0.234 C 
BRANCH  11  12
ATOM     12  O   UNL     1       9.024  14.658  22.589  1.00  0.00    -0.388 OA
ATOM     13  H   UNL     1       9.593  15.450  22.404  1.00  0.00     0.211 HD
ENDBRANCH  11  12
ENDBRANCH   9  11
ENDBRANCH   8   9
BRANCH   8  14
ATOM     14  O   UNL     1      11.469  15.363  24.155  1.00  0.00    -0.382 OA
ATOM     15  H   UNL     1      11.268  16.055  24.838  1.00  0.00     0.211 HD
ENDBRANCH   8  14
ENDBRANCH   1   8
BRANCH   1  16
ATOM     16  O   UNL     1      11.591  14.623  26.875  1.00  0.00    -0.387 OA
ATOM     17  H   UNL     1      11.177  15.438  26.485  1.00  0.00     0.211 HD
ENDBRANCH   1  16
TORSDOF 10
ENDMDL
MODEL 6
REMARK VINA RESULT:    -4.561     18.830     19.712
REMARK INTER + INTRA:          -7.057
REMARK INTER:                  -6.052
REMARK INTRA:                  -1.005
REMARK UNBOUND:                -0.497
REMARK SMILES O=C(CO)[C@@H](O)[C@H](O)[C@@H](O)CO
REMARK SMILES IDX 7 1 9 2 11 3 12 4 10 6 5 8 2 9 1 10 3 11 4 12 6 14 8 16
REMARK H PARENT 12 5 10 7 4 13 6 15 8 17
REMARK Flexibility Score: inf
ROOT
ATOM      1  C   UNL     1       6.259  10.760  14.875  1.00  0.00     0.181 C 
ENDROOT
BRANCH   1   2
ATOM      2  C   UNL     1       5.309   9.588  15.242  1.00  0.00     0.171 C 
BRANCH   2   3
ATOM      3  C   UNL     1       3.832   9.877  14.906  1.00  0.00     0.190 C 
BRANCH   3   4
ATOM      4  O   UNL     1       3.186  10.525  15.970  1.00  0.00    -0.394 OA
ATOM      5  H   UNL     1       3.099   9.859  16.701  1.00  0.00     0.210 HD
ENDBRANCH   3   4
ENDBRANCH   2   3
BRANCH   2   6
ATOM      6  O   UNL     1       5.398   9.345  16.625  1.00  0.00    -0.388 OA
ATOM      7  H   UNL     1       4.511   9.558  17.018  1.00  0.00     0.211 HD
ENDBRANCH   2   6
ENDBRANCH   1   2
BRANCH   1   8
ATOM      8  C   UNL     1       7.756  10.393  14.995  1.00  0.00     0.214 C 
BRANCH   8   9
ATOM      9  C   UNL     1       8.426  11.207  16.081  1.00  0.00     0.189 C 
ATOM     10  O   UNL     1       8.856  12.323  15.824  1.00  0.00    -0.294 OA
BRANCH   9  11
ATOM     11  C   UNL     1       8.575  10.671  17.479  1.00  0.00     0.234 C 
BRANCH  11  12
ATOM     12  O   UNL     1       9.578   9.693  17.517  1.00  0.00    -0.388 OA
ATOM     13  H   UNL     1       9.432   9.165  18.345  1.00  0.00     0.211 HD
ENDBRANCH  11  12
ENDBRANCH   9  11
ENDBRANCH   8   9
BRANCH   8  14
ATOM     14  O   UNL     1       7.894   9.023  15.275  1.00  0.00    -0.382 OA
ATOM     15  H   UNL     1       8.833   8.780  15.062  1.00  0.00     0.211 HD
ENDBRANCH   8  14
ENDBRANCH   1   8
BRANCH   1  16
ATOM     16  O   UNL     1       5.972  11.845  15.724  1.00  0.00    -0.387 OA
ATOM     17  H   UNL     1       5.826  12.643  15.149  1.00  0.00     0.211 HD
ENDBRANCH   1  16
TORSDOF 10
ENDMDL
MODEL 7
REMARK VINA RESULT:    -4.481      1.411      5.014
REMARK INTER + INTRA:          -6.942
REMARK INTER:                  -6.211
REMARK INTRA:                  -0.731
REMARK UNBOUND:                -0.497
REMARK SMILES O=C(CO)[C@@H](O)[C@H](O)[C@@H](O)CO
REMARK SMILES IDX 7 1 9 2 11 3 12 4 10 6 5 8 2 9 1 10 3 11 4 12 6 14 8 16
REMARK H PARENT 12 5 10 7 4 13 6 15 8 17
REMARK Flexibility Score: inf
ROOT
ATOM      1  C   UNL     1       4.591  18.047  33.359  1.00  0.00     0.181 C 
ENDROOT
BRANCH   1   2
ATOM      2  C   UNL     1       6.015  17.946  32.749  1.00  0.00     0.171 C 
BRANCH   2   3
ATOM      3  C   UNL     1       6.604  16.522  32.817  1.00  0.00     0.190 C 
BRANCH   3   4
ATOM      4  O   UNL     1       7.241  16.294  34.046  1.00  0.00    -0.394 OA
ATOM      5  H   UNL     1       8.063  16.850  34.049  1.00  0.00     0.210 HD
ENDBRANCH   3   4
ENDBRANCH   2   3
BRANCH   2   6
ATOM      6  O   UNL     1       6.877  18.803  33.456  1.00  0.00    -0.388 OA
ATOM      7  H   UNL     1       7.582  18.238  33.867  1.00  0.00     0.211 HD
ENDBRANCH   2   6
ENDBRANCH   1   2
BRANCH   1   8
ATOM      8  C   UNL     1       3.872  19.372  33.013  1.00  0.00     0.214 C 
BRANCH   8   9
ATOM      9  C   UNL     1       2.379  19.248  33.228  1.00  0.00     0.189 C 
ATOM     10  O   UNL     1       1.939  18.343  33.923  1.00  0.00    -0.294 OA
BRANCH   9  11
ATOM     11  C   UNL     1       1.418  20.224  32.605  1.00  0.00     0.234 C 
BRANCH  11  12
ATOM     12  O   UNL     1       1.097  19.818  31.302  1.00  0.00    -0.388 OA
ATOM     13  H   UNL     1       0.110  19.724  31.267  1.00  0.00     0.211 HD
ENDBRANCH  11  12
ENDBRANCH   9  11
ENDBRANCH   8   9
BRANCH   8  14
ATOM     14  O   UNL     1       4.381  20.416  33.804  1.00  0.00    -0.382 OA
ATOM     15  H   UNL     1       3.953  20.335  34.696  1.00  0.00     0.211 HD
ENDBRANCH   8  14
ENDBRANCH   1   8
BRANCH   1  16
ATOM     16  O   UNL     1       4.698  17.922  34.756  1.00  0.00    -0.387 OA
ATOM     17  H   UNL     1       5.390  18.566  35.061  1.00  0.00     0.211 HD
ENDBRANCH   1  16
TORSDOF 10
ENDMDL
MODEL 8
REMARK VINA RESULT:    -4.439      1.809      4.985
REMARK INTER + INTRA:          -6.882
REMARK INTER:                  -6.644
REMARK INTRA:                  -0.238
REMARK UNBOUND:                -0.497
REMARK SMILES O=C(CO)[C@@H](O)[C@H](O)[C@@H](O)CO
REMARK SMILES IDX 7 1 9 2 11 3 12 4 10 6 5 8 2 9 1 10 3 11 4 12 6 14 8 16
REMARK H PARENT 12 5 10 7 4 13 6 15 8 17
REMARK Flexibility Score: inf
ROOT
ATOM      1  C   UNL     1       1.565  20.324  32.569  1.00  0.00     0.181 C 
ENDROOT
BRANCH   1   2
ATOM      2  C   UNL     1       2.100  19.274  33.579  1.00  0.00     0.171 C 
BRANCH   2   3
ATOM      3  C   UNL     1       3.640  19.214  33.632  1.00  0.00     0.190 C 
BRANCH   3   4
ATOM      4  O   UNL     1       4.216  20.100  32.708  1.00  0.00    -0.394 OA
ATOM      5  H   UNL     1       3.563  20.205  31.968  1.00  0.00     0.210 HD
ENDBRANCH   3   4
ENDBRANCH   2   3
BRANCH   2   6
ATOM      6  O   UNL     1       1.631  18.002  33.206  1.00  0.00    -0.388 OA
ATOM      7  H   UNL     1       2.399  17.508  32.815  1.00  0.00     0.211 HD
ENDBRANCH   2   6
ENDBRANCH   1   2
BRANCH   1   8
ATOM      8  C   UNL     1       0.257  21.005  33.033  1.00  0.00     0.214 C 
BRANCH   8   9
ATOM      9  C   UNL     1       0.538  22.051  34.091  1.00  0.00     0.189 C 
ATOM     10  O   UNL     1       1.602  22.033  34.694  1.00  0.00    -0.294 OA
BRANCH   9  11
ATOM     11  C   UNL     1      -0.469  23.121  34.417  1.00  0.00     0.234 C 
BRANCH  11  12
ATOM     12  O   UNL     1      -0.683  23.938  33.299  1.00  0.00    -0.388 OA
ATOM     13  H   UNL     1      -1.605  24.297  33.380  1.00  0.00     0.211 HD
ENDBRANCH  11  12
ENDBRANCH   9  11
ENDBRANCH   8   9
BRANCH   8  14
ATOM     14  O   UNL     1      -0.390  21.600  31.937  1.00  0.00    -0.382 OA
ATOM     15  H   UNL     1      -1.365  21.471  32.075  1.00  0.00     0.211 HD
ENDBRANCH   8  14
ENDBRANCH   1   8
BRANCH   1  16
ATOM     16  O   UNL     1       1.348  19.682  31.336  1.00  0.00    -0.387 OA
ATOM     17  H   UNL     1       0.438  19.284  31.363  1.00  0.00     0.211 HD
ENDBRANCH   1  16
TORSDOF 10
ENDMDL
MODEL 9
REMARK VINA RESULT:    -4.436      1.360      1.567
REMARK INTER + INTRA:          -6.878
REMARK INTER:                  -5.910
REMARK INTRA:                  -0.968
REMARK UNBOUND:                -0.497
REMARK SMILES O=C(CO)[C@@H](O)[C@H](O)[C@@H](O)CO
REMARK SMILES IDX 7 1 9 2 11 3 12 4 10 6 5 8 2 9 1 10 3 11 4 12 6 14 8 16
REMARK H PARENT 12 5 10 7 4 13 6 15 8 17
REMARK Flexibility Score: inf
ROOT
ATOM      1  C   UNL     1       2.120  19.304  33.687  1.00  0.00     0.181 C 
ENDROOT
BRANCH   1   2
ATOM      2  C   UNL     1       1.230  20.567  33.835  1.00  0.00     0.171 C 
BRANCH   2   3
ATOM      3  C   UNL     1       0.661  21.068  32.492  1.00  0.00     0.190 C 
BRANCH   3   4
ATOM      4  O   UNL     1      -0.488  20.351  32.127  1.00  0.00    -0.394 OA
ATOM      5  H   UNL     1      -0.737  19.792  32.908  1.00  0.00     0.210 HD
ENDBRANCH   3   4
ENDBRANCH   2   3
BRANCH   2   6
ATOM      6  O   UNL     1       1.998  21.604  34.392  1.00  0.00    -0.388 OA
ATOM      7  H   UNL     1       2.722  21.814  33.747  1.00  0.00     0.211 HD
ENDBRANCH   2   6
ENDBRANCH   1   2
BRANCH   1   8
ATOM      8  C   UNL     1       3.632  19.607  33.807  1.00  0.00     0.214 C 
BRANCH   8   9
ATOM      9  C   UNL     1       4.417  18.340  34.074  1.00  0.00     0.189 C 
ATOM     10  O   UNL     1       3.826  17.312  34.372  1.00  0.00    -0.294 OA
BRANCH   9  11
ATOM     11  C   UNL     1       5.919  18.318  33.979  1.00  0.00     0.234 C 
BRANCH  11  12
ATOM     12  O   UNL     1       6.319  18.484  32.646  1.00  0.00    -0.388 OA
ATOM     13  H   UNL     1       7.114  17.904  32.513  1.00  0.00     0.211 HD
ENDBRANCH  11  12
ENDBRANCH   9  11
ENDBRANCH   8   9
BRANCH   8  14
ATOM     14  O   UNL     1       4.096  20.213  32.627  1.00  0.00    -0.382 OA
ATOM     15  H   UNL     1       3.373  20.814  32.309  1.00  0.00     0.211 HD
ENDBRANCH   8  14
ENDBRANCH   1   8
BRANCH   1  16
ATOM     16  O   UNL     1       1.856  18.720  32.434  1.00  0.00    -0.387 OA
ATOM     17  H   UNL     1       2.311  17.837  32.415  1.00  0.00     0.211 HD
ENDBRANCH   1  16
TORSDOF 10
ENDMDL
