MODEL 1
REMARK VINA RESULT:    -3.997      0.000      0.000
REMARK INTER + INTRA:          -3.997
REMARK INTER:                  -3.997
REMARK INTRA:                   0.000
REMARK UNBOUND:                 0.000
REMARK SMILES CC1=CC(=O)[C@H]2C[C@@H]1C2(C)C
REMARK SMILES IDX 1 1 2 2 3 3 4 4 5 5 6 6 7 7 8 8 9 9 10 10 11 11
REMARK H PARENT
REMARK Flexibility Score: inf
ROOT
ATOM      1  C   UNL     1      17.096  34.097  32.789  1.00  0.00     0.040 C 
ATOM      2  C   UNL     1      16.581  33.231  31.685  1.00  0.00    -0.066 C 
ATOM      3  C   UNL     1      15.358  32.634  31.763  1.00  0.00     0.047 C 
ATOM      4  C   UNL     1      14.969  31.766  30.605  1.00  0.00     0.159 C 
ATOM      5  O   UNL     1      13.883  31.130  30.577  1.00  0.00    -0.295 OA
ATOM      6  C   UNL     1      15.985  31.701  29.464  1.00  0.00     0.067 C 
ATOM      7  C   UNL     1      16.393  33.174  29.240  1.00  0.00     0.021 C 
ATOM      8  C   UNL     1      17.397  32.982  30.399  1.00  0.00     0.022 C 
ATOM      9  C   UNL     1      17.396  31.460  30.070  1.00  0.00    -0.019 C 
ATOM     10  C   UNL     1      18.445  31.089  28.991  1.00  0.00     0.012 C 
ATOM     11  C   UNL     1      17.532  30.454  31.248  1.00  0.00     0.012 C 
ENDROOT
TORSDOF 0
ENDMDL
MODEL 2
REMARK VINA RESULT:    -3.937      1.924      2.971
REMARK INTER + INTRA:          -3.937
REMARK INTER:                  -3.937
REMARK INTRA:                   0.000
REMARK UNBOUND:                 0.000
REMARK SMILES CC1=CC(=O)[C@H]2C[C@@H]1C2(C)C
REMARK SMILES IDX 1 1 2 2 3 3 4 4 5 5 6 6 7 7 8 8 9 9 10 10 11 11
REMARK H PARENT
REMARK Flexibility Score: inf
ROOT
ATOM      1  C   UNL     1      14.104  31.218  30.769  1.00  0.00     0.040 C 
ATOM      2  C   UNL     1      15.484  31.439  30.237  1.00  0.00    -0.066 C 
ATOM      3  C   UNL     1      16.218  30.412  29.724  1.00  0.00     0.047 C 
ATOM      4  C   UNL     1      17.598  30.756  29.252  1.00  0.00     0.159 C 
ATOM      5  O   UNL     1      18.387  29.888  28.794  1.00  0.00    -0.295 OA
ATOM      6  C   UNL     1      17.982  32.231  29.367  1.00  0.00     0.067 C 
ATOM      7  C   UNL     1      16.751  32.984  28.816  1.00  0.00     0.021 C 
ATOM      8  C   UNL     1      16.137  32.837  30.227  1.00  0.00     0.022 C 
ATOM      9  C   UNL     1      17.588  32.736  30.784  1.00  0.00    -0.019 C 
ATOM     10  C   UNL     1      18.194  34.125  31.105  1.00  0.00     0.012 C 
ATOM     11  C   UNL     1      17.844  31.800  32.000  1.00  0.00     0.012 C 
ENDROOT
TORSDOF 0
ENDMDL
MODEL 3
REMARK VINA RESULT:    -3.887      1.646      2.815
REMARK INTER + INTRA:          -3.887
REMARK INTER:                  -3.887
REMARK INTRA:                   0.000
REMARK UNBOUND:                 0.000
REMARK SMILES CC1=CC(=O)[C@H]2C[C@@H]1C2(C)C
REMARK SMILES IDX 1 1 2 2 3 3 4 4 5 5 6 6 7 7 8 8 9 9 10 10 11 11
REMARK H PARENT
REMARK Flexibility Score: inf
ROOT
ATOM      1  C   UNL     1      19.739  31.496  29.471  1.00  0.00     0.040 C 
ATOM      2  C   UNL     1      18.385  31.956  29.908  1.00  0.00    -0.066 C 
ATOM      3  C   UNL     1      18.224  32.733  31.017  1.00  0.00     0.047 C 
ATOM      4  C   UNL     1      16.815  33.102  31.368  1.00  0.00     0.159 C 
ATOM      5  O   UNL     1      16.533  33.782  32.389  1.00  0.00    -0.295 OA
ATOM      6  C   UNL     1      15.744  32.594  30.402  1.00  0.00     0.067 C 
ATOM      7  C   UNL     1      16.316  32.913  29.003  1.00  0.00     0.021 C 
ATOM      8  C   UNL     1      17.109  31.591  29.121  1.00  0.00     0.022 C 
ATOM      9  C   UNL     1      16.015  31.091  30.109  1.00  0.00    -0.019 C 
ATOM     10  C   UNL     1      14.829  30.409  29.381  1.00  0.00     0.012 C 
ATOM     11  C   UNL     1      16.453  30.176  31.288  1.00  0.00     0.012 C 
ENDROOT
TORSDOF 0
ENDMDL
MODEL 4
REMARK VINA RESULT:    -3.850      2.253      3.803
REMARK INTER + INTRA:          -3.850
REMARK INTER:                  -3.850
REMARK INTRA:                   0.000
REMARK UNBOUND:                 0.000
REMARK SMILES CC1=CC(=O)[C@H]2C[C@@H]1C2(C)C
REMARK SMILES IDX 1 1 2 2 3 3 4 4 5 5 6 6 7 7 8 8 9 9 10 10 11 11
REMARK H PARENT
REMARK Flexibility Score: inf
ROOT
ATOM      1  C   UNL     1      17.956  29.400  29.127  1.00  0.00     0.040 C 
ATOM      2  C   UNL     1      17.804  30.862  29.401  1.00  0.00    -0.066 C 
ATOM      3  C   UNL     1      18.831  31.733  29.192  1.00  0.00     0.047 C 
ATOM      4  C   UNL     1      18.562  33.167  29.534  1.00  0.00     0.159 C 
ATOM      5  O   UNL     1      19.442  34.060  29.422  1.00  0.00    -0.295 OA
ATOM      6  C   UNL     1      17.148  33.469  30.031  1.00  0.00     0.067 C 
ATOM      7  C   UNL     1      16.233  32.711  29.044  1.00  0.00     0.021 C 
ATOM      8  C   UNL     1      16.476  31.458  29.916  1.00  0.00     0.022 C 
ATOM      9  C   UNL     1      16.766  32.416  31.109  1.00  0.00    -0.019 C 
ATOM     10  C   UNL     1      15.480  32.803  31.881  1.00  0.00     0.012 C 
ATOM     11  C   UNL     1      17.847  31.994  32.144  1.00  0.00     0.012 C 
ENDROOT
TORSDOF 0
ENDMDL
MODEL 5
REMARK VINA RESULT:    -3.787      1.843      3.631
REMARK INTER + INTRA:          -3.787
REMARK INTER:                  -3.787
REMARK INTRA:                   0.000
REMARK UNBOUND:                 0.000
REMARK SMILES CC1=CC(=O)[C@H]2C[C@@H]1C2(C)C
REMARK SMILES IDX 1 1 2 2 3 3 4 4 5 5 6 6 7 7 8 8 9 9 10 10 11 11
REMARK H PARENT
REMARK Flexibility Score: inf
ROOT
ATOM      1  C   UNL     1      18.756  29.109  28.264  1.00  0.00     0.040 C 
ATOM      2  C   UNL     1      18.278  30.034  29.337  1.00  0.00    -0.066 C 
ATOM      3  C   UNL     1      18.050  29.592  30.606  1.00  0.00     0.047 C 
ATOM      4  C   UNL     1      17.543  30.610  31.581  1.00  0.00     0.159 C 
ATOM      5  O   UNL     1      17.258  30.317  32.771  1.00  0.00    -0.295 OA
ATOM      6  C   UNL     1      17.393  32.029  31.029  1.00  0.00     0.067 C 
ATOM      7  C   UNL     1      18.704  32.270  30.250  1.00  0.00     0.021 C 
ATOM      8  C   UNL     1      18.035  31.535  29.067  1.00  0.00     0.022 C 
ATOM      9  C   UNL     1      16.658  31.953  29.661  1.00  0.00    -0.019 C 
ATOM     10  C   UNL     1      16.198  33.345  29.161  1.00  0.00     0.012 C 
ATOM     11  C   UNL     1      15.466  30.965  29.517  1.00  0.00     0.012 C 
ENDROOT
TORSDOF 0
ENDMDL
MODEL 6
REMARK VINA RESULT:    -3.733      1.959      3.252
REMARK INTER + INTRA:          -3.733
REMARK INTER:                  -3.733
REMARK INTRA:                   0.000
REMARK UNBOUND:                 0.000
REMARK SMILES CC1=CC(=O)[C@H]2C[C@@H]1C2(C)C
REMARK SMILES IDX 1 1 2 2 3 3 4 4 5 5 6 6 7 7 8 8 9 9 10 10 11 11
REMARK H PARENT
REMARK Flexibility Score: inf
ROOT
ATOM      1  C   UNL     1      14.623  30.361  29.464  1.00  0.00     0.040 C 
ATOM      2  C   UNL     1      15.824  31.177  29.820  1.00  0.00    -0.066 C 
ATOM      3  C   UNL     1      16.102  32.347  29.178  1.00  0.00     0.047 C 
ATOM      4  C   UNL     1      17.351  33.056  29.605  1.00  0.00     0.159 C 
ATOM      5  O   UNL     1      17.736  34.125  29.062  1.00  0.00    -0.295 OA
ATOM      6  C   UNL     1      18.127  32.390  30.742  1.00  0.00     0.067 C 
ATOM      7  C   UNL     1      17.039  32.023  31.775  1.00  0.00     0.021 C 
ATOM      8  C   UNL     1      16.797  30.746  30.938  1.00  0.00     0.022 C 
ATOM      9  C   UNL     1      18.263  30.874  30.427  1.00  0.00    -0.019 C 
ATOM     10  C   UNL     1      19.276  30.166  31.362  1.00  0.00     0.012 C 
ATOM     11  C   UNL     1      18.570  30.448  28.964  1.00  0.00     0.012 C 
ENDROOT
TORSDOF 0
ENDMDL
MODEL 7
REMARK VINA RESULT:    -3.670      5.224      6.623
REMARK INTER + INTRA:          -3.670
REMARK INTER:                  -3.670
REMARK INTRA:                   0.000
REMARK UNBOUND:                 0.000
REMARK SMILES CC1=CC(=O)[C@H]2C[C@@H]1C2(C)C
REMARK SMILES IDX 1 1 2 2 3 3 4 4 5 5 6 6 7 7 8 8 9 9 10 10 11 11
REMARK H PARENT
REMARK Flexibility Score: inf
ROOT
ATOM      1  C   UNL     1      21.707  29.285  32.466  1.00  0.00     0.040 C 
ATOM      2  C   UNL     1      21.548  28.834  31.049  1.00  0.00    -0.066 C 
ATOM      3  C   UNL     1      22.580  28.906  30.162  1.00  0.00     0.047 C 
ATOM      4  C   UNL     1      22.285  28.452  28.765  1.00  0.00     0.159 C 
ATOM      5  O   UNL     1      23.143  28.506  27.846  1.00  0.00    -0.295 OA
ATOM      6  C   UNL     1      20.869  27.922  28.533  1.00  0.00     0.067 C 
ATOM      7  C   UNL     1      20.616  26.985  29.734  1.00  0.00     0.021 C 
ATOM      8  C   UNL     1      20.218  28.251  30.527  1.00  0.00     0.022 C 
ATOM      9  C   UNL     1      19.857  28.918  29.167  1.00  0.00    -0.019 C 
ATOM     10  C   UNL     1      18.397  28.629  28.736  1.00  0.00     0.012 C 
ATOM     11  C   UNL     1      20.121  30.442  29.004  1.00  0.00     0.012 C 
ENDROOT
TORSDOF 0
ENDMDL
MODEL 8
REMARK VINA RESULT:    -3.635      2.198      3.562
REMARK INTER + INTRA:          -3.635
REMARK INTER:                  -3.635
REMARK INTRA:                   0.000
REMARK UNBOUND:                 0.000
REMARK SMILES CC1=CC(=O)[C@H]2C[C@@H]1C2(C)C
REMARK SMILES IDX 1 1 2 2 3 3 4 4 5 5 6 6 7 7 8 8 9 9 10 10 11 11
REMARK H PARENT
REMARK Flexibility Score: inf
ROOT
ATOM      1  C   UNL     1      20.083  33.429  31.276  1.00  0.00     0.040 C 
ATOM      2  C   UNL     1      19.220  32.382  30.648  1.00  0.00    -0.066 C 
ATOM      3  C   UNL     1      19.700  31.557  29.676  1.00  0.00     0.047 C 
ATOM      4  C   UNL     1      18.728  30.571  29.104  1.00  0.00     0.159 C 
ATOM      5  O   UNL     1      19.040  29.781  28.175  1.00  0.00    -0.295 OA
ATOM      6  C   UNL     1      17.331  30.592  29.725  1.00  0.00     0.067 C 
ATOM      7  C   UNL     1      17.596  30.645  31.246  1.00  0.00     0.021 C 
ATOM      8  C   UNL     1      17.752  32.173  31.078  1.00  0.00     0.022 C 
ATOM      9  C   UNL     1      16.851  32.068  29.813  1.00  0.00    -0.019 C 
ATOM     10  C   UNL     1      15.343  32.178  30.153  1.00  0.00     0.012 C 
ATOM     11  C   UNL     1      17.151  33.015  28.617  1.00  0.00     0.012 C 
ENDROOT
TORSDOF 0
ENDMDL
