MODEL 1
REMARK VINA RESULT:    -3.619      0.000      0.000
REMARK INTER + INTRA:          -4.725
REMARK INTER:                  -4.466
REMARK INTRA:                  -0.260
REMARK UNBOUND:                -0.260
REMARK SMILES CCCCC=CC(C)=O
REMARK SMILES IDX 4 1 3 2 2 3 1 4 5 5 6 6 7 7 9 8 8 9
REMARK H PARENT
REMARK Flexibility Score: inf
ROOT
ATOM      1  C   UNL     1     -24.316   0.731  -2.933  1.00  0.00     0.027 C 
ENDROOT
BRANCH   1   2
ATOM      2  C   UNL     1     -25.734   1.312  -2.872  1.00  0.00     0.004 C 
BRANCH   2   3
ATOM      3  C   UNL     1     -26.787   0.202  -2.972  1.00  0.00    -0.003 C 
ATOM      4  C   UNL     1     -27.057  -0.428  -1.609  1.00  0.00     0.004 C 
ENDBRANCH   2   3
ENDBRANCH   1   2
BRANCH   1   5
ATOM      5  C   UNL     1     -23.600   0.903  -1.624  1.00  0.00    -0.023 C 
ATOM      6  C   UNL     1     -23.206  -0.151  -0.901  1.00  0.00     0.042 C 
BRANCH   6   7
ATOM      7  C   UNL     1     -22.513  -0.006   0.393  1.00  0.00     0.152 C 
ATOM      8  O   UNL     1     -22.635  -0.883   1.292  1.00  0.00    -0.295 OA
ATOM      9  C   UNL     1     -21.659   1.193   0.645  1.00  0.00     0.093 C 
ENDBRANCH   6   7
ENDBRANCH   1   5
TORSDOF 4
ENDMDL
MODEL 2
REMARK VINA RESULT:    -3.516      2.665      5.040
REMARK INTER + INTRA:          -4.597
REMARK INTER:                  -4.398
REMARK INTRA:                  -0.200
REMARK UNBOUND:                -0.260
REMARK SMILES CCCCC=CC(C)=O
REMARK SMILES IDX 4 1 3 2 2 3 1 4 5 5 6 6 7 7 9 8 8 9
REMARK H PARENT
REMARK Flexibility Score: inf
ROOT
ATOM      1  C   UNL     1     -24.931   1.038   0.601  1.00  0.00     0.027 C 
ENDROOT
BRANCH   1   2
ATOM      2  C   UNL     1     -23.986   0.085   1.341  1.00  0.00     0.004 C 
BRANCH   2   3
ATOM      3  C   UNL     1     -22.705  -0.158   0.534  1.00  0.00    -0.003 C 
ATOM      4  C   UNL     1     -21.764   1.040   0.620  1.00  0.00     0.004 C 
ENDBRANCH   2   3
ENDBRANCH   1   2
BRANCH   1   5
ATOM      5  C   UNL     1     -25.911   0.282  -0.249  1.00  0.00    -0.023 C 
ATOM      6  C   UNL     1     -25.783   0.225  -1.580  1.00  0.00     0.042 C 
BRANCH   6   7
ATOM      7  C   UNL     1     -26.741  -0.500  -2.435  1.00  0.00     0.152 C 
ATOM      8  O   UNL     1     -27.925  -0.086  -2.574  1.00  0.00    -0.295 OA
ATOM      9  C   UNL     1     -26.308  -1.742  -3.143  1.00  0.00     0.093 C 
ENDBRANCH   6   7
ENDBRANCH   1   5
TORSDOF 4
ENDMDL
MODEL 3
REMARK VINA RESULT:    -3.509      1.136      1.896
REMARK INTER + INTRA:          -4.589
REMARK INTER:                  -4.364
REMARK INTRA:                  -0.225
REMARK UNBOUND:                -0.260
REMARK SMILES CCCCC=CC(C)=O
REMARK SMILES IDX 4 1 3 2 2 3 1 4 5 5 6 6 7 7 9 8 8 9
REMARK H PARENT
REMARK Flexibility Score: inf
ROOT
ATOM      1  C   UNL     1     -25.097   0.082  -2.344  1.00  0.00     0.027 C 
ENDROOT
BRANCH   1   2
ATOM      2  C   UNL     1     -25.866   1.344  -2.751  1.00  0.00     0.004 C 
BRANCH   2   3
ATOM      3  C   UNL     1     -24.908   2.517  -2.991  1.00  0.00    -0.003 C 
ATOM      4  C   UNL     1     -25.258   3.707  -2.102  1.00  0.00     0.004 C 
ENDBRANCH   2   3
ENDBRANCH   1   2
BRANCH   1   5
ATOM      5  C   UNL     1     -24.418   0.262  -1.017  1.00  0.00    -0.023 C 
ATOM      6  C   UNL     1     -23.170  -0.170  -0.807  1.00  0.00     0.042 C 
BRANCH   6   7
ATOM      7  C   UNL     1     -22.488  -0.015   0.491  1.00  0.00     0.152 C 
ATOM      8  O   UNL     1     -22.596  -0.899   1.386  1.00  0.00    -0.295 OA
ATOM      9  C   UNL     1     -21.663   1.202   0.754  1.00  0.00     0.093 C 
ENDBRANCH   6   7
ENDBRANCH   1   5
TORSDOF 4
ENDMDL
MODEL 4
REMARK VINA RESULT:    -3.456      3.382      4.716
REMARK INTER + INTRA:          -4.524
REMARK INTER:                  -4.246
REMARK INTRA:                  -0.278
REMARK UNBOUND:                -0.260
REMARK SMILES CCCCC=CC(C)=O
REMARK SMILES IDX 4 1 3 2 2 3 1 4 5 5 6 6 7 7 9 8 8 9
REMARK H PARENT
REMARK Flexibility Score: inf
ROOT
ATOM      1  C   UNL     1     -26.941  -2.118  -5.376  1.00  0.00     0.027 C 
ENDROOT
BRANCH   1   2
ATOM      2  C   UNL     1     -26.965  -0.868  -6.263  1.00  0.00     0.004 C 
BRANCH   2   3
ATOM      3  C   UNL     1     -28.218  -0.844  -7.145  1.00  0.00    -0.003 C 
ATOM      4  C   UNL     1     -29.299  -1.769  -6.593  1.00  0.00     0.004 C 
ENDBRANCH   2   3
ENDBRANCH   1   2
BRANCH   1   5
ATOM      5  C   UNL     1     -26.489  -1.788  -3.982  1.00  0.00    -0.023 C 
ATOM      6  C   UNL     1     -26.964  -0.722  -3.328  1.00  0.00     0.042 C 
BRANCH   6   7
ATOM      7  C   UNL     1     -26.525  -0.372  -1.965  1.00  0.00     0.152 C 
ATOM      8  O   UNL     1     -27.294  -0.537  -0.977  1.00  0.00    -0.295 OA
ATOM      9  C   UNL     1     -25.157   0.188  -1.748  1.00  0.00     0.093 C 
ENDBRANCH   6   7
ENDBRANCH   1   5
TORSDOF 4
ENDMDL
MODEL 5
REMARK VINA RESULT:    -3.444      3.235      5.236
REMARK INTER + INTRA:          -4.509
REMARK INTER:                  -4.329
REMARK INTRA:                  -0.180
REMARK UNBOUND:                -0.260
REMARK SMILES CCCCC=CC(C)=O
REMARK SMILES IDX 4 1 3 2 2 3 1 4 5 5 6 6 7 7 9 8 8 9
REMARK H PARENT
REMARK Flexibility Score: inf
ROOT
ATOM      1  C   UNL     1     -24.753   0.524  -1.057  1.00  0.00     0.027 C 
ENDROOT
BRANCH   1   2
ATOM      2  C   UNL     1     -25.575   0.530   0.237  1.00  0.00     0.004 C 
BRANCH   2   3
ATOM      3  C   UNL     1     -24.777   1.144   1.393  1.00  0.00    -0.003 C 
ATOM      4  C   UNL     1     -24.395   2.590   1.093  1.00  0.00     0.004 C 
ENDBRANCH   2   3
ENDBRANCH   1   2
BRANCH   1   5
ATOM      5  C   UNL     1     -25.640   0.571  -2.267  1.00  0.00    -0.023 C 
ATOM      6  C   UNL     1     -26.665  -0.275  -2.415  1.00  0.00     0.042 C 
BRANCH   6   7
ATOM      7  C   UNL     1     -27.541  -0.256  -3.600  1.00  0.00     0.152 C 
ATOM      8  O   UNL     1     -28.715   0.202  -3.528  1.00  0.00    -0.295 OA
ATOM      9  C   UNL     1     -27.037  -0.786  -4.903  1.00  0.00     0.093 C 
ENDBRANCH   6   7
ENDBRANCH   1   5
TORSDOF 4
ENDMDL
MODEL 6
REMARK VINA RESULT:    -3.410      2.048      3.058
REMARK INTER + INTRA:          -4.468
REMARK INTER:                  -4.203
REMARK INTRA:                  -0.265
REMARK UNBOUND:                -0.260
REMARK SMILES CCCCC=CC(C)=O
REMARK SMILES IDX 4 1 3 2 2 3 1 4 5 5 6 6 7 7 9 8 8 9
REMARK H PARENT
REMARK Flexibility Score: inf
ROOT
ATOM      1  C   UNL     1     -27.151  -0.319  -3.148  1.00  0.00     0.027 C 
ENDROOT
BRANCH   1   2
ATOM      2  C   UNL     1     -26.057  -0.860  -4.075  1.00  0.00     0.004 C 
BRANCH   2   3
ATOM      3  C   UNL     1     -25.917   0.013  -5.328  1.00  0.00    -0.003 C 
ATOM      4  C   UNL     1     -24.804   1.043  -5.162  1.00  0.00     0.004 C 
ENDBRANCH   2   3
ENDBRANCH   1   2
BRANCH   1   5
ATOM      5  C   UNL     1     -26.666  -0.226  -1.729  1.00  0.00    -0.023 C 
ATOM      6  C   UNL     1     -25.570   0.471  -1.410  1.00  0.00     0.042 C 
BRANCH   6   7
ATOM      7  C   UNL     1     -25.069   0.565  -0.027  1.00  0.00     0.152 C 
ATOM      8  O   UNL     1     -25.835   0.911   0.915  1.00  0.00    -0.295 OA
ATOM      9  C   UNL     1     -23.638   0.250   0.266  1.00  0.00     0.093 C 
ENDBRANCH   6   7
ENDBRANCH   1   5
TORSDOF 4
ENDMDL
MODEL 7
REMARK VINA RESULT:    -3.408      2.140      2.936
REMARK INTER + INTRA:          -4.464
REMARK INTER:                  -4.215
REMARK INTRA:                  -0.249
REMARK UNBOUND:                -0.260
REMARK SMILES CCCCC=CC(C)=O
REMARK SMILES IDX 4 1 3 2 2 3 1 4 5 5 6 6 7 7 9 8 8 9
REMARK H PARENT
REMARK Flexibility Score: inf
ROOT
ATOM      1  C   UNL     1     -27.420  -0.227  -3.024  1.00  0.00     0.027 C 
ENDROOT
BRANCH   1   2
ATOM      2  C   UNL     1     -26.511  -0.571  -4.210  1.00  0.00     0.004 C 
BRANCH   2   3
ATOM      3  C   UNL     1     -26.850  -1.953  -4.781  1.00  0.00    -0.003 C 
ATOM      4  C   UNL     1     -26.076  -3.052  -4.060  1.00  0.00     0.004 C 
ENDBRANCH   2   3
ENDBRANCH   1   2
BRANCH   1   5
ATOM      5  C   UNL     1     -26.648  -0.196  -1.737  1.00  0.00    -0.023 C 
ATOM      6  C   UNL     1     -25.454   0.402  -1.653  1.00  0.00     0.042 C 
BRANCH   6   7
ATOM      7  C   UNL     1     -24.673   0.434  -0.403  1.00  0.00     0.152 C 
ATOM      8  O   UNL     1     -23.501  -0.031  -0.363  1.00  0.00    -0.295 OA
ATOM      9  C   UNL     1     -25.276   1.020   0.832  1.00  0.00     0.093 C 
ENDBRANCH   6   7
ENDBRANCH   1   5
TORSDOF 4
ENDMDL
MODEL 8
REMARK VINA RESULT:    -3.362      3.694      5.193
REMARK INTER + INTRA:          -4.408
REMARK INTER:                  -4.126
REMARK INTRA:                  -0.282
REMARK UNBOUND:                -0.260
REMARK SMILES CCCCC=CC(C)=O
REMARK SMILES IDX 4 1 3 2 2 3 1 4 5 5 6 6 7 7 9 8 8 9
REMARK H PARENT
REMARK Flexibility Score: inf
ROOT
ATOM      1  C   UNL     1     -27.269  -1.019  -6.242  1.00  0.00     0.027 C 
ENDROOT
BRANCH   1   2
ATOM      2  C   UNL     1     -28.779  -1.244  -6.107  1.00  0.00     0.004 C 
BRANCH   2   3
ATOM      3  C   UNL     1     -29.215  -2.510  -6.855  1.00  0.00    -0.003 C 
ATOM      4  C   UNL     1     -28.489  -3.742  -6.324  1.00  0.00     0.004 C 
ENDBRANCH   2   3
ENDBRANCH   1   2
BRANCH   1   5
ATOM      5  C   UNL     1     -26.670  -0.552  -4.946  1.00  0.00    -0.023 C 
ATOM      6  C   UNL     1     -27.351  -0.620  -3.797  1.00  0.00     0.042 C 
BRANCH   6   7
ATOM      7  C   UNL     1     -26.788  -0.157  -2.516  1.00  0.00     0.152 C 
ATOM      8  O   UNL     1     -27.323  -0.481  -1.421  1.00  0.00    -0.295 OA
ATOM      9  C   UNL     1     -25.571   0.711  -2.513  1.00  0.00     0.093 C 
ENDBRANCH   6   7
ENDBRANCH   1   5
TORSDOF 4
ENDMDL
MODEL 9
REMARK VINA RESULT:    -3.361      4.589      6.633
REMARK INTER + INTRA:          -4.406
REMARK INTER:                  -4.170
REMARK INTRA:                  -0.236
REMARK UNBOUND:                -0.260
REMARK SMILES CCCCC=CC(C)=O
REMARK SMILES IDX 4 1 3 2 2 3 1 4 5 5 6 6 7 7 9 8 8 9
REMARK H PARENT
REMARK Flexibility Score: inf
ROOT
ATOM      1  C   UNL     1     -26.255  -1.898  -3.628  1.00  0.00     0.027 C 
ENDROOT
BRANCH   1   2
ATOM      2  C   UNL     1     -25.490  -0.579  -3.470  1.00  0.00     0.004 C 
BRANCH   2   3
ATOM      3  C   UNL     1     -26.175   0.333  -2.444  1.00  0.00    -0.003 C 
ATOM      4  C   UNL     1     -27.018  -0.476  -1.463  1.00  0.00     0.004 C 
ENDBRANCH   2   3
ENDBRANCH   1   2
BRANCH   1   5
ATOM      5  C   UNL     1     -26.904  -1.993  -4.979  1.00  0.00    -0.023 C 
ATOM      6  C   UNL     1     -27.369  -0.907  -5.608  1.00  0.00     0.042 C 
BRANCH   6   7
ATOM      7  C   UNL     1     -28.021  -0.978  -6.928  1.00  0.00     0.152 C 
ATOM      8  O   UNL     1     -29.191  -1.436  -7.046  1.00  0.00    -0.295 OA
ATOM      9  C   UNL     1     -27.289  -0.507  -8.142  1.00  0.00     0.093 C 
ENDBRANCH   6   7
ENDBRANCH   1   5
TORSDOF 4
ENDMDL
