MODEL 1
REMARK VINA RESULT:    -3.047      0.000      0.000
REMARK INTER + INTRA:          -3.047
REMARK INTER:                  -3.047
REMARK INTRA:                   0.000
REMARK UNBOUND:                 0.000
REMARK SMILES CC(=O)[O-]
REMARK SMILES IDX 1 1 2 2 3 3 4 4
REMARK H PARENT
REMARK Flexibility Score: inf
ROOT
ATOM      1  C   UNL     1     -15.253   8.511  -7.991  1.00  0.00     0.063 C 
ATOM      2  C   UNL     1     -15.454   9.093  -6.633  1.00  0.00     0.038 C 
ATOM      3  O   UNL     1     -15.799   8.353  -5.674  1.00  0.00    -0.550 OA
ATOM      4  O   UNL     1     -15.314  10.460  -6.433  1.00  0.00    -0.550 OA
ENDROOT
TORSDOF 0
ENDMDL
MODEL 2
REMARK VINA RESULT:    -2.958     20.719     21.392
REMARK INTER + INTRA:          -2.958
REMARK INTER:                  -2.958
REMARK INTRA:                   0.000
REMARK UNBOUND:                 0.000
REMARK SMILES CC(=O)[O-]
REMARK SMILES IDX 1 1 2 2 3 3 4 4
REMARK H PARENT
REMARK Flexibility Score: inf
ROOT
ATOM      1  C   UNL     1      -5.577  17.211 -22.726  1.00  0.00     0.063 C 
ATOM      2  C   UNL     1      -5.213  18.653 -22.829  1.00  0.00     0.038 C 
ATOM      3  O   UNL     1      -4.876  19.141 -23.940  1.00  0.00    -0.550 OA
ATOM      4  O   UNL     1      -5.192  19.450 -21.692  1.00  0.00    -0.550 OA
ENDROOT
TORSDOF 0
ENDMDL
MODEL 3
REMARK VINA RESULT:    -2.924     20.739     21.394
REMARK INTER + INTRA:          -2.924
REMARK INTER:                  -2.924
REMARK INTRA:                   0.000
REMARK UNBOUND:                 0.000
REMARK SMILES CC(=O)[O-]
REMARK SMILES IDX 1 1 2 2 3 3 4 4
REMARK H PARENT
REMARK Flexibility Score: inf
ROOT
ATOM      1  C   UNL     1      -5.637  17.213 -22.762  1.00  0.00     0.063 C 
ATOM      2  C   UNL     1      -5.218  18.642 -22.811  1.00  0.00     0.038 C 
ATOM      3  O   UNL     1      -5.249  19.346 -21.767  1.00  0.00    -0.550 OA
ATOM      4  O   UNL     1      -4.840  19.217 -24.018  1.00  0.00    -0.550 OA
ENDROOT
TORSDOF 0
ENDMDL
MODEL 4
REMARK VINA RESULT:    -2.890      1.322      1.836
REMARK INTER + INTRA:          -2.890
REMARK INTER:                  -2.890
REMARK INTRA:                   0.000
REMARK UNBOUND:                 0.000
REMARK SMILES CC(=O)[O-]
REMARK SMILES IDX 1 1 2 2 3 3 4 4
REMARK H PARENT
REMARK Flexibility Score: inf
ROOT
ATOM      1  C   UNL     1     -15.552  10.655  -5.654  1.00  0.00     0.063 C 
ATOM      2  C   UNL     1     -15.548   9.298  -6.272  1.00  0.00     0.038 C 
ATOM      3  O   UNL     1     -15.791   8.282  -5.568  1.00  0.00    -0.550 OA
ATOM      4  O   UNL     1     -15.224   9.144  -7.613  1.00  0.00    -0.550 OA
ENDROOT
TORSDOF 0
ENDMDL
MODEL 5
REMARK VINA RESULT:    -2.839     20.841     21.486
REMARK INTER + INTRA:          -2.839
REMARK INTER:                  -2.839
REMARK INTRA:                   0.000
REMARK UNBOUND:                 0.000
REMARK SMILES CC(=O)[O-]
REMARK SMILES IDX 1 1 2 2 3 3 4 4
REMARK H PARENT
REMARK Flexibility Score: inf
ROOT
ATOM      1  C   UNL     1      -5.183  19.856 -21.752  1.00  0.00     0.063 C 
ATOM      2  C   UNL     1      -5.234  18.789 -22.792  1.00  0.00     0.038 C 
ATOM      3  O   UNL     1      -4.936  19.056 -23.986  1.00  0.00    -0.550 OA
ATOM      4  O   UNL     1      -5.662  17.511 -22.458  1.00  0.00    -0.550 OA
ENDROOT
TORSDOF 0
ENDMDL
MODEL 6
REMARK VINA RESULT:    -2.761     20.905     21.479
REMARK INTER + INTRA:          -2.761
REMARK INTER:                  -2.761
REMARK INTRA:                   0.000
REMARK UNBOUND:                 0.000
REMARK SMILES CC(=O)[O-]
REMARK SMILES IDX 1 1 2 2 3 3 4 4
REMARK H PARENT
REMARK Flexibility Score: inf
ROOT
ATOM      1  C   UNL     1      -5.037  20.173 -21.716  1.00  0.00     0.063 C 
ATOM      2  C   UNL     1      -5.210  19.002 -22.623  1.00  0.00     0.038 C 
ATOM      3  O   UNL     1      -5.583  17.893 -22.157  1.00  0.00    -0.550 OA
ATOM      4  O   UNL     1      -4.910  19.116 -23.974  1.00  0.00    -0.550 OA
ENDROOT
TORSDOF 0
ENDMDL
MODEL 7
REMARK VINA RESULT:    -2.535     20.637     21.121
REMARK INTER + INTRA:          -2.535
REMARK INTER:                  -2.535
REMARK INTRA:                   0.000
REMARK UNBOUND:                 0.000
REMARK SMILES CC(=O)[O-]
REMARK SMILES IDX 1 1 2 2 3 3 4 4
REMARK H PARENT
REMARK Flexibility Score: inf
ROOT
ATOM      1  C   UNL     1      -4.937  19.119 -23.823  1.00  0.00     0.063 C 
ATOM      2  C   UNL     1      -5.380  18.601 -22.497  1.00  0.00     0.038 C 
ATOM      3  O   UNL     1      -5.380  19.358 -21.490  1.00  0.00    -0.550 OA
ATOM      4  O   UNL     1      -5.743  17.268 -22.356  1.00  0.00    -0.550 OA
ENDROOT
TORSDOF 0
ENDMDL
MODEL 8
REMARK VINA RESULT:    -2.529      1.974      2.662
REMARK INTER + INTRA:          -2.529
REMARK INTER:                  -2.529
REMARK INTRA:                   0.000
REMARK UNBOUND:                 0.000
REMARK SMILES CC(=O)[O-]
REMARK SMILES IDX 1 1 2 2 3 3 4 4
REMARK H PARENT
REMARK Flexibility Score: inf
ROOT
ATOM      1  C   UNL     1     -16.309  10.117  -5.009  1.00  0.00     0.063 C 
ATOM      2  C   UNL     1     -15.431  10.542  -6.136  1.00  0.00     0.038 C 
ATOM      3  O   UNL     1     -14.953  11.708  -6.159  1.00  0.00    -0.550 OA
ATOM      4  O   UNL     1     -15.179   9.674  -7.190  1.00  0.00    -0.550 OA
ENDROOT
TORSDOF 0
ENDMDL
MODEL 9
REMARK VINA RESULT:    -2.376     14.825     14.981
REMARK INTER + INTRA:          -2.376
REMARK INTER:                  -2.376
REMARK INTRA:                   0.000
REMARK UNBOUND:                 0.000
REMARK SMILES CC(=O)[O-]
REMARK SMILES IDX 1 1 2 2 3 3 4 4
REMARK H PARENT
REMARK Flexibility Score: inf
ROOT
ATOM      1  C   UNL     1      -0.496   8.661  -9.370  1.00  0.00     0.063 C 
ATOM      2  C   UNL     1      -0.866   7.328  -8.813  1.00  0.00     0.038 C 
ATOM      3  O   UNL     1      -2.078   7.015  -8.674  1.00  0.00    -0.550 OA
ATOM      4  O   UNL     1       0.125   6.448  -8.396  1.00  0.00    -0.550 OA
ENDROOT
TORSDOF 0
ENDMDL
