MODEL 1
REMARK VINA RESULT:    -2.743      0.000      0.000
REMARK INTER + INTRA:          -3.273
REMARK INTER:                  -3.224
REMARK INTRA:                  -0.049
REMARK UNBOUND:                -0.049
REMARK SMILES CCCCC(=O)[O-]
REMARK SMILES IDX 4 1 5 2 6 3 7 4 3 5 2 6 1 7
REMARK H PARENT
REMARK Flexibility Score: inf
ROOT
ATOM      1  C   UNL     1     -26.067  20.412 -38.346  1.00  0.00     0.053 C 
ENDROOT
BRANCH   1   2
ATOM      2  C   UNL     1     -27.145  21.230 -38.984  1.00  0.00     0.041 C 
ATOM      3  O   UNL     1     -27.545  20.954 -40.145  1.00  0.00    -0.550 OA
ATOM      4  O   UNL     1     -27.674  22.327 -38.315  1.00  0.00    -0.550 OA
ENDBRANCH   1   2
BRANCH   1   5
ATOM      5  C   UNL     1     -26.419  18.923 -38.402  1.00  0.00     0.006 C 
BRANCH   5   6
ATOM      6  C   UNL     1     -26.299  18.278 -37.016  1.00  0.00    -0.003 C 
ATOM      7  C   UNL     1     -25.484  19.154 -36.070  1.00  0.00     0.004 C 
ENDBRANCH   5   6
ENDBRANCH   1   5
TORSDOF 3
ENDMDL
MODEL 2
REMARK VINA RESULT:    -2.729      9.373      9.993
REMARK INTER + INTRA:          -3.256
REMARK INTER:                  -3.191
REMARK INTRA:                  -0.065
REMARK UNBOUND:                -0.049
REMARK SMILES CCCCC(=O)[O-]
REMARK SMILES IDX 4 1 5 2 6 3 7 4 3 5 2 6 1 7
REMARK H PARENT
REMARK Flexibility Score: inf
ROOT
ATOM      1  C   UNL     1     -24.700  26.559 -30.116  1.00  0.00     0.053 C 
ENDROOT
BRANCH   1   2
ATOM      2  C   UNL     1     -23.895  26.894 -31.332  1.00  0.00     0.041 C 
ATOM      3  O   UNL     1     -24.471  27.209 -32.406  1.00  0.00    -0.550 OA
ATOM      4  O   UNL     1     -22.508  26.810 -31.292  1.00  0.00    -0.550 OA
ENDBRANCH   1   2
BRANCH   1   5
ATOM      5  C   UNL     1     -24.035  25.428 -29.327  1.00  0.00     0.006 C 
BRANCH   5   6
ATOM      6  C   UNL     1     -24.388  24.060 -29.925  1.00  0.00    -0.003 C 
ATOM      7  C   UNL     1     -24.675  23.038 -28.829  1.00  0.00     0.004 C 
ENDBRANCH   5   6
ENDBRANCH   1   5
TORSDOF 3
ENDMDL
MODEL 3
REMARK VINA RESULT:    -2.694     11.833     12.397
REMARK INTER + INTRA:          -3.216
REMARK INTER:                  -3.200
REMARK INTRA:                  -0.016
REMARK UNBOUND:                -0.049
REMARK SMILES CCCCC(=O)[O-]
REMARK SMILES IDX 4 1 5 2 6 3 7 4 3 5 2 6 1 7
REMARK H PARENT
REMARK Flexibility Score: inf
ROOT
ATOM      1  C   UNL     1     -30.501  30.138 -33.944  1.00  0.00     0.053 C 
ENDROOT
BRANCH   1   2
ATOM      2  C   UNL     1     -29.594  31.326 -34.013  1.00  0.00     0.041 C 
ATOM      3  O   UNL     1     -29.148  31.843 -32.956  1.00  0.00    -0.550 OA
ATOM      4  O   UNL     1     -29.282  31.892 -35.243  1.00  0.00    -0.550 OA
ENDBRANCH   1   2
BRANCH   1   5
ATOM      5  C   UNL     1     -31.839  30.445 -34.623  1.00  0.00     0.006 C 
BRANCH   5   6
ATOM      6  C   UNL     1     -32.793  29.248 -34.521  1.00  0.00    -0.003 C 
ATOM      7  C   UNL     1     -34.045  29.607 -33.727  1.00  0.00     0.004 C 
ENDBRANCH   5   6
ENDBRANCH   1   5
TORSDOF 3
ENDMDL
MODEL 4
REMARK VINA RESULT:    -2.637     12.211     13.232
REMARK INTER + INTRA:          -3.148
REMARK INTER:                  -3.131
REMARK INTRA:                  -0.017
REMARK UNBOUND:                -0.049
REMARK SMILES CCCCC(=O)[O-]
REMARK SMILES IDX 4 1 5 2 6 3 7 4 3 5 2 6 1 7
REMARK H PARENT
REMARK Flexibility Score: inf
ROOT
ATOM      1  C   UNL     1     -19.989  30.386 -42.572  1.00  0.00     0.053 C 
ENDROOT
BRANCH   1   2
ATOM      2  C   UNL     1     -19.125  31.608 -42.526  1.00  0.00     0.041 C 
ATOM      3  O   UNL     1     -19.043  32.284 -41.468  1.00  0.00    -0.550 OA
ATOM      4  O   UNL     1     -18.450  32.025 -43.666  1.00  0.00    -0.550 OA
ENDBRANCH   1   2
BRANCH   1   5
ATOM      5  C   UNL     1     -21.440  30.744 -42.241  1.00  0.00     0.006 C 
BRANCH   5   6
ATOM      6  C   UNL     1     -22.347  29.512 -42.350  1.00  0.00    -0.003 C 
ATOM      7  C   UNL     1     -22.579  28.876 -40.983  1.00  0.00     0.004 C 
ENDBRANCH   5   6
ENDBRANCH   1   5
TORSDOF 3
ENDMDL
MODEL 5
REMARK VINA RESULT:    -2.633      9.962     11.279
REMARK INTER + INTRA:          -3.144
REMARK INTER:                  -3.060
REMARK INTRA:                  -0.084
REMARK UNBOUND:                -0.049
REMARK SMILES CCCCC(=O)[O-]
REMARK SMILES IDX 4 1 5 2 6 3 7 4 3 5 2 6 1 7
REMARK H PARENT
REMARK Flexibility Score: inf
ROOT
ATOM      1  C   UNL     1     -24.505  19.826 -27.328  1.00  0.00     0.053 C 
ENDROOT
BRANCH   1   2
ATOM      2  C   UNL     1     -23.742  19.718 -28.611  1.00  0.00     0.041 C 
ATOM      3  O   UNL     1     -24.123  18.923 -29.509  1.00  0.00    -0.550 OA
ATOM      4  O   UNL     1     -22.581  20.460 -28.795  1.00  0.00    -0.550 OA
ENDBRANCH   1   2
BRANCH   1   5
ATOM      5  C   UNL     1     -23.622  19.421 -26.145  1.00  0.00     0.006 C 
BRANCH   5   6
ATOM      6  C   UNL     1     -23.039  18.018 -26.350  1.00  0.00    -0.003 C 
ATOM      7  C   UNL     1     -23.965  16.947 -25.780  1.00  0.00     0.004 C 
ENDBRANCH   5   6
ENDBRANCH   1   5
TORSDOF 3
ENDMDL
MODEL 6
REMARK VINA RESULT:    -2.611     12.350     13.408
REMARK INTER + INTRA:          -3.118
REMARK INTER:                  -3.091
REMARK INTRA:                  -0.027
REMARK UNBOUND:                -0.049
REMARK SMILES CCCCC(=O)[O-]
REMARK SMILES IDX 4 1 5 2 6 3 7 4 3 5 2 6 1 7
REMARK H PARENT
REMARK Flexibility Score: inf
ROOT
ATOM      1  C   UNL     1     -20.606  30.352 -41.691  1.00  0.00     0.053 C 
ENDROOT
BRANCH   1   2
ATOM      2  C   UNL     1     -21.880  30.327 -42.477  1.00  0.00     0.041 C 
ATOM      3  O   UNL     1     -22.732  31.241 -42.328  1.00  0.00    -0.550 OA
ATOM      4  O   UNL     1     -22.146  29.269 -43.337  1.00  0.00    -0.550 OA
ENDBRANCH   1   2
BRANCH   1   5
ATOM      5  C   UNL     1     -19.415  30.630 -42.611  1.00  0.00     0.006 C 
BRANCH   5   6
ATOM      6  C   UNL     1     -18.681  31.908 -42.187  1.00  0.00    -0.003 C 
ATOM      7  C   UNL     1     -17.524  32.218 -43.132  1.00  0.00     0.004 C 
ENDBRANCH   5   6
ENDBRANCH   1   5
TORSDOF 3
ENDMDL
MODEL 7
REMARK VINA RESULT:    -2.605     10.139     10.730
REMARK INTER + INTRA:          -3.111
REMARK INTER:                  -3.093
REMARK INTRA:                  -0.017
REMARK UNBOUND:                -0.049
REMARK SMILES CCCCC(=O)[O-]
REMARK SMILES IDX 4 1 5 2 6 3 7 4 3 5 2 6 1 7
REMARK H PARENT
REMARK Flexibility Score: inf
ROOT
ATOM      1  C   UNL     1     -24.351  26.235 -30.105  1.00  0.00     0.053 C 
ENDROOT
BRANCH   1   2
ATOM      2  C   UNL     1     -23.697  25.195 -29.251  1.00  0.00     0.041 C 
ATOM      3  O   UNL     1     -24.399  24.394 -28.580  1.00  0.00    -0.550 OA
ATOM      4  O   UNL     1     -22.312  25.141 -29.160  1.00  0.00    -0.550 OA
ENDBRANCH   1   2
BRANCH   1   5
ATOM      5  C   UNL     1     -23.607  26.382 -31.435  1.00  0.00     0.006 C 
BRANCH   5   6
ATOM      6  C   UNL     1     -24.324  27.375 -32.358  1.00  0.00    -0.003 C 
ATOM      7  C   UNL     1     -23.497  27.661 -33.608  1.00  0.00     0.004 C 
ENDBRANCH   5   6
ENDBRANCH   1   5
TORSDOF 3
ENDMDL
MODEL 8
REMARK VINA RESULT:    -2.596      8.757     10.260
REMARK INTER + INTRA:          -3.100
REMARK INTER:                  -3.063
REMARK INTRA:                  -0.037
REMARK UNBOUND:                -0.049
REMARK SMILES CCCCC(=O)[O-]
REMARK SMILES IDX 4 1 5 2 6 3 7 4 3 5 2 6 1 7
REMARK H PARENT
REMARK Flexibility Score: inf
ROOT
ATOM      1  C   UNL     1     -23.642  18.842 -28.642  1.00  0.00     0.053 C 
ENDROOT
BRANCH   1   2
ATOM      2  C   UNL     1     -24.065  19.226 -30.025  1.00  0.00     0.041 C 
ATOM      3  O   UNL     1     -24.357  20.422 -30.288  1.00  0.00    -0.550 OA
ATOM      4  O   UNL     1     -24.183  18.254 -31.011  1.00  0.00    -0.550 OA
ENDBRANCH   1   2
BRANCH   1   5
ATOM      5  C   UNL     1     -24.235  19.807 -27.612  1.00  0.00     0.006 C 
BRANCH   5   6
ATOM      6  C   UNL     1     -23.867  19.383 -26.186  1.00  0.00    -0.003 C 
ATOM      7  C   UNL     1     -23.688  17.870 -26.090  1.00  0.00     0.004 C 
ENDBRANCH   5   6
ENDBRANCH   1   5
TORSDOF 3
ENDMDL
MODEL 9
REMARK VINA RESULT:    -2.405      9.916     10.513
REMARK INTER + INTRA:          -2.876
REMARK INTER:                  -2.776
REMARK INTRA:                  -0.100
REMARK UNBOUND:                -0.049
REMARK SMILES CCCCC(=O)[O-]
REMARK SMILES IDX 4 1 5 2 6 3 7 4 3 5 2 6 1 7
REMARK H PARENT
REMARK Flexibility Score: inf
ROOT
ATOM      1  C   UNL     1     -36.411  19.211 -42.316  1.00  0.00     0.053 C 
ENDROOT
BRANCH   1   2
ATOM      2  C   UNL     1     -35.535  19.364 -43.519  1.00  0.00     0.041 C 
ATOM      3  O   UNL     1     -35.332  20.504 -44.013  1.00  0.00    -0.550 OA
ATOM      4  O   UNL     1     -34.983  18.242 -44.125  1.00  0.00    -0.550 OA
ENDBRANCH   1   2
BRANCH   1   5
ATOM      5  C   UNL     1     -35.763  19.870 -41.095  1.00  0.00     0.006 C 
BRANCH   5   6
ATOM      6  C   UNL     1     -36.712  20.891 -40.454  1.00  0.00    -0.003 C 
ATOM      7  C   UNL     1     -36.400  22.306 -40.931  1.00  0.00     0.004 C 
ENDBRANCH   5   6
ENDBRANCH   1   5
TORSDOF 3
ENDMDL
