MODEL 1
REMARK VINA RESULT:    -3.792      0.000      0.000
REMARK INTER + INTRA:          -6.025
REMARK INTER:                  -5.566
REMARK INTRA:                  -0.459
REMARK UNBOUND:                -0.459
REMARK SMILES O=C([O-])CCCCCCCC(=O)[O-]
REMARK SMILES IDX 7 1 6 2 5 3 4 4 2 5 1 6 3 7 8 8 9 9 10 10 11 11 12 12 13 13
REMARK H PARENT
REMARK Flexibility Score: inf
ROOT
ATOM      1  C   UNL     1     145.225 129.715 114.757  1.00  0.00     0.000 C 
ENDROOT
BRANCH   1   2
ATOM      2  C   UNL     1     146.365 130.301 115.604  1.00  0.00     0.000 C 
BRANCH   2   3
ATOM      3  C   UNL     1     145.872 131.347 116.615  1.00  0.00     0.006 C 
BRANCH   3   4
ATOM      4  C   UNL     1     145.235 132.542 115.901  1.00  0.00     0.053 C 
BRANCH   4   5
ATOM      5  C   UNL     1     146.157 133.720 115.925  1.00  0.00     0.041 C 
ATOM      6  O   UNL     1     146.772 134.021 116.980  1.00  0.00    -0.550 OA
ATOM      7  O   UNL     1     146.374 134.456 114.768  1.00  0.00    -0.550 OA
ENDBRANCH   4   5
ENDBRANCH   3   4
ENDBRANCH   2   3
ENDBRANCH   1   2
BRANCH   1   8
ATOM      8  C   UNL     1     145.518 128.280 114.283  1.00  0.00     0.000 C 
BRANCH   8   9
ATOM      9  C   UNL     1     144.991 127.216 115.260  1.00  0.00     0.006 C 
BRANCH   9  10
ATOM     10  C   UNL     1     146.003 126.875 116.361  1.00  0.00     0.053 C 
BRANCH  10  11
ATOM     11  C   UNL     1     145.503 127.343 117.691  1.00  0.00     0.041 C 
ATOM     12  O   UNL     1     144.325 127.772 117.810  1.00  0.00    -0.550 OA
ATOM     13  O   UNL     1     146.352 127.351 118.791  1.00  0.00    -0.550 OA
ENDBRANCH  10  11
ENDBRANCH   9  10
ENDBRANCH   8   9
ENDBRANCH   1   8
TORSDOF 8
ENDMDL
MODEL 2
REMARK VINA RESULT:    -3.768      2.134      4.845
REMARK INTER + INTRA:          -5.990
REMARK INTER:                  -5.044
REMARK INTRA:                  -0.945
REMARK UNBOUND:                -0.459
REMARK SMILES O=C([O-])CCCCCCCC(=O)[O-]
REMARK SMILES IDX 7 1 6 2 5 3 4 4 2 5 1 6 3 7 8 8 9 9 10 10 11 11 12 12 13 13
REMARK H PARENT
REMARK Flexibility Score: inf
ROOT
ATOM      1  C   UNL     1     143.042 127.665 115.145  1.00  0.00     0.000 C 
ENDROOT
BRANCH   1   2
ATOM      2  C   UNL     1     142.610 127.465 116.605  1.00  0.00     0.000 C 
BRANCH   2   3
ATOM      3  C   UNL     1     143.747 126.933 117.491  1.00  0.00     0.006 C 
BRANCH   3   4
ATOM      4  C   UNL     1     144.079 127.923 118.610  1.00  0.00     0.053 C 
BRANCH   4   5
ATOM      5  C   UNL     1     145.530 127.845 118.966  1.00  0.00     0.041 C 
ATOM      6  O   UNL     1     145.963 128.431 119.992  1.00  0.00    -0.550 OA
ATOM      7  O   UNL     1     146.396 127.083 118.192  1.00  0.00    -0.550 OA
ENDBRANCH   4   5
ENDBRANCH   3   4
ENDBRANCH   2   3
ENDBRANCH   1   2
BRANCH   1   8
ATOM      8  C   UNL     1     144.562 127.515 114.952  1.00  0.00     0.000 C 
BRANCH   8   9
ATOM      9  C   UNL     1     145.231 128.821 114.496  1.00  0.00     0.006 C 
BRANCH   9  10
ATOM     10  C   UNL     1     145.986 129.525 115.632  1.00  0.00     0.053 C 
BRANCH  10  11
ATOM     11  C   UNL     1     145.129 130.585 116.247  1.00  0.00     0.041 C 
ATOM     12  O   UNL     1     145.408 131.044 117.386  1.00  0.00    -0.550 OA
ATOM     13  O   UNL     1     143.995 131.036 115.583  1.00  0.00    -0.550 OA
ENDBRANCH  10  11
ENDBRANCH   9  10
ENDBRANCH   8   9
ENDBRANCH   1   8
TORSDOF 8
ENDMDL
MODEL 3
REMARK VINA RESULT:    -3.698      3.117      4.131
REMARK INTER + INTRA:          -5.887
REMARK INTER:                  -5.156
REMARK INTRA:                  -0.731
REMARK UNBOUND:                -0.459
REMARK SMILES O=C([O-])CCCCCCCC(=O)[O-]
REMARK SMILES IDX 7 1 6 2 5 3 4 4 2 5 1 6 3 7 8 8 9 9 10 10 11 11 12 12 13 13
REMARK H PARENT
REMARK Flexibility Score: inf
ROOT
ATOM      1  C   UNL     1     144.361 129.780 114.795  1.00  0.00     0.000 C 
ENDROOT
BRANCH   1   2
ATOM      2  C   UNL     1     145.331 130.738 115.505  1.00  0.00     0.000 C 
BRANCH   2   3
ATOM      3  C   UNL     1     146.003 130.099 116.729  1.00  0.00     0.006 C 
BRANCH   3   4
ATOM      4  C   UNL     1     145.035 130.034 117.914  1.00  0.00     0.053 C 
BRANCH   4   5
ATOM      5  C   UNL     1     145.295 128.812 118.737  1.00  0.00     0.041 C 
ATOM      6  O   UNL     1     146.006 127.880 118.280  1.00  0.00    -0.550 OA
ATOM      7  O   UNL     1     144.792 128.724 120.029  1.00  0.00    -0.550 OA
ENDBRANCH   4   5
ENDBRANCH   3   4
ENDBRANCH   2   3
ENDBRANCH   1   2
BRANCH   1   8
ATOM      8  C   UNL     1     144.968 128.383 114.572  1.00  0.00     0.000 C 
BRANCH   8   9
ATOM      9  C   UNL     1     144.065 127.257 115.101  1.00  0.00     0.006 C 
BRANCH   9  10
ATOM     10  C   UNL     1     142.582 127.650 115.119  1.00  0.00     0.053 C 
BRANCH  10  11
ATOM     11  C   UNL     1     141.940 127.202 116.394  1.00  0.00     0.041 C 
ATOM     12  O   UNL     1     142.628 127.079 117.441  1.00  0.00    -0.550 OA
ATOM     13  O   UNL     1     140.590 126.875 116.416  1.00  0.00    -0.550 OA
ENDBRANCH  10  11
ENDBRANCH   9  10
ENDBRANCH   8   9
ENDBRANCH   1   8
TORSDOF 8
ENDMDL
MODEL 4
REMARK VINA RESULT:    -3.671      2.544      3.428
REMARK INTER + INTRA:          -5.847
REMARK INTER:                  -5.206
REMARK INTRA:                  -0.641
REMARK UNBOUND:                -0.459
REMARK SMILES O=C([O-])CCCCCCCC(=O)[O-]
REMARK SMILES IDX 7 1 6 2 5 3 4 4 2 5 1 6 3 7 8 8 9 9 10 10 11 11 12 12 13 13
REMARK H PARENT
REMARK Flexibility Score: inf
ROOT
ATOM      1  C   UNL     1     144.522 127.239 114.943  1.00  0.00     0.000 C 
ENDROOT
BRANCH   1   2
ATOM      2  C   UNL     1     145.605 128.219 114.467  1.00  0.00     0.000 C 
BRANCH   2   3
ATOM      3  C   UNL     1     145.281 129.677 114.824  1.00  0.00     0.006 C 
BRANCH   3   4
ATOM      4  C   UNL     1     146.165 130.169 115.973  1.00  0.00     0.053 C 
BRANCH   4   5
ATOM      5  C   UNL     1     145.417 130.122 117.267  1.00  0.00     0.041 C 
ATOM      6  O   UNL     1     145.890 129.493 118.249  1.00  0.00    -0.550 OA
ATOM      7  O   UNL     1     144.220 130.814 117.405  1.00  0.00    -0.550 OA
ENDBRANCH   4   5
ENDBRANCH   3   4
ENDBRANCH   2   3
ENDBRANCH   1   2
BRANCH   1   8
ATOM      8  C   UNL     1     143.132 127.894 115.039  1.00  0.00     0.000 C 
BRANCH   8   9
ATOM      9  C   UNL     1     142.321 127.385 116.241  1.00  0.00     0.006 C 
BRANCH   9  10
ATOM     10  C   UNL     1     143.113 127.444 117.554  1.00  0.00     0.053 C 
BRANCH  10  11
ATOM     11  C   UNL     1     142.205 127.211 118.720  1.00  0.00     0.041 C 
ATOM     12  O   UNL     1     141.006 126.875 118.533  1.00  0.00    -0.550 OA
ATOM     13  O   UNL     1     142.669 127.412 120.014  1.00  0.00    -0.550 OA
ENDBRANCH  10  11
ENDBRANCH   9  10
ENDBRANCH   8   9
ENDBRANCH   1   8
TORSDOF 8
ENDMDL
MODEL 5
REMARK VINA RESULT:    -3.666      3.879      5.108
REMARK INTER + INTRA:          -5.840
REMARK INTER:                  -5.426
REMARK INTRA:                  -0.414
REMARK UNBOUND:                -0.459
REMARK SMILES O=C([O-])CCCCCCCC(=O)[O-]
REMARK SMILES IDX 7 1 6 2 5 3 4 4 2 5 1 6 3 7 8 8 9 9 10 10 11 11 12 12 13 13
REMARK H PARENT
REMARK Flexibility Score: inf
ROOT
ATOM      1  C   UNL     1     143.114 128.039 115.059  1.00  0.00     0.000 C 
ENDROOT
BRANCH   1   2
ATOM      2  C   UNL     1     144.381 127.176 114.950  1.00  0.00     0.000 C 
BRANCH   2   3
ATOM      3  C   UNL     1     145.625 127.996 114.578  1.00  0.00     0.006 C 
BRANCH   3   4
ATOM      4  C   UNL     1     145.369 129.494 114.765  1.00  0.00     0.053 C 
BRANCH   4   5
ATOM      5  C   UNL     1     146.155 130.020 115.925  1.00  0.00     0.041 C 
ATOM      6  O   UNL     1     146.143 129.411 117.025  1.00  0.00    -0.550 OA
ATOM      7  O   UNL     1     146.939 131.156 115.775  1.00  0.00    -0.550 OA
ENDBRANCH   4   5
ENDBRANCH   3   4
ENDBRANCH   2   3
ENDBRANCH   1   2
BRANCH   1   8
ATOM      8  C   UNL     1     142.332 127.781 116.359  1.00  0.00     0.000 C 
BRANCH   8   9
ATOM      9  C   UNL     1     140.902 127.283 116.099  1.00  0.00     0.006 C 
BRANCH   9  10
ATOM     10  C   UNL     1     140.677 126.875 114.637  1.00  0.00     0.053 C 
BRANCH  10  11
ATOM     11  C   UNL     1     139.278 127.197 114.216  1.00  0.00     0.041 C 
ATOM     12  O   UNL     1     138.890 126.929 113.049  1.00  0.00    -0.550 OA
ATOM     13  O   UNL     1     138.416 127.836 115.098  1.00  0.00    -0.550 OA
ENDBRANCH  10  11
ENDBRANCH   9  10
ENDBRANCH   8   9
ENDBRANCH   1   8
TORSDOF 8
ENDMDL
MODEL 6
REMARK VINA RESULT:    -3.645     16.251     17.581
REMARK INTER + INTRA:          -5.809
REMARK INTER:                  -5.043
REMARK INTRA:                  -0.766
REMARK UNBOUND:                -0.459
REMARK SMILES O=C([O-])CCCCCCCC(=O)[O-]
REMARK SMILES IDX 7 1 6 2 5 3 4 4 2 5 1 6 3 7 8 8 9 9 10 10 11 11 12 12 13 13
REMARK H PARENT
REMARK Flexibility Score: inf
ROOT
ATOM      1  C   UNL     1     129.433 133.335 114.764  1.00  0.00     0.000 C 
ENDROOT
BRANCH   1   2
ATOM      2  C   UNL     1     129.480 132.114 113.833  1.00  0.00     0.000 C 
BRANCH   2   3
ATOM      3  C   UNL     1     128.968 130.834 114.511  1.00  0.00     0.006 C 
BRANCH   3   4
ATOM      4  C   UNL     1     130.107 130.097 115.221  1.00  0.00     0.053 C 
BRANCH   4   5
ATOM      5  C   UNL     1     129.648 128.754 115.694  1.00  0.00     0.041 C 
ATOM      6  O   UNL     1     129.731 127.753 114.936  1.00  0.00    -0.550 OA
ATOM      7  O   UNL     1     129.174 128.598 116.990  1.00  0.00    -0.550 OA
ENDBRANCH   4   5
ENDBRANCH   3   4
ENDBRANCH   2   3
ENDBRANCH   1   2
BRANCH   1   8
ATOM      8  C   UNL     1     127.999 133.704 115.183  1.00  0.00     0.000 C 
BRANCH   8   9
ATOM      9  C   UNL     1     127.848 133.851 116.705  1.00  0.00     0.006 C 
BRANCH   9  10
ATOM     10  C   UNL     1     128.833 132.967 117.482  1.00  0.00     0.053 C 
BRANCH  10  11
ATOM     11  C   UNL     1     128.127 131.777 118.051  1.00  0.00     0.041 C 
ATOM     12  O   UNL     1     127.068 131.353 117.518  1.00  0.00    -0.550 OA
ATOM     13  O   UNL     1     128.611 131.164 119.200  1.00  0.00    -0.550 OA
ENDBRANCH  10  11
ENDBRANCH   9  10
ENDBRANCH   8   9
ENDBRANCH   1   8
TORSDOF 8
ENDMDL
MODEL 7
REMARK VINA RESULT:    -3.631      2.483      5.869
REMARK INTER + INTRA:          -5.789
REMARK INTER:                  -5.330
REMARK INTRA:                  -0.459
REMARK UNBOUND:                -0.459
REMARK SMILES O=C([O-])CCCCCCCC(=O)[O-]
REMARK SMILES IDX 7 1 6 2 5 3 4 4 2 5 1 6 3 7 8 8 9 9 10 10 11 11 12 12 13 13
REMARK H PARENT
REMARK Flexibility Score: inf
ROOT
ATOM      1  C   UNL     1     145.660 128.107 114.425  1.00  0.00     0.000 C 
ENDROOT
BRANCH   1   2
ATOM      2  C   UNL     1     144.572 127.184 114.993  1.00  0.00     0.000 C 
BRANCH   2   3
ATOM      3  C   UNL     1     143.205 127.878 115.102  1.00  0.00     0.006 C 
BRANCH   3   4
ATOM      4  C   UNL     1     142.445 127.398 116.341  1.00  0.00     0.053 C 
BRANCH   4   5
ATOM      5  C   UNL     1     140.991 127.229 116.031  1.00  0.00     0.041 C 
ATOM      6  O   UNL     1     140.188 126.875 116.932  1.00  0.00    -0.550 OA
ATOM      7  O   UNL     1     140.515 127.509 114.756  1.00  0.00    -0.550 OA
ENDBRANCH   4   5
ENDBRANCH   3   4
ENDBRANCH   2   3
ENDBRANCH   1   2
BRANCH   1   8
ATOM      8  C   UNL     1     145.397 129.592 114.734  1.00  0.00     0.000 C 
BRANCH   8   9
ATOM      9  C   UNL     1     146.263 130.116 115.891  1.00  0.00     0.006 C 
BRANCH   9  10
ATOM     10  C   UNL     1     145.470 130.991 116.871  1.00  0.00     0.053 C 
BRANCH  10  11
ATOM     11  C   UNL     1     145.892 132.422 116.750  1.00  0.00     0.041 C 
ATOM     12  O   UNL     1     146.759 132.758 115.901  1.00  0.00    -0.550 OA
ATOM     13  O   UNL     1     145.363 133.378 117.608  1.00  0.00    -0.550 OA
ENDBRANCH  10  11
ENDBRANCH   9  10
ENDBRANCH   8   9
ENDBRANCH   1   8
TORSDOF 8
ENDMDL
MODEL 8
REMARK VINA RESULT:    -3.621     16.538     17.764
REMARK INTER + INTRA:          -5.774
REMARK INTER:                  -5.175
REMARK INTRA:                  -0.600
REMARK UNBOUND:                -0.459
REMARK SMILES O=C([O-])CCCCCCCC(=O)[O-]
REMARK SMILES IDX 7 1 6 2 5 3 4 4 2 5 1 6 3 7 8 8 9 9 10 10 11 11 12 12 13 13
REMARK H PARENT
REMARK Flexibility Score: inf
ROOT
ATOM      1  C   UNL     1     130.145 128.745 116.584  1.00  0.00     0.000 C 
ENDROOT
BRANCH   1   2
ATOM      2  C   UNL     1     129.711 127.503 117.377  1.00  0.00     0.000 C 
BRANCH   2   3
ATOM      3  C   UNL     1     129.553 127.786 118.879  1.00  0.00     0.006 C 
BRANCH   3   4
ATOM      4  C   UNL     1     129.202 129.257 119.125  1.00  0.00     0.053 C 
BRANCH   4   5
ATOM      5  C   UNL     1     128.329 129.392 120.333  1.00  0.00     0.041 C 
ATOM      6  O   UNL     1     128.841 129.452 121.480  1.00  0.00    -0.550 OA
ATOM      7  O   UNL     1     126.952 129.501 120.186  1.00  0.00    -0.550 OA
ENDBRANCH   4   5
ENDBRANCH   3   4
ENDBRANCH   2   3
ENDBRANCH   1   2
BRANCH   1   8
ATOM      8  C   UNL     1     129.478 128.825 115.199  1.00  0.00     0.000 C 
BRANCH   8   9
ATOM      9  C   UNL     1     128.615 130.085 115.031  1.00  0.00     0.006 C 
BRANCH   9  10
ATOM     10  C   UNL     1     129.087 131.245 115.918  1.00  0.00     0.053 C 
BRANCH  10  11
ATOM     11  C   UNL     1     127.917 131.909 116.573  1.00  0.00     0.041 C 
ATOM     12  O   UNL     1     127.168 131.256 117.345  1.00  0.00    -0.550 OA
ATOM     13  O   UNL     1     127.625 133.238 116.293  1.00  0.00    -0.550 OA
ENDBRANCH  10  11
ENDBRANCH   9  10
ENDBRANCH   8   9
ENDBRANCH   1   8
TORSDOF 8
ENDMDL
MODEL 9
REMARK VINA RESULT:    -3.615      1.469      2.370
REMARK INTER + INTRA:          -5.765
REMARK INTER:                  -5.273
REMARK INTRA:                  -0.492
REMARK UNBOUND:                -0.459
REMARK SMILES O=C([O-])CCCCCCCC(=O)[O-]
REMARK SMILES IDX 7 1 6 2 5 3 4 4 2 5 1 6 3 7 8 8 9 9 10 10 11 11 12 12 13 13
REMARK H PARENT
REMARK Flexibility Score: inf
ROOT
ATOM      1  C   UNL     1     145.548 127.440 115.632  1.00  0.00     0.000 C 
ENDROOT
BRANCH   1   2
ATOM      2  C   UNL     1     145.586 128.624 114.654  1.00  0.00     0.000 C 
BRANCH   2   3
ATOM      3  C   UNL     1     145.160 129.946 115.310  1.00  0.00     0.006 C 
BRANCH   3   4
ATOM      4  C   UNL     1     146.381 130.769 115.730  1.00  0.00     0.053 C 
BRANCH   4   5
ATOM      5  C   UNL     1     145.971 132.153 116.123  1.00  0.00     0.041 C 
ATOM      6  O   UNL     1     146.842 133.012 116.415  1.00  0.00    -0.550 OA
ATOM      7  O   UNL     1     144.628 132.507 116.119  1.00  0.00    -0.550 OA
ENDBRANCH   4   5
ENDBRANCH   3   4
ENDBRANCH   2   3
ENDBRANCH   1   2
BRANCH   1   8
ATOM      8  C   UNL     1     144.179 127.284 116.319  1.00  0.00     0.000 C 
BRANCH   8   9
ATOM      9  C   UNL     1     144.304 126.922 117.807  1.00  0.00     0.006 C 
BRANCH   9  10
ATOM     10  C   UNL     1     145.694 127.237 118.376  1.00  0.00     0.053 C 
BRANCH  10  11
ATOM     11  C   UNL     1     145.573 128.006 119.653  1.00  0.00     0.041 C 
ATOM     12  O   UNL     1     146.557 128.102 120.431  1.00  0.00    -0.550 OA
ATOM     13  O   UNL     1     144.357 128.579 120.007  1.00  0.00    -0.550 OA
ENDBRANCH  10  11
ENDBRANCH   9  10
ENDBRANCH   8   9
ENDBRANCH   1   8
TORSDOF 8
ENDMDL
