MODEL 1
REMARK VINA RESULT:    -4.851      0.000      0.000
REMARK INTER + INTRA:          -6.840
REMARK INTER:                  -6.553
REMARK INTRA:                  -0.287
REMARK UNBOUND:                -0.287
REMARK SMILES O=C[C@@H](O)[C@@H](O)[C@H](O)CO
REMARK SMILES IDX 7 1 9 2 10 3 5 5 3 6 2 7 1 8 4 9 6 11 8 13
REMARK H PARENT 10 4 4 10 6 12 8 14
REMARK Flexibility Score: inf
ROOT
ATOM      1  C   UNL     1       2.406   2.243  35.197  1.00  0.00     0.171 C 
ENDROOT
BRANCH   1   2
ATOM      2  C   UNL     1       2.733   3.593  34.527  1.00  0.00     0.190 C 
BRANCH   2   3
ATOM      3  O   UNL     1       2.630   3.487  33.134  1.00  0.00    -0.394 OA
ATOM      4  H   UNL     1       3.292   4.125  32.760  1.00  0.00     0.210 HD
ENDBRANCH   2   3
ENDBRANCH   1   2
BRANCH   1   5
ATOM      5  C   UNL     1       2.751   2.208  36.717  1.00  0.00     0.181 C 
BRANCH   5   6
ATOM      6  C   UNL     1       3.395   3.508  37.265  1.00  0.00     0.209 C 
BRANCH   6   7
ATOM      7  C   UNL     1       2.498   4.216  38.242  1.00  0.00     0.258 C 
ATOM      8  O   UNL     1       2.259   3.724  39.333  1.00  0.00    -0.300 OA
ENDBRANCH   6   7
BRANCH   6   9
ATOM      9  O   UNL     1       4.601   3.203  37.915  1.00  0.00    -0.383 OA
ATOM     10  H   UNL     1       5.334   3.401  37.275  1.00  0.00     0.211 HD
ENDBRANCH   6   9
ENDBRANCH   5   6
BRANCH   5  11
ATOM     11  O   UNL     1       1.616   1.864  37.476  1.00  0.00    -0.387 OA
ATOM     12  H   UNL     1       0.851   2.398  37.139  1.00  0.00     0.211 HD
ENDBRANCH   5  11
ENDBRANCH   1   5
BRANCH   1  13
ATOM     13  O   UNL     1       3.092   1.211  34.530  1.00  0.00    -0.388 OA
ATOM     14  H   UNL     1       3.159   1.467  33.572  1.00  0.00     0.211 HD
ENDBRANCH   1  13
TORSDOF 8
ENDMDL
MODEL 2
REMARK VINA RESULT:    -4.542      2.190      3.181
REMARK INTER + INTRA:          -6.421
REMARK INTER:                  -5.773
REMARK INTRA:                  -0.649
REMARK UNBOUND:                -0.287
REMARK SMILES O=C[C@@H](O)[C@@H](O)[C@H](O)CO
REMARK SMILES IDX 7 1 9 2 10 3 5 5 3 6 2 7 1 8 4 9 6 11 8 13
REMARK H PARENT 10 4 4 10 6 12 8 14
REMARK Flexibility Score: inf
ROOT
ATOM      1  C   UNL     1       3.050   3.245  38.031  1.00  0.00     0.171 C 
ENDROOT
BRANCH   1   2
ATOM      2  C   UNL     1       3.326   3.276  36.514  1.00  0.00     0.190 C 
BRANCH   2   3
ATOM      3  O   UNL     1       3.167   1.999  35.961  1.00  0.00    -0.394 OA
ATOM      4  H   UNL     1       2.694   1.459  36.646  1.00  0.00     0.210 HD
ENDBRANCH   2   3
ENDBRANCH   1   2
BRANCH   1   5
ATOM      5  C   UNL     1       2.430   1.900  38.519  1.00  0.00     0.181 C 
BRANCH   5   6
ATOM      6  C   UNL     1       2.217   1.803  40.052  1.00  0.00     0.209 C 
BRANCH   6   7
ATOM      7  C   UNL     1       0.780   2.021  40.440  1.00  0.00     0.258 C 
ATOM      8  O   UNL     1       0.304   3.145  40.447  1.00  0.00    -0.300 OA
ENDBRANCH   6   7
BRANCH   6   9
ATOM      9  O   UNL     1       2.608   0.533  40.506  1.00  0.00    -0.383 OA
ATOM     10  H   UNL     1       2.101   0.356  41.341  1.00  0.00     0.211 HD
ENDBRANCH   6   9
ENDBRANCH   5   6
BRANCH   5  11
ATOM     11  O   UNL     1       1.226   1.632  37.838  1.00  0.00    -0.387 OA
ATOM     12  H   UNL     1       0.504   2.146  38.283  1.00  0.00     0.211 HD
ENDBRANCH   5  11
ENDBRANCH   1   5
BRANCH   1  13
ATOM     13  O   UNL     1       2.200   4.313  38.375  1.00  0.00    -0.388 OA
ATOM     14  H   UNL     1       1.934   4.190  39.325  1.00  0.00     0.211 HD
ENDBRANCH   1  13
TORSDOF 8
ENDMDL
MODEL 3
REMARK VINA RESULT:    -4.443      3.764      5.105
REMARK INTER + INTRA:          -6.288
REMARK INTER:                  -5.630
REMARK INTRA:                  -0.658
REMARK UNBOUND:                -0.287
REMARK SMILES O=C[C@@H](O)[C@@H](O)[C@H](O)CO
REMARK SMILES IDX 7 1 9 2 10 3 5 5 3 6 2 7 1 8 4 9 6 11 8 13
REMARK H PARENT 10 4 4 10 6 12 8 14
REMARK Flexibility Score: inf
ROOT
ATOM      1  C   UNL     1       1.752   4.940  39.336  1.00  0.00     0.171 C 
ENDROOT
BRANCH   1   2
ATOM      2  C   UNL     1       2.877   5.906  39.758  1.00  0.00     0.190 C 
BRANCH   2   3
ATOM      3  O   UNL     1       2.352   7.172  40.049  1.00  0.00    -0.394 OA
ATOM      4  H   UNL     1       2.980   7.589  40.695  1.00  0.00     0.210 HD
ENDBRANCH   2   3
ENDBRANCH   1   2
BRANCH   1   5
ATOM      5  C   UNL     1       1.129   4.158  40.532  1.00  0.00     0.181 C 
BRANCH   5   6
ATOM      6  C   UNL     1       1.269   2.616  40.441  1.00  0.00     0.209 C 
BRANCH   6   7
ATOM      7  C   UNL     1       0.926   1.938  41.739  1.00  0.00     0.258 C 
ATOM      8  O   UNL     1       1.799   1.675  42.551  1.00  0.00    -0.300 OA
ENDBRANCH   6   7
BRANCH   6   9
ATOM      9  O   UNL     1       0.413   2.119  39.446  1.00  0.00    -0.383 OA
ATOM     10  H   UNL     1      -0.515   2.244  39.773  1.00  0.00     0.211 HD
ENDBRANCH   6   9
ENDBRANCH   5   6
BRANCH   5  11
ATOM     11  O   UNL     1       1.645   4.627  41.756  1.00  0.00    -0.387 OA
ATOM     12  H   UNL     1       0.934   4.535  42.441  1.00  0.00     0.211 HD
ENDBRANCH   5  11
ENDBRANCH   1   5
BRANCH   1  13
ATOM     13  O   UNL     1       2.248   4.033  38.381  1.00  0.00    -0.388 OA
ATOM     14  H   UNL     1       2.986   4.486  37.893  1.00  0.00     0.211 HD
ENDBRANCH   1  13
TORSDOF 8
ENDMDL
MODEL 4
REMARK VINA RESULT:    -4.439      2.169      4.248
REMARK INTER + INTRA:          -6.283
REMARK INTER:                  -5.803
REMARK INTRA:                  -0.480
REMARK UNBOUND:                -0.287
REMARK SMILES O=C[C@@H](O)[C@@H](O)[C@H](O)CO
REMARK SMILES IDX 7 1 9 2 10 3 5 5 3 6 2 7 1 8 4 9 6 11 8 13
REMARK H PARENT 10 4 4 10 6 12 8 14
REMARK Flexibility Score: inf
ROOT
ATOM      1  C   UNL     1       2.087   2.078  39.908  1.00  0.00     0.171 C 
ENDROOT
BRANCH   1   2
ATOM      2  C   UNL     1       0.728   2.211  40.626  1.00  0.00     0.190 C 
BRANCH   2   3
ATOM      3  O   UNL     1      -0.320   2.212  39.697  1.00  0.00    -0.394 OA
ATOM      4  H   UNL     1      -1.010   1.598  40.060  1.00  0.00     0.210 HD
ENDBRANCH   2   3
ENDBRANCH   1   2
BRANCH   1   5
ATOM      5  C   UNL     1       2.007   2.367  38.378  1.00  0.00     0.181 C 
BRANCH   5   6
ATOM      6  C   UNL     1       3.345   2.812  37.732  1.00  0.00     0.209 C 
BRANCH   6   7
ATOM      7  C   UNL     1       3.219   3.008  36.246  1.00  0.00     0.258 C 
ATOM      8  O   UNL     1       2.999   2.057  35.512  1.00  0.00    -0.300 OA
ENDBRANCH   6   7
BRANCH   6   9
ATOM      9  O   UNL     1       3.767   4.024  38.301  1.00  0.00    -0.383 OA
ATOM     10  H   UNL     1       3.640   4.727  37.612  1.00  0.00     0.211 HD
ENDBRANCH   6   9
ENDBRANCH   5   6
BRANCH   5  11
ATOM     11  O   UNL     1       1.474   1.258  37.690  1.00  0.00    -0.387 OA
ATOM     12  H   UNL     1       2.041   1.095  36.892  1.00  0.00     0.211 HD
ENDBRANCH   5  11
ENDBRANCH   1   5
BRANCH   1  13
ATOM     13  O   UNL     1       2.606   0.789  40.123  1.00  0.00    -0.388 OA
ATOM     14  H   UNL     1       2.927   0.748  41.062  1.00  0.00     0.211 HD
ENDBRANCH   1  13
TORSDOF 8
ENDMDL
MODEL 5
REMARK VINA RESULT:    -4.382      1.259      2.277
REMARK INTER + INTRA:          -6.205
REMARK INTER:                  -5.969
REMARK INTRA:                  -0.236
REMARK UNBOUND:                -0.287
REMARK SMILES O=C[C@@H](O)[C@@H](O)[C@H](O)CO
REMARK SMILES IDX 7 1 9 2 10 3 5 5 3 6 2 7 1 8 4 9 6 11 8 13
REMARK H PARENT 10 4 4 10 6 12 8 14
REMARK Flexibility Score: inf
ROOT
ATOM      1  C   UNL     1       2.431   2.738  36.544  1.00  0.00     0.171 C 
ENDROOT
BRANCH   1   2
ATOM      2  C   UNL     1       3.104   2.448  35.188  1.00  0.00     0.190 C 
BRANCH   2   3
ATOM      3  O   UNL     1       2.975   1.093  34.857  1.00  0.00    -0.394 OA
ATOM      4  H   UNL     1       2.080   0.814  35.181  1.00  0.00     0.210 HD
ENDBRANCH   2   3
ENDBRANCH   1   2
BRANCH   1   5
ATOM      5  C   UNL     1       3.447   3.077  37.677  1.00  0.00     0.181 C 
BRANCH   5   6
ATOM      6  C   UNL     1       3.007   4.228  38.619  1.00  0.00     0.209 C 
BRANCH   6   7
ATOM      7  C   UNL     1       2.787   5.517  37.875  1.00  0.00     0.258 C 
ATOM      8  O   UNL     1       2.628   6.564  38.482  1.00  0.00    -0.300 OA
ENDBRANCH   6   7
BRANCH   6   9
ATOM      9  O   UNL     1       1.808   3.882  39.264  1.00  0.00    -0.383 OA
ATOM     10  H   UNL     1       1.377   4.730  39.548  1.00  0.00     0.211 HD
ENDBRANCH   6   9
ENDBRANCH   5   6
BRANCH   5  11
ATOM     11  O   UNL     1       3.762   1.925  38.424  1.00  0.00    -0.387 OA
ATOM     12  H   UNL     1       4.159   1.260  37.803  1.00  0.00     0.211 HD
ENDBRANCH   5  11
ENDBRANCH   1   5
BRANCH   1  13
ATOM     13  O   UNL     1       1.646   1.634  36.924  1.00  0.00    -0.388 OA
ATOM     14  H   UNL     1       2.011   1.288  37.782  1.00  0.00     0.211 HD
ENDBRANCH   1  13
TORSDOF 8
ENDMDL
MODEL 6
REMARK VINA RESULT:    -4.284      3.162      5.268
REMARK INTER + INTRA:          -6.074
REMARK INTER:                  -5.373
REMARK INTRA:                  -0.701
REMARK UNBOUND:                -0.287
REMARK SMILES O=C[C@@H](O)[C@@H](O)[C@H](O)CO
REMARK SMILES IDX 7 1 9 2 10 3 5 5 3 6 2 7 1 8 4 9 6 11 8 13
REMARK H PARENT 10 4 4 10 6 12 8 14
REMARK Flexibility Score: inf
ROOT
ATOM      1  C   UNL     1       0.327   2.391  41.245  1.00  0.00     0.171 C 
ENDROOT
BRANCH   1   2
ATOM      2  C   UNL     1      -0.958   2.055  40.462  1.00  0.00     0.190 C 
BRANCH   2   3
ATOM      3  O   UNL     1      -1.543   3.222  39.955  1.00  0.00    -0.394 OA
ATOM      4  H   UNL     1      -1.684   3.062  38.985  1.00  0.00     0.210 HD
ENDBRANCH   2   3
ENDBRANCH   1   2
BRANCH   1   5
ATOM      5  C   UNL     1       1.520   2.797  40.327  1.00  0.00     0.181 C 
BRANCH   5   6
ATOM      6  C   UNL     1       2.047   1.663  39.410  1.00  0.00     0.209 C 
BRANCH   6   7
ATOM      7  C   UNL     1       2.996   2.176  38.362  1.00  0.00     0.258 C 
ATOM      8  O   UNL     1       2.603   2.405  37.228  1.00  0.00    -0.300 OA
ENDBRANCH   6   7
BRANCH   6   9
ATOM      9  O   UNL     1       2.721   0.703  40.181  1.00  0.00    -0.383 OA
ATOM     10  H   UNL     1       3.161   1.187  40.927  1.00  0.00     0.211 HD
ENDBRANCH   6   9
ENDBRANCH   5   6
BRANCH   5  11
ATOM     11  O   UNL     1       1.195   3.935  39.564  1.00  0.00    -0.387 OA
ATOM     12  H   UNL     1       0.318   4.274  39.881  1.00  0.00     0.211 HD
ENDBRANCH   5  11
ENDBRANCH   1   5
BRANCH   1  13
ATOM     13  O   UNL     1       0.692   1.289  42.040  1.00  0.00    -0.388 OA
ATOM     14  H   UNL     1       1.579   0.971  41.723  1.00  0.00     0.211 HD
ENDBRANCH   1  13
TORSDOF 8
ENDMDL
MODEL 7
REMARK VINA RESULT:    -4.274      2.538      4.175
REMARK INTER + INTRA:          -6.060
REMARK INTER:                  -5.390
REMARK INTRA:                  -0.670
REMARK UNBOUND:                -0.287
REMARK SMILES O=C[C@@H](O)[C@@H](O)[C@H](O)CO
REMARK SMILES IDX 7 1 9 2 10 3 5 5 3 6 2 7 1 8 4 9 6 11 8 13
REMARK H PARENT 10 4 4 10 6 12 8 14
REMARK Flexibility Score: inf
ROOT
ATOM      1  C   UNL     1       2.508   4.187  38.998  1.00  0.00     0.171 C 
ENDROOT
BRANCH   1   2
ATOM      2  C   UNL     1       3.078   4.042  37.572  1.00  0.00     0.190 C 
BRANCH   2   3
ATOM      3  O   UNL     1       4.136   3.124  37.557  1.00  0.00    -0.394 OA
ATOM      4  H   UNL     1       4.878   3.552  38.058  1.00  0.00     0.210 HD
ENDBRANCH   2   3
ENDBRANCH   1   2
BRANCH   1   5
ATOM      5  C   UNL     1       2.027   2.836  39.610  1.00  0.00     0.181 C 
BRANCH   5   6
ATOM      6  C   UNL     1       1.012   2.979  40.774  1.00  0.00     0.209 C 
BRANCH   6   7
ATOM      7  C   UNL     1       0.889   1.713  41.578  1.00  0.00     0.258 C 
ATOM      8  O   UNL     1       1.744   0.845  41.501  1.00  0.00    -0.300 OA
ENDBRANCH   6   7
BRANCH   6   9
ATOM      9  O   UNL     1       1.419   4.010  41.636  1.00  0.00    -0.383 OA
ATOM     10  H   UNL     1       1.844   4.707  41.072  1.00  0.00     0.211 HD
ENDBRANCH   6   9
ENDBRANCH   5   6
BRANCH   5  11
ATOM     11  O   UNL     1       1.510   1.992  38.608  1.00  0.00    -0.387 OA
ATOM     12  H   UNL     1       0.678   1.579  38.957  1.00  0.00     0.211 HD
ENDBRANCH   5  11
ENDBRANCH   1   5
BRANCH   1  13
ATOM     13  O   UNL     1       1.447   5.110  38.987  1.00  0.00    -0.388 OA
ATOM     14  H   UNL     1       1.609   5.744  38.238  1.00  0.00     0.211 HD
ENDBRANCH   1  13
TORSDOF 8
ENDMDL
MODEL 8
REMARK VINA RESULT:    -4.231      2.872      4.255
REMARK INTER + INTRA:          -6.001
REMARK INTER:                  -5.309
REMARK INTRA:                  -0.693
REMARK UNBOUND:                -0.287
REMARK SMILES O=C[C@@H](O)[C@@H](O)[C@H](O)CO
REMARK SMILES IDX 7 1 9 2 10 3 5 5 3 6 2 7 1 8 4 9 6 11 8 13
REMARK H PARENT 10 4 4 10 6 12 8 14
REMARK Flexibility Score: inf
ROOT
ATOM      1  C   UNL     1       1.494   2.147  39.786  1.00  0.00     0.171 C 
ENDROOT
BRANCH   1   2
ATOM      2  C   UNL     1       0.188   2.067  40.602  1.00  0.00     0.190 C 
BRANCH   2   3
ATOM      3  O   UNL     1      -0.914   2.381  39.796  1.00  0.00    -0.394 OA
ATOM      4  H   UNL     1      -1.687   2.480  40.411  1.00  0.00     0.210 HD
ENDBRANCH   2   3
ENDBRANCH   1   2
BRANCH   1   5
ATOM      5  C   UNL     1       2.043   3.599  39.641  1.00  0.00     0.181 C 
BRANCH   5   6
ATOM      6  C   UNL     1       2.750   3.893  38.293  1.00  0.00     0.209 C 
BRANCH   6   7
ATOM      7  C   UNL     1       3.188   5.327  38.183  1.00  0.00     0.258 C 
ATOM      8  O   UNL     1       2.363   6.223  38.098  1.00  0.00    -0.300 OA
ENDBRANCH   6   7
BRANCH   6   9
ATOM      9  O   UNL     1       3.884   3.075  38.163  1.00  0.00    -0.383 OA
ATOM     10  H   UNL     1       4.423   3.444  37.415  1.00  0.00     0.211 HD
ENDBRANCH   6   9
ENDBRANCH   5   6
BRANCH   5  11
ATOM     11  O   UNL     1       1.024   4.542  39.877  1.00  0.00    -0.387 OA
ATOM     12  H   UNL     1       0.153   4.073  39.803  1.00  0.00     0.211 HD
ENDBRANCH   5  11
ENDBRANCH   1   5
BRANCH   1  13
ATOM     13  O   UNL     1       1.286   1.588  38.512  1.00  0.00    -0.388 OA
ATOM     14  H   UNL     1       1.893   2.054  37.878  1.00  0.00     0.211 HD
ENDBRANCH   1  13
TORSDOF 8
ENDMDL
MODEL 9
REMARK VINA RESULT:    -4.229      1.106      3.987
REMARK INTER + INTRA:          -5.999
REMARK INTER:                  -5.349
REMARK INTRA:                  -0.650
REMARK UNBOUND:                -0.287
REMARK SMILES O=C[C@@H](O)[C@@H](O)[C@H](O)CO
REMARK SMILES IDX 7 1 9 2 10 3 5 5 3 6 2 7 1 8 4 9 6 11 8 13
REMARK H PARENT 10 4 4 10 6 12 8 14
REMARK Flexibility Score: inf
ROOT
ATOM      1  C   UNL     1       2.786   2.135  37.735  1.00  0.00     0.171 C 
ENDROOT
BRANCH   1   2
ATOM      2  C   UNL     1       2.847   3.060  38.967  1.00  0.00     0.190 C 
BRANCH   2   3
ATOM      3  O   UNL     1       1.677   3.825  39.064  1.00  0.00    -0.394 OA
ATOM      4  H   UNL     1       1.325   3.909  38.140  1.00  0.00     0.210 HD
ENDBRANCH   2   3
ENDBRANCH   1   2
BRANCH   1   5
ATOM      5  C   UNL     1       3.176   2.850  36.406  1.00  0.00     0.181 C 
BRANCH   5   6
ATOM      6  C   UNL     1       2.526   2.249  35.132  1.00  0.00     0.209 C 
BRANCH   6   7
ATOM      7  C   UNL     1       2.802   3.080  33.910  1.00  0.00     0.258 C 
ATOM      8  O   UNL     1       2.244   4.155  33.751  1.00  0.00    -0.300 OA
ENDBRANCH   6   7
BRANCH   6   9
ATOM      9  O   UNL     1       3.027   0.957  34.908  1.00  0.00    -0.383 OA
ATOM     10  H   UNL     1       4.007   1.045  34.776  1.00  0.00     0.211 HD
ENDBRANCH   6   9
ENDBRANCH   5   6
BRANCH   5  11
ATOM     11  O   UNL     1       2.911   4.231  36.488  1.00  0.00    -0.387 OA
ATOM     12  H   UNL     1       3.442   4.685  35.784  1.00  0.00     0.211 HD
ENDBRANCH   5  11
ENDBRANCH   1   5
BRANCH   1  13
ATOM     13  O   UNL     1       1.493   1.591  37.621  1.00  0.00    -0.388 OA
ATOM     14  H   UNL     1       1.592   0.615  37.463  1.00  0.00     0.211 HD
ENDBRANCH   1  13
TORSDOF 8
ENDMDL
