MODEL 1
REMARK VINA RESULT:    -5.362      0.000      0.000
REMARK INTER + INTRA:          -6.003
REMARK INTER:                  -5.832
REMARK INTRA:                  -0.172
REMARK UNBOUND:                -0.172
REMARK SMILES C=C(C)[C@H]1CC[C@@H](C)C[C@@H]1O
REMARK SMILES IDX 8 1 7 2 6 3 5 4 4 5 10 6 9 7 11 8 2 10 1 11 3 12
REMARK H PARENT 11 9
REMARK Flexibility Score: inf
ROOT
ATOM      1  C   UNL     1      13.235  15.431  29.463  1.00  0.00     0.008 C 
ATOM      2  C   UNL     1      14.433  15.960  28.660  1.00  0.00    -0.012 C 
ATOM      3  C   UNL     1      14.341  17.478  28.411  1.00  0.00     0.004 C 
ATOM      4  C   UNL     1      13.285  17.835  27.355  1.00  0.00     0.011 C 
ATOM      5  C   UNL     1      13.534  17.075  26.037  1.00  0.00     0.043 C 
ATOM      6  C   UNL     1      13.576  15.545  26.274  1.00  0.00     0.121 C 
ATOM      7  C   UNL     1      14.632  15.191  27.336  1.00  0.00     0.035 C 
ENDROOT
BRANCH   6   8
ATOM      8  O   UNL     1      13.911  14.884  25.079  1.00  0.00    -0.392 OA
ATOM      9  H   UNL     1      14.874  15.057  24.909  1.00  0.00     0.210 HD
ENDBRANCH   6   8
BRANCH   5  10
ATOM     10  C   UNL     1      12.498  17.459  24.987  1.00  0.00    -0.075 C 
ATOM     11  C   UNL     1      11.185  17.471  25.275  1.00  0.00     0.008 C 
ATOM     12  C   UNL     1      12.933  17.830  23.593  1.00  0.00     0.039 C 
ENDBRANCH   5  10
TORSDOF 2
ENDMDL
MODEL 2
REMARK VINA RESULT:    -5.144      1.043      4.051
REMARK INTER + INTRA:          -5.766
REMARK INTER:                  -5.567
REMARK INTRA:                  -0.199
REMARK UNBOUND:                -0.172
REMARK SMILES C=C(C)[C@H]1CC[C@@H](C)C[C@@H]1O
REMARK SMILES IDX 8 1 7 2 6 3 5 4 4 5 10 6 9 7 11 8 2 10 1 11 3 12
REMARK H PARENT 11 9
REMARK Flexibility Score: inf
ROOT
ATOM      1  C   UNL     1      12.623  18.125  23.502  1.00  0.00     0.008 C 
ATOM      2  C   UNL     1      11.723  17.047  24.126  1.00  0.00    -0.012 C 
ATOM      3  C   UNL     1      11.003  17.552  25.392  1.00  0.00     0.004 C 
ATOM      4  C   UNL     1      11.949  17.669  26.596  1.00  0.00     0.011 C 
ATOM      5  C   UNL     1      12.673  16.335  26.869  1.00  0.00     0.043 C 
ATOM      6  C   UNL     1      13.440  15.850  25.614  1.00  0.00     0.121 C 
ATOM      7  C   UNL     1      12.490  15.738  24.408  1.00  0.00     0.035 C 
ENDROOT
BRANCH   6   8
ATOM      8  O   UNL     1      14.000  14.583  25.855  1.00  0.00    -0.392 OA
ATOM      9  H   UNL     1      14.939  14.728  26.144  1.00  0.00     0.210 HD
ENDBRANCH   6   8
BRANCH   5  10
ATOM     10  C   UNL     1      13.587  16.456  28.083  1.00  0.00    -0.075 C 
ATOM     11  C   UNL     1      14.553  17.388  28.139  1.00  0.00     0.008 C 
ATOM     12  C   UNL     1      13.423  15.516  29.249  1.00  0.00     0.039 C 
ENDBRANCH   5  10
TORSDOF 2
ENDMDL
MODEL 3
REMARK VINA RESULT:    -4.945      1.826      4.350
REMARK INTER + INTRA:          -5.550
REMARK INTER:                  -5.982
REMARK INTRA:                   0.432
REMARK UNBOUND:                -0.172
REMARK SMILES C=C(C)[C@H]1CC[C@@H](C)C[C@@H]1O
REMARK SMILES IDX 8 1 7 2 6 3 5 4 4 5 10 6 9 7 11 8 2 10 1 11 3 12
REMARK H PARENT 11 9
REMARK Flexibility Score: inf
ROOT
ATOM      1  C   UNL     1      11.869  16.342  24.351  1.00  0.00     0.008 C 
ATOM      2  C   UNL     1      12.671  17.542  24.879  1.00  0.00    -0.012 C 
ATOM      3  C   UNL     1      14.192  17.312  24.782  1.00  0.00     0.004 C 
ATOM      4  C   UNL     1      14.702  16.318  25.836  1.00  0.00     0.011 C 
ATOM      5  C   UNL     1      14.301  16.758  27.258  1.00  0.00     0.043 C 
ATOM      6  C   UNL     1      12.767  16.941  27.374  1.00  0.00     0.121 C 
ATOM      7  C   UNL     1      12.259  17.934  26.314  1.00  0.00     0.035 C 
ENDROOT
BRANCH   6   8
ATOM      8  O   UNL     1      12.440  17.444  28.645  1.00  0.00    -0.392 OA
ATOM      9  H   UNL     1      13.189  17.212  29.254  1.00  0.00     0.210 HD
ENDBRANCH   6   8
BRANCH   5  10
ATOM     10  C   UNL     1      14.837  15.780  28.297  1.00  0.00    -0.075 C 
ATOM     11  C   UNL     1      16.135  15.430  28.322  1.00  0.00     0.008 C 
ATOM     12  C   UNL     1      13.908  15.179  29.320  1.00  0.00     0.039 C 
ENDBRANCH   5  10
TORSDOF 2
ENDMDL
MODEL 4
REMARK VINA RESULT:    -4.542      1.279      1.644
REMARK INTER + INTRA:          -5.112
REMARK INTER:                  -5.000
REMARK INTRA:                  -0.112
REMARK UNBOUND:                -0.172
REMARK SMILES C=C(C)[C@H]1CC[C@@H](C)C[C@@H]1O
REMARK SMILES IDX 8 1 7 2 6 3 5 4 4 5 10 6 9 7 11 8 2 10 1 11 3 12
REMARK H PARENT 11 9
REMARK Flexibility Score: inf
ROOT
ATOM      1  C   UNL     1      13.404  15.377  28.797  1.00  0.00     0.008 C 
ATOM      2  C   UNL     1      13.897  16.803  28.504  1.00  0.00    -0.012 C 
ATOM      3  C   UNL     1      12.739  17.758  28.154  1.00  0.00     0.004 C 
ATOM      4  C   UNL     1      12.175  17.504  26.748  1.00  0.00     0.011 C 
ATOM      5  C   UNL     1      13.286  17.572  25.681  1.00  0.00     0.043 C 
ATOM      6  C   UNL     1      14.429  16.576  26.001  1.00  0.00     0.121 C 
ATOM      7  C   UNL     1      14.988  16.830  27.413  1.00  0.00     0.035 C 
ENDROOT
BRANCH   6   8
ATOM      8  O   UNL     1      15.475  16.734  25.075  1.00  0.00    -0.392 OA
ATOM      9  H   UNL     1      15.422  15.971  24.442  1.00  0.00     0.210 HD
ENDBRANCH   6   8
BRANCH   5  10
ATOM     10  C   UNL     1      12.711  17.347  24.288  1.00  0.00    -0.075 C 
ATOM     11  C   UNL     1      13.068  18.125  23.252  1.00  0.00     0.008 C 
ATOM     12  C   UNL     1      11.716  16.240  24.049  1.00  0.00     0.039 C 
ENDBRANCH   5  10
TORSDOF 2
ENDMDL
MODEL 5
REMARK VINA RESULT:    -4.233      1.636      2.359
REMARK INTER + INTRA:          -4.776
REMARK INTER:                  -4.595
REMARK INTRA:                  -0.181
REMARK UNBOUND:                -0.172
REMARK SMILES C=C(C)[C@H]1CC[C@@H](C)C[C@@H]1O
REMARK SMILES IDX 8 1 7 2 6 3 5 4 4 5 10 6 9 7 11 8 2 10 1 11 3 12
REMARK H PARENT 11 9
REMARK Flexibility Score: inf
ROOT
ATOM      1  C   UNL     1      15.945  15.937  28.414  1.00  0.00     0.008 C 
ATOM      2  C   UNL     1      14.539  15.317  28.423  1.00  0.00    -0.012 C 
ATOM      3  C   UNL     1      14.247  14.518  27.138  1.00  0.00     0.004 C 
ATOM      4  C   UNL     1      14.001  15.427  25.926  1.00  0.00     0.011 C 
ATOM      5  C   UNL     1      12.875  16.442  26.210  1.00  0.00     0.043 C 
ATOM      6  C   UNL     1      13.188  17.284  27.472  1.00  0.00     0.121 C 
ATOM      7  C   UNL     1      13.440  16.369  28.684  1.00  0.00     0.035 C 
ENDROOT
BRANCH   6   8
ATOM      8  O   UNL     1      12.101  18.124  27.769  1.00  0.00    -0.392 OA
ATOM      9  H   UNL     1      12.090  18.843  27.084  1.00  0.00     0.210 HD
ENDBRANCH   6   8
BRANCH   5  10
ATOM     10  C   UNL     1      12.620  17.320  24.990  1.00  0.00    -0.075 C 
ATOM     11  C   UNL     1      11.400  17.401  24.432  1.00  0.00     0.008 C 
ATOM     12  C   UNL     1      13.746  18.116  24.381  1.00  0.00     0.039 C 
ENDBRANCH   5  10
TORSDOF 2
ENDMDL
MODEL 6
REMARK VINA RESULT:    -4.222      1.689      4.327
REMARK INTER + INTRA:          -4.764
REMARK INTER:                  -4.645
REMARK INTRA:                  -0.120
REMARK UNBOUND:                -0.172
REMARK SMILES C=C(C)[C@H]1CC[C@@H](C)C[C@@H]1O
REMARK SMILES IDX 8 1 7 2 6 3 5 4 4 5 10 6 9 7 11 8 2 10 1 11 3 12
REMARK H PARENT 11 9
REMARK Flexibility Score: inf
ROOT
ATOM      1  C   UNL     1      11.192  17.292  25.474  1.00  0.00     0.008 C 
ATOM      2  C   UNL     1      12.710  17.279  25.236  1.00  0.00    -0.012 C 
ATOM      3  C   UNL     1      13.268  15.847  25.116  1.00  0.00     0.004 C 
ATOM      4  C   UNL     1      13.324  15.124  26.470  1.00  0.00     0.011 C 
ATOM      5  C   UNL     1      14.123  15.941  27.505  1.00  0.00     0.043 C 
ATOM      6  C   UNL     1      13.534  17.364  27.668  1.00  0.00     0.121 C 
ATOM      7  C   UNL     1      13.475  18.084  26.309  1.00  0.00     0.035 C 
ENDROOT
BRANCH   6   8
ATOM      8  O   UNL     1      14.342  18.121  28.534  1.00  0.00    -0.392 OA
ATOM      9  H   UNL     1      14.062  17.902  29.461  1.00  0.00     0.210 HD
ENDBRANCH   6   8
BRANCH   5  10
ATOM     10  C   UNL     1      14.196  15.201  28.836  1.00  0.00    -0.075 C 
ATOM     11  C   UNL     1      13.172  15.229  29.706  1.00  0.00     0.008 C 
ATOM     12  C   UNL     1      15.434  14.423  29.202  1.00  0.00     0.039 C 
ENDBRANCH   5  10
TORSDOF 2
ENDMDL
MODEL 7
REMARK VINA RESULT:    -4.133      1.661      4.223
REMARK INTER + INTRA:          -4.667
REMARK INTER:                  -4.488
REMARK INTRA:                  -0.179
REMARK UNBOUND:                -0.172
REMARK SMILES C=C(C)[C@H]1CC[C@@H](C)C[C@@H]1O
REMARK SMILES IDX 8 1 7 2 6 3 5 4 4 5 10 6 9 7 11 8 2 10 1 11 3 12
REMARK H PARENT 11 9
REMARK Flexibility Score: inf
ROOT
ATOM      1  C   UNL     1      12.680  17.978  25.102  1.00  0.00     0.008 C 
ATOM      2  C   UNL     1      13.439  16.646  25.004  1.00  0.00    -0.012 C 
ATOM      3  C   UNL     1      12.597  15.458  25.510  1.00  0.00     0.004 C 
ATOM      4  C   UNL     1      12.466  15.442  27.040  1.00  0.00     0.011 C 
ATOM      5  C   UNL     1      13.850  15.463  27.718  1.00  0.00     0.043 C 
ATOM      6  C   UNL     1      14.682  16.684  27.252  1.00  0.00     0.121 C 
ATOM      7  C   UNL     1      14.807  16.700  25.718  1.00  0.00     0.035 C 
ENDROOT
BRANCH   6   8
ATOM      8  O   UNL     1      15.974  16.621  27.801  1.00  0.00    -0.392 OA
ATOM      9  H   UNL     1      16.599  16.419  27.056  1.00  0.00     0.210 HD
ENDBRANCH   6   8
BRANCH   5  10
ATOM     10  C   UNL     1      13.708  15.418  29.235  1.00  0.00    -0.075 C 
ATOM     11  C   UNL     1      12.881  16.255  29.884  1.00  0.00     0.008 C 
ATOM     12  C   UNL     1      14.508  14.426  30.040  1.00  0.00     0.039 C 
ENDBRANCH   5  10
TORSDOF 2
ENDMDL
MODEL 8
REMARK VINA RESULT:    -4.013      2.562      5.176
REMARK INTER + INTRA:          -4.537
REMARK INTER:                  -4.674
REMARK INTRA:                   0.137
REMARK UNBOUND:                -0.172
REMARK SMILES C=C(C)[C@H]1CC[C@@H](C)C[C@@H]1O
REMARK SMILES IDX 8 1 7 2 6 3 5 4 4 5 10 6 9 7 11 8 2 10 1 11 3 12
REMARK H PARENT 11 9
REMARK Flexibility Score: inf
ROOT
ATOM      1  C   UNL     1      13.602  15.250  26.062  1.00  0.00     0.008 C 
ATOM      2  C   UNL     1      14.236  16.287  27.002  1.00  0.00    -0.012 C 
ATOM      3  C   UNL     1      15.665  15.892  27.425  1.00  0.00     0.004 C 
ATOM      4  C   UNL     1      15.678  14.742  28.443  1.00  0.00     0.011 C 
ATOM      5  C   UNL     1      14.812  15.078  29.674  1.00  0.00     0.043 C 
ATOM      6  C   UNL     1      13.361  15.425  29.259  1.00  0.00     0.121 C 
ATOM      7  C   UNL     1      13.352  16.575  28.235  1.00  0.00     0.035 C 
ENDROOT
BRANCH   6   8
ATOM      8  O   UNL     1      12.624  15.830  30.385  1.00  0.00    -0.392 OA
ATOM      9  H   UNL     1      11.774  16.221  30.054  1.00  0.00     0.210 HD
ENDBRANCH   6   8
BRANCH   5  10
ATOM     10  C   UNL     1      14.856  13.942  30.689  1.00  0.00    -0.075 C 
ATOM     11  C   UNL     1      14.564  14.152  31.984  1.00  0.00     0.008 C 
ATOM     12  C   UNL     1      15.237  12.551  30.253  1.00  0.00     0.039 C 
ENDBRANCH   5  10
TORSDOF 2
ENDMDL
MODEL 9
REMARK VINA RESULT:    -3.655      1.717      2.718
REMARK INTER + INTRA:          -4.147
REMARK INTER:                  -4.699
REMARK INTRA:                   0.552
REMARK UNBOUND:                -0.172
REMARK SMILES C=C(C)[C@H]1CC[C@@H](C)C[C@@H]1O
REMARK SMILES IDX 8 1 7 2 6 3 5 4 4 5 10 6 9 7 11 8 2 10 1 11 3 12
REMARK H PARENT 11 9
REMARK Flexibility Score: inf
ROOT
ATOM      1  C   UNL     1      13.401  15.259  27.031  1.00  0.00     0.008 C 
ATOM      2  C   UNL     1      13.431  16.793  27.118  1.00  0.00    -0.012 C 
ATOM      3  C   UNL     1      12.112  17.428  26.634  1.00  0.00     0.004 C 
ATOM      4  C   UNL     1      11.959  17.369  25.108  1.00  0.00     0.011 C 
ATOM      5  C   UNL     1      13.171  18.009  24.401  1.00  0.00     0.043 C 
ATOM      6  C   UNL     1      14.495  17.339  24.844  1.00  0.00     0.121 C 
ATOM      7  C   UNL     1      14.643  17.396  26.376  1.00  0.00     0.035 C 
ENDROOT
BRANCH   6   8
ATOM      8  O   UNL     1      15.588  18.010  24.269  1.00  0.00    -0.392 OA
ATOM      9  H   UNL     1      15.242  18.516  23.488  1.00  0.00     0.210 HD
ENDBRANCH   6   8
BRANCH   5  10
ATOM     10  C   UNL     1      12.994  17.970  22.887  1.00  0.00    -0.075 C 
ATOM     11  C   UNL     1      14.041  18.125  22.058  1.00  0.00     0.008 C 
ATOM     12  C   UNL     1      11.627  17.761  22.289  1.00  0.00     0.039 C 
ENDBRANCH   5  10
TORSDOF 2
ENDMDL
