MODEL 1
REMARK VINA RESULT:    -5.693      0.000      0.000
REMARK INTER + INTRA:         -11.687
REMARK INTER:                 -10.020
REMARK INTRA:                  -1.667
REMARK UNBOUND:                -1.667
REMARK SMILES CCCCCCC=CCCCCCCCC(=O)[O-]
REMARK SMILES IDX 10 1 11 2 12 3 13 4 14 5 15 6 16 7 17 8 18 9 9 10 8 11 7 12
REMARK SMILES IDX 6 13 5 14 4 15 3 16 2 17 1 18
REMARK H PARENT
REMARK Flexibility Score: inf
ROOT
ATOM      1  C   UNL     1       8.107 -47.600  36.326  1.00  0.00     0.004 C 
ENDROOT
BRANCH   1   2
ATOM      2  C   UNL     1       8.769 -47.545  37.713  1.00  0.00     0.000 C 
BRANCH   2   3
ATOM      3  C   UNL     1       8.694 -46.155  38.378  1.00  0.00     0.000 C 
BRANCH   3   4
ATOM      4  C   UNL     1      10.087 -45.541  38.599  1.00  0.00     0.000 C 
BRANCH   4   5
ATOM      5  C   UNL     1      11.235 -46.481  38.189  1.00  0.00     0.006 C 
BRANCH   5   6
ATOM      6  C   UNL     1      12.196 -45.876  37.150  1.00  0.00     0.053 C 
BRANCH   6   7
ATOM      7  C   UNL     1      13.598 -46.386  37.292  1.00  0.00     0.041 C 
ATOM      8  O   UNL     1      14.293 -46.629  36.271  1.00  0.00    -0.550 OA
ATOM      9  O   UNL     1      14.126 -46.627  38.554  1.00  0.00    -0.550 OA
ENDBRANCH   6   7
ENDBRANCH   5   6
ENDBRANCH   4   5
ENDBRANCH   3   4
ENDBRANCH   2   3
ENDBRANCH   1   2
BRANCH   1  10
ATOM     10  C   UNL     1       9.120 -47.500  35.176  1.00  0.00     0.027 C 
BRANCH  10  11
ATOM     11  C   UNL     1       9.018 -46.169  34.485  1.00  0.00    -0.031 C 
ATOM     12  C   UNL     1      10.113 -45.483  34.122  1.00  0.00    -0.031 C 
BRANCH  12  13
ATOM     13  C   UNL     1      10.015 -44.184  33.368  1.00  0.00     0.027 C 
BRANCH  13  14
ATOM     14  C   UNL     1       8.554 -43.795  33.112  1.00  0.00     0.004 C 
BRANCH  14  15
ATOM     15  C   UNL     1       8.070 -44.242  31.723  1.00  0.00     0.000 C 
BRANCH  15  16
ATOM     16  C   UNL     1       6.539 -44.366  31.634  1.00  0.00    -0.000 C 
BRANCH  16  17
ATOM     17  C   UNL     1       6.018 -45.791  31.918  1.00  0.00    -0.003 C 
ATOM     18  C   UNL     1       7.011 -46.871  31.489  1.00  0.00     0.004 C 
ENDBRANCH  16  17
ENDBRANCH  15  16
ENDBRANCH  14  15
ENDBRANCH  13  14
ENDBRANCH  12  13
ENDBRANCH  10  11
ENDBRANCH   1  10
TORSDOF 13
ENDMDL
MODEL 2
REMARK VINA RESULT:    -5.665      3.227      6.762
REMARK INTER + INTRA:         -11.638
REMARK INTER:                 -10.525
REMARK INTRA:                  -1.113
REMARK UNBOUND:                -1.667
REMARK SMILES CCCCCCC=CCCCCCCCC(=O)[O-]
REMARK SMILES IDX 10 1 11 2 12 3 13 4 14 5 15 6 16 7 17 8 18 9 9 10 8 11 7 12
REMARK SMILES IDX 6 13 5 14 4 15 3 16 2 17 1 18
REMARK H PARENT
REMARK Flexibility Score: inf
ROOT
ATOM      1  C   UNL     1       7.778 -48.176  37.683  1.00  0.00     0.004 C 
ENDROOT
BRANCH   1   2
ATOM      2  C   UNL     1       8.516 -48.275  36.338  1.00  0.00     0.000 C 
BRANCH   2   3
ATOM      3  C   UNL     1       8.066 -47.217  35.308  1.00  0.00     0.000 C 
BRANCH   3   4
ATOM      4  C   UNL     1       9.241 -46.691  34.466  1.00  0.00     0.000 C 
BRANCH   4   5
ATOM      5  C   UNL     1       9.288 -45.154  34.387  1.00  0.00     0.006 C 
BRANCH   5   6
ATOM      6  C   UNL     1       9.588 -44.611  32.977  1.00  0.00     0.053 C 
BRANCH   6   7
ATOM      7  C   UNL     1       8.345 -44.298  32.201  1.00  0.00     0.041 C 
ATOM      8  O   UNL     1       8.229 -44.677  31.006  1.00  0.00    -0.550 OA
ATOM      9  O   UNL     1       7.328 -43.557  32.787  1.00  0.00    -0.550 OA
ENDBRANCH   6   7
ENDBRANCH   5   6
ENDBRANCH   4   5
ENDBRANCH   3   4
ENDBRANCH   2   3
ENDBRANCH   1   2
BRANCH   1  10
ATOM     10  C   UNL     1       8.134 -46.905  38.468  1.00  0.00     0.027 C 
BRANCH  10  11
ATOM     11  C   UNL     1       9.582 -46.546  38.283  1.00  0.00    -0.031 C 
ATOM     12  C   UNL     1      10.530 -47.009  39.113  1.00  0.00    -0.031 C 
BRANCH  12  13
ATOM     13  C   UNL     1      11.988 -46.709  38.890  1.00  0.00     0.027 C 
BRANCH  13  14
ATOM     14  C   UNL     1      12.222 -46.064  37.518  1.00  0.00     0.004 C 
BRANCH  14  15
ATOM     15  C   UNL     1      13.716 -45.980  37.166  1.00  0.00     0.000 C 
BRANCH  15  16
ATOM     16  C   UNL     1      14.587 -46.912  38.025  1.00  0.00    -0.000 C 
BRANCH  16  17
ATOM     17  C   UNL     1      15.407 -47.925  37.199  1.00  0.00    -0.003 C 
ATOM     18  C   UNL     1      15.821 -47.368  35.837  1.00  0.00     0.004 C 
ENDBRANCH  16  17
ENDBRANCH  15  16
ENDBRANCH  14  15
ENDBRANCH  13  14
ENDBRANCH  12  13
ENDBRANCH  10  11
ENDBRANCH   1  10
TORSDOF 13
ENDMDL
MODEL 3
REMARK VINA RESULT:    -5.574      1.188      1.631
REMARK INTER + INTRA:         -11.477
REMARK INTER:                 -10.205
REMARK INTRA:                  -1.272
REMARK UNBOUND:                -1.667
REMARK SMILES CCCCCCC=CCCCCCCCC(=O)[O-]
REMARK SMILES IDX 10 1 11 2 12 3 13 4 14 5 15 6 16 7 17 8 18 9 9 10 8 11 7 12
REMARK SMILES IDX 6 13 5 14 4 15 3 16 2 17 1 18
REMARK H PARENT
REMARK Flexibility Score: inf
ROOT
ATOM      1  C   UNL     1       9.021 -47.629  35.636  1.00  0.00     0.004 C 
ENDROOT
BRANCH   1   2
ATOM      2  C   UNL     1       8.470 -47.531  37.068  1.00  0.00     0.000 C 
BRANCH   2   3
ATOM      3  C   UNL     1       9.253 -46.549  37.965  1.00  0.00     0.000 C 
BRANCH   3   4
ATOM      4  C   UNL     1      10.250 -47.274  38.886  1.00  0.00     0.000 C 
BRANCH   4   5
ATOM      5  C   UNL     1      11.549 -46.480  39.115  1.00  0.00     0.006 C 
BRANCH   5   6
ATOM      6  C   UNL     1      12.790 -47.365  39.334  1.00  0.00     0.053 C 
BRANCH   6   7
ATOM      7  C   UNL     1      13.940 -46.977  38.454  1.00  0.00     0.041 C 
ATOM      8  O   UNL     1      13.739 -46.635  37.259  1.00  0.00    -0.550 OA
ATOM      9  O   UNL     1      15.238 -47.025  38.944  1.00  0.00    -0.550 OA
ENDBRANCH   6   7
ENDBRANCH   5   6
ENDBRANCH   4   5
ENDBRANCH   3   4
ENDBRANCH   2   3
ENDBRANCH   1   2
BRANCH   1  10
ATOM     10  C   UNL     1       9.632 -46.311  35.139  1.00  0.00     0.027 C 
BRANCH  10  11
ATOM     11  C   UNL     1       8.812 -45.726  34.023  1.00  0.00    -0.031 C 
ATOM     12  C   UNL     1       9.013 -44.472  33.589  1.00  0.00    -0.031 C 
BRANCH  12  13
ATOM     13  C   UNL     1       8.243 -43.906  32.427  1.00  0.00     0.027 C 
BRANCH  13  14
ATOM     14  C   UNL     1       7.775 -45.014  31.475  1.00  0.00     0.004 C 
BRANCH  14  15
ATOM     15  C   UNL     1       6.298 -44.854  31.082  1.00  0.00     0.000 C 
BRANCH  15  16
ATOM     16  C   UNL     1       5.391 -45.923  31.716  1.00  0.00    -0.000 C 
BRANCH  16  17
ATOM     17  C   UNL     1       6.123 -47.243  32.036  1.00  0.00    -0.003 C 
ATOM     18  C   UNL     1       5.801 -47.764  33.437  1.00  0.00     0.004 C 
ENDBRANCH  16  17
ENDBRANCH  15  16
ENDBRANCH  14  15
ENDBRANCH  13  14
ENDBRANCH  12  13
ENDBRANCH  10  11
ENDBRANCH   1  10
TORSDOF 13
ENDMDL
MODEL 4
REMARK VINA RESULT:    -5.547      1.955      5.943
REMARK INTER + INTRA:         -11.429
REMARK INTER:                  -9.576
REMARK INTRA:                  -1.853
REMARK UNBOUND:                -1.667
REMARK SMILES CCCCCCC=CCCCCCCCC(=O)[O-]
REMARK SMILES IDX 10 1 11 2 12 3 13 4 14 5 15 6 16 7 17 8 18 9 9 10 8 11 7 12
REMARK SMILES IDX 6 13 5 14 4 15 3 16 2 17 1 18
REMARK H PARENT
REMARK Flexibility Score: inf
ROOT
ATOM      1  C   UNL     1       6.072 -47.166  31.561  1.00  0.00     0.004 C 
ENDROOT
BRANCH   1   2
ATOM      2  C   UNL     1       5.662 -45.917  30.765  1.00  0.00     0.000 C 
BRANCH   2   3
ATOM      3  C   UNL     1       6.287 -44.611  31.299  1.00  0.00     0.000 C 
BRANCH   3   4
ATOM      4  C   UNL     1       7.819 -44.704  31.410  1.00  0.00     0.000 C 
BRANCH   4   5
ATOM      5  C   UNL     1       8.384 -43.952  32.629  1.00  0.00     0.006 C 
BRANCH   5   6
ATOM      6  C   UNL     1       8.847 -44.874  33.772  1.00  0.00     0.053 C 
BRANCH   6   7
ATOM      7  C   UNL     1      10.328 -45.098  33.770  1.00  0.00     0.041 C 
ATOM      8  O   UNL     1      11.021 -44.764  32.773  1.00  0.00    -0.550 OA
ATOM      9  O   UNL     1      10.941 -45.707  34.857  1.00  0.00    -0.550 OA
ENDBRANCH   6   7
ENDBRANCH   5   6
ENDBRANCH   4   5
ENDBRANCH   3   4
ENDBRANCH   2   3
ENDBRANCH   1   2
BRANCH   1  10
ATOM     10  C   UNL     1       5.425 -47.228  32.952  1.00  0.00     0.027 C 
BRANCH  10  11
ATOM     11  C   UNL     1       6.366 -47.832  33.956  1.00  0.00    -0.031 C 
ATOM     12  C   UNL     1       7.601 -48.228  33.609  1.00  0.00    -0.031 C 
BRANCH  12  13
ATOM     13  C   UNL     1       8.571 -48.769  34.625  1.00  0.00     0.027 C 
BRANCH  13  14
ATOM     14  C   UNL     1       8.054 -48.563  36.055  1.00  0.00     0.004 C 
BRANCH  14  15
ATOM     15  C   UNL     1       8.993 -47.675  36.888  1.00  0.00     0.000 C 
BRANCH  15  16
ATOM     16  C   UNL     1       8.408 -46.278  37.161  1.00  0.00    -0.000 C 
BRANCH  16  17
ATOM     17  C   UNL     1       9.181 -45.487  38.238  1.00  0.00    -0.003 C 
ATOM     18  C   UNL     1      10.635 -45.940  38.363  1.00  0.00     0.004 C 
ENDBRANCH  16  17
ENDBRANCH  15  16
ENDBRANCH  14  15
ENDBRANCH  13  14
ENDBRANCH  12  13
ENDBRANCH  10  11
ENDBRANCH   1  10
TORSDOF 13
ENDMDL
MODEL 5
REMARK VINA RESULT:    -5.519      2.379      6.177
REMARK INTER + INTRA:         -11.380
REMARK INTER:                  -9.919
REMARK INTRA:                  -1.461
REMARK UNBOUND:                -1.667
REMARK SMILES CCCCCCC=CCCCCCCCC(=O)[O-]
REMARK SMILES IDX 10 1 11 2 12 3 13 4 14 5 15 6 16 7 17 8 18 9 9 10 8 11 7 12
REMARK SMILES IDX 6 13 5 14 4 15 3 16 2 17 1 18
REMARK H PARENT
REMARK Flexibility Score: inf
ROOT
ATOM      1  C   UNL     1       6.451 -49.891  37.426  1.00  0.00     0.004 C 
ENDROOT
BRANCH   1   2
ATOM      2  C   UNL     1       7.694 -49.949  36.524  1.00  0.00     0.000 C 
BRANCH   2   3
ATOM      3  C   UNL     1       7.428 -49.492  35.075  1.00  0.00     0.000 C 
BRANCH   3   4
ATOM      4  C   UNL     1       8.626 -48.736  34.474  1.00  0.00     0.000 C 
BRANCH   4   5
ATOM      5  C   UNL     1       8.844 -47.349  35.105  1.00  0.00     0.006 C 
BRANCH   5   6
ATOM      6  C   UNL     1       9.033 -46.219  34.076  1.00  0.00     0.053 C 
BRANCH   6   7
ATOM      7  C   UNL     1      10.362 -45.538  34.203  1.00  0.00     0.041 C 
ATOM      8  O   UNL     1      10.737 -44.708  33.332  1.00  0.00    -0.550 OA
ATOM      9  O   UNL     1      11.202 -45.843  35.265  1.00  0.00    -0.550 OA
ENDBRANCH   6   7
ENDBRANCH   5   6
ENDBRANCH   4   5
ENDBRANCH   3   4
ENDBRANCH   2   3
ENDBRANCH   1   2
BRANCH   1  10
ATOM     10  C   UNL     1       6.526 -48.775  38.477  1.00  0.00     0.027 C 
BRANCH  10  11
ATOM     11  C   UNL     1       7.826 -48.026  38.373  1.00  0.00    -0.031 C 
ATOM     12  C   UNL     1       7.899 -46.712  38.636  1.00  0.00    -0.031 C 
BRANCH  12  13
ATOM     13  C   UNL     1       9.210 -45.973  38.601  1.00  0.00     0.027 C 
BRANCH  13  14
ATOM     14  C   UNL     1      10.395 -46.941  38.494  1.00  0.00     0.004 C 
BRANCH  14  15
ATOM     15  C   UNL     1      11.707 -46.307  38.983  1.00  0.00     0.000 C 
BRANCH  15  16
ATOM     16  C   UNL     1      12.733 -47.349  39.463  1.00  0.00    -0.000 C 
BRANCH  16  17
ATOM     17  C   UNL     1      14.051 -47.331  38.661  1.00  0.00    -0.003 C 
ATOM     18  C   UNL     1      13.985 -46.400  37.450  1.00  0.00     0.004 C 
ENDBRANCH  16  17
ENDBRANCH  15  16
ENDBRANCH  14  15
ENDBRANCH  13  14
ENDBRANCH  12  13
ENDBRANCH  10  11
ENDBRANCH   1  10
TORSDOF 13
ENDMDL
MODEL 6
REMARK VINA RESULT:    -5.513      2.984      6.596
REMARK INTER + INTRA:         -11.370
REMARK INTER:                  -9.976
REMARK INTRA:                  -1.394
REMARK UNBOUND:                -1.667
REMARK SMILES CCCCCCC=CCCCCCCCC(=O)[O-]
REMARK SMILES IDX 10 1 11 2 12 3 13 4 14 5 15 6 16 7 17 8 18 9 9 10 8 11 7 12
REMARK SMILES IDX 6 13 5 14 4 15 3 16 2 17 1 18
REMARK H PARENT
REMARK Flexibility Score: inf
ROOT
ATOM      1  C   UNL     1       7.513 -46.657  38.789  1.00  0.00     0.004 C 
ENDROOT
BRANCH   1   2
ATOM      2  C   UNL     1       7.968 -48.087  38.455  1.00  0.00     0.000 C 
BRANCH   2   3
ATOM      3  C   UNL     1       7.313 -48.662  37.181  1.00  0.00     0.000 C 
BRANCH   3   4
ATOM      4  C   UNL     1       8.354 -49.220  36.194  1.00  0.00     0.000 C 
BRANCH   4   5
ATOM      5  C   UNL     1       8.080 -48.816  34.734  1.00  0.00     0.006 C 
BRANCH   5   6
ATOM      6  C   UNL     1       7.434 -47.427  34.582  1.00  0.00     0.053 C 
BRANCH   6   7
ATOM      7  C   UNL     1       8.368 -46.416  33.990  1.00  0.00     0.041 C 
ATOM      8  O   UNL     1       9.028 -46.691  32.953  1.00  0.00    -0.550 OA
ATOM      9  O   UNL     1       8.536 -45.181  34.602  1.00  0.00    -0.550 OA
ENDBRANCH   6   7
ENDBRANCH   5   6
ENDBRANCH   4   5
ENDBRANCH   3   4
ENDBRANCH   2   3
ENDBRANCH   1   2
BRANCH   1  10
ATOM     10  C   UNL     1       8.437 -45.583  38.199  1.00  0.00     0.027 C 
BRANCH  10  11
ATOM     11  C   UNL     1       9.881 -45.965  38.365  1.00  0.00    -0.031 C 
ATOM     12  C   UNL     1      10.774 -45.778  37.380  1.00  0.00    -0.031 C 
BRANCH  12  13
ATOM     13  C   UNL     1      12.233 -46.094  37.568  1.00  0.00     0.027 C 
BRANCH  13  14
ATOM     14  C   UNL     1      12.492 -46.753  38.929  1.00  0.00     0.004 C 
BRANCH  14  15
ATOM     15  C   UNL     1      13.817 -47.530  38.953  1.00  0.00     0.000 C 
BRANCH  15  16
ATOM     16  C   UNL     1      14.851 -46.983  37.953  1.00  0.00    -0.000 C 
BRANCH  16  17
ATOM     17  C   UNL     1      15.360 -48.040  36.951  1.00  0.00    -0.003 C 
ATOM     18  C   UNL     1      16.184 -47.423  35.821  1.00  0.00     0.004 C 
ENDBRANCH  16  17
ENDBRANCH  15  16
ENDBRANCH  14  15
ENDBRANCH  13  14
ENDBRANCH  12  13
ENDBRANCH  10  11
ENDBRANCH   1  10
TORSDOF 13
ENDMDL
MODEL 7
REMARK VINA RESULT:    -5.497      2.870      6.344
REMARK INTER + INTRA:         -11.342
REMARK INTER:                  -9.618
REMARK INTRA:                  -1.723
REMARK UNBOUND:                -1.667
REMARK SMILES CCCCCCC=CCCCCCCCC(=O)[O-]
REMARK SMILES IDX 10 1 11 2 12 3 13 4 14 5 15 6 16 7 17 8 18 9 9 10 8 11 7 12
REMARK SMILES IDX 6 13 5 14 4 15 3 16 2 17 1 18
REMARK H PARENT
REMARK Flexibility Score: inf
ROOT
ATOM      1  C   UNL     1       7.155 -50.436  35.973  1.00  0.00     0.004 C 
ENDROOT
BRANCH   1   2
ATOM      2  C   UNL     1       6.590 -49.603  34.811  1.00  0.00     0.000 C 
BRANCH   2   3
ATOM      3  C   UNL     1       7.656 -48.764  34.077  1.00  0.00     0.000 C 
BRANCH   3   4
ATOM      4  C   UNL     1       8.701 -48.178  35.043  1.00  0.00     0.000 C 
BRANCH   4   5
ATOM      5  C   UNL     1       8.544 -46.662  35.257  1.00  0.00     0.006 C 
BRANCH   5   6
ATOM      6  C   UNL     1       9.849 -45.867  35.064  1.00  0.00     0.053 C 
BRANCH   6   7
ATOM      7  C   UNL     1       9.841 -45.038  33.815  1.00  0.00     0.041 C 
ATOM      8  O   UNL     1      10.599 -45.332  32.852  1.00  0.00    -0.550 OA
ATOM      9  O   UNL     1       9.023 -43.920  33.726  1.00  0.00    -0.550 OA
ENDBRANCH   6   7
ENDBRANCH   5   6
ENDBRANCH   4   5
ENDBRANCH   3   4
ENDBRANCH   2   3
ENDBRANCH   1   2
BRANCH   1  10
ATOM     10  C   UNL     1       6.172 -50.575  37.144  1.00  0.00     0.027 C 
BRANCH  10  11
ATOM     11  C   UNL     1       6.051 -49.281  37.900  1.00  0.00    -0.031 C 
ATOM     12  C   UNL     1       7.135 -48.630  38.351  1.00  0.00    -0.031 C 
BRANCH  12  13
ATOM     13  C   UNL     1       7.023 -47.300  39.047  1.00  0.00     0.027 C 
BRANCH  13  14
ATOM     14  C   UNL     1       8.284 -46.452  38.838  1.00  0.00     0.004 C 
BRANCH  14  15
ATOM     15  C   UNL     1       9.550 -47.316  38.723  1.00  0.00     0.000 C 
BRANCH  15  16
ATOM     16  C   UNL     1      10.846 -46.500  38.864  1.00  0.00    -0.000 C 
BRANCH  16  17
ATOM     17  C   UNL     1      11.851 -47.106  39.867  1.00  0.00    -0.003 C 
ATOM     18  C   UNL     1      13.185 -47.464  39.212  1.00  0.00     0.004 C 
ENDBRANCH  16  17
ENDBRANCH  15  16
ENDBRANCH  14  15
ENDBRANCH  13  14
ENDBRANCH  12  13
ENDBRANCH  10  11
ENDBRANCH   1  10
TORSDOF 13
ENDMDL
MODEL 8
REMARK VINA RESULT:    -5.446      3.297      6.274
REMARK INTER + INTRA:         -11.251
REMARK INTER:                  -9.549
REMARK INTRA:                  -1.702
REMARK UNBOUND:                -1.667
REMARK SMILES CCCCCCC=CCCCCCCCC(=O)[O-]
REMARK SMILES IDX 10 1 11 2 12 3 13 4 14 5 15 6 16 7 17 8 18 9 9 10 8 11 7 12
REMARK SMILES IDX 6 13 5 14 4 15 3 16 2 17 1 18
REMARK H PARENT
REMARK Flexibility Score: inf
ROOT
ATOM      1  C   UNL     1       5.952 -48.835  34.637  1.00  0.00     0.004 C 
ENDROOT
BRANCH   1   2
ATOM      2  C   UNL     1       6.264 -47.859  33.491  1.00  0.00     0.000 C 
BRANCH   2   3
ATOM      3  C   UNL     1       7.772 -47.604  33.290  1.00  0.00     0.000 C 
BRANCH   3   4
ATOM      4  C   UNL     1       8.267 -46.385  34.087  1.00  0.00     0.000 C 
BRANCH   4   5
ATOM      5  C   UNL     1       9.490 -45.702  33.451  1.00  0.00     0.006 C 
BRANCH   5   6
ATOM      6  C   UNL     1       9.270 -44.215  33.115  1.00  0.00     0.053 C 
BRANCH   6   7
ATOM      7  C   UNL     1       8.104 -43.996  32.200  1.00  0.00     0.041 C 
ATOM      8  O   UNL     1       8.109 -44.479  31.037  1.00  0.00    -0.550 OA
ATOM      9  O   UNL     1       7.025 -43.229  32.618  1.00  0.00    -0.550 OA
ENDBRANCH   6   7
ENDBRANCH   5   6
ENDBRANCH   4   5
ENDBRANCH   3   4
ENDBRANCH   2   3
ENDBRANCH   1   2
BRANCH   1  10
ATOM     10  C   UNL     1       7.138 -49.746  34.985  1.00  0.00     0.027 C 
BRANCH  10  11
ATOM     11  C   UNL     1       7.569 -49.545  36.411  1.00  0.00    -0.031 C 
ATOM     12  C   UNL     1       7.566 -48.329  36.979  1.00  0.00    -0.031 C 
BRANCH  12  13
ATOM     13  C   UNL     1       7.930 -48.134  38.427  1.00  0.00     0.027 C 
BRANCH  13  14
ATOM     14  C   UNL     1       7.770 -46.668  38.850  1.00  0.00     0.004 C 
BRANCH  14  15
ATOM     15  C   UNL     1       8.518 -45.709  37.911  1.00  0.00     0.000 C 
BRANCH  15  16
ATOM     16  C   UNL     1      10.043 -45.742  38.113  1.00  0.00    -0.000 C 
BRANCH  16  17
ATOM     17  C   UNL     1      10.817 -46.274  36.888  1.00  0.00    -0.003 C 
ATOM     18  C   UNL     1      12.283 -45.841  36.891  1.00  0.00     0.004 C 
ENDBRANCH  16  17
ENDBRANCH  15  16
ENDBRANCH  14  15
ENDBRANCH  13  14
ENDBRANCH  12  13
ENDBRANCH  10  11
ENDBRANCH   1  10
TORSDOF 13
ENDMDL
MODEL 9
REMARK VINA RESULT:    -5.427      2.424      6.168
REMARK INTER + INTRA:         -11.218
REMARK INTER:                  -9.604
REMARK INTRA:                  -1.614
REMARK UNBOUND:                -1.667
REMARK SMILES CCCCCCC=CCCCCCCCC(=O)[O-]
REMARK SMILES IDX 10 1 11 2 12 3 13 4 14 5 15 6 16 7 17 8 18 9 9 10 8 11 7 12
REMARK SMILES IDX 6 13 5 14 4 15 3 16 2 17 1 18
REMARK H PARENT
REMARK Flexibility Score: inf
ROOT
ATOM      1  C   UNL     1       7.632 -47.974  33.631  1.00  0.00     0.004 C 
ENDROOT
BRANCH   1   2
ATOM      2  C   UNL     1       6.279 -47.707  32.953  1.00  0.00     0.000 C 
BRANCH   2   3
ATOM      3  C   UNL     1       6.394 -46.919  31.632  1.00  0.00     0.000 C 
BRANCH   3   4
ATOM      4  C   UNL     1       5.812 -45.499  31.750  1.00  0.00     0.000 C 
BRANCH   4   5
ATOM      5  C   UNL     1       6.878 -44.431  32.051  1.00  0.00     0.006 C 
BRANCH   5   6
ATOM      6  C   UNL     1       8.260 -44.740  31.445  1.00  0.00     0.053 C 
BRANCH   6   7
ATOM      7  C   UNL     1       9.378 -44.540  32.423  1.00  0.00     0.041 C 
ATOM      8  O   UNL     1       9.334 -43.593  33.253  1.00  0.00    -0.550 OA
ATOM      9  O   UNL     1      10.485 -45.377  32.395  1.00  0.00    -0.550 OA
ENDBRANCH   6   7
ENDBRANCH   5   6
ENDBRANCH   4   5
ENDBRANCH   3   4
ENDBRANCH   2   3
ENDBRANCH   1   2
BRANCH   1  10
ATOM     10  C   UNL     1       7.914 -47.020  34.800  1.00  0.00     0.027 C 
BRANCH  10  11
ATOM     11  C   UNL     1       9.360 -47.078  35.205  1.00  0.00    -0.031 C 
ATOM     12  C   UNL     1       9.957 -46.045  35.820  1.00  0.00    -0.031 C 
BRANCH  12  13
ATOM     13  C   UNL     1      11.385 -46.125  36.290  1.00  0.00     0.027 C 
BRANCH  13  14
ATOM     14  C   UNL     1      11.470 -46.126  37.822  1.00  0.00     0.004 C 
BRANCH  14  15
ATOM     15  C   UNL     1      10.103 -45.877  38.478  1.00  0.00     0.000 C 
BRANCH  15  16
ATOM     16  C   UNL     1       9.383 -47.178  38.873  1.00  0.00    -0.000 C 
BRANCH  16  17
ATOM     17  C   UNL     1       7.844 -47.066  38.844  1.00  0.00    -0.003 C 
ATOM     18  C   UNL     1       7.172 -48.373  38.424  1.00  0.00     0.004 C 
ENDBRANCH  16  17
ENDBRANCH  15  16
ENDBRANCH  14  15
ENDBRANCH  13  14
ENDBRANCH  12  13
ENDBRANCH  10  11
ENDBRANCH   1  10
TORSDOF 13
ENDMDL
