MODEL 1
REMARK VINA RESULT:    -2.957      0.000      0.000
REMARK INTER + INTRA:          -7.831
REMARK INTER:                  -5.377
REMARK INTRA:                  -2.454
REMARK UNBOUND:                -2.454
REMARK SMILES CCCCCCCCCCCCCC[C@@H](C)C(=O)[O-]
REMARK SMILES IDX 9 1 10 2 11 3 12 4 13 5 14 6 15 7 16 8 17 9 18 10 19 11 8 12
REMARK SMILES IDX 7 13 6 14 5 15 4 16 3 17 2 18 1 19
REMARK H PARENT
REMARK Flexibility Score: inf
ROOT
ATOM      1  C   UNL     1      -0.190   2.070   7.389  1.00  0.00     0.000 C 
ENDROOT
BRANCH   1   2
ATOM      2  C   UNL     1      -1.623   2.559   7.118  1.00  0.00     0.000 C 
BRANCH   2   3
ATOM      3  C   UNL     1      -2.610   1.401   6.895  1.00  0.00     0.000 C 
BRANCH   3   4
ATOM      4  C   UNL     1      -2.920   0.634   8.193  1.00  0.00     0.000 C 
BRANCH   4   5
ATOM      5  C   UNL     1      -3.112  -0.873   7.957  1.00  0.00     0.001 C 
BRANCH   5   6
ATOM      6  C   UNL     1      -2.688  -1.310   6.545  1.00  0.00     0.009 C 
BRANCH   6   7
ATOM      7  C   UNL     1      -3.151  -2.745   6.217  1.00  0.00     0.032 C 
ATOM      8  C   UNL     1      -3.664  -3.451   7.478  1.00  0.00     0.014 C 
BRANCH   7   9
ATOM      9  C   UNL     1      -4.220  -2.753   5.156  1.00  0.00     0.044 C 
ATOM     10  O   UNL     1      -4.499  -3.813   4.537  1.00  0.00    -0.550 OA
ATOM     11  O   UNL     1      -4.905  -1.582   4.855  1.00  0.00    -0.550 OA
ENDBRANCH   7   9
ENDBRANCH   6   7
ENDBRANCH   5   6
ENDBRANCH   4   5
ENDBRANCH   3   4
ENDBRANCH   2   3
ENDBRANCH   1   2
BRANCH   1  12
ATOM     12  C   UNL     1       0.318   1.124   6.279  1.00  0.00     0.000 C 
BRANCH  12  13
ATOM     13  C   UNL     1       0.763  -0.254   6.798  1.00  0.00    -0.000 C 
BRANCH  13  14
ATOM     14  C   UNL     1       0.738  -0.349   8.332  1.00  0.00    -0.000 C 
BRANCH  14  15
ATOM     15  C   UNL     1       0.389  -1.761   8.830  1.00  0.00    -0.000 C 
BRANCH  15  16
ATOM     16  C   UNL     1       0.385  -2.804   7.701  1.00  0.00    -0.000 C 
BRANCH  16  17
ATOM     17  C   UNL     1       1.374  -3.937   7.997  1.00  0.00    -0.000 C 
BRANCH  17  18
ATOM     18  C   UNL     1       0.848  -5.278   7.474  1.00  0.00    -0.003 C 
ATOM     19  C   UNL     1      -0.626  -5.467   7.822  1.00  0.00     0.004 C 
ENDBRANCH  17  18
ENDBRANCH  16  17
ENDBRANCH  15  16
ENDBRANCH  14  15
ENDBRANCH  13  14
ENDBRANCH  12  13
ENDBRANCH   1  12
TORSDOF 14
ENDMDL
MODEL 2
REMARK VINA RESULT:    -2.878      1.373      4.312
REMARK INTER + INTRA:          -7.688
REMARK INTER:                  -4.904
REMARK INTRA:                  -2.785
REMARK UNBOUND:                -2.454
REMARK SMILES CCCCCCCCCCCCCC[C@@H](C)C(=O)[O-]
REMARK SMILES IDX 9 1 10 2 11 3 12 4 13 5 14 6 15 7 16 8 17 9 18 10 19 11 8 12
REMARK SMILES IDX 7 13 6 14 5 15 4 16 3 17 2 18 1 19
REMARK H PARENT
REMARK Flexibility Score: inf
ROOT
ATOM      1  C   UNL     1       0.493  -1.713   8.524  1.00  0.00     0.000 C 
ENDROOT
BRANCH   1   2
ATOM      2  C   UNL     1      -0.697  -1.725   9.498  1.00  0.00     0.000 C 
BRANCH   2   3
ATOM      3  C   UNL     1      -1.309  -0.328   9.698  1.00  0.00     0.000 C 
BRANCH   3   4
ATOM      4  C   UNL     1      -2.739  -0.226   9.137  1.00  0.00     0.000 C 
BRANCH   4   5
ATOM      5  C   UNL     1      -3.127  -1.445   8.284  1.00  0.00     0.001 C 
BRANCH   5   6
ATOM      6  C   UNL     1      -2.841  -1.234   6.787  1.00  0.00     0.009 C 
BRANCH   6   7
ATOM      7  C   UNL     1      -2.926  -2.552   5.989  1.00  0.00     0.032 C 
ATOM      8  C   UNL     1      -2.786  -3.761   6.921  1.00  0.00     0.014 C 
BRANCH   7   9
ATOM      9  C   UNL     1      -4.215  -2.649   5.216  1.00  0.00     0.044 C 
ATOM     10  O   UNL     1      -5.040  -1.697   5.225  1.00  0.00    -0.550 OA
ATOM     11  O   UNL     1      -4.500  -3.797   4.487  1.00  0.00    -0.550 OA
ENDBRANCH   7   9
ENDBRANCH   6   7
ENDBRANCH   5   6
ENDBRANCH   4   5
ENDBRANCH   3   4
ENDBRANCH   2   3
ENDBRANCH   1   2
BRANCH   1  12
ATOM     12  C   UNL     1       0.839  -0.286   8.049  1.00  0.00     0.000 C 
BRANCH  12  13
ATOM     13  C   UNL     1       0.758  -0.106   6.523  1.00  0.00    -0.000 C 
BRANCH  13  14
ATOM     14  C   UNL     1       0.010   1.173   6.113  1.00  0.00    -0.000 C 
BRANCH  14  15
ATOM     15  C   UNL     1      -0.053   2.209   7.247  1.00  0.00    -0.000 C 
BRANCH  15  16
ATOM     16  C   UNL     1      -1.479   2.721   7.505  1.00  0.00    -0.000 C 
BRANCH  16  17
ATOM     17  C   UNL     1      -2.410   2.359   6.341  1.00  0.00    -0.000 C 
BRANCH  17  18
ATOM     18  C   UNL     1      -3.828   2.887   6.586  1.00  0.00    -0.003 C 
ATOM     19  C   UNL     1      -4.877   1.841   6.220  1.00  0.00     0.004 C 
ENDBRANCH  17  18
ENDBRANCH  16  17
ENDBRANCH  15  16
ENDBRANCH  14  15
ENDBRANCH  13  14
ENDBRANCH  12  13
ENDBRANCH   1  12
TORSDOF 14
ENDMDL
MODEL 3
REMARK VINA RESULT:    -2.878      3.055      5.040
REMARK INTER + INTRA:          -7.687
REMARK INTER:                  -6.411
REMARK INTRA:                  -1.276
REMARK UNBOUND:                -2.454
REMARK SMILES CCCCCCCCCCCCCC[C@@H](C)C(=O)[O-]
REMARK SMILES IDX 9 1 10 2 11 3 12 4 13 5 14 6 15 7 16 8 17 9 18 10 19 11 8 12
REMARK SMILES IDX 7 13 6 14 5 15 4 16 3 17 2 18 1 19
REMARK H PARENT
REMARK Flexibility Score: inf
ROOT
ATOM      1  C   UNL     1       0.692  -1.877   8.002  1.00  0.00     0.000 C 
ENDROOT
BRANCH   1   2
ATOM      2  C   UNL     1      -0.523  -1.830   7.059  1.00  0.00     0.000 C 
BRANCH   2   3
ATOM      3  C   UNL     1      -1.803  -1.359   7.769  1.00  0.00     0.000 C 
BRANCH   3   4
ATOM      4  C   UNL     1      -2.775  -0.643   6.814  1.00  0.00     0.000 C 
BRANCH   4   5
ATOM      5  C   UNL     1      -3.109   0.786   7.274  1.00  0.00     0.001 C 
BRANCH   5   6
ATOM      6  C   UNL     1      -2.442   1.860   6.398  1.00  0.00     0.009 C 
BRANCH   6   7
ATOM      7  C   UNL     1      -1.267   2.551   7.121  1.00  0.00     0.032 C 
ATOM      8  C   UNL     1      -1.538   2.647   8.627  1.00  0.00     0.014 C 
BRANCH   7   9
ATOM      9  C   UNL     1       0.032   1.828   6.881  1.00  0.00     0.044 C 
ATOM     10  O   UNL     1       0.374   1.497   5.715  1.00  0.00    -0.550 OA
ATOM     11  O   UNL     1       0.862   1.522   7.952  1.00  0.00    -0.550 OA
ENDBRANCH   7   9
ENDBRANCH   6   7
ENDBRANCH   5   6
ENDBRANCH   4   5
ENDBRANCH   3   4
ENDBRANCH   2   3
ENDBRANCH   1   2
BRANCH   1  12
ATOM     12  C   UNL     1       1.038  -3.319   8.430  1.00  0.00     0.000 C 
BRANCH  12  13
ATOM     13  C   UNL     1       0.393  -4.398   7.542  1.00  0.00    -0.000 C 
BRANCH  13  14
ATOM     14  C   UNL     1       1.250  -5.670   7.433  1.00  0.00    -0.000 C 
BRANCH  14  15
ATOM     15  C   UNL     1       2.756  -5.377   7.532  1.00  0.00    -0.000 C 
BRANCH  15  16
ATOM     16  C   UNL     1       3.603  -6.331   6.675  1.00  0.00    -0.000 C 
BRANCH  16  17
ATOM     17  C   UNL     1       2.737  -7.045   5.630  1.00  0.00    -0.000 C 
BRANCH  17  18
ATOM     18  C   UNL     1       3.540  -7.340   4.358  1.00  0.00    -0.003 C 
ATOM     19  C   UNL     1       3.242  -8.739   3.829  1.00  0.00     0.004 C 
ENDBRANCH  17  18
ENDBRANCH  16  17
ENDBRANCH  15  16
ENDBRANCH  14  15
ENDBRANCH  13  14
ENDBRANCH  12  13
ENDBRANCH   1  12
TORSDOF 14
ENDMDL
MODEL 4
REMARK VINA RESULT:    -2.851      1.853      4.623
REMARK INTER + INTRA:          -7.638
REMARK INTER:                  -5.015
REMARK INTRA:                  -2.624
REMARK UNBOUND:                -2.454
REMARK SMILES CCCCCCCCCCCCCC[C@@H](C)C(=O)[O-]
REMARK SMILES IDX 9 1 10 2 11 3 12 4 13 5 14 6 15 7 16 8 17 9 18 10 19 11 8 12
REMARK SMILES IDX 7 13 6 14 5 15 4 16 3 17 2 18 1 19
REMARK H PARENT
REMARK Flexibility Score: inf
ROOT
ATOM      1  C   UNL     1       0.287  -2.131   9.810  1.00  0.00     0.000 C 
ENDROOT
BRANCH   1   2
ATOM      2  C   UNL     1      -0.106  -0.868   9.025  1.00  0.00     0.000 C 
BRANCH   2   3
ATOM      3  C   UNL     1       0.814  -0.611   7.821  1.00  0.00     0.000 C 
BRANCH   3   4
ATOM      4  C   UNL     1       0.107   0.165   6.694  1.00  0.00     0.000 C 
BRANCH   4   5
ATOM      5  C   UNL     1       0.355   1.680   6.774  1.00  0.00     0.001 C 
BRANCH   5   6
ATOM      6  C   UNL     1      -0.757   2.422   7.535  1.00  0.00     0.009 C 
BRANCH   6   7
ATOM      7  C   UNL     1      -2.136   1.758   7.342  1.00  0.00     0.032 C 
ATOM      8  C   UNL     1      -2.931   1.767   8.653  1.00  0.00     0.014 C 
BRANCH   7   9
ATOM      9  C   UNL     1      -2.931   2.438   6.258  1.00  0.00     0.044 C 
ATOM     10  O   UNL     1      -2.740   3.654   5.991  1.00  0.00    -0.550 OA
ATOM     11  O   UNL     1      -3.883   1.720   5.545  1.00  0.00    -0.550 OA
ENDBRANCH   7   9
ENDBRANCH   6   7
ENDBRANCH   5   6
ENDBRANCH   4   5
ENDBRANCH   3   4
ENDBRANCH   2   3
ENDBRANCH   1   2
BRANCH   1  12
ATOM     12  C   UNL     1       1.568  -2.786   9.248  1.00  0.00     0.000 C 
BRANCH  12  13
ATOM     13  C   UNL     1       1.358  -4.228   8.755  1.00  0.00    -0.000 C 
BRANCH  13  14
ATOM     14  C   UNL     1       0.452  -4.308   7.515  1.00  0.00    -0.000 C 
BRANCH  14  15
ATOM     15  C   UNL     1      -0.836  -5.105   7.776  1.00  0.00    -0.000 C 
BRANCH  15  16
ATOM     16  C   UNL     1      -2.106  -4.297   7.467  1.00  0.00    -0.000 C 
BRANCH  16  17
ATOM     17  C   UNL     1      -1.786  -3.093   6.573  1.00  0.00    -0.000 C 
BRANCH  17  18
ATOM     18  C   UNL     1      -2.902  -2.044   6.641  1.00  0.00    -0.003 C 
ATOM     19  C   UNL     1      -3.470  -1.934   8.053  1.00  0.00     0.004 C 
ENDBRANCH  17  18
ENDBRANCH  16  17
ENDBRANCH  15  16
ENDBRANCH  14  15
ENDBRANCH  13  14
ENDBRANCH  12  13
ENDBRANCH   1  12
TORSDOF 14
ENDMDL
MODEL 5
REMARK VINA RESULT:    -2.820      1.646      4.122
REMARK INTER + INTRA:          -7.583
REMARK INTER:                  -5.318
REMARK INTRA:                  -2.265
REMARK UNBOUND:                -2.454
REMARK SMILES CCCCCCCCCCCCCC[C@@H](C)C(=O)[O-]
REMARK SMILES IDX 9 1 10 2 11 3 12 4 13 5 14 6 15 7 16 8 17 9 18 10 19 11 8 12
REMARK SMILES IDX 7 13 6 14 5 15 4 16 3 17 2 18 1 19
REMARK H PARENT
REMARK Flexibility Score: inf
ROOT
ATOM      1  C   UNL     1      -1.342  -2.469   7.095  1.00  0.00     0.000 C 
ENDROOT
BRANCH   1   2
ATOM      2  C   UNL     1      -2.216  -1.225   6.854  1.00  0.00     0.000 C 
BRANCH   2   3
ATOM      3  C   UNL     1      -3.219  -0.980   7.993  1.00  0.00     0.000 C 
BRANCH   3   4
ATOM      4  C   UNL     1      -4.555  -0.406   7.487  1.00  0.00     0.000 C 
BRANCH   4   5
ATOM      5  C   UNL     1      -4.637  -0.367   5.952  1.00  0.00     0.001 C 
BRANCH   5   6
ATOM      6  C   UNL     1      -5.625  -1.401   5.386  1.00  0.00     0.009 C 
BRANCH   6   7
ATOM      7  C   UNL     1      -4.946  -2.757   5.101  1.00  0.00     0.032 C 
ATOM      8  C   UNL     1      -5.414  -3.819   6.102  1.00  0.00     0.014 C 
BRANCH   7   9
ATOM      9  C   UNL     1      -5.215  -3.226   3.695  1.00  0.00     0.044 C 
ATOM     10  O   UNL     1      -4.962  -2.480   2.712  1.00  0.00    -0.550 OA
ATOM     11  O   UNL     1      -5.748  -4.490   3.477  1.00  0.00    -0.550 OA
ENDBRANCH   7   9
ENDBRANCH   6   7
ENDBRANCH   5   6
ENDBRANCH   4   5
ENDBRANCH   3   4
ENDBRANCH   2   3
ENDBRANCH   1   2
BRANCH   1  12
ATOM     12  C   UNL     1       0.144  -2.103   7.294  1.00  0.00     0.000 C 
BRANCH  12  13
ATOM     13  C   UNL     1       0.396  -1.173   8.493  1.00  0.00    -0.000 C 
BRANCH  13  14
ATOM     14  C   UNL     1       1.175   0.096   8.110  1.00  0.00    -0.000 C 
BRANCH  14  15
ATOM     15  C   UNL     1       1.038   0.444   6.618  1.00  0.00    -0.000 C 
BRANCH  15  16
ATOM     16  C   UNL     1       0.012   1.558   6.360  1.00  0.00    -0.000 C 
BRANCH  16  17
ATOM     17  C   UNL     1      -0.306   2.320   7.651  1.00  0.00    -0.000 C 
BRANCH  17  18
ATOM     18  C   UNL     1      -1.799   2.657   7.738  1.00  0.00    -0.003 C 
ATOM     19  C   UNL     1      -2.472   2.537   6.374  1.00  0.00     0.004 C 
ENDBRANCH  17  18
ENDBRANCH  16  17
ENDBRANCH  15  16
ENDBRANCH  14  15
ENDBRANCH  13  14
ENDBRANCH  12  13
ENDBRANCH   1  12
TORSDOF 14
ENDMDL
MODEL 6
REMARK VINA RESULT:    -2.799     11.040     12.479
REMARK INTER + INTRA:          -7.545
REMARK INTER:                  -5.445
REMARK INTRA:                  -2.100
REMARK UNBOUND:                -2.454
REMARK SMILES CCCCCCCCCCCCCC[C@@H](C)C(=O)[O-]
REMARK SMILES IDX 9 1 10 2 11 3 12 4 13 5 14 6 15 7 16 8 17 9 18 10 19 11 8 12
REMARK SMILES IDX 7 13 6 14 5 15 4 16 3 17 2 18 1 19
REMARK H PARENT
REMARK Flexibility Score: inf
ROOT
ATOM      1  C   UNL     1       6.570   5.506   2.556  1.00  0.00     0.000 C 
ENDROOT
BRANCH   1   2
ATOM      2  C   UNL     1       6.513   5.877   1.063  1.00  0.00     0.000 C 
BRANCH   2   3
ATOM      3  C   UNL     1       5.100   6.278   0.609  1.00  0.00     0.000 C 
BRANCH   3   4
ATOM      4  C   UNL     1       5.096   7.564  -0.237  1.00  0.00     0.000 C 
BRANCH   4   5
ATOM      5  C   UNL     1       4.530   7.340  -1.649  1.00  0.00     0.001 C 
BRANCH   5   6
ATOM      6  C   UNL     1       4.579   5.865  -2.080  1.00  0.00     0.009 C 
BRANCH   6   7
ATOM      7  C   UNL     1       3.233   5.384  -2.661  1.00  0.00     0.032 C 
ATOM      8  C   UNL     1       3.363   3.968  -3.232  1.00  0.00     0.014 C 
BRANCH   7   9
ATOM      9  C   UNL     1       2.139   5.419  -1.626  1.00  0.00     0.044 C 
ATOM     10  O   UNL     1       2.209   4.697  -0.597  1.00  0.00    -0.550 OA
ATOM     11  O   UNL     1       1.043   6.254  -1.805  1.00  0.00    -0.550 OA
ENDBRANCH   7   9
ENDBRANCH   6   7
ENDBRANCH   5   6
ENDBRANCH   4   5
ENDBRANCH   3   4
ENDBRANCH   2   3
ENDBRANCH   1   2
BRANCH   1  12
ATOM     12  C   UNL     1       6.666   6.754   3.460  1.00  0.00     0.000 C 
BRANCH  12  13
ATOM     13  C   UNL     1       5.548   6.840   4.513  1.00  0.00    -0.000 C 
BRANCH  13  14
ATOM     14  C   UNL     1       4.862   8.216   4.543  1.00  0.00    -0.000 C 
BRANCH  14  15
ATOM     15  C   UNL     1       4.903   8.925   3.180  1.00  0.00    -0.000 C 
BRANCH  15  16
ATOM     16  C   UNL     1       3.509   9.344   2.687  1.00  0.00    -0.000 C 
BRANCH  16  17
ATOM     17  C   UNL     1       2.410   8.720   3.556  1.00  0.00    -0.000 C 
BRANCH  17  18
ATOM     18  C   UNL     1       1.204   8.307   2.706  1.00  0.00    -0.003 C 
ATOM     19  C   UNL     1       1.646   7.623   1.416  1.00  0.00     0.004 C 
ENDBRANCH  17  18
ENDBRANCH  16  17
ENDBRANCH  15  16
ENDBRANCH  14  15
ENDBRANCH  13  14
ENDBRANCH  12  13
ENDBRANCH   1  12
TORSDOF 14
ENDMDL
MODEL 7
REMARK VINA RESULT:    -2.799      2.359      5.696
REMARK INTER + INTRA:          -7.545
REMARK INTER:                  -5.591
REMARK INTRA:                  -1.953
REMARK UNBOUND:                -2.454
REMARK SMILES CCCCCCCCCCCCCC[C@@H](C)C(=O)[O-]
REMARK SMILES IDX 9 1 10 2 11 3 12 4 13 5 14 6 15 7 16 8 17 9 18 10 19 11 8 12
REMARK SMILES IDX 7 13 6 14 5 15 4 16 3 17 2 18 1 19
REMARK H PARENT
REMARK Flexibility Score: inf
ROOT
ATOM      1  C   UNL     1       0.246  -5.140   7.485  1.00  0.00     0.000 C 
ENDROOT
BRANCH   1   2
ATOM      2  C   UNL     1       0.970  -4.604   8.732  1.00  0.00     0.000 C 
BRANCH   2   3
ATOM      3  C   UNL     1       1.519  -3.181   8.530  1.00  0.00     0.000 C 
BRANCH   3   4
ATOM      4  C   UNL     1       0.752  -2.132   9.356  1.00  0.00     0.000 C 
BRANCH   4   5
ATOM      5  C   UNL     1       0.656  -0.774   8.643  1.00  0.00     0.001 C 
BRANCH   5   6
ATOM      6  C   UNL     1       0.260  -0.910   7.163  1.00  0.00     0.009 C 
BRANCH   6   7
ATOM      7  C   UNL     1      -0.945  -0.016   6.800  1.00  0.00     0.032 C 
ATOM      8  C   UNL     1      -1.804   0.266   8.038  1.00  0.00     0.014 C 
BRANCH   7   9
ATOM      9  C   UNL     1      -0.503   1.283   6.178  1.00  0.00     0.044 C 
ATOM     10  O   UNL     1       0.636   1.385   5.650  1.00  0.00    -0.550 OA
ATOM     11  O   UNL     1      -1.356   2.380   6.186  1.00  0.00    -0.550 OA
ENDBRANCH   7   9
ENDBRANCH   6   7
ENDBRANCH   5   6
ENDBRANCH   4   5
ENDBRANCH   3   4
ENDBRANCH   2   3
ENDBRANCH   1   2
BRANCH   1  12
ATOM     12  C   UNL     1      -1.096  -5.816   7.840  1.00  0.00     0.000 C 
BRANCH  12  13
ATOM     13  C   UNL     1      -2.274  -4.833   7.947  1.00  0.00    -0.000 C 
BRANCH  13  14
ATOM     14  C   UNL     1      -2.127  -3.623   7.009  1.00  0.00    -0.000 C 
BRANCH  14  15
ATOM     15  C   UNL     1      -3.475  -2.958   6.689  1.00  0.00    -0.000 C 
BRANCH  15  16
ATOM     16  C   UNL     1      -3.807  -2.981   5.189  1.00  0.00    -0.000 C 
BRANCH  16  17
ATOM     17  C   UNL     1      -5.114  -3.739   4.927  1.00  0.00    -0.000 C 
BRANCH  17  18
ATOM     18  C   UNL     1      -4.964  -5.227   5.263  1.00  0.00    -0.003 C 
ATOM     19  C   UNL     1      -5.954  -5.651   6.344  1.00  0.00     0.004 C 
ENDBRANCH  17  18
ENDBRANCH  16  17
ENDBRANCH  15  16
ENDBRANCH  14  15
ENDBRANCH  13  14
ENDBRANCH  12  13
ENDBRANCH   1  12
TORSDOF 14
ENDMDL
MODEL 8
REMARK VINA RESULT:    -2.789      1.183      3.980
REMARK INTER + INTRA:          -7.526
REMARK INTER:                  -5.040
REMARK INTRA:                  -2.486
REMARK UNBOUND:                -2.454
REMARK SMILES CCCCCCCCCCCCCC[C@@H](C)C(=O)[O-]
REMARK SMILES IDX 9 1 10 2 11 3 12 4 13 5 14 6 15 7 16 8 17 9 18 10 19 11 8 12
REMARK SMILES IDX 7 13 6 14 5 15 4 16 3 17 2 18 1 19
REMARK H PARENT
REMARK Flexibility Score: inf
ROOT
ATOM      1  C   UNL     1       1.216   0.237   7.908  1.00  0.00     0.000 C 
ENDROOT
BRANCH   1   2
ATOM      2  C   UNL     1       0.689  -1.109   8.435  1.00  0.00     0.000 C 
BRANCH   2   3
ATOM      3  C   UNL     1      -0.174  -1.850   7.400  1.00  0.00     0.000 C 
BRANCH   3   4
ATOM      4  C   UNL     1      -0.060  -3.380   7.527  1.00  0.00     0.000 C 
BRANCH   4   5
ATOM      5  C   UNL     1      -1.304  -4.112   6.997  1.00  0.00     0.001 C 
BRANCH   5   6
ATOM      6  C   UNL     1      -2.351  -3.150   6.410  1.00  0.00     0.009 C 
BRANCH   6   7
ATOM      7  C   UNL     1      -3.765  -3.767   6.400  1.00  0.00     0.032 C 
ATOM      8  C   UNL     1      -4.514  -3.429   7.694  1.00  0.00     0.014 C 
BRANCH   7   9
ATOM      9  C   UNL     1      -4.563  -3.301   5.211  1.00  0.00     0.044 C 
ATOM     10  O   UNL     1      -3.986  -2.979   4.138  1.00  0.00    -0.550 OA
ATOM     11  O   UNL     1      -5.948  -3.223   5.294  1.00  0.00    -0.550 OA
ENDBRANCH   7   9
ENDBRANCH   6   7
ENDBRANCH   5   6
ENDBRANCH   4   5
ENDBRANCH   3   4
ENDBRANCH   2   3
ENDBRANCH   1   2
BRANCH   1  12
ATOM     12  C   UNL     1       0.984   0.395   6.389  1.00  0.00     0.000 C 
BRANCH  12  13
ATOM     13  C   UNL     1      -0.062   1.466   6.033  1.00  0.00    -0.000 C 
BRANCH  13  14
ATOM     14  C   UNL     1      -0.517   2.283   7.253  1.00  0.00    -0.000 C 
BRANCH  14  15
ATOM     15  C   UNL     1      -2.034   2.195   7.490  1.00  0.00    -0.000 C 
BRANCH  15  16
ATOM     16  C   UNL     1      -2.404   1.192   8.593  1.00  0.00    -0.000 C 
BRANCH  16  17
ATOM     17  C   UNL     1      -3.296   0.073   8.041  1.00  0.00    -0.000 C 
BRANCH  17  18
ATOM     18  C   UNL     1      -3.660   0.332   6.574  1.00  0.00    -0.003 C 
ATOM     19  C   UNL     1      -5.155   0.143   6.335  1.00  0.00     0.004 C 
ENDBRANCH  17  18
ENDBRANCH  16  17
ENDBRANCH  15  16
ENDBRANCH  14  15
ENDBRANCH  13  14
ENDBRANCH  12  13
ENDBRANCH   1  12
TORSDOF 14
ENDMDL
MODEL 9
REMARK VINA RESULT:    -2.760      2.591      4.778
REMARK INTER + INTRA:          -7.474
REMARK INTER:                  -4.708
REMARK INTRA:                  -2.766
REMARK UNBOUND:                -2.454
REMARK SMILES CCCCCCCCCCCCCC[C@@H](C)C(=O)[O-]
REMARK SMILES IDX 9 1 10 2 11 3 12 4 13 5 14 6 15 7 16 8 17 9 18 10 19 11 8 12
REMARK SMILES IDX 7 13 6 14 5 15 4 16 3 17 2 18 1 19
REMARK H PARENT
REMARK Flexibility Score: inf
ROOT
ATOM      1  C   UNL     1       1.121  -0.894   8.963  1.00  0.00     0.000 C 
ENDROOT
BRANCH   1   2
ATOM      2  C   UNL     1       0.975   0.473   8.273  1.00  0.00     0.000 C 
BRANCH   2   3
ATOM      3  C   UNL     1       1.069   0.373   6.741  1.00  0.00     0.000 C 
BRANCH   3   4
ATOM      4  C   UNL     1      -0.089   1.099   6.032  1.00  0.00     0.000 C 
BRANCH   4   5
ATOM      5  C   UNL     1      -0.765   2.149   6.928  1.00  0.00     0.001 C 
BRANCH   5   6
ATOM      6  C   UNL     1      -2.235   2.396   6.545  1.00  0.00     0.009 C 
BRANCH   6   7
ATOM      7  C   UNL     1      -3.079   2.859   7.751  1.00  0.00     0.032 C 
ATOM      8  C   UNL     1      -2.180   3.184   8.949  1.00  0.00     0.014 C 
BRANCH   7   9
ATOM      9  C   UNL     1      -3.925   4.057   7.406  1.00  0.00     0.044 C 
ATOM     10  O   UNL     1      -4.744   4.009   6.451  1.00  0.00    -0.550 OA
ATOM     11  O   UNL     1      -3.803   5.226   8.147  1.00  0.00    -0.550 OA
ENDBRANCH   7   9
ENDBRANCH   6   7
ENDBRANCH   5   6
ENDBRANCH   4   5
ENDBRANCH   3   4
ENDBRANCH   2   3
ENDBRANCH   1   2
BRANCH   1  12
ATOM     12  C   UNL     1      -0.013  -1.154   9.978  1.00  0.00     0.000 C 
BRANCH  12  13
ATOM     13  C   UNL     1      -1.184  -0.163   9.863  1.00  0.00    -0.000 C 
BRANCH  13  14
ATOM     14  C   UNL     1      -2.482  -0.828   9.376  1.00  0.00    -0.000 C 
BRANCH  14  15
ATOM     15  C   UNL     1      -2.495  -1.052   7.855  1.00  0.00    -0.000 C 
BRANCH  15  16
ATOM     16  C   UNL     1      -3.204  -2.355   7.454  1.00  0.00    -0.000 C 
BRANCH  16  17
ATOM     17  C   UNL     1      -2.341  -3.173   6.485  1.00  0.00    -0.000 C 
BRANCH  17  18
ATOM     18  C   UNL     1      -0.849  -2.966   6.767  1.00  0.00    -0.003 C 
ATOM     19  C   UNL     1      -0.258  -4.158   7.514  1.00  0.00     0.004 C 
ENDBRANCH  17  18
ENDBRANCH  16  17
ENDBRANCH  15  16
ENDBRANCH  14  15
ENDBRANCH  13  14
ENDBRANCH  12  13
ENDBRANCH   1  12
TORSDOF 14
ENDMDL
