MODEL 1
REMARK VINA RESULT:    30.443      0.000      0.000
REMARK INTER + INTRA:          37.201
REMARK INTER:                  37.562
REMARK INTRA:                  -0.362
REMARK UNBOUND:                -0.362
REMARK SMILES Oc1cc(O)c2cc(O)c(-c3cc(O)c(O)c(O)c3)[o+]c2c1
REMARK SMILES IDX 10 1 20 2 21 3 22 4 2 5 3 6 4 7 6 8 7 9 8 10 11 11 12 12
REMARK SMILES IDX 13 13 19 14 15 15 17 16 14 17 16 19 18 21 9 23 1 25 5 27
REMARK H PARENT 14 18 16 20 18 22 9 24 1 26 5 28
REMARK Flexibility Score: inf
ROOT
ATOM      1  C   UNL     1      12.255   5.200  17.821  1.00  0.00     0.402 A 
ATOM      2  O   UNL     1      13.017   6.200  18.252  1.00  0.00    -0.202 OA
ATOM      3  C   UNL     1      12.806   7.472  17.927  1.00  0.00     0.368 A 
ATOM      4  C   UNL     1      13.662   8.455  18.433  1.00  0.00     0.162 A 
ATOM      5  C   UNL     1      13.461   9.800  18.109  1.00  0.00     0.128 A 
ATOM      6  C   UNL     1      12.399  10.164  17.277  1.00  0.00     0.093 A 
ATOM      7  C   UNL     1      11.527   9.198  16.759  1.00  0.00     0.136 A 
ATOM      8  C   UNL     1      11.729   7.831  17.082  1.00  0.00     0.125 A 
ATOM      9  C   UNL     1      10.915   6.795  16.597  1.00  0.00     0.078 A 
ATOM     10  C   UNL     1      11.178   5.469  16.955  1.00  0.00     0.223 A 
ENDROOT
BRANCH   1  11
ATOM     11  C   UNL     1      12.586   3.825  18.261  1.00  0.00     0.091 A 
ATOM     12  C   UNL     1      12.090   3.355  19.485  1.00  0.00     0.068 A 
ATOM     13  C   UNL     1      12.365   2.054  19.924  1.00  0.00     0.162 A 
ATOM     14  C   UNL     1      13.340   2.961  17.454  1.00  0.00     0.068 A 
ATOM     15  C   UNL     1      13.146   1.196  19.114  1.00  0.00     0.200 A 
ATOM     16  C   UNL     1      13.623   1.656  17.879  1.00  0.00     0.162 A 
BRANCH  13  17
ATOM     17  O   UNL     1      11.847   1.661  21.160  1.00  0.00    -0.504 OA
ATOM     18  H   UNL     1      10.958   1.199  21.280  1.00  0.00     0.293 HD
ENDBRANCH  13  17
BRANCH  15  19
ATOM     19  O   UNL     1      13.463  -0.111  19.494  1.00  0.00    -0.502 OA
ATOM     20  H   UNL     1      13.102  -0.936  19.038  1.00  0.00     0.293 HD
ENDBRANCH  15  19
BRANCH  16  21
ATOM     21  O   UNL     1      14.378   0.806  17.072  1.00  0.00    -0.504 OA
ATOM     22  H   UNL     1      13.944   0.175  16.411  1.00  0.00     0.293 HD
ENDBRANCH  16  21
ENDBRANCH   1  11
BRANCH  10  23
ATOM     23  O   UNL     1      10.400   4.436  16.434  1.00  0.00    -0.500 OA
ATOM     24  H   UNL     1       9.405   4.546  16.273  1.00  0.00     0.294 HD
ENDBRANCH  10  23
BRANCH   5  25
ATOM     25  O   UNL     1      14.310  10.784  18.609  1.00  0.00    -0.507 OA
ATOM     26  H   UNL     1      15.250  10.903  18.254  1.00  0.00     0.293 HD
ENDBRANCH   5  25
BRANCH   7  27
ATOM     27  O   UNL     1      10.489   9.645  15.937  1.00  0.00    -0.507 OA
ATOM     28  H   UNL     1      10.425   9.459  14.946  1.00  0.00     0.293 HD
ENDBRANCH   7  27
TORSDOF 7
ENDMDL
MODEL 2
REMARK VINA RESULT:    30.778      4.804      8.113
REMARK INTER + INTRA:          37.613
REMARK INTER:                  37.964
REMARK INTRA:                  -0.351
REMARK UNBOUND:                -0.362
REMARK SMILES Oc1cc(O)c2cc(O)c(-c3cc(O)c(O)c(O)c3)[o+]c2c1
REMARK SMILES IDX 10 1 20 2 21 3 22 4 2 5 3 6 4 7 6 8 7 9 8 10 11 11 12 12
REMARK SMILES IDX 13 13 19 14 15 15 17 16 14 17 16 19 18 21 9 23 1 25 5 27
REMARK H PARENT 14 18 16 20 18 22 9 24 1 26 5 28
REMARK Flexibility Score: inf
ROOT
ATOM      1  C   UNL     1      10.067   9.976  19.679  1.00  0.00     0.402 A 
ATOM      2  O   UNL     1       9.807   9.507  18.461  1.00  0.00    -0.202 OA
ATOM      3  C   UNL     1      10.743   9.029  17.648  1.00  0.00     0.368 A 
ATOM      4  C   UNL     1      10.371   8.556  16.386  1.00  0.00     0.162 A 
ATOM      5  C   UNL     1      11.335   8.045  15.512  1.00  0.00     0.128 A 
ATOM      6  C   UNL     1      12.677   8.007  15.901  1.00  0.00     0.093 A 
ATOM      7  C   UNL     1      13.074   8.475  17.160  1.00  0.00     0.136 A 
ATOM      8  C   UNL     1      12.100   8.997  18.050  1.00  0.00     0.125 A 
ATOM      9  C   UNL     1      12.409   9.500  19.324  1.00  0.00     0.078 A 
ATOM     10  C   UNL     1      11.395  10.004  20.144  1.00  0.00     0.223 A 
ENDROOT
BRANCH   1  11
ATOM     11  C   UNL     1       8.936  10.472  20.495  1.00  0.00     0.091 A 
ATOM     12  C   UNL     1       8.164   9.562  21.231  1.00  0.00     0.068 A 
ATOM     13  C   UNL     1       7.101   9.997  22.030  1.00  0.00     0.162 A 
ATOM     14  C   UNL     1       8.653  11.843  20.595  1.00  0.00     0.068 A 
ATOM     15  C   UNL     1       6.807  11.380  22.107  1.00  0.00     0.200 A 
ATOM     16  C   UNL     1       7.592  12.294  21.392  1.00  0.00     0.162 A 
BRANCH  13  17
ATOM     17  O   UNL     1       6.370   9.031  22.723  1.00  0.00    -0.504 OA
ATOM     18  H   UNL     1       6.070   8.154  22.324  1.00  0.00     0.293 HD
ENDBRANCH  13  17
BRANCH  15  19
ATOM     19  O   UNL     1       5.756  11.881  22.881  1.00  0.00    -0.502 OA
ATOM     20  H   UNL     1       5.859  12.615  23.566  1.00  0.00     0.293 HD
ENDBRANCH  15  19
BRANCH  16  21
ATOM     21  O   UNL     1       7.314  13.657  21.479  1.00  0.00    -0.504 OA
ATOM     22  H   UNL     1       7.991  14.316  21.843  1.00  0.00     0.293 HD
ENDBRANCH  16  21
ENDBRANCH   1  11
BRANCH  10  23
ATOM     23  O   UNL     1      11.708  10.548  21.390  1.00  0.00    -0.500 OA
ATOM     24  H   UNL     1      11.884  11.539  21.509  1.00  0.00     0.294 HD
ENDBRANCH  10  23
BRANCH   5  25
ATOM     25  O   UNL     1      10.972   7.572  14.254  1.00  0.00    -0.507 OA
ATOM     26  H   UNL     1      10.368   8.106  13.641  1.00  0.00     0.293 HD
ENDBRANCH   5  25
BRANCH   7  27
ATOM     27  O   UNL     1      14.435   8.399  17.473  1.00  0.00    -0.507 OA
ATOM     28  H   UNL     1      15.136   7.990  16.873  1.00  0.00     0.293 HD
ENDBRANCH   7  27
TORSDOF 7
ENDMDL
MODEL 3
REMARK VINA RESULT:    30.981      1.033      3.108
REMARK INTER + INTRA:          37.864
REMARK INTER:                  38.215
REMARK INTRA:                  -0.351
REMARK UNBOUND:                -0.362
REMARK SMILES Oc1cc(O)c2cc(O)c(-c3cc(O)c(O)c(O)c3)[o+]c2c1
REMARK SMILES IDX 10 1 20 2 21 3 22 4 2 5 3 6 4 7 6 8 7 9 8 10 11 11 12 12
REMARK SMILES IDX 13 13 19 14 15 15 17 16 14 17 16 19 18 21 9 23 1 25 5 27
REMARK H PARENT 14 18 16 20 18 22 9 24 1 26 5 28
REMARK Flexibility Score: inf
ROOT
ATOM      1  C   UNL     1      12.883   5.080  18.346  1.00  0.00     0.402 A 
ATOM      2  O   UNL     1      12.006   5.581  17.481  1.00  0.00    -0.202 OA
ATOM      3  C   UNL     1      11.927   6.875  17.188  1.00  0.00     0.368 A 
ATOM      4  C   UNL     1      10.972   7.307  16.262  1.00  0.00     0.162 A 
ATOM      5  C   UNL     1      10.870   8.662  15.934  1.00  0.00     0.128 A 
ATOM      6  C   UNL     1      11.725   9.589  16.535  1.00  0.00     0.093 A 
ATOM      7  C   UNL     1      12.690   9.182  17.464  1.00  0.00     0.136 A 
ATOM      8  C   UNL     1      12.796   7.808  17.803  1.00  0.00     0.125 A 
ATOM      9  C   UNL     1      13.723   7.312  18.734  1.00  0.00     0.078 A 
ATOM     10  C   UNL     1      13.766   5.944  19.021  1.00  0.00     0.223 A 
ENDROOT
BRANCH   1  11
ATOM     11  C   UNL     1      12.879   3.618  18.580  1.00  0.00     0.091 A 
ATOM     12  C   UNL     1      13.573   2.776  17.698  1.00  0.00     0.068 A 
ATOM     13  C   UNL     1      13.610   1.392  17.900  1.00  0.00     0.162 A 
ATOM     14  C   UNL     1      12.245   3.057  19.698  1.00  0.00     0.068 A 
ATOM     15  C   UNL     1      12.946   0.832  19.018  1.00  0.00     0.200 A 
ATOM     16  C   UNL     1      12.273   1.674  19.914  1.00  0.00     0.162 A 
BRANCH  13  17
ATOM     17  O   UNL     1      14.309   0.618  16.972  1.00  0.00    -0.504 OA
ATOM     18  H   UNL     1      15.218   0.858  16.605  1.00  0.00     0.293 HD
ENDBRANCH  13  17
BRANCH  15  19
ATOM     19  O   UNL     1      12.938  -0.542  19.275  1.00  0.00    -0.502 OA
ATOM     20  H   UNL     1      13.231  -0.956  20.148  1.00  0.00     0.293 HD
ENDBRANCH  15  19
BRANCH  16  21
ATOM     21  O   UNL     1      11.633   1.125  21.025  1.00  0.00    -0.504 OA
ATOM     22  H   UNL     1      11.809   0.174  21.324  1.00  0.00     0.293 HD
ENDBRANCH  16  21
ENDBRANCH   1  11
BRANCH  10  23
ATOM     23  O   UNL     1      14.652   5.457  19.981  1.00  0.00    -0.500 OA
ATOM     24  H   UNL     1      15.573   5.861  20.110  1.00  0.00     0.294 HD
ENDBRANCH  10  23
BRANCH   5  25
ATOM     25  O   UNL     1       9.921   9.098  15.013  1.00  0.00    -0.507 OA
ATOM     26  H   UNL     1       8.937   8.892  15.128  1.00  0.00     0.293 HD
ENDBRANCH   5  25
BRANCH   7  27
ATOM     27  O   UNL     1      13.508  10.172  18.016  1.00  0.00    -0.507 OA
ATOM     28  H   UNL     1      13.852  10.975  17.510  1.00  0.00     0.293 HD
ENDBRANCH   7  27
TORSDOF 7
ENDMDL
MODEL 4
REMARK VINA RESULT:    31.731      5.046      7.969
REMARK INTER + INTRA:          38.790
REMARK INTER:                  39.147
REMARK INTRA:                  -0.357
REMARK UNBOUND:                -0.362
REMARK SMILES Oc1cc(O)c2cc(O)c(-c3cc(O)c(O)c(O)c3)[o+]c2c1
REMARK SMILES IDX 10 1 20 2 21 3 22 4 2 5 3 6 4 7 6 8 7 9 8 10 11 11 12 12
REMARK SMILES IDX 13 13 19 14 15 15 17 16 14 17 16 19 18 21 9 23 1 25 5 27
REMARK H PARENT 14 18 16 20 18 22 9 24 1 26 5 28
REMARK Flexibility Score: inf
ROOT
ATOM      1  C   UNL     1       9.253   9.982  19.517  1.00  0.00     0.402 A 
ATOM      2  O   UNL     1      10.572   9.979  19.685  1.00  0.00    -0.202 OA
ATOM      3  C   UNL     1      11.424   9.546  18.761  1.00  0.00     0.368 A 
ATOM      4  C   UNL     1      12.796   9.585  19.028  1.00  0.00     0.162 A 
ATOM      5  C   UNL     1      13.714   9.140  18.073  1.00  0.00     0.128 A 
ATOM      6  C   UNL     1      13.259   8.653  16.845  1.00  0.00     0.093 A 
ATOM      7  C   UNL     1      11.890   8.605  16.553  1.00  0.00     0.136 A 
ATOM      8  C   UNL     1      10.954   9.053  17.520  1.00  0.00     0.125 A 
ATOM      9  C   UNL     1       9.564   9.028  17.319  1.00  0.00     0.078 A 
ATOM     10  C   UNL     1       8.702   9.483  18.322  1.00  0.00     0.223 A 
ENDROOT
BRANCH   1  11
ATOM     11  C   UNL     1       8.408  10.499  20.618  1.00  0.00     0.091 A 
ATOM     12  C   UNL     1       8.170  11.877  20.716  1.00  0.00     0.068 A 
ATOM     13  C   UNL     1       7.359  12.400  21.730  1.00  0.00     0.162 A 
ATOM     14  C   UNL     1       7.791   9.634  21.534  1.00  0.00     0.068 A 
ATOM     15  C   UNL     1       6.759  11.522  22.665  1.00  0.00     0.200 A 
ATOM     16  C   UNL     1       6.976  10.142  22.554  1.00  0.00     0.162 A 
BRANCH  13  17
ATOM     17  O   UNL     1       7.179  13.783  21.771  1.00  0.00    -0.504 OA
ATOM     18  H   UNL     1       7.017  14.357  20.957  1.00  0.00     0.293 HD
ENDBRANCH  13  17
BRANCH  15  19
ATOM     19  O   UNL     1       5.944  11.977  23.705  1.00  0.00    -0.502 OA
ATOM     20  H   UNL     1       6.045  11.694  24.668  1.00  0.00     0.293 HD
ENDBRANCH  15  19
BRANCH  16  21
ATOM     21  O   UNL     1       6.373   9.275  23.464  1.00  0.00    -0.504 OA
ATOM     22  H   UNL     1       6.882   8.890  24.250  1.00  0.00     0.293 HD
ENDBRANCH  16  21
ENDBRANCH   1  11
BRANCH  10  23
ATOM     23  O   UNL     1       7.321   9.412  18.142  1.00  0.00    -0.500 OA
ATOM     24  H   UNL     1       6.841   8.526  18.040  1.00  0.00     0.294 HD
ENDBRANCH  10  23
BRANCH   5  25
ATOM     25  O   UNL     1      15.081   9.176  18.333  1.00  0.00    -0.507 OA
ATOM     26  H   UNL     1      15.504   8.577  19.032  1.00  0.00     0.293 HD
ENDBRANCH   5  25
BRANCH   7  27
ATOM     27  O   UNL     1      11.518   8.107  15.300  1.00  0.00    -0.507 OA
ATOM     28  H   UNL     1      10.929   8.599  14.643  1.00  0.00     0.293 HD
ENDBRANCH   7  27
TORSDOF 7
ENDMDL
