MODEL 1
REMARK VINA RESULT:    -1.676      0.000      0.000
REMARK INTER + INTRA:          -2.238
REMARK INTER:                  -2.068
REMARK INTRA:                  -0.170
REMARK UNBOUND:                -0.170
REMARK SMILES O=c1c(O)c(-c2cc(O)c(O)c(O)c2)oc2cc(O)cc(O)c12
REMARK SMILES IDX 5 1 3 2 2 3 1 4 23 5 21 6 20 7 18 8 17 9 16 10 15 11 6 12
REMARK SMILES IDX 7 13 8 14 14 15 10 16 12 17 9 18 11 20 13 22 4 24 22 26
REMARK SMILES IDX 19 28
REMARK H PARENT 9 19 11 21 13 23 4 25 22 27 19 29
REMARK Flexibility Score: inf
ROOT
ATOM      1  C   UNL     1      21.881  44.447  30.112  1.00  0.00     0.180 A 
ATOM      2  C   UNL     1      22.456  45.063  28.983  1.00  0.00     0.208 A 
ATOM      3  C   UNL     1      22.545  44.337  27.786  1.00  0.00     0.238 A 
ATOM      4  O   UNL     1      23.068  44.874  26.772  1.00  0.00    -0.285 OA
ATOM      5  C   UNL     1      22.043  43.020  27.729  1.00  0.00     0.111 A 
ATOM      6  C   UNL     1      22.091  42.222  26.561  1.00  0.00     0.134 A 
ATOM      7  C   UNL     1      21.561  40.924  26.583  1.00  0.00     0.093 A 
ATOM      8  C   UNL     1      20.985  40.410  27.747  1.00  0.00     0.123 A 
ATOM      9  C   UNL     1      20.936  41.192  28.904  1.00  0.00     0.094 A 
ATOM     10  C   UNL     1      21.460  42.488  28.904  1.00  0.00     0.146 A 
ATOM     11  O   UNL     1      21.405  43.209  30.018  1.00  0.00    -0.452 OA
ENDROOT
BRANCH   1  12
ATOM     12  C   UNL     1      21.769  45.141  31.415  1.00  0.00     0.029 A 
ATOM     13  C   UNL     1      21.002  46.309  31.557  1.00  0.00     0.062 A 
ATOM     14  C   UNL     1      20.925  46.966  32.789  1.00  0.00     0.162 A 
ATOM     15  C   UNL     1      22.488  44.659  32.518  1.00  0.00     0.062 A 
ATOM     16  C   UNL     1      21.629  46.464  33.897  1.00  0.00     0.200 A 
ATOM     17  C   UNL     1      22.417  45.308  33.758  1.00  0.00     0.162 A 
BRANCH  14  18
ATOM     18  O   UNL     1      20.147  48.119  32.893  1.00  0.00    -0.504 OA
ATOM     19  H   UNL     1      20.218  48.748  33.684  1.00  0.00     0.293 HD
ENDBRANCH  14  18
BRANCH  16  20
ATOM     20  O   UNL     1      21.544  47.122  35.125  1.00  0.00    -0.502 OA
ATOM     21  H   UNL     1      20.718  47.638  35.405  1.00  0.00     0.293 HD
ENDBRANCH  16  20
BRANCH  17  22
ATOM     22  O   UNL     1      23.125  44.810  34.849  1.00  0.00    -0.504 OA
ATOM     23  H   UNL     1      23.097  43.827  35.098  1.00  0.00     0.293 HD
ENDBRANCH  17  22
ENDBRANCH   1  12
BRANCH   2  24
ATOM     24  O   UNL     1      22.902  46.386  29.051  1.00  0.00    -0.502 OA
ATOM     25  H   UNL     1      22.312  47.171  28.803  1.00  0.00     0.293 HD
ENDBRANCH   2  24
BRANCH   6  26
ATOM     26  O   UNL     1      22.658  42.707  25.382  1.00  0.00    -0.507 OA
ATOM     27  H   UNL     1      22.738  42.132  24.553  1.00  0.00     0.293 HD
ENDBRANCH   6  26
BRANCH   8  28
ATOM     28  O   UNL     1      20.465  39.116  27.743  1.00  0.00    -0.508 OA
ATOM     29  H   UNL     1      19.812  38.805  28.452  1.00  0.00     0.293 HD
ENDBRANCH   8  28
TORSDOF 7
ENDMDL
MODEL 2
REMARK VINA RESULT:    -1.310      1.124      3.277
REMARK INTER + INTRA:          -1.787
REMARK INTER:                  -1.704
REMARK INTRA:                  -0.083
REMARK UNBOUND:                -0.170
REMARK SMILES O=c1c(O)c(-c2cc(O)c(O)c(O)c2)oc2cc(O)cc(O)c12
REMARK SMILES IDX 5 1 3 2 2 3 1 4 23 5 21 6 20 7 18 8 17 9 16 10 15 11 6 12
REMARK SMILES IDX 7 13 8 14 14 15 10 16 12 17 9 18 11 20 13 22 4 24 22 26
REMARK SMILES IDX 19 28
REMARK H PARENT 9 19 11 21 13 23 4 25 22 27 19 29
REMARK Flexibility Score: inf
ROOT
ATOM      1  C   UNL     1      21.634  43.930  30.547  1.00  0.00     0.180 A 
ATOM      2  C   UNL     1      21.229  42.584  30.638  1.00  0.00     0.208 A 
ATOM      3  C   UNL     1      21.205  41.803  29.473  1.00  0.00     0.238 A 
ATOM      4  O   UNL     1      20.834  40.599  29.540  1.00  0.00    -0.285 OA
ATOM      5  C   UNL     1      21.602  42.370  28.244  1.00  0.00     0.111 A 
ATOM      6  C   UNL     1      21.610  41.650  27.026  1.00  0.00     0.134 A 
ATOM      7  C   UNL     1      22.029  42.283  25.846  1.00  0.00     0.093 A 
ATOM      8  C   UNL     1      22.439  43.618  25.861  1.00  0.00     0.123 A 
ATOM      9  C   UNL     1      22.432  44.335  27.062  1.00  0.00     0.094 A 
ATOM     10  C   UNL     1      22.017  43.722  28.248  1.00  0.00     0.146 A 
ATOM     11  O   UNL     1      22.016  44.427  29.374  1.00  0.00    -0.452 OA
ENDROOT
BRANCH   1  12
ATOM     12  C   UNL     1      21.668  44.823  31.727  1.00  0.00     0.029 A 
ATOM     13  C   UNL     1      22.389  44.480  32.884  1.00  0.00     0.062 A 
ATOM     14  C   UNL     1      22.391  45.323  33.998  1.00  0.00     0.162 A 
ATOM     15  C   UNL     1      20.919  46.009  31.717  1.00  0.00     0.062 A 
ATOM     16  C   UNL     1      21.658  46.522  33.973  1.00  0.00     0.200 A 
ATOM     17  C   UNL     1      20.917  46.862  32.829  1.00  0.00     0.162 A 
BRANCH  14  18
ATOM     18  O   UNL     1      23.125  44.951  35.125  1.00  0.00    -0.504 OA
ATOM     19  H   UNL     1      23.698  44.115  35.143  1.00  0.00     0.293 HD
ENDBRANCH  14  18
BRANCH  16  20
ATOM     20  O   UNL     1      21.670  47.361  35.089  1.00  0.00    -0.502 OA
ATOM     21  H   UNL     1      21.973  48.326  35.036  1.00  0.00     0.293 HD
ENDBRANCH  16  20
BRANCH  17  22
ATOM     22  O   UNL     1      20.180  48.045  32.800  1.00  0.00    -0.504 OA
ATOM     23  H   UNL     1      20.614  48.936  32.587  1.00  0.00     0.293 HD
ENDBRANCH  17  22
ENDBRANCH   1  12
BRANCH   2  24
ATOM     24  O   UNL     1      20.887  42.032  31.876  1.00  0.00    -0.502 OA
ATOM     25  H   UNL     1      21.494  41.388  32.369  1.00  0.00     0.293 HD
ENDBRANCH   2  24
BRANCH   6  26
ATOM     26  O   UNL     1      21.208  40.314  26.976  1.00  0.00    -0.507 OA
ATOM     27  H   UNL     1      20.242  40.053  26.820  1.00  0.00     0.293 HD
ENDBRANCH   6  26
BRANCH   8  28
ATOM     28  O   UNL     1      22.850  44.224  24.676  1.00  0.00    -0.508 OA
ATOM     29  H   UNL     1      23.661  43.894  24.165  1.00  0.00     0.293 HD
ENDBRANCH   8  28
TORSDOF 7
ENDMDL
MODEL 3
REMARK VINA RESULT:    -0.396      2.252      3.212
REMARK INTER + INTRA:          -0.659
REMARK INTER:                  -0.985
REMARK INTRA:                   0.326
REMARK UNBOUND:                -0.170
REMARK SMILES O=c1c(O)c(-c2cc(O)c(O)c(O)c2)oc2cc(O)cc(O)c12
REMARK SMILES IDX 5 1 3 2 2 3 1 4 23 5 21 6 20 7 18 8 17 9 16 10 15 11 6 12
REMARK SMILES IDX 7 13 8 14 14 15 10 16 12 17 9 18 11 20 13 22 4 24 22 26
REMARK SMILES IDX 19 28
REMARK H PARENT 9 19 11 21 13 23 4 25 22 27 19 29
REMARK Flexibility Score: inf
ROOT
ATOM      1  C   UNL     1      22.401  45.233  28.248  1.00  0.00     0.180 A 
ATOM      2  C   UNL     1      22.672  46.458  27.609  1.00  0.00     0.208 A 
ATOM      3  C   UNL     1      22.829  46.476  26.215  1.00  0.00     0.238 A 
ATOM      4  O   UNL     1      23.083  47.565  25.633  1.00  0.00    -0.285 OA
ATOM      5  C   UNL     1      22.692  45.279  25.482  1.00  0.00     0.111 A 
ATOM      6  C   UNL     1      22.831  45.212  24.075  1.00  0.00     0.134 A 
ATOM      7  C   UNL     1      22.670  43.983  23.418  1.00  0.00     0.093 A 
ATOM      8  C   UNL     1      22.374  42.823  24.138  1.00  0.00     0.123 A 
ATOM      9  C   UNL     1      22.238  42.883  25.528  1.00  0.00     0.094 A 
ATOM     10  C   UNL     1      22.395  44.097  26.202  1.00  0.00     0.146 A 
ATOM     11  O   UNL     1      22.263  44.126  27.523  1.00  0.00    -0.452 OA
ENDROOT
BRANCH   1  12
ATOM     12  C   UNL     1      22.241  45.129  29.717  1.00  0.00     0.029 A 
ATOM     13  C   UNL     1      22.749  46.116  30.578  1.00  0.00     0.062 A 
ATOM     14  C   UNL     1      22.611  45.991  31.964  1.00  0.00     0.162 A 
ATOM     15  C   UNL     1      21.623  43.997  30.265  1.00  0.00     0.062 A 
ATOM     16  C   UNL     1      21.969  44.865  32.507  1.00  0.00     0.200 A 
ATOM     17  C   UNL     1      21.477  43.863  31.653  1.00  0.00     0.162 A 
BRANCH  14  18
ATOM     18  O   UNL     1      23.123  46.995  32.786  1.00  0.00    -0.504 OA
ATOM     19  H   UNL     1      22.596  47.375  33.564  1.00  0.00     0.293 HD
ENDBRANCH  14  18
BRANCH  16  20
ATOM     20  O   UNL     1      21.831  44.751  33.891  1.00  0.00    -0.502 OA
ATOM     21  H   UNL     1      22.603  44.486  34.491  1.00  0.00     0.293 HD
ENDBRANCH  16  20
BRANCH  17  22
ATOM     22  O   UNL     1      20.848  42.740  32.184  1.00  0.00    -0.504 OA
ATOM     23  H   UNL     1      21.377  41.948  32.531  1.00  0.00     0.293 HD
ENDBRANCH  17  22
ENDBRANCH   1  12
BRANCH   2  24
ATOM     24  O   UNL     1      22.755  47.639  28.353  1.00  0.00    -0.502 OA
ATOM     25  H   UNL     1      21.964  48.261  28.473  1.00  0.00     0.293 HD
ENDBRANCH   2  24
BRANCH   6  26
ATOM     26  O   UNL     1      23.125  46.352  23.326  1.00  0.00    -0.507 OA
ATOM     27  H   UNL     1      23.769  47.058  23.660  1.00  0.00     0.293 HD
ENDBRANCH   6  26
BRANCH   8  28
ATOM     28  O   UNL     1      22.219  41.615  23.461  1.00  0.00    -0.508 OA
ATOM     29  H   UNL     1      21.428  41.007  23.636  1.00  0.00     0.293 HD
ENDBRANCH   8  28
TORSDOF 7
ENDMDL
MODEL 4
REMARK VINA RESULT:    -0.027      2.187      7.328
REMARK INTER + INTRA:          -0.203
REMARK INTER:                  -0.685
REMARK INTRA:                   0.481
REMARK UNBOUND:                -0.170
REMARK SMILES O=c1c(O)c(-c2cc(O)c(O)c(O)c2)oc2cc(O)cc(O)c12
REMARK SMILES IDX 5 1 3 2 2 3 1 4 23 5 21 6 20 7 18 8 17 9 16 10 15 11 6 12
REMARK SMILES IDX 7 13 8 14 14 15 10 16 12 17 9 18 11 20 13 22 4 24 22 26
REMARK SMILES IDX 19 28
REMARK H PARENT 9 19 11 21 13 23 4 25 22 27 19 29
REMARK Flexibility Score: inf
ROOT
ATOM      1  C   UNL     1      21.996  43.439  27.623  1.00  0.00     0.180 A 
ATOM      2  C   UNL     1      21.505  42.220  28.126  1.00  0.00     0.208 A 
ATOM      3  C   UNL     1      21.247  42.108  29.501  1.00  0.00     0.238 A 
ATOM      4  O   UNL     1      20.817  41.017  29.966  1.00  0.00    -0.285 OA
ATOM      5  C   UNL     1      21.463  43.218  30.344  1.00  0.00     0.111 A 
ATOM      6  C   UNL     1      21.224  43.190  31.739  1.00  0.00     0.134 A 
ATOM      7  C   UNL     1      21.455  44.340  32.507  1.00  0.00     0.093 A 
ATOM      8  C   UNL     1      21.918  45.514  31.911  1.00  0.00     0.123 A 
ATOM      9  C   UNL     1      22.158  45.548  30.533  1.00  0.00     0.094 A 
ATOM     10  C   UNL     1      21.935  44.412  29.750  1.00  0.00     0.146 A 
ATOM     11  O   UNL     1      22.174  44.470  28.445  1.00  0.00    -0.452 OA
ENDROOT
BRANCH   1  12
ATOM     12  C   UNL     1      22.310  43.629  26.188  1.00  0.00     0.029 A 
ATOM     13  C   UNL     1      22.570  44.904  25.659  1.00  0.00     0.062 A 
ATOM     14  C   UNL     1      22.841  45.068  24.297  1.00  0.00     0.162 A 
ATOM     15  C   UNL     1      22.291  42.523  25.326  1.00  0.00     0.062 A 
ATOM     16  C   UNL     1      22.845  43.953  23.442  1.00  0.00     0.200 A 
ATOM     17  C   UNL     1      22.564  42.677  23.960  1.00  0.00     0.162 A 
BRANCH  14  18
ATOM     18  O   UNL     1      23.101  46.350  23.811  1.00  0.00    -0.504 OA
ATOM     19  H   UNL     1      24.024  46.767  23.857  1.00  0.00     0.293 HD
ENDBRANCH  14  18
BRANCH  16  20
ATOM     20  O   UNL     1      23.121  44.125  22.085  1.00  0.00    -0.502 OA
ATOM     21  H   UNL     1      23.078  43.359  21.424  1.00  0.00     0.293 HD
ENDBRANCH  16  20
BRANCH  17  22
ATOM     22  O   UNL     1      22.557  41.567  23.117  1.00  0.00    -0.504 OA
ATOM     23  H   UNL     1      21.790  40.904  23.117  1.00  0.00     0.293 HD
ENDBRANCH  17  22
ENDBRANCH   1  12
BRANCH   2  24
ATOM     24  O   UNL     1      21.252  41.149  27.263  1.00  0.00    -0.502 OA
ATOM     25  H   UNL     1      21.636  41.105  26.327  1.00  0.00     0.293 HD
ENDBRANCH   2  24
BRANCH   6  26
ATOM     26  O   UNL     1      20.759  42.033  32.366  1.00  0.00    -0.507 OA
ATOM     27  H   UNL     1      20.334  41.277  31.843  1.00  0.00     0.293 HD
ENDBRANCH   6  26
BRANCH   8  28
ATOM     28  O   UNL     1      22.140  46.644  32.697  1.00  0.00    -0.508 OA
ATOM     29  H   UNL     1      22.896  46.682  33.370  1.00  0.00     0.293 HD
ENDBRANCH   8  28
TORSDOF 7
ENDMDL
