MODEL 1
REMARK VINA RESULT:    -3.185      0.000      0.000
REMARK INTER + INTRA:          -7.285
REMARK INTER:                  -5.793
REMARK INTRA:                  -1.493
REMARK UNBOUND:                -1.493
REMARK SMILES CCCCCCCCCCCCCCCC(=O)[O-]
REMARK SMILES IDX 9 1 10 2 11 3 12 4 13 5 14 6 15 7 16 8 17 9 18 10 8 11 7 12
REMARK SMILES IDX 6 13 5 14 4 15 3 16 2 17 1 18
REMARK H PARENT
REMARK Flexibility Score: inf
ROOT
ATOM      1  C   UNL     1      26.640  39.480  25.741  1.00  0.00     0.000 C 
ENDROOT
BRANCH   1   2
ATOM      2  C   UNL     1      26.216  38.048  25.373  1.00  0.00     0.000 C 
BRANCH   2   3
ATOM      3  C   UNL     1      27.010  36.977  26.134  1.00  0.00     0.000 C 
BRANCH   3   4
ATOM      4  C   UNL     1      26.740  37.066  27.644  1.00  0.00     0.000 C 
BRANCH   4   5
ATOM      5  C   UNL     1      25.244  37.185  27.971  1.00  0.00     0.000 C 
BRANCH   5   6
ATOM      6  C   UNL     1      24.982  37.420  29.467  1.00  0.00     0.006 C 
BRANCH   6   7
ATOM      7  C   UNL     1      25.865  38.548  30.007  1.00  0.00     0.053 C 
BRANCH   7   8
ATOM      8  C   UNL     1      26.594  38.100  31.235  1.00  0.00     0.041 C 
ATOM      9  O   UNL     1      26.148  38.388  32.377  1.00  0.00    -0.550 OA
ATOM     10  O   UNL     1      27.739  37.322  31.120  1.00  0.00    -0.550 OA
ENDBRANCH   7   8
ENDBRANCH   6   7
ENDBRANCH   5   6
ENDBRANCH   4   5
ENDBRANCH   3   4
ENDBRANCH   2   3
ENDBRANCH   1   2
BRANCH   1  11
ATOM     11  C   UNL     1      25.476  40.466  25.964  1.00  0.00     0.000 C 
BRANCH  11  12
ATOM     12  C   UNL     1      25.444  41.083  27.379  1.00  0.00    -0.000 C 
BRANCH  12  13
ATOM     13  C   UNL     1      26.050  42.497  27.413  1.00  0.00    -0.000 C 
BRANCH  13  14
ATOM     14  C   UNL     1      26.478  42.991  26.020  1.00  0.00    -0.000 C 
BRANCH  14  15
ATOM     15  C   UNL     1      28.002  43.217  25.894  1.00  0.00    -0.000 C 
BRANCH  15  16
ATOM     16  C   UNL     1      28.817  42.439  26.941  1.00  0.00    -0.000 C 
BRANCH  16  17
ATOM     17  C   UNL     1      30.306  42.817  26.914  1.00  0.00    -0.003 C 
ATOM     18  C   UNL     1      30.563  43.970  25.948  1.00  0.00     0.004 C 
ENDBRANCH  16  17
ENDBRANCH  15  16
ENDBRANCH  14  15
ENDBRANCH  13  14
ENDBRANCH  12  13
ENDBRANCH  11  12
ENDBRANCH   1  11
TORSDOF 14
ENDMDL
MODEL 2
REMARK VINA RESULT:    -3.031      2.847      6.165
REMARK INTER + INTRA:          -7.004
REMARK INTER:                  -5.432
REMARK INTRA:                  -1.572
REMARK UNBOUND:                -1.493
REMARK SMILES CCCCCCCCCCCCCCCC(=O)[O-]
REMARK SMILES IDX 9 1 10 2 11 3 12 4 13 5 14 6 15 7 16 8 17 9 18 10 8 11 7 12
REMARK SMILES IDX 6 13 5 14 4 15 3 16 2 17 1 18
REMARK H PARENT
REMARK Flexibility Score: inf
ROOT
ATOM      1  C   UNL     1      25.881  40.054  28.761  1.00  0.00     0.000 C 
ENDROOT
BRANCH   1   2
ATOM      2  C   UNL     1      25.088  40.642  27.581  1.00  0.00     0.000 C 
BRANCH   2   3
ATOM      3  C   UNL     1      25.705  40.296  26.218  1.00  0.00     0.000 C 
BRANCH   3   4
ATOM      4  C   UNL     1      26.151  41.569  25.482  1.00  0.00     0.000 C 
BRANCH   4   5
ATOM      5  C   UNL     1      26.122  42.814  26.382  1.00  0.00     0.000 C 
BRANCH   5   6
ATOM      6  C   UNL     1      27.464  43.563  26.399  1.00  0.00     0.006 C 
BRANCH   6   7
ATOM      7  C   UNL     1      28.621  42.623  26.049  1.00  0.00     0.053 C 
BRANCH   7   8
ATOM      8  C   UNL     1      29.878  43.065  26.730  1.00  0.00     0.041 C 
ATOM      9  O   UNL     1      30.500  42.274  27.487  1.00  0.00    -0.550 OA
ATOM     10  O   UNL     1      30.391  44.333  26.489  1.00  0.00    -0.550 OA
ENDBRANCH   7   8
ENDBRANCH   6   7
ENDBRANCH   5   6
ENDBRANCH   4   5
ENDBRANCH   3   4
ENDBRANCH   2   3
ENDBRANCH   1   2
BRANCH   1  11
ATOM     11  C   UNL     1      25.110  39.026  29.615  1.00  0.00     0.000 C 
BRANCH  11  12
ATOM     12  C   UNL     1      25.083  37.607  29.009  1.00  0.00    -0.000 C 
BRANCH  12  13
ATOM     13  C   UNL     1      26.433  37.213  28.384  1.00  0.00    -0.000 C 
BRANCH  13  14
ATOM     14  C   UNL     1      26.317  36.880  26.887  1.00  0.00    -0.000 C 
BRANCH  14  15
ATOM     15  C   UNL     1      27.639  37.087  26.111  1.00  0.00    -0.000 C 
BRANCH  15  16
ATOM     16  C   UNL     1      27.423  37.362  24.613  1.00  0.00    -0.000 C 
BRANCH  16  17
ATOM     17  C   UNL     1      26.050  36.875  24.126  1.00  0.00    -0.003 C 
ATOM     18  C   UNL     1      25.611  37.629  22.874  1.00  0.00     0.004 C 
ENDBRANCH  16  17
ENDBRANCH  15  16
ENDBRANCH  14  15
ENDBRANCH  13  14
ENDBRANCH  12  13
ENDBRANCH  11  12
ENDBRANCH   1  11
TORSDOF 14
ENDMDL
MODEL 3
REMARK VINA RESULT:    -3.020      2.922      6.552
REMARK INTER + INTRA:          -6.984
REMARK INTER:                  -5.607
REMARK INTRA:                  -1.377
REMARK UNBOUND:                -1.493
REMARK SMILES CCCCCCCCCCCCCCCC(=O)[O-]
REMARK SMILES IDX 9 1 10 2 11 3 12 4 13 5 14 6 15 7 16 8 17 9 18 10 8 11 7 12
REMARK SMILES IDX 6 13 5 14 4 15 3 16 2 17 1 18
REMARK H PARENT
REMARK Flexibility Score: inf
ROOT
ATOM      1  C   UNL     1      26.350  39.151  25.930  1.00  0.00     0.000 C 
ENDROOT
BRANCH   1   2
ATOM      2  C   UNL     1      25.180  40.086  26.281  1.00  0.00     0.000 C 
BRANCH   2   3
ATOM      3  C   UNL     1      25.356  40.774  27.643  1.00  0.00     0.000 C 
BRANCH   3   4
ATOM      4  C   UNL     1      26.284  41.992  27.524  1.00  0.00     0.000 C 
BRANCH   4   5
ATOM      5  C   UNL     1      26.211  42.658  26.141  1.00  0.00     0.000 C 
BRANCH   5   6
ATOM      6  C   UNL     1      27.599  42.881  25.518  1.00  0.00     0.006 C 
BRANCH   6   7
ATOM      7  C   UNL     1      28.523  43.621  26.490  1.00  0.00     0.053 C 
BRANCH   7   8
ATOM      8  C   UNL     1      29.954  43.292  26.204  1.00  0.00     0.041 C 
ATOM      9  O   UNL     1      30.320  42.091  26.102  1.00  0.00    -0.550 OA
ATOM     10  O   UNL     1      30.875  44.311  26.000  1.00  0.00    -0.550 OA
ENDBRANCH   7   8
ENDBRANCH   6   7
ENDBRANCH   5   6
ENDBRANCH   4   5
ENDBRANCH   3   4
ENDBRANCH   2   3
ENDBRANCH   1   2
BRANCH   1  11
ATOM     11  C   UNL     1      26.073  37.650  26.153  1.00  0.00     0.000 C 
BRANCH  11  12
ATOM     12  C   UNL     1      27.115  36.950  27.052  1.00  0.00    -0.000 C 
BRANCH  12  13
ATOM     13  C   UNL     1      26.664  36.875  28.520  1.00  0.00    -0.000 C 
BRANCH  13  14
ATOM     14  C   UNL     1      25.183  37.247  28.704  1.00  0.00    -0.000 C 
BRANCH  14  15
ATOM     15  C   UNL     1      24.894  37.967  30.041  1.00  0.00    -0.000 C 
BRANCH  15  16
ATOM     16  C   UNL     1      26.171  38.398  30.783  1.00  0.00    -0.000 C 
BRANCH  16  17
ATOM     17  C   UNL     1      26.151  37.979  32.261  1.00  0.00    -0.003 C 
ATOM     18  C   UNL     1      25.126  38.790  33.048  1.00  0.00     0.004 C 
ENDBRANCH  16  17
ENDBRANCH  15  16
ENDBRANCH  14  15
ENDBRANCH  13  14
ENDBRANCH  12  13
ENDBRANCH  11  12
ENDBRANCH   1  11
TORSDOF 14
ENDMDL
MODEL 4
REMARK VINA RESULT:    -2.995      2.931      6.450
REMARK INTER + INTRA:          -6.939
REMARK INTER:                  -5.685
REMARK INTRA:                  -1.254
REMARK UNBOUND:                -1.493
REMARK SMILES CCCCCCCCCCCCCCCC(=O)[O-]
REMARK SMILES IDX 9 1 10 2 11 3 12 4 13 5 14 6 15 7 16 8 17 9 18 10 8 11 7 12
REMARK SMILES IDX 6 13 5 14 4 15 3 16 2 17 1 18
REMARK H PARENT
REMARK Flexibility Score: inf
ROOT
ATOM      1  C   UNL     1      25.298  39.792  25.130  1.00  0.00     0.000 C 
ENDROOT
BRANCH   1   2
ATOM      2  C   UNL     1      26.262  40.345  26.193  1.00  0.00     0.000 C 
BRANCH   2   3
ATOM      3  C   UNL     1      25.556  41.213  27.245  1.00  0.00     0.000 C 
BRANCH   3   4
ATOM      4  C   UNL     1      26.172  42.619  27.294  1.00  0.00     0.000 C 
BRANCH   4   5
ATOM      5  C   UNL     1      26.438  43.199  25.896  1.00  0.00     0.000 C 
BRANCH   5   6
ATOM      6  C   UNL     1      27.923  43.142  25.504  1.00  0.00     0.006 C 
BRANCH   6   7
ATOM      7  C   UNL     1      28.811  43.641  26.647  1.00  0.00     0.053 C 
BRANCH   7   8
ATOM      8  C   UNL     1      30.257  43.489  26.292  1.00  0.00     0.041 C 
ATOM      9  O   UNL     1      30.869  44.424  25.712  1.00  0.00    -0.550 OA
ATOM     10  O   UNL     1      30.941  42.333  26.647  1.00  0.00    -0.550 OA
ENDBRANCH   7   8
ENDBRANCH   6   7
ENDBRANCH   5   6
ENDBRANCH   4   5
ENDBRANCH   3   4
ENDBRANCH   2   3
ENDBRANCH   1   2
BRANCH   1  11
ATOM     11  C   UNL     1      25.617  38.365  24.641  1.00  0.00     0.000 C 
BRANCH  11  12
ATOM     12  C   UNL     1      25.341  37.269  25.693  1.00  0.00    -0.000 C 
BRANCH  12  13
ATOM     13  C   UNL     1      26.566  36.989  26.580  1.00  0.00    -0.000 C 
BRANCH  13  14
ATOM     14  C   UNL     1      26.206  36.888  28.072  1.00  0.00    -0.000 C 
BRANCH  14  15
ATOM     15  C   UNL     1      24.919  37.660  28.444  1.00  0.00    -0.000 C 
BRANCH  15  16
ATOM     16  C   UNL     1      25.078  38.530  29.703  1.00  0.00    -0.000 C 
BRANCH  16  17
ATOM     17  C   UNL     1      26.415  38.279  30.415  1.00  0.00    -0.003 C 
ATOM     18  C   UNL     1      26.207  38.039  31.908  1.00  0.00     0.004 C 
ENDBRANCH  16  17
ENDBRANCH  15  16
ENDBRANCH  14  15
ENDBRANCH  13  14
ENDBRANCH  12  13
ENDBRANCH  11  12
ENDBRANCH   1  11
TORSDOF 14
ENDMDL
MODEL 5
REMARK VINA RESULT:    -2.920      3.102      7.025
REMARK INTER + INTRA:          -6.803
REMARK INTER:                  -5.698
REMARK INTRA:                  -1.105
REMARK UNBOUND:                -1.493
REMARK SMILES CCCCCCCCCCCCCCCC(=O)[O-]
REMARK SMILES IDX 9 1 10 2 11 3 12 4 13 5 14 6 15 7 16 8 17 9 18 10 8 11 7 12
REMARK SMILES IDX 6 13 5 14 4 15 3 16 2 17 1 18
REMARK H PARENT
REMARK Flexibility Score: inf
ROOT
ATOM      1  C   UNL     1      25.711  40.268  28.283  1.00  0.00     0.000 C 
ENDROOT
BRANCH   1   2
ATOM      2  C   UNL     1      25.998  39.659  26.900  1.00  0.00     0.000 C 
BRANCH   2   3
ATOM      3  C   UNL     1      25.162  40.298  25.782  1.00  0.00     0.000 C 
BRANCH   3   4
ATOM      4  C   UNL     1      26.012  41.274  24.954  1.00  0.00     0.000 C 
BRANCH   4   5
ATOM      5  C   UNL     1      26.266  42.603  25.683  1.00  0.00     0.000 C 
BRANCH   5   6
ATOM      6  C   UNL     1      27.729  43.063  25.582  1.00  0.00     0.006 C 
BRANCH   6   7
ATOM      7  C   UNL     1      28.592  42.381  26.647  1.00  0.00     0.053 C 
BRANCH   7   8
ATOM      8  C   UNL     1      29.943  43.020  26.714  1.00  0.00     0.041 C 
ATOM      9  O   UNL     1      30.981  42.308  26.738  1.00  0.00    -0.550 OA
ATOM     10  O   UNL     1      30.059  44.404  26.699  1.00  0.00    -0.550 OA
ENDBRANCH   7   8
ENDBRANCH   6   7
ENDBRANCH   5   6
ENDBRANCH   4   5
ENDBRANCH   3   4
ENDBRANCH   2   3
ENDBRANCH   1   2
BRANCH   1  11
ATOM     11  C   UNL     1      24.986  39.331  29.269  1.00  0.00     0.000 C 
BRANCH  11  12
ATOM     12  C   UNL     1      25.031  37.843  28.863  1.00  0.00    -0.000 C 
BRANCH  12  13
ATOM     13  C   UNL     1      25.650  36.958  29.959  1.00  0.00    -0.000 C 
BRANCH  13  14
ATOM     14  C   UNL     1      26.736  37.688  30.766  1.00  0.00    -0.000 C 
BRANCH  14  15
ATOM     15  C   UNL     1      26.615  37.470  32.292  1.00  0.00    -0.000 C 
BRANCH  15  16
ATOM     16  C   UNL     1      25.535  38.350  32.944  1.00  0.00    -0.000 C 
BRANCH  16  17
ATOM     17  C   UNL     1      24.989  37.733  34.240  1.00  0.00    -0.003 C 
ATOM     18  C   UNL     1      26.119  37.185  35.108  1.00  0.00     0.004 C 
ENDBRANCH  16  17
ENDBRANCH  15  16
ENDBRANCH  14  15
ENDBRANCH  13  14
ENDBRANCH  12  13
ENDBRANCH  11  12
ENDBRANCH   1  11
TORSDOF 14
ENDMDL
MODEL 6
REMARK VINA RESULT:    -2.912      2.522      3.833
REMARK INTER + INTRA:          -6.788
REMARK INTER:                  -5.666
REMARK INTRA:                  -1.122
REMARK UNBOUND:                -1.493
REMARK SMILES CCCCCCCCCCCCCCCC(=O)[O-]
REMARK SMILES IDX 9 1 10 2 11 3 12 4 13 5 14 6 15 7 16 8 17 9 18 10 8 11 7 12
REMARK SMILES IDX 6 13 5 14 4 15 3 16 2 17 1 18
REMARK H PARENT
REMARK Flexibility Score: inf
ROOT
ATOM      1  C   UNL     1      25.036  40.976  27.744  1.00  0.00     0.000 C 
ENDROOT
BRANCH   1   2
ATOM      2  C   UNL     1      25.812  39.977  28.619  1.00  0.00     0.000 C 
BRANCH   2   3
ATOM      3  C   UNL     1      24.898  38.961  29.318  1.00  0.00     0.000 C 
BRANCH   3   4
ATOM      4  C   UNL     1      25.311  37.524  28.968  1.00  0.00     0.000 C 
BRANCH   4   5
ATOM      5  C   UNL     1      25.006  37.159  27.506  1.00  0.00     0.000 C 
BRANCH   5   6
ATOM      6  C   UNL     1      26.279  36.920  26.679  1.00  0.00     0.006 C 
BRANCH   6   7
ATOM      7  C   UNL     1      26.019  37.170  25.190  1.00  0.00     0.053 C 
BRANCH   7   8
ATOM      8  C   UNL     1      27.312  37.333  24.454  1.00  0.00     0.041 C 
ATOM      9  O   UNL     1      27.323  37.381  23.196  1.00  0.00    -0.550 OA
ATOM     10  O   UNL     1      28.499  37.483  25.159  1.00  0.00    -0.550 OA
ENDBRANCH   7   8
ENDBRANCH   6   7
ENDBRANCH   5   6
ENDBRANCH   4   5
ENDBRANCH   3   4
ENDBRANCH   2   3
ENDBRANCH   1   2
BRANCH   1  11
ATOM     11  C   UNL     1      24.927  40.590  26.255  1.00  0.00     0.000 C 
BRANCH  11  12
ATOM     12  C   UNL     1      26.239  40.782  25.464  1.00  0.00    -0.000 C 
BRANCH  12  13
ATOM     13  C   UNL     1      26.361  42.195  24.870  1.00  0.00    -0.000 C 
BRANCH  13  14
ATOM     14  C   UNL     1      26.388  43.291  25.949  1.00  0.00    -0.000 C 
BRANCH  14  15
ATOM     15  C   UNL     1      27.740  43.383  26.693  1.00  0.00    -0.000 C 
BRANCH  15  16
ATOM     16  C   UNL     1      28.876  42.631  25.979  1.00  0.00    -0.000 C 
BRANCH  16  17
ATOM     17  C   UNL     1      30.261  43.041  26.502  1.00  0.00    -0.003 C 
ATOM     18  C   UNL     1      30.742  44.326  25.835  1.00  0.00     0.004 C 
ENDBRANCH  16  17
ENDBRANCH  15  16
ENDBRANCH  14  15
ENDBRANCH  13  14
ENDBRANCH  12  13
ENDBRANCH  11  12
ENDBRANCH   1  11
TORSDOF 14
ENDMDL
MODEL 7
REMARK VINA RESULT:    -2.705      3.507      6.142
REMARK INTER + INTRA:          -6.412
REMARK INTER:                  -5.427
REMARK INTRA:                  -0.985
REMARK UNBOUND:                -1.493
REMARK SMILES CCCCCCCCCCCCCCCC(=O)[O-]
REMARK SMILES IDX 9 1 10 2 11 3 12 4 13 5 14 6 15 7 16 8 17 9 18 10 8 11 7 12
REMARK SMILES IDX 6 13 5 14 4 15 3 16 2 17 1 18
REMARK H PARENT
REMARK Flexibility Score: inf
ROOT
ATOM      1  C   UNL     1      26.106  38.498  27.512  1.00  0.00     0.000 C 
ENDROOT
BRANCH   1   2
ATOM      2  C   UNL     1      25.006  39.448  27.010  1.00  0.00     0.000 C 
BRANCH   2   3
ATOM      3  C   UNL     1      24.934  40.754  27.814  1.00  0.00     0.000 C 
BRANCH   3   4
ATOM      4  C   UNL     1      26.207  41.591  27.612  1.00  0.00     0.000 C 
BRANCH   4   5
ATOM      5  C   UNL     1      26.119  42.516  26.389  1.00  0.00     0.000 C 
BRANCH   5   6
ATOM      6  C   UNL     1      27.501  42.922  25.853  1.00  0.00     0.006 C 
BRANCH   6   7
ATOM      7  C   UNL     1      28.588  42.678  26.903  1.00  0.00     0.053 C 
BRANCH   7   8
ATOM      8  C   UNL     1      29.939  42.994  26.341  1.00  0.00     0.041 C 
ATOM      9  O   UNL     1      30.728  42.064  26.027  1.00  0.00    -0.550 OA
ATOM     10  O   UNL     1      30.308  44.314  26.118  1.00  0.00    -0.550 OA
ENDBRANCH   7   8
ENDBRANCH   6   7
ENDBRANCH   5   6
ENDBRANCH   4   5
ENDBRANCH   3   4
ENDBRANCH   2   3
ENDBRANCH   1   2
BRANCH   1  11
ATOM     11  C   UNL     1      26.085  37.089  26.886  1.00  0.00     0.000 C 
BRANCH  11  12
ATOM     12  C   UNL     1      25.046  36.925  25.756  1.00  0.00    -0.000 C 
BRANCH  12  13
ATOM     13  C   UNL     1      25.699  36.879  24.364  1.00  0.00    -0.000 C 
BRANCH  13  14
ATOM     14  C   UNL     1      27.034  37.641  24.311  1.00  0.00    -0.000 C 
BRANCH  14  15
ATOM     15  C   UNL     1      28.146  36.876  23.557  1.00  0.00    -0.000 C 
BRANCH  15  16
ATOM     16  C   UNL     1      29.503  36.913  24.280  1.00  0.00    -0.000 C 
BRANCH  16  17
ATOM     17  C   UNL     1      30.650  37.312  23.339  1.00  0.00    -0.003 C 
ATOM     18  C   UNL     1      30.270  37.079  21.880  1.00  0.00     0.004 C 
ENDBRANCH  16  17
ENDBRANCH  15  16
ENDBRANCH  14  15
ENDBRANCH  13  14
ENDBRANCH  12  13
ENDBRANCH  11  12
ENDBRANCH   1  11
TORSDOF 14
ENDMDL
MODEL 8
REMARK VINA RESULT:    -2.544      2.631      3.743
REMARK INTER + INTRA:          -6.118
REMARK INTER:                  -5.404
REMARK INTRA:                  -0.714
REMARK UNBOUND:                -1.493
REMARK SMILES CCCCCCCCCCCCCCCC(=O)[O-]
REMARK SMILES IDX 9 1 10 2 11 3 12 4 13 5 14 6 15 7 16 8 17 9 18 10 8 11 7 12
REMARK SMILES IDX 6 13 5 14 4 15 3 16 2 17 1 18
REMARK H PARENT
REMARK Flexibility Score: inf
ROOT
ATOM      1  C   UNL     1      25.809  39.257  29.379  1.00  0.00     0.000 C 
ENDROOT
BRANCH   1   2
ATOM      2  C   UNL     1      25.996  37.744  29.175  1.00  0.00     0.000 C 
BRANCH   2   3
ATOM      3  C   UNL     1      25.763  36.936  30.460  1.00  0.00     0.000 C 
BRANCH   3   4
ATOM      4  C   UNL     1      25.610  37.868  31.671  1.00  0.00     0.000 C 
BRANCH   4   5
ATOM      5  C   UNL     1      24.901  37.191  32.854  1.00  0.00     0.000 C 
BRANCH   5   6
ATOM      6  C   UNL     1      25.751  37.195  34.135  1.00  0.00     0.006 C 
BRANCH   6   7
ATOM      7  C   UNL     1      25.112  38.073  35.214  1.00  0.00     0.053 C 
BRANCH   7   8
ATOM      8  C   UNL     1      25.694  37.761  36.556  1.00  0.00     0.041 C 
ATOM      9  O   UNL     1      24.954  37.719  37.574  1.00  0.00    -0.550 OA
ATOM     10  O   UNL     1      27.046  37.466  36.676  1.00  0.00    -0.550 OA
ENDBRANCH   7   8
ENDBRANCH   6   7
ENDBRANCH   5   6
ENDBRANCH   4   5
ENDBRANCH   3   4
ENDBRANCH   2   3
ENDBRANCH   1   2
BRANCH   1  11
ATOM     11  C   UNL     1      25.201  40.006  28.177  1.00  0.00     0.000 C 
BRANCH  11  12
ATOM     12  C   UNL     1      25.991  39.822  26.863  1.00  0.00    -0.000 C 
BRANCH  12  13
ATOM     13  C   UNL     1      25.981  41.091  25.994  1.00  0.00    -0.000 C 
BRANCH  13  14
ATOM     14  C   UNL     1      26.227  42.371  26.812  1.00  0.00    -0.000 C 
BRANCH  14  15
ATOM     15  C   UNL     1      27.721  42.623  27.118  1.00  0.00    -0.000 C 
BRANCH  15  16
ATOM     16  C   UNL     1      28.445  43.398  26.004  1.00  0.00    -0.000 C 
BRANCH  16  17
ATOM     17  C   UNL     1      29.963  43.456  26.231  1.00  0.00    -0.003 C 
ATOM     18  C   UNL     1      30.413  42.385  27.219  1.00  0.00     0.004 C 
ENDBRANCH  16  17
ENDBRANCH  15  16
ENDBRANCH  14  15
ENDBRANCH  13  14
ENDBRANCH  12  13
ENDBRANCH  11  12
ENDBRANCH   1  11
TORSDOF 14
ENDMDL
MODEL 9
REMARK VINA RESULT:    -2.496      8.616     10.915
REMARK INTER + INTRA:          -6.031
REMARK INTER:                  -4.674
REMARK INTRA:                  -1.356
REMARK UNBOUND:                -1.493
REMARK SMILES CCCCCCCCCCCCCCCC(=O)[O-]
REMARK SMILES IDX 9 1 10 2 11 3 12 4 13 5 14 6 15 7 16 8 17 9 18 10 8 11 7 12
REMARK SMILES IDX 6 13 5 14 4 15 3 16 2 17 1 18
REMARK H PARENT
REMARK Flexibility Score: inf
ROOT
ATOM      1  C   UNL     1      29.339  38.386  37.711  1.00  0.00     0.000 C 
ENDROOT
BRANCH   1   2
ATOM      2  C   UNL     1      28.822  37.115  37.017  1.00  0.00     0.000 C 
BRANCH   2   3
ATOM      3  C   UNL     1      27.314  37.166  36.727  1.00  0.00     0.000 C 
BRANCH   3   4
ATOM      4  C   UNL     1      26.587  38.029  37.769  1.00  0.00     0.000 C 
BRANCH   4   5
ATOM      5  C   UNL     1      25.279  38.630  37.231  1.00  0.00     0.000 C 
BRANCH   5   6
ATOM      6  C   UNL     1      25.051  40.074  37.706  1.00  0.00     0.006 C 
BRANCH   6   7
ATOM      7  C   UNL     1      26.256  40.586  38.500  1.00  0.00     0.053 C 
BRANCH   7   8
ATOM      8  C   UNL     1      25.983  41.953  39.042  1.00  0.00     0.041 C 
ATOM      9  O   UNL     1      26.745  42.455  39.910  1.00  0.00    -0.550 OA
ATOM     10  O   UNL     1      24.915  42.695  38.553  1.00  0.00    -0.550 OA
ENDBRANCH   7   8
ENDBRANCH   6   7
ENDBRANCH   5   6
ENDBRANCH   4   5
ENDBRANCH   3   4
ENDBRANCH   2   3
ENDBRANCH   1   2
BRANCH   1  11
ATOM     11  C   UNL     1      30.058  38.147  39.054  1.00  0.00     0.000 C 
BRANCH  11  12
ATOM     12  C   UNL     1      31.580  37.927  38.915  1.00  0.00    -0.000 C 
BRANCH  12  13
ATOM     13  C   UNL     1      32.195  38.786  37.798  1.00  0.00    -0.000 C 
BRANCH  13  14
ATOM     14  C   UNL     1      33.310  38.054  37.033  1.00  0.00    -0.000 C 
BRANCH  14  15
ATOM     15  C   UNL     1      32.782  36.939  36.101  1.00  0.00    -0.000 C 
BRANCH  15  16
ATOM     16  C   UNL     1      31.796  37.454  35.040  1.00  0.00    -0.000 C 
BRANCH  16  17
ATOM     17  C   UNL     1      32.366  38.640  34.247  1.00  0.00    -0.003 C 
ATOM     18  C   UNL     1      32.376  38.346  32.749  1.00  0.00     0.004 C 
ENDBRANCH  16  17
ENDBRANCH  15  16
ENDBRANCH  14  15
ENDBRANCH  13  14
ENDBRANCH  12  13
ENDBRANCH  11  12
ENDBRANCH   1  11
TORSDOF 14
ENDMDL
