MODEL 1
REMARK VINA RESULT:    -5.084      0.000      0.000
REMARK INTER + INTRA:          -5.780
REMARK INTER:                  -5.678
REMARK INTRA:                  -0.102
REMARK UNBOUND:                -0.102
REMARK SMILES CCc1ccc(O)cc1O
REMARK SMILES IDX 3 1 9 2 8 3 6 4 5 5 4 6 2 7 1 8 10 9 7 11
REMARK H PARENT 10 10 7 12
REMARK Flexibility Score: inf
ROOT
ATOM      1  C   UNL     1     -15.725 -27.281 -33.004  1.00  0.00    -0.006 A 
ATOM      2  C   UNL     1     -15.830 -27.188 -34.406  1.00  0.00     0.122 A 
ATOM      3  C   UNL     1     -14.794 -27.678 -35.217  1.00  0.00     0.092 A 
ATOM      4  C   UNL     1     -13.664 -28.267 -34.644  1.00  0.00     0.119 A 
ATOM      5  C   UNL     1     -13.566 -28.372 -33.252  1.00  0.00     0.047 A 
ATOM      6  C   UNL     1     -14.591 -27.886 -32.437  1.00  0.00     0.011 A 
ENDROOT
BRANCH   1   7
ATOM      7  C   UNL     1     -16.836 -26.791 -32.109  1.00  0.00     0.036 C 
ATOM      8  C   UNL     1     -16.592 -25.347 -31.684  1.00  0.00     0.009 C 
ENDBRANCH   1   7
BRANCH   2   9
ATOM      9  O   UNL     1     -16.959 -26.615 -34.990  1.00  0.00    -0.508 OA
ATOM     10  H   UNL     1     -17.508 -27.110 -35.684  1.00  0.00     0.293 HD
ENDBRANCH   2   9
BRANCH   4  11
ATOM     11  O   UNL     1     -12.647 -28.747 -35.466  1.00  0.00    -0.508 OA
ATOM     12  H   UNL     1     -12.326 -28.223 -36.273  1.00  0.00     0.293 HD
ENDBRANCH   4  11
TORSDOF 3
ENDMDL
MODEL 2
REMARK VINA RESULT:    -5.082      1.570      3.693
REMARK INTER + INTRA:          -5.778
REMARK INTER:                  -5.688
REMARK INTRA:                  -0.090
REMARK UNBOUND:                -0.102
REMARK SMILES CCc1ccc(O)cc1O
REMARK SMILES IDX 3 1 9 2 8 3 6 4 5 5 4 6 2 7 1 8 10 9 7 11
REMARK H PARENT 10 10 7 12
REMARK Flexibility Score: inf
ROOT
ATOM      1  C   UNL     1     -14.626 -27.755 -34.375  1.00  0.00    -0.006 A 
ATOM      2  C   UNL     1     -15.760 -27.122 -34.925  1.00  0.00     0.122 A 
ATOM      3  C   UNL     1     -16.782 -26.666 -34.079  1.00  0.00     0.092 A 
ATOM      4  C   UNL     1     -16.679 -26.824 -32.694  1.00  0.00     0.119 A 
ATOM      5  C   UNL     1     -15.547 -27.440 -32.147  1.00  0.00     0.047 A 
ATOM      6  C   UNL     1     -14.525 -27.898 -32.982  1.00  0.00     0.011 A 
ENDROOT
BRANCH   1   7
ATOM      7  C   UNL     1     -13.498 -28.228 -35.258  1.00  0.00     0.036 C 
ATOM      8  C   UNL     1     -12.148 -27.839 -34.667  1.00  0.00     0.009 C 
ENDBRANCH   1   7
BRANCH   2   9
ATOM      9  O   UNL     1     -15.867 -26.946 -36.304  1.00  0.00    -0.508 OA
ATOM     10  H   UNL     1     -16.005 -26.029 -36.713  1.00  0.00     0.293 HD
ENDBRANCH   2   9
BRANCH   4  11
ATOM     11  O   UNL     1     -17.705 -26.364 -31.871  1.00  0.00    -0.508 OA
ATOM     12  H   UNL     1     -17.733 -25.404 -31.546  1.00  0.00     0.293 HD
ENDBRANCH   4  11
TORSDOF 3
ENDMDL
MODEL 3
REMARK VINA RESULT:    -5.048      2.137      3.202
REMARK INTER + INTRA:          -5.741
REMARK INTER:                  -5.638
REMARK INTRA:                  -0.103
REMARK UNBOUND:                -0.102
REMARK SMILES CCc1ccc(O)cc1O
REMARK SMILES IDX 3 1 9 2 8 3 6 4 5 5 4 6 2 7 1 8 10 9 7 11
REMARK H PARENT 10 10 7 12
REMARK Flexibility Score: inf
ROOT
ATOM      1  C   UNL     1     -14.960 -27.839 -33.576  1.00  0.00    -0.006 A 
ATOM      2  C   UNL     1     -16.330 -27.522 -33.483  1.00  0.00     0.122 A 
ATOM      3  C   UNL     1     -17.065 -27.261 -34.649  1.00  0.00     0.092 A 
ATOM      4  C   UNL     1     -16.452 -27.323 -35.903  1.00  0.00     0.119 A 
ATOM      5  C   UNL     1     -15.094 -27.652 -35.996  1.00  0.00     0.047 A 
ATOM      6  C   UNL     1     -14.354 -27.913 -34.841  1.00  0.00     0.011 A 
ENDROOT
BRANCH   1   7
ATOM      7  C   UNL     1     -14.152 -28.155 -32.342  1.00  0.00     0.036 C 
ATOM      8  C   UNL     1     -14.182 -29.650 -32.042  1.00  0.00     0.009 C 
ENDBRANCH   1   7
BRANCH   2   9
ATOM      9  O   UNL     1     -16.957 -27.470 -32.238  1.00  0.00    -0.508 OA
ATOM     10  H   UNL     1     -17.306 -28.306 -31.784  1.00  0.00     0.293 HD
ENDBRANCH   2   9
BRANCH   4  11
ATOM     11  O   UNL     1     -17.200 -27.060 -37.049  1.00  0.00    -0.508 OA
ATOM     12  H   UNL     1     -18.189 -26.848 -36.998  1.00  0.00     0.293 HD
ENDBRANCH   4  11
TORSDOF 3
ENDMDL
MODEL 4
REMARK VINA RESULT:    -4.953     13.813     15.166
REMARK INTER + INTRA:          -5.635
REMARK INTER:                  -5.538
REMARK INTRA:                  -0.096
REMARK UNBOUND:                -0.102
REMARK SMILES CCc1ccc(O)cc1O
REMARK SMILES IDX 3 1 9 2 8 3 6 4 5 5 4 6 2 7 1 8 10 9 7 11
REMARK H PARENT 10 10 7 12
REMARK Flexibility Score: inf
ROOT
ATOM      1  C   UNL     1      -5.593 -30.483 -23.378  1.00  0.00    -0.006 A 
ATOM      2  C   UNL     1      -4.636 -30.560 -22.345  1.00  0.00     0.122 A 
ATOM      3  C   UNL     1      -3.317 -30.145 -22.585  1.00  0.00     0.092 A 
ATOM      4  C   UNL     1      -2.947 -29.645 -23.836  1.00  0.00     0.119 A 
ATOM      5  C   UNL     1      -3.901 -29.557 -24.858  1.00  0.00     0.047 A 
ATOM      6  C   UNL     1      -5.216 -29.968 -24.629  1.00  0.00     0.011 A 
ENDROOT
BRANCH   1   7
ATOM      7  C   UNL     1      -7.024 -30.894 -23.140  1.00  0.00     0.036 C 
ATOM      8  C   UNL     1      -7.975 -29.737 -23.429  1.00  0.00     0.009 C 
ENDBRANCH   1   7
BRANCH   2   9
ATOM      9  O   UNL     1      -4.997 -31.044 -21.087  1.00  0.00    -0.508 OA
ATOM     10  H   UNL     1      -5.001 -30.445 -20.270  1.00  0.00     0.293 HD
ENDBRANCH   2   9
BRANCH   4  11
ATOM     11  O   UNL     1      -1.633 -29.239 -24.054  1.00  0.00    -0.508 OA
ATOM     12  H   UNL     1      -0.877 -29.544 -23.451  1.00  0.00     0.293 HD
ENDBRANCH   4  11
TORSDOF 3
ENDMDL
MODEL 5
REMARK VINA RESULT:    -4.817      1.489      2.219
REMARK INTER + INTRA:          -5.482
REMARK INTER:                  -5.403
REMARK INTRA:                  -0.079
REMARK UNBOUND:                -0.102
REMARK SMILES CCc1ccc(O)cc1O
REMARK SMILES IDX 3 1 9 2 8 3 6 4 5 5 4 6 2 7 1 8 10 9 7 11
REMARK H PARENT 10 10 7 12
REMARK Flexibility Score: inf
ROOT
ATOM      1  C   UNL     1     -15.970 -27.184 -33.315  1.00  0.00    -0.006 A 
ATOM      2  C   UNL     1     -14.646 -27.636 -33.141  1.00  0.00     0.122 A 
ATOM      3  C   UNL     1     -13.880 -27.996 -34.260  1.00  0.00     0.092 A 
ATOM      4  C   UNL     1     -14.415 -27.899 -35.547  1.00  0.00     0.119 A 
ATOM      5  C   UNL     1     -15.725 -27.437 -35.721  1.00  0.00     0.047 A 
ATOM      6  C   UNL     1     -16.496 -27.077 -34.613  1.00  0.00     0.011 A 
ENDROOT
BRANCH   1   7
ATOM      7  C   UNL     1     -16.807 -26.762 -32.133  1.00  0.00     0.036 C 
ATOM      8  C   UNL     1     -16.527 -25.309 -31.764  1.00  0.00     0.009 C 
ENDBRANCH   1   7
BRANCH   2   9
ATOM      9  O   UNL     1     -14.096 -27.725 -31.862  1.00  0.00    -0.508 OA
ATOM     10  H   UNL     1     -14.326 -28.488 -31.237  1.00  0.00     0.293 HD
ENDBRANCH   2   9
BRANCH   4  11
ATOM     11  O   UNL     1     -13.638 -28.261 -36.645  1.00  0.00    -0.508 OA
ATOM     12  H   UNL     1     -13.248 -27.566 -37.270  1.00  0.00     0.293 HD
ENDBRANCH   4  11
TORSDOF 3
ENDMDL
MODEL 6
REMARK VINA RESULT:    -4.767     13.374     14.695
REMARK INTER + INTRA:          -5.427
REMARK INTER:                  -5.337
REMARK INTRA:                  -0.089
REMARK UNBOUND:                -0.102
REMARK SMILES CCc1ccc(O)cc1O
REMARK SMILES IDX 3 1 9 2 8 3 6 4 5 5 4 6 2 7 1 8 10 9 7 11
REMARK H PARENT 10 10 7 12
REMARK Flexibility Score: inf
ROOT
ATOM      1  C   UNL     1      -5.783 -29.747 -23.444  1.00  0.00    -0.006 A 
ATOM      2  C   UNL     1      -4.780 -30.179 -24.335  1.00  0.00     0.122 A 
ATOM      3  C   UNL     1      -3.500 -29.607 -24.275  1.00  0.00     0.092 A 
ATOM      4  C   UNL     1      -3.209 -28.619 -23.329  1.00  0.00     0.119 A 
ATOM      5  C   UNL     1      -4.202 -28.201 -22.435  1.00  0.00     0.047 A 
ATOM      6  C   UNL     1      -5.479 -28.764 -22.488  1.00  0.00     0.011 A 
ENDROOT
BRANCH   1   7
ATOM      7  C   UNL     1      -7.158 -30.366 -23.466  1.00  0.00     0.036 C 
ATOM      8  C   UNL     1      -8.237 -29.289 -23.462  1.00  0.00     0.009 C 
ENDBRANCH   1   7
BRANCH   2   9
ATOM      9  O   UNL     1      -5.054 -31.174 -25.274  1.00  0.00    -0.508 OA
ATOM     10  H   UNL     1      -4.466 -31.313 -26.087  1.00  0.00     0.293 HD
ENDBRANCH   2   9
BRANCH   4  11
ATOM     11  O   UNL     1      -1.933 -28.063 -23.285  1.00  0.00    -0.508 OA
ATOM     12  H   UNL     1      -1.124 -28.567 -23.631  1.00  0.00     0.293 HD
ENDBRANCH   4  11
TORSDOF 3
ENDMDL
MODEL 7
REMARK VINA RESULT:    -4.699     14.055     15.385
REMARK INTER + INTRA:          -5.351
REMARK INTER:                  -5.248
REMARK INTRA:                  -0.102
REMARK UNBOUND:                -0.102
REMARK SMILES CCc1ccc(O)cc1O
REMARK SMILES IDX 3 1 9 2 8 3 6 4 5 5 4 6 2 7 1 8 10 9 7 11
REMARK H PARENT 10 10 7 12
REMARK Flexibility Score: inf
ROOT
ATOM      1  C   UNL     1      -3.682 -28.950 -24.101  1.00  0.00    -0.006 A 
ATOM      2  C   UNL     1      -4.314 -28.896 -22.842  1.00  0.00     0.122 A 
ATOM      3  C   UNL     1      -5.375 -29.769 -22.557  1.00  0.00     0.092 A 
ATOM      4  C   UNL     1      -5.803 -30.700 -23.507  1.00  0.00     0.119 A 
ATOM      5  C   UNL     1      -5.165 -30.763 -24.752  1.00  0.00     0.047 A 
ATOM      6  C   UNL     1      -4.109 -29.898 -25.046  1.00  0.00     0.011 A 
ENDROOT
BRANCH   1   7
ATOM      7  C   UNL     1      -2.520 -28.045 -24.424  1.00  0.00     0.036 C 
ATOM      8  C   UNL     1      -1.198 -28.705 -24.046  1.00  0.00     0.009 C 
ENDBRANCH   1   7
BRANCH   2   9
ATOM      9  O   UNL     1      -3.888 -27.980 -21.880  1.00  0.00    -0.508 OA
ATOM     10  H   UNL     1      -3.028 -28.117 -21.361  1.00  0.00     0.293 HD
ENDBRANCH   2   9
BRANCH   4  11
ATOM     11  O   UNL     1      -6.857 -31.558 -23.204  1.00  0.00    -0.508 OA
ATOM     12  H   UNL     1      -7.805 -31.357 -23.501  1.00  0.00     0.293 HD
ENDBRANCH   4  11
TORSDOF 3
ENDMDL
MODEL 8
REMARK VINA RESULT:    -4.642     13.715     15.050
REMARK INTER + INTRA:          -5.287
REMARK INTER:                  -5.186
REMARK INTRA:                  -0.101
REMARK UNBOUND:                -0.102
REMARK SMILES CCc1ccc(O)cc1O
REMARK SMILES IDX 3 1 9 2 8 3 6 4 5 5 4 6 2 7 1 8 10 9 7 11
REMARK H PARENT 10 10 7 12
REMARK Flexibility Score: inf
ROOT
ATOM      1  C   UNL     1      -5.614 -29.101 -22.524  1.00  0.00    -0.006 A 
ATOM      2  C   UNL     1      -5.088 -30.358 -22.161  1.00  0.00     0.122 A 
ATOM      3  C   UNL     1      -5.855 -31.516 -22.355  1.00  0.00     0.092 A 
ATOM      4  C   UNL     1      -7.133 -31.435 -22.916  1.00  0.00     0.119 A 
ATOM      5  C   UNL     1      -7.650 -30.188 -23.288  1.00  0.00     0.047 A 
ATOM      6  C   UNL     1      -6.894 -29.029 -23.098  1.00  0.00     0.011 A 
ENDROOT
BRANCH   1   7
ATOM      7  C   UNL     1      -4.800 -27.842 -22.355  1.00  0.00     0.036 C 
ATOM      8  C   UNL     1      -5.315 -27.018 -21.180  1.00  0.00     0.009 C 
ENDBRANCH   1   7
BRANCH   2   9
ATOM      9  O   UNL     1      -3.809 -30.453 -21.614  1.00  0.00    -0.508 OA
ATOM     10  H   UNL     1      -3.019 -29.965 -22.021  1.00  0.00     0.293 HD
ENDBRANCH   2   9
BRANCH   4  11
ATOM     11  O   UNL     1      -7.879 -32.597 -23.100  1.00  0.00    -0.508 OA
ATOM     12  H   UNL     1      -8.089 -32.951 -24.026  1.00  0.00     0.293 HD
ENDBRANCH   4  11
TORSDOF 3
ENDMDL
MODEL 9
REMARK VINA RESULT:    -4.619      1.290      3.476
REMARK INTER + INTRA:          -5.261
REMARK INTER:                  -5.163
REMARK INTRA:                  -0.098
REMARK UNBOUND:                -0.102
REMARK SMILES CCc1ccc(O)cc1O
REMARK SMILES IDX 3 1 9 2 8 3 6 4 5 5 4 6 2 7 1 8 10 9 7 11
REMARK H PARENT 10 10 7 12
REMARK Flexibility Score: inf
ROOT
ATOM      1  C   UNL     1     -14.753 -27.919 -33.637  1.00  0.00    -0.006 A 
ATOM      2  C   UNL     1     -14.604 -27.944 -35.038  1.00  0.00     0.122 A 
ATOM      3  C   UNL     1     -15.672 -27.554 -35.860  1.00  0.00     0.092 A 
ATOM      4  C   UNL     1     -16.880 -27.130 -35.300  1.00  0.00     0.119 A 
ATOM      5  C   UNL     1     -17.024 -27.092 -33.907  1.00  0.00     0.047 A 
ATOM      6  C   UNL     1     -15.966 -27.480 -33.081  1.00  0.00     0.011 A 
ENDROOT
BRANCH   1   7
ATOM      7  C   UNL     1     -13.612 -28.304 -32.728  1.00  0.00     0.036 C 
ATOM      8  C   UNL     1     -13.919 -29.606 -31.995  1.00  0.00     0.009 C 
ENDBRANCH   1   7
BRANCH   2   9
ATOM      9  O   UNL     1     -13.398 -28.351 -35.609  1.00  0.00    -0.508 OA
ATOM     10  H   UNL     1     -12.513 -27.946 -35.328  1.00  0.00     0.293 HD
ENDBRANCH   2   9
BRANCH   4  11
ATOM     11  O   UNL     1     -17.928 -26.747 -36.133  1.00  0.00    -0.508 OA
ATOM     12  H   UNL     1     -18.013 -25.796 -36.475  1.00  0.00     0.293 HD
ENDBRANCH   4  11
TORSDOF 3
ENDMDL
