MODEL 1
REMARK VINA RESULT:    -3.211      0.000      0.000
REMARK INTER + INTRA:          -8.097
REMARK INTER:                  -5.840
REMARK INTRA:                  -2.257
REMARK UNBOUND:                -2.257
REMARK SMILES CCCCCCCCCCCCCC[C@H](C)C(=O)[O-]
REMARK SMILES IDX 9 1 10 2 11 3 12 4 13 5 14 6 15 7 16 8 17 9 18 10 19 11 8 12
REMARK SMILES IDX 7 13 6 14 5 15 4 16 3 17 2 18 1 19
REMARK H PARENT
REMARK Flexibility Score: inf
ROOT
ATOM      1  C   UNL     1      21.951   9.609  37.254  1.00  0.00     0.000 C 
ENDROOT
BRANCH   1   2
ATOM      2  C   UNL     1      21.989   8.539  36.152  1.00  0.00     0.000 C 
BRANCH   2   3
ATOM      3  C   UNL     1      20.764   8.656  35.234  1.00  0.00     0.000 C 
BRANCH   3   4
ATOM      4  C   UNL     1      19.651   7.662  35.605  1.00  0.00     0.000 C 
BRANCH   4   5
ATOM      5  C   UNL     1      19.989   6.217  35.197  1.00  0.00     0.001 C 
BRANCH   5   6
ATOM      6  C   UNL     1      20.282   6.077  33.691  1.00  0.00     0.009 C 
BRANCH   6   7
ATOM      7  C   UNL     1      21.679   5.500  33.369  1.00  0.00     0.032 C 
ATOM      8  C   UNL     1      22.368   6.336  32.286  1.00  0.00     0.014 C 
BRANCH   7   9
ATOM      9  C   UNL     1      21.599   4.062  32.935  1.00  0.00     0.044 C 
ATOM     10  O   UNL     1      22.544   3.533  32.292  1.00  0.00    -0.550 OA
ATOM     11  O   UNL     1      20.470   3.309  33.236  1.00  0.00    -0.550 OA
ENDBRANCH   7   9
ENDBRANCH   6   7
ENDBRANCH   5   6
ENDBRANCH   4   5
ENDBRANCH   3   4
ENDBRANCH   2   3
ENDBRANCH   1   2
BRANCH   1  12
ATOM     12  C   UNL     1      22.754   9.205  38.502  1.00  0.00     0.000 C 
BRANCH  12  13
ATOM     13  C   UNL     1      21.863   9.014  39.742  1.00  0.00    -0.000 C 
BRANCH  13  14
ATOM     14  C   UNL     1      20.525   8.324  39.420  1.00  0.00    -0.000 C 
BRANCH  14  15
ATOM     15  C   UNL     1      20.403   6.864  39.894  1.00  0.00    -0.000 C 
BRANCH  15  16
ATOM     16  C   UNL     1      20.512   5.847  38.745  1.00  0.00    -0.000 C 
BRANCH  16  17
ATOM     17  C   UNL     1      21.968   5.557  38.337  1.00  0.00    -0.000 C 
BRANCH  17  18
ATOM     18  C   UNL     1      22.290   4.074  38.081  1.00  0.00    -0.003 C 
ATOM     19  C   UNL     1      22.317   3.714  36.596  1.00  0.00     0.004 C 
ENDBRANCH  17  18
ENDBRANCH  16  17
ENDBRANCH  15  16
ENDBRANCH  14  15
ENDBRANCH  13  14
ENDBRANCH  12  13
ENDBRANCH   1  12
TORSDOF 14
ENDMDL
MODEL 2
REMARK VINA RESULT:    -3.198      5.207      9.589
REMARK INTER + INTRA:          -8.072
REMARK INTER:                  -6.614
REMARK INTRA:                  -1.458
REMARK UNBOUND:                -2.257
REMARK SMILES CCCCCCCCCCCCCC[C@H](C)C(=O)[O-]
REMARK SMILES IDX 9 1 10 2 11 3 12 4 13 5 14 6 15 7 16 8 17 9 18 10 19 11 8 12
REMARK SMILES IDX 7 13 6 14 5 15 4 16 3 17 2 18 1 19
REMARK H PARENT
REMARK Flexibility Score: inf
ROOT
ATOM      1  C   UNL     1      22.448   3.955  28.276  1.00  0.00     0.000 C 
ENDROOT
BRANCH   1   2
ATOM      2  C   UNL     1      21.770   2.609  28.572  1.00  0.00     0.000 C 
BRANCH   2   3
ATOM      3  C   UNL     1      22.797   1.573  29.051  1.00  0.00     0.000 C 
BRANCH   3   4
ATOM      4  C   UNL     1      22.915   1.523  30.583  1.00  0.00     0.000 C 
BRANCH   4   5
ATOM      5  C   UNL     1      21.544   1.463  31.280  1.00  0.00     0.001 C 
BRANCH   5   6
ATOM      6  C   UNL     1      21.327   2.625  32.268  1.00  0.00     0.009 C 
BRANCH   6   7
ATOM      7  C   UNL     1      22.371   3.759  32.149  1.00  0.00     0.032 C 
ATOM      8  C   UNL     1      23.196   3.865  33.435  1.00  0.00     0.014 C 
BRANCH   7   9
ATOM      9  C   UNL     1      21.721   5.082  31.845  1.00  0.00     0.044 C 
ATOM     10  O   UNL     1      22.417   6.076  31.510  1.00  0.00    -0.550 OA
ATOM     11  O   UNL     1      20.341   5.215  31.943  1.00  0.00    -0.550 OA
ENDBRANCH   7   9
ENDBRANCH   6   7
ENDBRANCH   5   6
ENDBRANCH   4   5
ENDBRANCH   3   4
ENDBRANCH   2   3
ENDBRANCH   1   2
BRANCH   1  12
ATOM     12  C   UNL     1      23.367   3.899  27.043  1.00  0.00     0.000 C 
BRANCH  12  13
ATOM     13  C   UNL     1      24.002   5.262  26.717  1.00  0.00    -0.000 C 
BRANCH  13  14
ATOM     14  C   UNL     1      23.085   6.450  27.062  1.00  0.00    -0.000 C 
BRANCH  14  15
ATOM     15  C   UNL     1      23.725   7.550  27.931  1.00  0.00    -0.000 C 
BRANCH  15  16
ATOM     16  C   UNL     1      23.813   8.907  27.212  1.00  0.00    -0.000 C 
BRANCH  16  17
ATOM     17  C   UNL     1      25.258   9.307  26.864  1.00  0.00    -0.000 C 
BRANCH  17  18
ATOM     18  C   UNL     1      26.003   8.326  25.941  1.00  0.00    -0.003 C 
ATOM     19  C   UNL     1      27.155   7.604  26.639  1.00  0.00     0.004 C 
ENDBRANCH  17  18
ENDBRANCH  16  17
ENDBRANCH  15  16
ENDBRANCH  14  15
ENDBRANCH  13  14
ENDBRANCH  12  13
ENDBRANCH   1  12
TORSDOF 14
ENDMDL
MODEL 3
REMARK VINA RESULT:    -3.151      4.520      9.434
REMARK INTER + INTRA:          -7.987
REMARK INTER:                  -6.642
REMARK INTRA:                  -1.344
REMARK UNBOUND:                -2.257
REMARK SMILES CCCCCCCCCCCCCC[C@H](C)C(=O)[O-]
REMARK SMILES IDX 9 1 10 2 11 3 12 4 13 5 14 6 15 7 16 8 17 9 18 10 19 11 8 12
REMARK SMILES IDX 7 13 6 14 5 15 4 16 3 17 2 18 1 19
REMARK H PARENT
REMARK Flexibility Score: inf
ROOT
ATOM      1  C   UNL     1      22.710   2.424  27.876  1.00  0.00     0.000 C 
ENDROOT
BRANCH   1   2
ATOM      2  C   UNL     1      22.076   3.395  28.884  1.00  0.00     0.000 C 
BRANCH   2   3
ATOM      3  C   UNL     1      21.535   2.638  30.106  1.00  0.00     0.000 C 
BRANCH   3   4
ATOM      4  C   UNL     1      22.579   2.498  31.225  1.00  0.00     0.000 C 
BRANCH   4   5
ATOM      5  C   UNL     1      22.022   2.893  32.605  1.00  0.00     0.001 C 
BRANCH   5   6
ATOM      6  C   UNL     1      22.523   4.272  33.076  1.00  0.00     0.009 C 
BRANCH   6   7
ATOM      7  C   UNL     1      21.758   5.466  32.461  1.00  0.00     0.032 C 
ATOM      8  C   UNL     1      22.707   6.348  31.643  1.00  0.00     0.014 C 
BRANCH   7   9
ATOM      9  C   UNL     1      21.074   6.291  33.519  1.00  0.00     0.044 C 
ATOM     10  O   UNL     1      21.648   7.293  34.020  1.00  0.00    -0.550 OA
ATOM     11  O   UNL     1      19.803   5.941  33.957  1.00  0.00    -0.550 OA
ENDBRANCH   7   9
ENDBRANCH   6   7
ENDBRANCH   5   6
ENDBRANCH   4   5
ENDBRANCH   3   4
ENDBRANCH   2   3
ENDBRANCH   1   2
BRANCH   1  12
ATOM     12  C   UNL     1      23.473   3.149  26.754  1.00  0.00     0.000 C 
BRANCH  12  13
ATOM     13  C   UNL     1      23.504   4.675  26.950  1.00  0.00    -0.000 C 
BRANCH  13  14
ATOM     14  C   UNL     1      24.850   5.305  26.551  1.00  0.00    -0.000 C 
BRANCH  14  15
ATOM     15  C   UNL     1      24.755   6.615  25.746  1.00  0.00    -0.000 C 
BRANCH  15  16
ATOM     16  C   UNL     1      25.639   7.736  26.318  1.00  0.00    -0.000 C 
BRANCH  16  17
ATOM     17  C   UNL     1      26.306   7.353  27.652  1.00  0.00    -0.000 C 
BRANCH  17  18
ATOM     18  C   UNL     1      25.792   8.121  28.882  1.00  0.00    -0.003 C 
ATOM     19  C   UNL     1      24.273   8.287  28.894  1.00  0.00     0.004 C 
ENDBRANCH  17  18
ENDBRANCH  16  17
ENDBRANCH  15  16
ENDBRANCH  14  15
ENDBRANCH  13  14
ENDBRANCH  12  13
ENDBRANCH   1  12
TORSDOF 14
ENDMDL
MODEL 4
REMARK VINA RESULT:    -3.068      9.453     11.569
REMARK INTER + INTRA:          -7.835
REMARK INTER:                  -5.218
REMARK INTRA:                  -2.618
REMARK UNBOUND:                -2.257
REMARK SMILES CCCCCCCCCCCCCC[C@H](C)C(=O)[O-]
REMARK SMILES IDX 9 1 10 2 11 3 12 4 13 5 14 6 15 7 16 8 17 9 18 10 19 11 8 12
REMARK SMILES IDX 7 13 6 14 5 15 4 16 3 17 2 18 1 19
REMARK H PARENT
REMARK Flexibility Score: inf
ROOT
ATOM      1  C   UNL     1      11.242   7.241  32.749  1.00  0.00     0.000 C 
ENDROOT
BRANCH   1   2
ATOM      2  C   UNL     1      11.268   5.948  33.579  1.00  0.00     0.000 C 
BRANCH   2   3
ATOM      3  C   UNL     1      12.563   5.163  33.327  1.00  0.00     0.000 C 
BRANCH   3   4
ATOM      4  C   UNL     1      13.006   5.208  31.856  1.00  0.00     0.000 C 
BRANCH   4   5
ATOM      5  C   UNL     1      14.101   4.175  31.536  1.00  0.00     0.001 C 
BRANCH   5   6
ATOM      6  C   UNL     1      13.854   3.438  30.206  1.00  0.00     0.009 C 
BRANCH   6   7
ATOM      7  C   UNL     1      14.591   4.054  28.995  1.00  0.00     0.032 C 
ATOM      8  C   UNL     1      15.675   5.028  29.466  1.00  0.00     0.014 C 
BRANCH   7   9
ATOM      9  C   UNL     1      13.639   4.755  28.065  1.00  0.00     0.044 C 
ATOM     10  O   UNL     1      12.940   4.099  27.248  1.00  0.00    -0.550 OA
ATOM     11  O   UNL     1      13.534   6.141  28.096  1.00  0.00    -0.550 OA
ENDBRANCH   7   9
ENDBRANCH   6   7
ENDBRANCH   5   6
ENDBRANCH   4   5
ENDBRANCH   3   4
ENDBRANCH   2   3
ENDBRANCH   1   2
BRANCH   1  12
ATOM     12  C   UNL     1       9.926   7.422  31.973  1.00  0.00     0.000 C 
BRANCH  12  13
ATOM     13  C   UNL     1       9.450   6.120  31.306  1.00  0.00    -0.000 C 
BRANCH  13  14
ATOM     14  C   UNL     1      10.068   5.897  29.914  1.00  0.00    -0.000 C 
BRANCH  14  15
ATOM     15  C   UNL     1      10.169   4.428  29.461  1.00  0.00    -0.000 C 
BRANCH  15  16
ATOM     16  C   UNL     1       9.629   3.439  30.508  1.00  0.00    -0.000 C 
BRANCH  16  17
ATOM     17  C   UNL     1      10.406   2.110  30.535  1.00  0.00    -0.000 C 
BRANCH  17  18
ATOM     18  C   UNL     1      10.980   1.717  31.908  1.00  0.00    -0.003 C 
ATOM     19  C   UNL     1      10.215   2.336  33.077  1.00  0.00     0.004 C 
ENDBRANCH  17  18
ENDBRANCH  16  17
ENDBRANCH  15  16
ENDBRANCH  14  15
ENDBRANCH  13  14
ENDBRANCH  12  13
ENDBRANCH   1  12
TORSDOF 14
ENDMDL
MODEL 5
REMARK VINA RESULT:    -3.033     10.422     12.828
REMARK INTER + INTRA:          -7.772
REMARK INTER:                  -5.540
REMARK INTRA:                  -2.233
REMARK UNBOUND:                -2.257
REMARK SMILES CCCCCCCCCCCCCC[C@H](C)C(=O)[O-]
REMARK SMILES IDX 9 1 10 2 11 3 12 4 13 5 14 6 15 7 16 8 17 9 18 10 19 11 8 12
REMARK SMILES IDX 7 13 6 14 5 15 4 16 3 17 2 18 1 19
REMARK H PARENT
REMARK Flexibility Score: inf
ROOT
ATOM      1  C   UNL     1      10.651   3.152  29.626  1.00  0.00     0.000 C 
ENDROOT
BRANCH   1   2
ATOM      2  C   UNL     1      10.657   4.575  29.047  1.00  0.00     0.000 C 
BRANCH   2   3
ATOM      3  C   UNL     1       9.232   5.145  28.981  1.00  0.00     0.000 C 
BRANCH   3   4
ATOM      4  C   UNL     1       9.206   6.681  29.038  1.00  0.00     0.000 C 
BRANCH   4   5
ATOM      5  C   UNL     1       9.725   7.231  30.378  1.00  0.00     0.001 C 
BRANCH   5   6
ATOM      6  C   UNL     1       8.988   6.634  31.592  1.00  0.00     0.009 C 
BRANCH   6   7
ATOM      7  C   UNL     1       9.903   5.868  32.573  1.00  0.00     0.032 C 
ATOM      8  C   UNL     1       9.071   5.203  33.675  1.00  0.00     0.014 C 
BRANCH   7   9
ATOM      9  C   UNL     1      10.939   6.771  33.186  1.00  0.00     0.044 C 
ATOM     10  O   UNL     1      12.162   6.478  33.125  1.00  0.00    -0.550 OA
ATOM     11  O   UNL     1      10.546   7.935  33.836  1.00  0.00    -0.550 OA
ENDBRANCH   7   9
ENDBRANCH   6   7
ENDBRANCH   5   6
ENDBRANCH   4   5
ENDBRANCH   3   4
ENDBRANCH   2   3
ENDBRANCH   1   2
BRANCH   1  12
ATOM     12  C   UNL     1       9.235   2.656  29.969  1.00  0.00     0.000 C 
BRANCH  12  13
ATOM     13  C   UNL     1       9.185   1.893  31.304  1.00  0.00    -0.000 C 
BRANCH  13  14
ATOM     14  C   UNL     1      10.505   1.973  32.092  1.00  0.00    -0.000 C 
BRANCH  14  15
ATOM     15  C   UNL     1      11.316   0.664  32.159  1.00  0.00    -0.000 C 
BRANCH  15  16
ATOM     16  C   UNL     1      12.811   0.869  31.864  1.00  0.00    -0.000 C 
BRANCH  16  17
ATOM     17  C   UNL     1      13.283   2.311  32.126  1.00  0.00    -0.000 C 
BRANCH  17  18
ATOM     18  C   UNL     1      14.079   2.956  30.979  1.00  0.00    -0.003 C 
ATOM     19  C   UNL     1      14.242   4.467  31.137  1.00  0.00     0.004 C 
ENDBRANCH  17  18
ENDBRANCH  16  17
ENDBRANCH  15  16
ENDBRANCH  14  15
ENDBRANCH  13  14
ENDBRANCH  12  13
ENDBRANCH   1  12
TORSDOF 14
ENDMDL
MODEL 6
REMARK VINA RESULT:    -3.029     10.872     12.928
REMARK INTER + INTRA:          -7.765
REMARK INTER:                  -5.331
REMARK INTRA:                  -2.434
REMARK UNBOUND:                -2.257
REMARK SMILES CCCCCCCCCCCCCC[C@H](C)C(=O)[O-]
REMARK SMILES IDX 9 1 10 2 11 3 12 4 13 5 14 6 15 7 16 8 17 9 18 10 19 11 8 12
REMARK SMILES IDX 7 13 6 14 5 15 4 16 3 17 2 18 1 19
REMARK H PARENT
REMARK Flexibility Score: inf
ROOT
ATOM      1  C   UNL     1       9.312   5.314  28.893  1.00  0.00     0.000 C 
ENDROOT
BRANCH   1   2
ATOM      2  C   UNL     1       9.107   6.744  29.419  1.00  0.00     0.000 C 
BRANCH   2   3
ATOM      3  C   UNL     1       9.196   6.780  30.952  1.00  0.00     0.000 C 
BRANCH   3   4
ATOM      4  C   UNL     1      10.372   7.632  31.456  1.00  0.00     0.000 C 
BRANCH   4   5
ATOM      5  C   UNL     1      10.929   7.134  32.802  1.00  0.00     0.001 C 
BRANCH   5   6
ATOM      6  C   UNL     1      10.137   5.938  33.366  1.00  0.00     0.009 C 
BRANCH   6   7
ATOM      7  C   UNL     1      10.840   5.210  34.534  1.00  0.00     0.032 C 
ATOM      8  C   UNL     1      10.932   3.706  34.252  1.00  0.00     0.014 C 
BRANCH   7   9
ATOM      9  C   UNL     1      10.131   5.444  35.841  1.00  0.00     0.044 C 
ATOM     10  O   UNL     1       9.401   6.458  36.001  1.00  0.00    -0.550 OA
ATOM     11  O   UNL     1      10.290   4.543  36.887  1.00  0.00    -0.550 OA
ENDBRANCH   7   9
ENDBRANCH   6   7
ENDBRANCH   5   6
ENDBRANCH   4   5
ENDBRANCH   3   4
ENDBRANCH   2   3
ENDBRANCH   1   2
BRANCH   1  12
ATOM     12  C   UNL     1       9.644   4.312  30.012  1.00  0.00     0.000 C 
BRANCH  12  13
ATOM     13  C   UNL     1      10.961   3.558  29.757  1.00  0.00    -0.000 C 
BRANCH  13  14
ATOM     14  C   UNL     1      12.062   3.912  30.773  1.00  0.00    -0.000 C 
BRANCH  14  15
ATOM     15  C   UNL     1      12.976   5.087  30.377  1.00  0.00    -0.000 C 
BRANCH  15  16
ATOM     16  C   UNL     1      12.931   5.402  28.872  1.00  0.00    -0.000 C 
BRANCH  16  17
ATOM     17  C   UNL     1      13.991   4.629  28.066  1.00  0.00    -0.000 C 
BRANCH  17  18
ATOM     18  C   UNL     1      13.502   4.058  26.723  1.00  0.00    -0.003 C 
ATOM     19  C   UNL     1      12.955   2.636  26.839  1.00  0.00     0.004 C 
ENDBRANCH  17  18
ENDBRANCH  16  17
ENDBRANCH  15  16
ENDBRANCH  14  15
ENDBRANCH  13  14
ENDBRANCH  12  13
ENDBRANCH   1  12
TORSDOF 14
ENDMDL
MODEL 7
REMARK VINA RESULT:    -3.025     10.382     12.119
REMARK INTER + INTRA:          -7.757
REMARK INTER:                  -5.194
REMARK INTRA:                  -2.563
REMARK UNBOUND:                -2.257
REMARK SMILES CCCCCCCCCCCCCC[C@H](C)C(=O)[O-]
REMARK SMILES IDX 9 1 10 2 11 3 12 4 13 5 14 6 15 7 16 8 17 9 18 10 19 11 8 12
REMARK SMILES IDX 7 13 6 14 5 15 4 16 3 17 2 18 1 19
REMARK H PARENT
REMARK Flexibility Score: inf
ROOT
ATOM      1  C   UNL     1       9.719   5.376  29.341  1.00  0.00     0.000 C 
ENDROOT
BRANCH   1   2
ATOM      2  C   UNL     1       9.724   4.388  30.518  1.00  0.00     0.000 C 
BRANCH   2   3
ATOM      3  C   UNL     1       9.506   2.950  30.026  1.00  0.00     0.000 C 
BRANCH   3   4
ATOM      4  C   UNL     1      10.471   1.948  30.680  1.00  0.00     0.000 C 
BRANCH   4   5
ATOM      5  C   UNL     1      11.716   2.630  31.275  1.00  0.00     0.001 C 
BRANCH   5   6
ATOM      6  C   UNL     1      12.975   2.430  30.409  1.00  0.00     0.009 C 
BRANCH   6   7
ATOM      7  C   UNL     1      13.638   3.746  29.944  1.00  0.00     0.032 C 
ATOM      8  C   UNL     1      13.211   4.909  30.845  1.00  0.00     0.014 C 
BRANCH   7   9
ATOM      9  C   UNL     1      13.306   4.059  28.510  1.00  0.00     0.044 C 
ATOM     10  O   UNL     1      14.008   4.871  27.851  1.00  0.00    -0.550 OA
ATOM     11  O   UNL     1      12.210   3.456  27.905  1.00  0.00    -0.550 OA
ENDBRANCH   7   9
ENDBRANCH   6   7
ENDBRANCH   5   6
ENDBRANCH   4   5
ENDBRANCH   3   4
ENDBRANCH   2   3
ENDBRANCH   1   2
BRANCH   1  12
ATOM     12  C   UNL     1       9.880   6.838  29.792  1.00  0.00     0.000 C 
BRANCH  12  13
ATOM     13  C   UNL     1       9.491   7.047  31.266  1.00  0.00    -0.000 C 
BRANCH  13  14
ATOM     14  C   UNL     1      10.535   7.857  32.054  1.00  0.00    -0.000 C 
BRANCH  14  15
ATOM     15  C   UNL     1      10.729   7.436  33.524  1.00  0.00    -0.000 C 
BRANCH  15  16
ATOM     16  C   UNL     1      10.937   5.922  33.692  1.00  0.00    -0.000 C 
BRANCH  16  17
ATOM     17  C   UNL     1       9.971   5.293  34.713  1.00  0.00    -0.000 C 
BRANCH  17  18
ATOM     18  C   UNL     1       8.875   4.398  34.109  1.00  0.00    -0.003 C 
ATOM     19  C   UNL     1       9.260   2.920  34.072  1.00  0.00     0.004 C 
ENDBRANCH  17  18
ENDBRANCH  16  17
ENDBRANCH  15  16
ENDBRANCH  14  15
ENDBRANCH  13  14
ENDBRANCH  12  13
ENDBRANCH   1  12
TORSDOF 14
ENDMDL
MODEL 8
REMARK VINA RESULT:    -3.001      9.721     12.079
REMARK INTER + INTRA:          -7.714
REMARK INTER:                  -5.161
REMARK INTRA:                  -2.552
REMARK UNBOUND:                -2.257
REMARK SMILES CCCCCCCCCCCCCC[C@H](C)C(=O)[O-]
REMARK SMILES IDX 9 1 10 2 11 3 12 4 13 5 14 6 15 7 16 8 17 9 18 10 19 11 8 12
REMARK SMILES IDX 7 13 6 14 5 15 4 16 3 17 2 18 1 19
REMARK H PARENT
REMARK Flexibility Score: inf
ROOT
ATOM      1  C   UNL     1       9.987   1.591  31.405  1.00  0.00     0.000 C 
ENDROOT
BRANCH   1   2
ATOM      2  C   UNL     1      10.330   2.362  30.120  1.00  0.00     0.000 C 
BRANCH   2   3
ATOM      3  C   UNL     1      11.832   2.677  30.056  1.00  0.00     0.000 C 
BRANCH   3   4
ATOM      4  C   UNL     1      12.330   3.438  31.296  1.00  0.00     0.000 C 
BRANCH   4   5
ATOM      5  C   UNL     1      13.053   4.747  30.934  1.00  0.00     0.001 C 
BRANCH   5   6
ATOM      6  C   UNL     1      14.565   4.551  30.717  1.00  0.00     0.009 C 
BRANCH   6   7
ATOM      7  C   UNL     1      15.041   4.849  29.277  1.00  0.00     0.032 C 
ATOM      8  C   UNL     1      13.909   5.477  28.457  1.00  0.00     0.014 C 
BRANCH   7   9
ATOM      9  C   UNL     1      15.544   3.607  28.591  1.00  0.00     0.044 C 
ATOM     10  O   UNL     1      15.313   2.468  29.076  1.00  0.00    -0.550 OA
ATOM     11  O   UNL     1      16.280   3.714  27.416  1.00  0.00    -0.550 OA
ENDBRANCH   7   9
ENDBRANCH   6   7
ENDBRANCH   5   6
ENDBRANCH   4   5
ENDBRANCH   3   4
ENDBRANCH   2   3
ENDBRANCH   1   2
BRANCH   1  12
ATOM     12  C   UNL     1       8.875   2.268  32.224  1.00  0.00     0.000 C 
BRANCH  12  13
ATOM     13  C   UNL     1       9.406   2.930  33.507  1.00  0.00    -0.000 C 
BRANCH  13  14
ATOM     14  C   UNL     1       9.054   4.426  33.602  1.00  0.00    -0.000 C 
BRANCH  14  15
ATOM     15  C   UNL     1      10.256   5.390  33.592  1.00  0.00    -0.000 C 
BRANCH  15  16
ATOM     16  C   UNL     1      10.142   6.480  32.512  1.00  0.00    -0.000 C 
BRANCH  16  17
ATOM     17  C   UNL     1       9.269   6.052  31.318  1.00  0.00    -0.000 C 
BRANCH  17  18
ATOM     18  C   UNL     1       9.921   6.231  29.936  1.00  0.00    -0.003 C 
ATOM     19  C   UNL     1       9.136   5.558  28.810  1.00  0.00     0.004 C 
ENDBRANCH  17  18
ENDBRANCH  16  17
ENDBRANCH  15  16
ENDBRANCH  14  15
ENDBRANCH  13  14
ENDBRANCH  12  13
ENDBRANCH   1  12
TORSDOF 14
ENDMDL
MODEL 9
REMARK VINA RESULT:    -1.824      9.797     11.589
REMARK INTER + INTRA:          -5.573
REMARK INTER:                  -2.724
REMARK INTRA:                  -2.849
REMARK UNBOUND:                -2.257
REMARK SMILES CCCCCCCCCCCCCC[C@H](C)C(=O)[O-]
REMARK SMILES IDX 9 1 10 2 11 3 12 4 13 5 14 6 15 7 16 8 17 9 18 10 19 11 8 12
REMARK SMILES IDX 7 13 6 14 5 15 4 16 3 17 2 18 1 19
REMARK H PARENT
REMARK Flexibility Score: inf
ROOT
ATOM      1  C   UNL     1       9.585   5.410  32.747  1.00  0.00     0.000 C 
ENDROOT
BRANCH   1   2
ATOM      2  C   UNL     1       8.875   4.150  33.267  1.00  0.00     0.000 C 
BRANCH   2   3
ATOM      3  C   UNL     1       9.888   3.034  33.561  1.00  0.00     0.000 C 
BRANCH   3   4
ATOM      4  C   UNL     1      10.369   2.322  32.287  1.00  0.00     0.000 C 
BRANCH   4   5
ATOM      5  C   UNL     1       9.205   1.882  31.381  1.00  0.00     0.001 C 
BRANCH   5   6
ATOM      6  C   UNL     1       9.304   2.469  29.959  1.00  0.00     0.009 C 
BRANCH   6   7
ATOM      7  C   UNL     1      10.547   3.358  29.727  1.00  0.00     0.032 C 
ATOM      8  C   UNL     1      10.133   4.723  29.168  1.00  0.00     0.014 C 
BRANCH   7   9
ATOM      9  C   UNL     1      11.535   2.701  28.801  1.00  0.00     0.044 C 
ATOM     10  O   UNL     1      12.235   3.393  28.015  1.00  0.00    -0.550 OA
ATOM     11  O   UNL     1      11.671   1.318  28.802  1.00  0.00    -0.550 OA
ENDBRANCH   7   9
ENDBRANCH   6   7
ENDBRANCH   5   6
ENDBRANCH   4   5
ENDBRANCH   3   4
ENDBRANCH   2   3
ENDBRANCH   1   2
BRANCH   1  12
ATOM     12  C   UNL     1      10.505   6.050  33.801  1.00  0.00     0.000 C 
BRANCH  12  13
ATOM     13  C   UNL     1      11.831   6.550  33.201  1.00  0.00    -0.000 C 
BRANCH  13  14
ATOM     14  C   UNL     1      12.360   5.644  32.074  1.00  0.00    -0.000 C 
BRANCH  14  15
ATOM     15  C   UNL     1      13.291   4.502  32.526  1.00  0.00    -0.000 C 
BRANCH  15  16
ATOM     16  C   UNL     1      13.847   4.706  33.945  1.00  0.00    -0.000 C 
BRANCH  16  17
ATOM     17  C   UNL     1      13.369   3.629  34.936  1.00  0.00    -0.000 C 
BRANCH  17  18
ATOM     18  C   UNL     1      12.904   4.161  36.304  1.00  0.00    -0.003 C 
ATOM     19  C   UNL     1      11.493   3.709  36.676  1.00  0.00     0.004 C 
ENDBRANCH  17  18
ENDBRANCH  16  17
ENDBRANCH  15  16
ENDBRANCH  14  15
ENDBRANCH  13  14
ENDBRANCH  12  13
ENDBRANCH   1  12
TORSDOF 14
ENDMDL
