MODEL 1
REMARK VINA RESULT:    -4.824      0.000      0.000
REMARK INTER + INTRA:          -6.275
REMARK INTER:                  -5.952
REMARK INTRA:                  -0.322
REMARK UNBOUND:                -0.322
REMARK SMILES CCOC(=O)c1ccc(O)c(O)c1
REMARK SMILES IDX 4 1 5 2 3 3 2 4 1 5 6 6 13 7 7 8 11 9 8 10 9 11 12 12 10 14
REMARK H PARENT 12 13 10 15
REMARK Flexibility Score: inf
ROOT
ATOM      1  C   UNL     1       9.907  -7.596  -9.370  1.00  0.00     0.338 C 
ATOM      2  O   UNL     1      10.637  -8.607  -9.179  1.00  0.00    -0.246 OA
ENDROOT
BRANCH   1   3
ATOM      3  O   UNL     1       9.630  -7.166 -10.674  1.00  0.00    -0.462 OA
BRANCH   3   4
ATOM      4  C   UNL     1       9.611  -5.793 -11.063  1.00  0.00     0.230 C 
ATOM      5  C   UNL     1       8.200  -5.362 -11.445  1.00  0.00     0.049 C 
ENDBRANCH   3   4
ENDBRANCH   1   3
BRANCH   1   6
ATOM      6  C   UNL     1       9.345  -6.859  -8.218  1.00  0.00     0.064 A 
ATOM      7  C   UNL     1      10.177  -6.063  -7.410  1.00  0.00     0.065 A 
ATOM      8  C   UNL     1       7.974  -6.940  -7.911  1.00  0.00     0.020 A 
ATOM      9  C   UNL     1       9.651  -5.361  -6.315  1.00  0.00     0.158 A 
ATOM     10  C   UNL     1       7.450  -6.242  -6.822  1.00  0.00     0.051 A 
ATOM     11  C   UNL     1       8.280  -5.452  -6.020  1.00  0.00     0.157 A 
BRANCH   9  12
ATOM     12  O   UNL     1      10.484  -4.575  -5.521  1.00  0.00    -0.504 OA
ATOM     13  H   UNL     1      10.293  -4.425  -4.537  1.00  0.00     0.293 HD
ENDBRANCH   9  12
BRANCH  11  14
ATOM     14  O   UNL     1       7.727  -4.766  -4.939  1.00  0.00    -0.504 OA
ATOM     15  H   UNL     1       6.802  -4.977  -4.584  1.00  0.00     0.293 HD
ENDBRANCH  11  14
ENDBRANCH   1   6
TORSDOF 5
ENDMDL
MODEL 2
REMARK VINA RESULT:    -4.731      1.703      2.499
REMARK INTER + INTRA:          -6.160
REMARK INTER:                  -5.873
REMARK INTRA:                  -0.287
REMARK UNBOUND:                -0.322
REMARK SMILES CCOC(=O)c1ccc(O)c(O)c1
REMARK SMILES IDX 4 1 5 2 3 3 2 4 1 5 6 6 13 7 7 8 11 9 8 10 9 11 12 12 10 14
REMARK H PARENT 12 13 10 15
REMARK Flexibility Score: inf
ROOT
ATOM      1  C   UNL     1       8.467  -5.999  -9.076  1.00  0.00     0.338 C 
ATOM      2  O   UNL     1       7.887  -5.009  -9.602  1.00  0.00    -0.246 OA
ENDROOT
BRANCH   1   3
ATOM      3  O   UNL     1       9.346  -6.783  -9.834  1.00  0.00    -0.462 OA
BRANCH   3   4
ATOM      4  C   UNL     1      10.586  -6.300 -10.350  1.00  0.00     0.230 C 
ATOM      5  C   UNL     1      11.603  -6.125  -9.229  1.00  0.00     0.049 C 
ENDBRANCH   3   4
ENDBRANCH   1   3
BRANCH   1   6
ATOM      6  C   UNL     1       8.216  -6.337  -7.658  1.00  0.00     0.064 A 
ATOM      7  C   UNL     1       8.163  -5.324  -6.684  1.00  0.00     0.065 A 
ATOM      8  C   UNL     1       8.026  -7.673  -7.261  1.00  0.00     0.020 A 
ATOM      9  C   UNL     1       7.925  -5.637  -5.338  1.00  0.00     0.158 A 
ATOM     10  C   UNL     1       7.789  -7.986  -5.920  1.00  0.00     0.051 A 
ATOM     11  C   UNL     1       7.738  -6.977  -4.955  1.00  0.00     0.157 A 
BRANCH   9  12
ATOM     12  O   UNL     1       7.875  -4.625  -4.382  1.00  0.00    -0.504 OA
ATOM     13  H   UNL     1       7.020  -4.410  -3.880  1.00  0.00     0.293 HD
ENDBRANCH   9  12
BRANCH  11  14
ATOM     14  O   UNL     1       7.500  -7.320  -3.625  1.00  0.00    -0.504 OA
ATOM     15  H   UNL     1       7.515  -6.632  -2.881  1.00  0.00     0.293 HD
ENDBRANCH  11  14
ENDBRANCH   1   6
TORSDOF 5
ENDMDL
MODEL 3
REMARK VINA RESULT:    -4.532      1.957      3.136
REMARK INTER + INTRA:          -5.914
REMARK INTER:                  -5.868
REMARK INTRA:                  -0.047
REMARK UNBOUND:                -0.322
REMARK SMILES CCOC(=O)c1ccc(O)c(O)c1
REMARK SMILES IDX 4 1 5 2 3 3 2 4 1 5 6 6 13 7 7 8 11 9 8 10 9 11 12 12 10 14
REMARK H PARENT 12 13 10 15
REMARK Flexibility Score: inf
ROOT
ATOM      1  C   UNL     1       7.976  -6.467 -11.672  1.00  0.00     0.338 C 
ATOM      2  O   UNL     1       7.537  -7.626 -11.911  1.00  0.00    -0.246 OA
ENDROOT
BRANCH   1   3
ATOM      3  O   UNL     1       7.813  -5.445 -12.616  1.00  0.00    -0.462 OA
BRANCH   3   4
ATOM      4  C   UNL     1       7.763  -4.060 -12.276  1.00  0.00     0.230 C 
ATOM      5  C   UNL     1       7.362  -3.224 -13.485  1.00  0.00     0.049 C 
ENDBRANCH   3   4
ENDBRANCH   1   3
BRANCH   1   6
ATOM      6  C   UNL     1       8.670  -6.187 -10.396  1.00  0.00     0.064 A 
ATOM      7  C   UNL     1       7.958  -5.666  -9.300  1.00  0.00     0.065 A 
ATOM      8  C   UNL     1      10.047  -6.435 -10.256  1.00  0.00     0.020 A 
ATOM      9  C   UNL     1       8.608  -5.398  -8.087  1.00  0.00     0.158 A 
ATOM     10  C   UNL     1      10.696  -6.168  -9.049  1.00  0.00     0.051 A 
ATOM     11  C   UNL     1       9.985  -5.650  -7.962  1.00  0.00     0.157 A 
BRANCH   9  12
ATOM     12  O   UNL     1       7.893  -4.882  -7.008  1.00  0.00    -0.504 OA
ATOM     13  H   UNL     1       7.639  -3.902  -6.958  1.00  0.00     0.293 HD
ENDBRANCH   9  12
BRANCH  11  14
ATOM     14  O   UNL     1      10.660  -5.394  -6.769  1.00  0.00    -0.504 OA
ATOM     15  H   UNL     1      11.455  -4.767  -6.724  1.00  0.00     0.293 HD
ENDBRANCH  11  14
ENDBRANCH   1   6
TORSDOF 5
ENDMDL
MODEL 4
REMARK VINA RESULT:    -4.455      1.869      2.635
REMARK INTER + INTRA:          -5.819
REMARK INTER:                  -5.612
REMARK INTRA:                  -0.208
REMARK UNBOUND:                -0.322
REMARK SMILES CCOC(=O)c1ccc(O)c(O)c1
REMARK SMILES IDX 4 1 5 2 3 3 2 4 1 5 6 6 13 7 7 8 11 9 8 10 9 11 12 12 10 14
REMARK H PARENT 12 13 10 15
REMARK Flexibility Score: inf
ROOT
ATOM      1  C   UNL     1       9.940  -5.954 -10.717  1.00  0.00     0.338 C 
ATOM      2  O   UNL     1      10.853  -5.181 -11.119  1.00  0.00    -0.246 OA
ENDROOT
BRANCH   1   3
ATOM      3  O   UNL     1       9.535  -7.036 -11.511  1.00  0.00    -0.462 OA
BRANCH   3   4
ATOM      4  C   UNL     1       8.446  -6.974 -12.430  1.00  0.00     0.230 C 
ATOM      5  C   UNL     1       7.516  -8.167 -12.242  1.00  0.00     0.049 C 
ENDBRANCH   3   4
ENDBRANCH   1   3
BRANCH   1   6
ATOM      6  C   UNL     1       9.291  -5.718  -9.409  1.00  0.00     0.064 A 
ATOM      7  C   UNL     1       8.016  -5.129  -9.345  1.00  0.00     0.065 A 
ATOM      8  C   UNL     1       9.936  -6.078  -8.212  1.00  0.00     0.020 A 
ATOM      9  C   UNL     1       7.395  -4.902  -8.108  1.00  0.00     0.158 A 
ATOM     10  C   UNL     1       9.319  -5.853  -6.980  1.00  0.00     0.051 A 
ATOM     11  C   UNL     1       8.052  -5.266  -6.920  1.00  0.00     0.157 A 
BRANCH   9  12
ATOM     12  O   UNL     1       6.131  -4.318  -8.055  1.00  0.00    -0.504 OA
ATOM     13  H   UNL     1       5.298  -4.868  -7.880  1.00  0.00     0.293 HD
ENDBRANCH   9  12
BRANCH  11  14
ATOM     14  O   UNL     1       7.460  -5.054  -5.675  1.00  0.00    -0.504 OA
ATOM     15  H   UNL     1       7.805  -5.498  -4.833  1.00  0.00     0.293 HD
ENDBRANCH  11  14
ENDBRANCH   1   6
TORSDOF 5
ENDMDL
MODEL 5
REMARK VINA RESULT:    -4.441      1.942      2.861
REMARK INTER + INTRA:          -5.803
REMARK INTER:                  -5.565
REMARK INTRA:                  -0.237
REMARK UNBOUND:                -0.322
REMARK SMILES CCOC(=O)c1ccc(O)c(O)c1
REMARK SMILES IDX 4 1 5 2 3 3 2 4 1 5 6 6 13 7 7 8 11 9 8 10 9 11 12 12 10 14
REMARK H PARENT 12 13 10 15
REMARK Flexibility Score: inf
ROOT
ATOM      1  C   UNL     1       9.558  -6.378 -10.948  1.00  0.00     0.338 C 
ATOM      2  O   UNL     1       8.759  -6.712 -11.867  1.00  0.00    -0.246 OA
ENDROOT
BRANCH   1   3
ATOM      3  O   UNL     1      10.938  -6.369 -11.187  1.00  0.00    -0.462 OA
BRANCH   3   4
ATOM      4  C   UNL     1      11.754  -5.207 -11.042  1.00  0.00     0.230 C 
ATOM      5  C   UNL     1      12.932  -5.489 -10.116  1.00  0.00     0.049 C 
ENDBRANCH   3   4
ENDBRANCH   1   3
BRANCH   1   6
ATOM      6  C   UNL     1       9.039  -6.000  -9.616  1.00  0.00     0.064 A 
ATOM      7  C   UNL     1       7.879  -5.212  -9.503  1.00  0.00     0.065 A 
ATOM      8  C   UNL     1       9.693  -6.420  -8.444  1.00  0.00     0.020 A 
ATOM      9  C   UNL     1       7.381  -4.850  -8.243  1.00  0.00     0.158 A 
ATOM     10  C   UNL     1       9.198  -6.060  -7.189  1.00  0.00     0.051 A 
ATOM     11  C   UNL     1       8.046  -5.276  -7.080  1.00  0.00     0.157 A 
BRANCH   9  12
ATOM     12  O   UNL     1       6.231  -4.070  -8.142  1.00  0.00    -0.504 OA
ATOM     13  H   UNL     1       6.277  -3.058  -8.090  1.00  0.00     0.293 HD
ENDBRANCH   9  12
BRANCH  11  14
ATOM     14  O   UNL     1       7.575  -4.933  -5.813  1.00  0.00    -0.504 OA
ATOM     15  H   UNL     1       6.871  -4.218  -5.677  1.00  0.00     0.293 HD
ENDBRANCH  11  14
ENDBRANCH   1   6
TORSDOF 5
ENDMDL
MODEL 6
REMARK VINA RESULT:    -4.398      2.015      2.855
REMARK INTER + INTRA:          -5.748
REMARK INTER:                  -5.603
REMARK INTRA:                  -0.146
REMARK UNBOUND:                -0.322
REMARK SMILES CCOC(=O)c1ccc(O)c(O)c1
REMARK SMILES IDX 4 1 5 2 3 3 2 4 1 5 6 6 13 7 7 8 11 9 8 10 9 11 12 12 10 14
REMARK H PARENT 12 13 10 15
REMARK Flexibility Score: inf
ROOT
ATOM      1  C   UNL     1       8.667  -4.964 -10.743  1.00  0.00     0.338 C 
ATOM      2  O   UNL     1       9.843  -4.716 -11.129  1.00  0.00    -0.246 OA
ENDROOT
BRANCH   1   3
ATOM      3  O   UNL     1       7.580  -4.694 -11.584  1.00  0.00    -0.462 OA
BRANCH   3   4
ATOM      4  C   UNL     1       7.601  -3.694 -12.602  1.00  0.00     0.230 C 
ATOM      5  C   UNL     1       7.239  -4.297 -13.954  1.00  0.00     0.049 C 
ENDBRANCH   3   4
ENDBRANCH   1   3
BRANCH   1   6
ATOM      6  C   UNL     1       8.434  -5.536  -9.399  1.00  0.00     0.064 A 
ATOM      7  C   UNL     1       9.134  -6.682  -8.983  1.00  0.00     0.065 A 
ATOM      8  C   UNL     1       7.511  -4.945  -8.517  1.00  0.00     0.020 A 
ATOM      9  C   UNL     1       8.918  -7.230  -7.710  1.00  0.00     0.158 A 
ATOM     10  C   UNL     1       7.295  -5.490  -7.250  1.00  0.00     0.051 A 
ATOM     11  C   UNL     1       7.992  -6.630  -6.840  1.00  0.00     0.157 A 
BRANCH   9  12
ATOM     12  O   UNL     1       9.617  -8.366  -7.308  1.00  0.00    -0.504 OA
ATOM     13  H   UNL     1       9.174  -9.100  -6.767  1.00  0.00     0.293 HD
ENDBRANCH   9  12
BRANCH  11  14
ATOM     14  O   UNL     1       7.755  -7.150  -5.568  1.00  0.00    -0.504 OA
ATOM     15  H   UNL     1       8.361  -6.947  -4.782  1.00  0.00     0.293 HD
ENDBRANCH  11  14
ENDBRANCH   1   6
TORSDOF 5
ENDMDL
MODEL 7
REMARK VINA RESULT:    -4.398     11.920     13.292
REMARK INTER + INTRA:          -5.748
REMARK INTER:                  -5.514
REMARK INTRA:                  -0.234
REMARK UNBOUND:                -0.322
REMARK SMILES CCOC(=O)c1ccc(O)c(O)c1
REMARK SMILES IDX 4 1 5 2 3 3 2 4 1 5 6 6 13 7 7 8 11 9 8 10 9 11 12 12 10 14
REMARK H PARENT 12 13 10 15
REMARK Flexibility Score: inf
ROOT
ATOM      1  C   UNL     1      23.339  -2.623  -7.830  1.00  0.00     0.338 C 
ATOM      2  O   UNL     1      23.755  -1.747  -8.639  1.00  0.00    -0.246 OA
ENDROOT
BRANCH   1   3
ATOM      3  O   UNL     1      24.236  -3.537  -7.262  1.00  0.00    -0.462 OA
BRANCH   3   4
ATOM      4  C   UNL     1      24.316  -4.907  -7.651  1.00  0.00     0.230 C 
ATOM      5  C   UNL     1      24.698  -5.782  -6.463  1.00  0.00     0.049 C 
ENDBRANCH   3   4
ENDBRANCH   1   3
BRANCH   1   6
ATOM      6  C   UNL     1      21.903  -2.689  -7.484  1.00  0.00     0.064 A 
ATOM      7  C   UNL     1      20.927  -2.675  -8.496  1.00  0.00     0.065 A 
ATOM      8  C   UNL     1      21.491  -2.769  -6.141  1.00  0.00     0.020 A 
ATOM      9  C   UNL     1      19.563  -2.738  -8.174  1.00  0.00     0.158 A 
ATOM     10  C   UNL     1      20.133  -2.831  -5.820  1.00  0.00     0.051 A 
ATOM     11  C   UNL     1      19.165  -2.816  -6.829  1.00  0.00     0.157 A 
BRANCH   9  12
ATOM     12  O   UNL     1      18.604  -2.723  -9.185  1.00  0.00    -0.504 OA
ATOM     13  H   UNL     1      17.777  -3.308  -9.143  1.00  0.00     0.293 HD
ENDBRANCH   9  12
BRANCH  11  14
ATOM     14  O   UNL     1      17.817  -2.880  -6.478  1.00  0.00    -0.504 OA
ATOM     15  H   UNL     1      17.157  -2.160  -6.745  1.00  0.00     0.293 HD
ENDBRANCH  11  14
ENDBRANCH   1   6
TORSDOF 5
ENDMDL
MODEL 8
REMARK VINA RESULT:    -4.367      2.171      5.375
REMARK INTER + INTRA:          -5.711
REMARK INTER:                  -5.562
REMARK INTRA:                  -0.149
REMARK UNBOUND:                -0.322
REMARK SMILES CCOC(=O)c1ccc(O)c(O)c1
REMARK SMILES IDX 4 1 5 2 3 3 2 4 1 5 6 6 13 7 7 8 11 9 8 10 9 11 12 12 10 14
REMARK H PARENT 12 13 10 15
REMARK Flexibility Score: inf
ROOT
ATOM      1  C   UNL     1       9.151  -6.459  -8.444  1.00  0.00     0.338 C 
ATOM      2  O   UNL     1      10.191  -5.897  -8.002  1.00  0.00    -0.246 OA
ENDROOT
BRANCH   1   3
ATOM      3  O   UNL     1       8.434  -7.348  -7.632  1.00  0.00    -0.462 OA
BRANCH   3   4
ATOM      4  C   UNL     1       7.518  -6.928  -6.622  1.00  0.00     0.230 C 
ATOM      5  C   UNL     1       7.614  -7.833  -5.399  1.00  0.00     0.049 C 
ENDBRANCH   3   4
ENDBRANCH   1   3
BRANCH   1   6
ATOM      6  C   UNL     1       8.687  -6.183  -9.821  1.00  0.00     0.064 A 
ATOM      7  C   UNL     1       8.520  -7.235 -10.738  1.00  0.00     0.065 A 
ATOM      8  C   UNL     1       8.406  -4.868 -10.234  1.00  0.00     0.020 A 
ATOM      9  C   UNL     1       8.080  -6.981 -12.046  1.00  0.00     0.158 A 
ATOM     10  C   UNL     1       7.968  -4.614 -11.536  1.00  0.00     0.051 A 
ATOM     11  C   UNL     1       7.804  -5.663 -12.445  1.00  0.00     0.157 A 
BRANCH   9  12
ATOM     12  O   UNL     1       7.918  -8.032 -12.947  1.00  0.00    -0.504 OA
ATOM     13  H   UNL     1       7.195  -8.733 -12.822  1.00  0.00     0.293 HD
ENDBRANCH   9  12
BRANCH  11  14
ATOM     14  O   UNL     1       7.365  -5.378 -13.738  1.00  0.00    -0.504 OA
ATOM     15  H   UNL     1       7.420  -4.446 -14.132  1.00  0.00     0.293 HD
ENDBRANCH  11  14
ENDBRANCH   1   6
TORSDOF 5
ENDMDL
MODEL 9
REMARK VINA RESULT:    -4.360      2.089      2.991
REMARK INTER + INTRA:          -5.702
REMARK INTER:                  -5.471
REMARK INTRA:                  -0.230
REMARK UNBOUND:                -0.322
REMARK SMILES CCOC(=O)c1ccc(O)c(O)c1
REMARK SMILES IDX 4 1 5 2 3 3 2 4 1 5 6 6 13 7 7 8 11 9 8 10 9 11 12 12 10 14
REMARK H PARENT 12 13 10 15
REMARK Flexibility Score: inf
ROOT
ATOM      1  C   UNL     1       8.387  -7.776  -8.692  1.00  0.00     0.338 C 
ATOM      2  O   UNL     1       7.785  -7.232  -9.658  1.00  0.00    -0.246 OA
ENDROOT
BRANCH   1   3
ATOM      3  O   UNL     1       9.192  -8.902  -8.911  1.00  0.00    -0.462 OA
BRANCH   3   4
ATOM      4  C   UNL     1      10.617  -8.854  -8.963  1.00  0.00     0.230 C 
ATOM      5  C   UNL     1      11.094  -8.563 -10.381  1.00  0.00     0.049 C 
ENDBRANCH   3   4
ENDBRANCH   1   3
BRANCH   1   6
ATOM      6  C   UNL     1       8.243  -7.230  -7.325  1.00  0.00     0.064 A 
ATOM      7  C   UNL     1       7.741  -8.036  -6.288  1.00  0.00     0.065 A 
ATOM      8  C   UNL     1       8.603  -5.901  -7.041  1.00  0.00     0.020 A 
ATOM      9  C   UNL     1       7.601  -7.525  -4.989  1.00  0.00     0.158 A 
ATOM     10  C   UNL     1       8.464  -5.391  -5.748  1.00  0.00     0.051 A 
ATOM     11  C   UNL     1       7.964  -6.194  -4.719  1.00  0.00     0.157 A 
BRANCH   9  12
ATOM     12  O   UNL     1       7.103  -8.332  -3.968  1.00  0.00    -0.504 OA
ATOM     13  H   UNL     1       7.629  -9.122  -3.611  1.00  0.00     0.293 HD
ENDBRANCH   9  12
BRANCH  11  14
ATOM     14  O   UNL     1       7.837  -5.658  -3.439  1.00  0.00    -0.504 OA
ATOM     15  H   UNL     1       8.237  -6.108  -2.624  1.00  0.00     0.293 HD
ENDBRANCH  11  14
ENDBRANCH   1   6
TORSDOF 5
ENDMDL
