MODEL 1
REMARK VINA RESULT:    -5.515      0.000      0.000
REMARK INTER + INTRA:          -6.369
REMARK INTER:                  -6.159
REMARK INTRA:                  -0.210
REMARK UNBOUND:                -0.210
REMARK SMILES CC(C)c1ccc(C(=O)[O-])cc1
REMARK SMILES IDX 7 1 6 2 11 3 5 4 12 5 4 6 8 7 9 8 10 9 2 10 1 11 3 12
REMARK H PARENT
REMARK Flexibility Score: inf
ROOT
ATOM      1  C   UNL     1     -34.226  45.073  38.332  1.00  0.00    -0.003 A 
ATOM      2  C   UNL     1     -34.726  45.733  39.467  1.00  0.00     0.010 A 
ATOM      3  C   UNL     1     -34.106  43.673  38.355  1.00  0.00     0.010 A 
ATOM      4  C   UNL     1     -35.099  45.007  40.601  1.00  0.00     0.004 A 
ATOM      5  C   UNL     1     -34.478  42.948  39.490  1.00  0.00     0.004 A 
ATOM      6  C   UNL     1     -34.979  43.606  40.625  1.00  0.00    -0.045 A 
ENDROOT
BRANCH   1   7
ATOM      7  C   UNL     1     -33.832  45.845  37.132  1.00  0.00     0.071 C 
ATOM      8  O   UNL     1     -34.707  46.320  36.360  1.00  0.00    -0.545 OA
ATOM      9  O   UNL     1     -32.489  46.059  36.841  1.00  0.00    -0.545 OA
ENDBRANCH   1   7
BRANCH   6  10
ATOM     10  C   UNL     1     -35.381  42.806  41.851  1.00  0.00     0.013 C 
ATOM     11  C   UNL     1     -35.873  43.724  42.975  1.00  0.00     0.012 C 
ATOM     12  C   UNL     1     -34.228  41.915  42.331  1.00  0.00     0.012 C 
ENDBRANCH   6  10
TORSDOF 2
ENDMDL
MODEL 2
REMARK VINA RESULT:    -5.515      0.057      1.399
REMARK INTER + INTRA:          -6.369
REMARK INTER:                  -6.159
REMARK INTRA:                  -0.210
REMARK UNBOUND:                -0.210
REMARK SMILES CC(C)c1ccc(C(=O)[O-])cc1
REMARK SMILES IDX 7 1 6 2 11 3 5 4 12 5 4 6 8 7 9 8 10 9 2 10 1 11 3 12
REMARK H PARENT
REMARK Flexibility Score: inf
ROOT
ATOM      1  C   UNL     1     -34.269  45.070  38.313  1.00  0.00    -0.003 A 
ATOM      2  C   UNL     1     -34.160  43.669  38.340  1.00  0.00     0.010 A 
ATOM      3  C   UNL     1     -34.752  45.737  39.451  1.00  0.00     0.010 A 
ATOM      4  C   UNL     1     -34.526  42.952  39.482  1.00  0.00     0.004 A 
ATOM      5  C   UNL     1     -35.119  45.019  40.592  1.00  0.00     0.004 A 
ATOM      6  C   UNL     1     -35.009  43.619  40.621  1.00  0.00    -0.045 A 
ENDROOT
BRANCH   1   7
ATOM      7  C   UNL     1     -33.881  45.826  37.102  1.00  0.00     0.071 C 
ATOM      8  O   UNL     1     -34.760  46.319  36.345  1.00  0.00    -0.545 OA
ATOM      9  O   UNL     1     -32.540  46.004  36.782  1.00  0.00    -0.545 OA
ENDBRANCH   1   7
BRANCH   6  10
ATOM     10  C   UNL     1     -35.410  42.852  41.868  1.00  0.00     0.013 C 
ATOM     11  C   UNL     1     -35.863  43.804  42.982  1.00  0.00     0.012 C 
ATOM     12  C   UNL     1     -34.271  41.944  42.348  1.00  0.00     0.012 C 
ENDBRANCH   6  10
TORSDOF 2
ENDMDL
MODEL 3
REMARK VINA RESULT:    -5.460     10.205     12.362
REMARK INTER + INTRA:          -6.308
REMARK INTER:                  -6.100
REMARK INTRA:                  -0.208
REMARK UNBOUND:                -0.210
REMARK SMILES CC(C)c1ccc(C(=O)[O-])cc1
REMARK SMILES IDX 7 1 6 2 11 3 5 4 12 5 4 6 8 7 9 8 10 9 2 10 1 11 3 12
REMARK H PARENT
REMARK Flexibility Score: inf
ROOT
ATOM      1  C   UNL     1     -40.362  37.854  48.649  1.00  0.00    -0.003 A 
ATOM      2  C   UNL     1     -41.066  38.233  47.494  1.00  0.00     0.010 A 
ATOM      3  C   UNL     1     -38.963  37.987  48.669  1.00  0.00     0.010 A 
ATOM      4  C   UNL     1     -40.385  38.735  46.382  1.00  0.00     0.004 A 
ATOM      5  C   UNL     1     -38.283  38.488  47.557  1.00  0.00     0.004 A 
ATOM      6  C   UNL     1     -38.985  38.868  46.401  1.00  0.00    -0.045 A 
ENDROOT
BRANCH   1   7
ATOM      7  C   UNL     1     -41.087  37.323  49.825  1.00  0.00     0.071 C 
ATOM      8  O   UNL     1     -41.717  38.097  50.593  1.00  0.00    -0.545 OA
ATOM      9  O   UNL     1     -41.083  35.959  50.098  1.00  0.00    -0.545 OA
ENDBRANCH   1   7
BRANCH   6  10
ATOM     10  C   UNL     1     -38.233  39.412  45.200  1.00  0.00     0.013 C 
ATOM     11  C   UNL     1     -39.199  39.853  44.095  1.00  0.00     0.012 C 
ATOM     12  C   UNL     1     -37.221  38.388  44.672  1.00  0.00     0.012 C 
ENDBRANCH   6  10
TORSDOF 2
ENDMDL
MODEL 4
REMARK VINA RESULT:    -5.441     10.127     12.281
REMARK INTER + INTRA:          -6.287
REMARK INTER:                  -6.078
REMARK INTRA:                  -0.208
REMARK UNBOUND:                -0.210
REMARK SMILES CC(C)c1ccc(C(=O)[O-])cc1
REMARK SMILES IDX 7 1 6 2 11 3 5 4 12 5 4 6 8 7 9 8 10 9 2 10 1 11 3 12
REMARK H PARENT
REMARK Flexibility Score: inf
ROOT
ATOM      1  C   UNL     1     -40.281  37.869  48.567  1.00  0.00    -0.003 A 
ATOM      2  C   UNL     1     -38.880  37.961  48.608  1.00  0.00     0.010 A 
ATOM      3  C   UNL     1     -40.955  38.244  47.393  1.00  0.00     0.010 A 
ATOM      4  C   UNL     1     -38.168  38.421  47.497  1.00  0.00     0.004 A 
ATOM      5  C   UNL     1     -40.242  38.704  46.282  1.00  0.00     0.004 A 
ATOM      6  C   UNL     1     -38.841  38.797  46.321  1.00  0.00    -0.045 A 
ENDROOT
BRANCH   1   7
ATOM      7  C   UNL     1     -41.032  37.382  49.746  1.00  0.00     0.071 C 
ATOM      8  O   UNL     1     -41.633  38.191  50.501  1.00  0.00    -0.545 OA
ATOM      9  O   UNL     1     -41.085  36.023  50.036  1.00  0.00    -0.545 OA
ENDBRANCH   1   7
BRANCH   6  10
ATOM     10  C   UNL     1     -38.080  39.298  45.107  1.00  0.00     0.013 C 
ATOM     11  C   UNL     1     -39.039  39.805  44.023  1.00  0.00     0.012 C 
ATOM     12  C   UNL     1     -37.147  38.213  44.554  1.00  0.00     0.012 C 
ENDBRANCH   6  10
TORSDOF 2
ENDMDL
MODEL 5
REMARK VINA RESULT:    -5.390      9.234     11.258
REMARK INTER + INTRA:          -6.230
REMARK INTER:                  -6.022
REMARK INTRA:                  -0.208
REMARK UNBOUND:                -0.210
REMARK SMILES CC(C)c1ccc(C(=O)[O-])cc1
REMARK SMILES IDX 7 1 6 2 11 3 5 4 12 5 4 6 8 7 9 8 10 9 2 10 1 11 3 12
REMARK H PARENT
REMARK Flexibility Score: inf
ROOT
ATOM      1  C   UNL     1     -38.988  38.905  46.214  1.00  0.00    -0.003 A 
ATOM      2  C   UNL     1     -40.355  38.657  46.417  1.00  0.00     0.010 A 
ATOM      3  C   UNL     1     -38.074  38.550  47.220  1.00  0.00     0.010 A 
ATOM      4  C   UNL     1     -40.800  38.066  47.603  1.00  0.00     0.004 A 
ATOM      5  C   UNL     1     -38.519  37.960  48.406  1.00  0.00     0.004 A 
ATOM      6  C   UNL     1     -39.886  37.711  48.611  1.00  0.00    -0.045 A 
ENDROOT
BRANCH   1   7
ATOM      7  C   UNL     1     -38.521  39.531  44.957  1.00  0.00     0.071 C 
ATOM      8  O   UNL     1     -37.306  39.476  44.626  1.00  0.00    -0.545 OA
ATOM      9  O   UNL     1     -39.417  40.187  44.121  1.00  0.00    -0.545 OA
ENDBRANCH   1   7
BRANCH   6  10
ATOM     10  C   UNL     1     -40.356  37.068  49.904  1.00  0.00     0.013 C 
ATOM     11  C   UNL     1     -40.712  35.593  49.690  1.00  0.00     0.012 C 
ATOM     12  C   UNL     1     -41.536  37.840  50.507  1.00  0.00     0.012 C 
ENDBRANCH   6  10
TORSDOF 2
ENDMDL
MODEL 6
REMARK VINA RESULT:    -5.365      3.098      5.234
REMARK INTER + INTRA:          -6.202
REMARK INTER:                  -5.991
REMARK INTRA:                  -0.211
REMARK UNBOUND:                -0.210
REMARK SMILES CC(C)c1ccc(C(=O)[O-])cc1
REMARK SMILES IDX 7 1 6 2 11 3 5 4 12 5 4 6 8 7 9 8 10 9 2 10 1 11 3 12
REMARK H PARENT
REMARK Flexibility Score: inf
ROOT
ATOM      1  C   UNL     1     -35.092  43.696  40.858  1.00  0.00    -0.003 A 
ATOM      2  C   UNL     1     -34.550  42.769  39.952  1.00  0.00     0.010 A 
ATOM      3  C   UNL     1     -35.089  45.060  40.522  1.00  0.00     0.010 A 
ATOM      4  C   UNL     1     -34.015  43.199  38.735  1.00  0.00     0.004 A 
ATOM      5  C   UNL     1     -34.553  45.489  39.304  1.00  0.00     0.004 A 
ATOM      6  C   UNL     1     -34.011  44.564  38.397  1.00  0.00    -0.045 A 
ENDROOT
BRANCH   1   7
ATOM      7  C   UNL     1     -35.658  43.237  42.147  1.00  0.00     0.071 C 
ATOM      8  O   UNL     1     -35.844  44.051  43.091  1.00  0.00    -0.545 OA
ATOM      9  O   UNL     1     -35.993  41.901  42.333  1.00  0.00    -0.545 OA
ENDBRANCH   1   7
BRANCH   6  10
ATOM     10  C   UNL     1     -33.434  45.044  37.078  1.00  0.00     0.013 C 
ATOM     11  C   UNL     1     -31.984  45.514  37.246  1.00  0.00     0.012 C 
ATOM     12  C   UNL     1     -34.303  46.147  36.463  1.00  0.00     0.012 C 
ENDBRANCH   6  10
TORSDOF 2
ENDMDL
MODEL 7
REMARK VINA RESULT:    -5.343      1.809      3.042
REMARK INTER + INTRA:          -6.177
REMARK INTER:                  -5.974
REMARK INTRA:                  -0.203
REMARK UNBOUND:                -0.210
REMARK SMILES CC(C)c1ccc(C(=O)[O-])cc1
REMARK SMILES IDX 7 1 6 2 11 3 5 4 12 5 4 6 8 7 9 8 10 9 2 10 1 11 3 12
REMARK H PARENT
REMARK Flexibility Score: inf
ROOT
ATOM      1  C   UNL     1     -34.250  43.580  39.926  1.00  0.00    -0.003 A 
ATOM      2  C   UNL     1     -33.025  42.896  40.005  1.00  0.00     0.010 A 
ATOM      3  C   UNL     1     -35.192  43.410  40.955  1.00  0.00     0.010 A 
ATOM      4  C   UNL     1     -32.749  42.059  41.089  1.00  0.00     0.004 A 
ATOM      5  C   UNL     1     -34.916  42.572  42.038  1.00  0.00     0.004 A 
ATOM      6  C   UNL     1     -33.692  41.888  42.119  1.00  0.00    -0.045 A 
ENDROOT
BRANCH   1   7
ATOM      7  C   UNL     1     -34.538  44.466  38.776  1.00  0.00     0.071 C 
ATOM      8  O   UNL     1     -34.283  44.093  37.600  1.00  0.00    -0.545 OA
ATOM      9  O   UNL     1     -35.098  45.722  38.978  1.00  0.00    -0.545 OA
ENDBRANCH   1   7
BRANCH   6  10
ATOM     10  C   UNL     1     -33.405  40.982  43.302  1.00  0.00     0.013 C 
ATOM     11  C   UNL     1     -32.265  41.541  44.163  1.00  0.00     0.012 C 
ATOM     12  C   UNL     1     -33.098  39.552  42.841  1.00  0.00     0.012 C 
ENDBRANCH   6  10
TORSDOF 2
ENDMDL
MODEL 8
REMARK VINA RESULT:    -5.282      1.881      2.942
REMARK INTER + INTRA:          -6.110
REMARK INTER:                  -5.904
REMARK INTRA:                  -0.205
REMARK UNBOUND:                -0.210
REMARK SMILES CC(C)c1ccc(C(=O)[O-])cc1
REMARK SMILES IDX 7 1 6 2 11 3 5 4 12 5 4 6 8 7 9 8 10 9 2 10 1 11 3 12
REMARK H PARENT
REMARK Flexibility Score: inf
ROOT
ATOM      1  C   UNL     1     -34.219  43.555  39.933  1.00  0.00    -0.003 A 
ATOM      2  C   UNL     1     -35.129  43.338  40.982  1.00  0.00     0.010 A 
ATOM      3  C   UNL     1     -32.975  42.902  39.964  1.00  0.00     0.010 A 
ATOM      4  C   UNL     1     -34.800  42.486  42.039  1.00  0.00     0.004 A 
ATOM      5  C   UNL     1     -32.648  42.050  41.022  1.00  0.00     0.004 A 
ATOM      6  C   UNL     1     -33.556  41.832  42.071  1.00  0.00    -0.045 A 
ENDROOT
BRANCH   1   7
ATOM      7  C   UNL     1     -34.570  44.459  38.815  1.00  0.00     0.071 C 
ATOM      8  O   UNL     1     -34.378  44.106  37.621  1.00  0.00    -0.545 OA
ATOM      9  O   UNL     1     -35.118  45.712  39.067  1.00  0.00    -0.545 OA
ENDBRANCH   1   7
BRANCH   6  10
ATOM     10  C   UNL     1     -33.187  40.903  43.213  1.00  0.00     0.013 C 
ATOM     11  C   UNL     1     -31.893  41.356  43.900  1.00  0.00     0.012 C 
ATOM     12  C   UNL     1     -33.076  39.451  42.731  1.00  0.00     0.012 C 
ENDBRANCH   6  10
TORSDOF 2
ENDMDL
MODEL 9
REMARK VINA RESULT:    -5.205      1.650      2.682
REMARK INTER + INTRA:          -6.023
REMARK INTER:                  -5.804
REMARK INTRA:                  -0.219
REMARK UNBOUND:                -0.210
REMARK SMILES CC(C)c1ccc(C(=O)[O-])cc1
REMARK SMILES IDX 7 1 6 2 11 3 5 4 12 5 4 6 8 7 9 8 10 9 2 10 1 11 3 12
REMARK H PARENT
REMARK Flexibility Score: inf
ROOT
ATOM      1  C   UNL     1     -34.269  43.795  39.833  1.00  0.00    -0.003 A 
ATOM      2  C   UNL     1     -33.117  42.994  39.899  1.00  0.00     0.010 A 
ATOM      3  C   UNL     1     -35.192  43.750  40.891  1.00  0.00     0.010 A 
ATOM      4  C   UNL     1     -32.893  42.165  41.002  1.00  0.00     0.004 A 
ATOM      5  C   UNL     1     -34.967  42.921  41.993  1.00  0.00     0.004 A 
ATOM      6  C   UNL     1     -33.816  42.119  42.062  1.00  0.00    -0.045 A 
ENDROOT
BRANCH   1   7
ATOM      7  C   UNL     1     -34.504  44.671  38.663  1.00  0.00     0.071 C 
ATOM      8  O   UNL     1     -35.148  45.747  38.787  1.00  0.00    -0.545 OA
ATOM      9  O   UNL     1     -34.015  44.319  37.410  1.00  0.00    -0.545 OA
ENDBRANCH   1   7
BRANCH   6  10
ATOM     10  C   UNL     1     -33.584  41.224  43.265  1.00  0.00     0.013 C 
ATOM     11  C   UNL     1     -34.449  41.660  44.454  1.00  0.00     0.012 C 
ATOM     12  C   UNL     1     -32.099  41.187  43.648  1.00  0.00     0.012 C 
ENDBRANCH   6  10
TORSDOF 2
ENDMDL
