MODEL 1
REMARK VINA RESULT:    -2.960      0.000      0.000
REMARK INTER + INTRA:          -3.447
REMARK INTER:                  -3.392
REMARK INTRA:                  -0.055
REMARK UNBOUND:                -0.055
REMARK SMILES CC(C)[C@@H]([NH3+])C(=O)[O-]
REMARK SMILES IDX 4 1 5 2 6 6 7 7 8 8 2 9 1 10 3 11
REMARK H PARENT 5 3 5 4 5 5
REMARK Flexibility Score: inf
ROOT
ATOM      1  C   UNL     1     157.549 149.921 146.730  1.00  0.00     0.230 C 
ENDROOT
BRANCH   1   2
ATOM      2  N   UNL     1     156.369 150.124 145.876  1.00  0.00    -0.350 N 
ATOM      3  H   UNL     1     156.427 151.064 145.419  1.00  0.00     0.345 HD
ATOM      4  H   UNL     1     155.483 150.078 146.429  1.00  0.00     0.345 HD
ATOM      5  H   UNL     1     156.343 149.399 145.123  1.00  0.00     0.345 HD
ENDBRANCH   1   2
BRANCH   1   6
ATOM      6  C   UNL     1     157.449 150.745 147.991  1.00  0.00     0.099 C 
ATOM      7  O   UNL     1     156.963 151.907 147.966  1.00  0.00    -0.544 OA
ATOM      8  O   UNL     1     157.870 150.209 149.202  1.00  0.00    -0.544 OA
ENDBRANCH   1   6
BRANCH   1   9
ATOM      9  C   UNL     1     157.802 148.409 147.016  1.00  0.00     0.047 C 
ATOM     10  C   UNL     1     156.481 147.634 147.132  1.00  0.00     0.014 C 
ATOM     11  C   UNL     1     158.722 147.731 145.987  1.00  0.00     0.014 C 
ENDBRANCH   1   9
TORSDOF 3
ENDMDL
MODEL 2
REMARK VINA RESULT:    -2.823     15.982     17.010
REMARK INTER + INTRA:          -3.291
REMARK INTER:                  -3.231
REMARK INTRA:                  -0.060
REMARK UNBOUND:                -0.055
REMARK SMILES CC(C)[C@@H]([NH3+])C(=O)[O-]
REMARK SMILES IDX 4 1 5 2 6 6 7 7 8 8 2 9 1 10 3 11
REMARK H PARENT 5 3 5 4 5 5
REMARK Flexibility Score: inf
ROOT
ATOM      1  C   UNL     1     158.529 151.009 163.323  1.00  0.00     0.230 C 
ENDROOT
BRANCH   1   2
ATOM      2  N   UNL     1     158.978 152.262 162.699  1.00  0.00    -0.350 N 
ATOM      3  H   UNL     1     158.148 152.870 162.504  1.00  0.00     0.345 HD
ATOM      4  H   UNL     1     159.479 152.085 161.799  1.00  0.00     0.345 HD
ATOM      5  H   UNL     1     159.612 152.780 163.350  1.00  0.00     0.345 HD
ENDBRANCH   1   2
BRANCH   1   6
ATOM      6  C   UNL     1     159.598 149.946 163.226  1.00  0.00     0.099 C 
ATOM      7  O   UNL     1     160.124 149.463 164.263  1.00  0.00    -0.544 OA
ATOM      8  O   UNL     1     159.990 149.472 161.979  1.00  0.00    -0.544 OA
ENDBRANCH   1   6
BRANCH   1   9
ATOM      9  C   UNL     1     158.037 151.235 164.785  1.00  0.00     0.047 C 
ATOM     10  C   UNL     1     158.216 152.700 165.214  1.00  0.00     0.014 C 
ATOM     11  C   UNL     1     156.584 150.790 165.024  1.00  0.00     0.014 C 
ENDBRANCH   1   9
TORSDOF 3
ENDMDL
MODEL 3
REMARK VINA RESULT:    -2.787      1.241      1.968
REMARK INTER + INTRA:          -3.249
REMARK INTER:                  -3.223
REMARK INTRA:                  -0.026
REMARK UNBOUND:                -0.055
REMARK SMILES CC(C)[C@@H]([NH3+])C(=O)[O-]
REMARK SMILES IDX 4 1 5 2 6 6 7 7 8 8 2 9 1 10 3 11
REMARK H PARENT 5 3 5 4 5 5
REMARK Flexibility Score: inf
ROOT
ATOM      1  C   UNL     1     157.354 149.753 147.287  1.00  0.00     0.230 C 
ENDROOT
BRANCH   1   2
ATOM      2  N   UNL     1     156.321 150.734 146.922  1.00  0.00    -0.350 N 
ATOM      3  H   UNL     1     156.040 151.276 147.773  1.00  0.00     0.345 HD
ATOM      4  H   UNL     1     155.472 150.269 146.530  1.00  0.00     0.345 HD
ATOM      5  H   UNL     1     156.700 151.409 146.219  1.00  0.00     0.345 HD
ENDBRANCH   1   2
BRANCH   1   6
ATOM      6  C   UNL     1     157.505 149.663 148.787  1.00  0.00     0.099 C 
ATOM      7  O   UNL     1     158.590 149.285 149.305  1.00  0.00    -0.544 OA
ATOM      8  O   UNL     1     156.447 150.028 149.611  1.00  0.00    -0.544 OA
ENDBRANCH   1   6
BRANCH   1   9
ATOM      9  C   UNL     1     157.093 148.366 146.624  1.00  0.00     0.047 C 
ATOM     10  C   UNL     1     158.410 147.636 146.321  1.00  0.00     0.014 C 
ATOM     11  C   UNL     1     156.162 147.455 147.442  1.00  0.00     0.014 C 
ENDBRANCH   1   9
TORSDOF 3
ENDMDL
MODEL 4
REMARK VINA RESULT:    -2.785      1.840      2.264
REMARK INTER + INTRA:          -3.247
REMARK INTER:                  -3.194
REMARK INTRA:                  -0.053
REMARK UNBOUND:                -0.055
REMARK SMILES CC(C)[C@@H]([NH3+])C(=O)[O-]
REMARK SMILES IDX 4 1 5 2 6 6 7 7 8 8 2 9 1 10 3 11
REMARK H PARENT 5 3 5 4 5 5
REMARK Flexibility Score: inf
ROOT
ATOM      1  C   UNL     1     157.570 149.337 148.723  1.00  0.00     0.230 C 
ENDROOT
BRANCH   1   2
ATOM      2  N   UNL     1     158.906 149.079 149.282  1.00  0.00    -0.350 N 
ATOM      3  H   UNL     1     158.980 148.070 149.552  1.00  0.00     0.345 HD
ATOM      4  H   UNL     1     159.086 149.663 150.130  1.00  0.00     0.345 HD
ATOM      5  H   UNL     1     159.639 149.277 148.564  1.00  0.00     0.345 HD
ENDBRANCH   1   2
BRANCH   1   6
ATOM      6  C   UNL     1     157.287 150.820 148.670  1.00  0.00     0.099 C 
ATOM      7  O   UNL     1     157.478 151.476 147.611  1.00  0.00    -0.544 OA
ATOM      8  O   UNL     1     156.783 151.468 149.791  1.00  0.00    -0.544 OA
ENDBRANCH   1   6
BRANCH   1   9
ATOM      9  C   UNL     1     157.376 148.637 147.344  1.00  0.00     0.047 C 
ATOM     10  C   UNL     1     158.694 148.037 146.831  1.00  0.00     0.014 C 
ATOM     11  C   UNL     1     156.274 147.563 147.346  1.00  0.00     0.014 C 
ENDBRANCH   1   9
TORSDOF 3
ENDMDL
MODEL 5
REMARK VINA RESULT:    -2.774     15.462     16.350
REMARK INTER + INTRA:          -3.235
REMARK INTER:                  -3.187
REMARK INTRA:                  -0.048
REMARK UNBOUND:                -0.055
REMARK SMILES CC(C)[C@@H]([NH3+])C(=O)[O-]
REMARK SMILES IDX 4 1 5 2 6 6 7 7 8 8 2 9 1 10 3 11
REMARK H PARENT 5 3 5 4 5 5
REMARK Flexibility Score: inf
ROOT
ATOM      1  C   UNL     1     145.270 138.715 149.501  1.00  0.00     0.230 C 
ENDROOT
BRANCH   1   2
ATOM      2  N   UNL     1     145.021 137.274 149.653  1.00  0.00    -0.350 N 
ATOM      3  H   UNL     1     144.309 137.122 150.406  1.00  0.00     0.345 HD
ATOM      4  H   UNL     1     145.893 136.760 149.912  1.00  0.00     0.345 HD
ATOM      5  H   UNL     1     144.640 136.880 148.763  1.00  0.00     0.345 HD
ENDBRANCH   1   2
BRANCH   1   6
ATOM      6  C   UNL     1     146.735 138.984 149.248  1.00  0.00     0.099 C 
ATOM      7  O   UNL     1     147.127 139.424 148.135  1.00  0.00    -0.544 OA
ATOM      8  O   UNL     1     147.661 138.773 150.262  1.00  0.00    -0.544 OA
ENDBRANCH   1   6
BRANCH   1   9
ATOM      9  C   UNL     1     144.346 139.350 148.417  1.00  0.00     0.047 C 
ATOM     10  C   UNL     1     143.090 138.495 148.184  1.00  0.00     0.014 C 
ATOM     11  C   UNL     1     143.944 140.803 148.722  1.00  0.00     0.014 C 
ENDBRANCH   1   9
TORSDOF 3
ENDMDL
MODEL 6
REMARK VINA RESULT:    -2.744     12.897     14.013
REMARK INTER + INTRA:          -3.200
REMARK INTER:                  -3.164
REMARK INTRA:                  -0.036
REMARK UNBOUND:                -0.055
REMARK SMILES CC(C)[C@@H]([NH3+])C(=O)[O-]
REMARK SMILES IDX 4 1 5 2 6 6 7 7 8 8 2 9 1 10 3 11
REMARK H PARENT 5 3 5 4 5 5
REMARK Flexibility Score: inf
ROOT
ATOM      1  C   UNL     1     153.878 155.999 159.345  1.00  0.00     0.230 C 
ENDROOT
BRANCH   1   2
ATOM      2  N   UNL     1     154.260 157.125 160.211  1.00  0.00    -0.350 N 
ATOM      3  H   UNL     1     153.500 157.845 160.201  1.00  0.00     0.345 HD
ATOM      4  H   UNL     1     155.147 157.573 159.887  1.00  0.00     0.345 HD
ATOM      5  H   UNL     1     154.380 156.795 161.195  1.00  0.00     0.345 HD
ENDBRANCH   1   2
BRANCH   1   6
ATOM      6  C   UNL     1     152.376 155.855 159.282  1.00  0.00     0.099 C 
ATOM      7  O   UNL     1     151.845 154.747 159.003  1.00  0.00    -0.544 OA
ATOM      8  O   UNL     1     151.564 156.948 159.562  1.00  0.00    -0.544 OA
ENDBRANCH   1   6
BRANCH   1   9
ATOM      9  C   UNL     1     154.532 156.107 157.934  1.00  0.00     0.047 C 
ATOM     10  C   UNL     1     154.965 154.728 157.413  1.00  0.00     0.014 C 
ATOM     11  C   UNL     1     153.643 156.809 156.893  1.00  0.00     0.014 C 
ENDBRANCH   1   9
TORSDOF 3
ENDMDL
MODEL 7
REMARK VINA RESULT:    -2.737     20.589     21.455
REMARK INTER + INTRA:          -3.192
REMARK INTER:                  -3.137
REMARK INTRA:                  -0.055
REMARK UNBOUND:                -0.055
REMARK SMILES CC(C)[C@@H]([NH3+])C(=O)[O-]
REMARK SMILES IDX 4 1 5 2 6 6 7 7 8 8 2 9 1 10 3 11
REMARK H PARENT 5 3 5 4 5 5
REMARK Flexibility Score: inf
ROOT
ATOM      1  C   UNL     1     145.392 155.611 163.764  1.00  0.00     0.230 C 
ENDROOT
BRANCH   1   2
ATOM      2  N   UNL     1     143.976 155.655 164.159  1.00  0.00    -0.350 N 
ATOM      3  H   UNL     1     143.509 156.465 163.689  1.00  0.00     0.345 HD
ATOM      4  H   UNL     1     143.869 155.763 165.192  1.00  0.00     0.345 HD
ATOM      5  H   UNL     1     143.492 154.780 163.852  1.00  0.00     0.345 HD
ENDBRANCH   1   2
BRANCH   1   6
ATOM      6  C   UNL     1     145.591 156.234 162.403  1.00  0.00     0.099 C 
ATOM      7  O   UNL     1     144.803 155.977 161.454  1.00  0.00    -0.544 OA
ATOM      8  O   UNL     1     146.639 157.123 162.195  1.00  0.00    -0.544 OA
ENDBRANCH   1   6
BRANCH   1   9
ATOM      9  C   UNL     1     146.315 156.239 164.854  1.00  0.00     0.047 C 
ATOM     10  C   UNL     1     145.520 156.601 166.117  1.00  0.00     0.014 C 
ATOM     11  C   UNL     1     147.520 155.358 165.224  1.00  0.00     0.014 C 
ENDBRANCH   1   9
TORSDOF 3
ENDMDL
MODEL 8
REMARK VINA RESULT:    -2.727     16.189     17.099
REMARK INTER + INTRA:          -3.181
REMARK INTER:                  -3.117
REMARK INTRA:                  -0.064
REMARK UNBOUND:                -0.055
REMARK SMILES CC(C)[C@@H]([NH3+])C(=O)[O-]
REMARK SMILES IDX 4 1 5 2 6 6 7 7 8 8 2 9 1 10 3 11
REMARK H PARENT 5 3 5 4 5 5
REMARK Flexibility Score: inf
ROOT
ATOM      1  C   UNL     1     144.847 139.029 148.083  1.00  0.00     0.230 C 
ENDROOT
BRANCH   1   2
ATOM      2  N   UNL     1     145.859 138.022 148.436  1.00  0.00    -0.350 N 
ATOM      3  H   UNL     1     145.696 137.154 147.874  1.00  0.00     0.345 HD
ATOM      4  H   UNL     1     145.815 137.774 149.450  1.00  0.00     0.345 HD
ATOM      5  H   UNL     1     146.814 138.379 148.208  1.00  0.00     0.345 HD
ENDBRANCH   1   2
BRANCH   1   6
ATOM      6  C   UNL     1     143.557 138.370 147.656  1.00  0.00     0.099 C 
ATOM      7  O   UNL     1     142.759 137.901 148.511  1.00  0.00    -0.544 OA
ATOM      8  O   UNL     1     143.228 138.303 146.308  1.00  0.00    -0.544 OA
ENDBRANCH   1   6
BRANCH   1   9
ATOM      9  C   UNL     1     144.643 140.069 149.227  1.00  0.00     0.047 C 
ATOM     10  C   UNL     1     145.972 140.401 149.923  1.00  0.00     0.014 C 
ATOM     11  C   UNL     1     143.950 141.363 148.769  1.00  0.00     0.014 C 
ENDBRANCH   1   9
TORSDOF 3
ENDMDL
MODEL 9
REMARK VINA RESULT:    -2.672     14.905     16.034
REMARK INTER + INTRA:          -3.117
REMARK INTER:                  -3.048
REMARK INTRA:                  -0.069
REMARK UNBOUND:                -0.055
REMARK SMILES CC(C)[C@@H]([NH3+])C(=O)[O-]
REMARK SMILES IDX 4 1 5 2 6 6 7 7 8 8 2 9 1 10 3 11
REMARK H PARENT 5 3 5 4 5 5
REMARK Flexibility Score: inf
ROOT
ATOM      1  C   UNL     1     145.286 138.972 148.921  1.00  0.00     0.230 C 
ENDROOT
BRANCH   1   2
ATOM      2  N   UNL     1     145.675 137.652 148.401  1.00  0.00    -0.350 N 
ATOM      3  H   UNL     1     144.815 137.083 148.219  1.00  0.00     0.345 HD
ATOM      4  H   UNL     1     146.278 137.135 149.080  1.00  0.00     0.345 HD
ATOM      5  H   UNL     1     146.189 137.761 147.497  1.00  0.00     0.345 HD
ENDBRANCH   1   2
BRANCH   1   6
ATOM      6  C   UNL     1     146.451 139.932 148.880  1.00  0.00     0.099 C 
ATOM      7  O   UNL     1     146.403 141.032 149.491  1.00  0.00    -0.544 OA
ATOM      8  O   UNL     1     147.604 139.589 148.184  1.00  0.00    -0.544 OA
ENDBRANCH   1   6
BRANCH   1   9
ATOM      9  C   UNL     1     144.022 139.528 148.198  1.00  0.00     0.047 C 
ATOM     10  C   UNL     1     144.365 140.048 146.793  1.00  0.00     0.014 C 
ATOM     11  C   UNL     1     142.862 138.521 148.117  1.00  0.00     0.014 C 
ENDBRANCH   1   9
TORSDOF 3
ENDMDL
