MODEL 1
REMARK VINA RESULT:    -3.992      0.000      0.000
REMARK INTER + INTRA:          -4.722
REMARK INTER:                  -4.692
REMARK INTRA:                  -0.031
REMARK UNBOUND:                -0.031
REMARK SMILES O=C([O-])CCC(=O)[O-]
REMARK SMILES IDX 4 1 2 2 1 3 3 4 5 5 6 6 7 7 8 8
REMARK H PARENT
REMARK Flexibility Score: inf
ROOT
ATOM      1  C   UNL     1       2.524   5.345  19.720  1.00  0.00     0.059 C 
ENDROOT
BRANCH   1   2
ATOM      2  C   UNL     1       2.359   3.877  19.469  1.00  0.00     0.042 C 
ATOM      3  O   UNL     1       1.578   3.196  20.184  1.00  0.00    -0.550 OA
ATOM      4  O   UNL     1       3.037   3.269  18.420  1.00  0.00    -0.550 OA
ENDBRANCH   1   2
BRANCH   1   5
ATOM      5  C   UNL     1       2.171   6.173  18.480  1.00  0.00     0.059 C 
BRANCH   5   6
ATOM      6  C   UNL     1       2.339   7.641  18.730  1.00  0.00     0.042 C 
ATOM      7  O   UNL     1       2.018   8.135  19.843  1.00  0.00    -0.550 OA
ATOM      8  O   UNL     1       2.888   8.456  17.748  1.00  0.00    -0.550 OA
ENDBRANCH   5   6
ENDBRANCH   1   5
TORSDOF 3
ENDMDL
MODEL 2
REMARK VINA RESULT:    -3.944      0.256      4.295
REMARK INTER + INTRA:          -4.666
REMARK INTER:                  -4.635
REMARK INTRA:                  -0.031
REMARK UNBOUND:                -0.031
REMARK SMILES O=C([O-])CCC(=O)[O-]
REMARK SMILES IDX 4 1 2 2 1 3 3 4 5 5 6 6 7 7 8 8
REMARK H PARENT
REMARK Flexibility Score: inf
ROOT
ATOM      1  C   UNL     1       2.225   6.233  18.307  1.00  0.00     0.059 C 
ENDROOT
BRANCH   1   2
ATOM      2  C   UNL     1       2.420   7.690  18.597  1.00  0.00     0.042 C 
ATOM      3  O   UNL     1       2.882   8.456  17.712  1.00  0.00    -0.550 OA
ATOM      4  O   UNL     1       2.051   8.209  19.832  1.00  0.00    -0.550 OA
ENDBRANCH   1   2
BRANCH   1   5
ATOM      5  C   UNL     1       2.433   5.375  19.559  1.00  0.00     0.059 C 
BRANCH   5   6
ATOM      6  C   UNL     1       2.496   3.916  19.224  1.00  0.00     0.042 C 
ATOM      7  O   UNL     1       1.868   3.077  19.923  1.00  0.00    -0.550 OA
ATOM      8  O   UNL     1       3.215   3.486  18.115  1.00  0.00    -0.550 OA
ENDBRANCH   5   6
ENDBRANCH   1   5
TORSDOF 3
ENDMDL
MODEL 3
REMARK VINA RESULT:    -3.904      1.077      4.255
REMARK INTER + INTRA:          -4.620
REMARK INTER:                  -4.580
REMARK INTRA:                  -0.039
REMARK UNBOUND:                -0.031
REMARK SMILES O=C([O-])CCC(=O)[O-]
REMARK SMILES IDX 4 1 2 2 1 3 3 4 5 5 6 6 7 7 8 8
REMARK H PARENT
REMARK Flexibility Score: inf
ROOT
ATOM      1  C   UNL     1       2.069   6.693  19.197  1.00  0.00     0.059 C 
ENDROOT
BRANCH   1   2
ATOM      2  C   UNL     1       2.302   8.148  18.929  1.00  0.00     0.042 C 
ATOM      3  O   UNL     1       2.056   9.004  19.818  1.00  0.00    -0.550 OA
ATOM      4  O   UNL     1       2.831   8.555  17.710  1.00  0.00    -0.550 OA
ENDBRANCH   1   2
BRANCH   1   5
ATOM      5  C   UNL     1       2.486   5.824  18.006  1.00  0.00     0.059 C 
BRANCH   5   6
ATOM      6  C   UNL     1       2.774   4.414  18.424  1.00  0.00     0.042 C 
ATOM      7  O   UNL     1       2.839   3.498  17.563  1.00  0.00    -0.550 OA
ATOM      8  O   UNL     1       3.011   4.120  19.761  1.00  0.00    -0.550 OA
ENDBRANCH   5   6
ENDBRANCH   1   5
TORSDOF 3
ENDMDL
MODEL 4
REMARK VINA RESULT:    -3.796      1.777      2.340
REMARK INTER + INTRA:          -4.493
REMARK INTER:                  -4.373
REMARK INTRA:                  -0.120
REMARK UNBOUND:                -0.031
REMARK SMILES O=C([O-])CCC(=O)[O-]
REMARK SMILES IDX 4 1 2 2 1 3 3 4 5 5 6 6 7 7 8 8
REMARK H PARENT
REMARK Flexibility Score: inf
ROOT
ATOM      1  C   UNL     1       2.337   3.189  19.355  1.00  0.00     0.059 C 
ENDROOT
BRANCH   1   2
ATOM      2  C   UNL     1       3.352   2.567  18.445  1.00  0.00     0.042 C 
ATOM      3  O   UNL     1       4.111   1.657  18.870  1.00  0.00    -0.550 OA
ATOM      4  O   UNL     1       3.430   2.963  17.116  1.00  0.00    -0.550 OA
ENDBRANCH   1   2
BRANCH   1   5
ATOM      5  C   UNL     1       2.803   4.554  19.872  1.00  0.00     0.059 C 
BRANCH   5   6
ATOM      6  C   UNL     1       2.094   5.678  19.180  1.00  0.00     0.042 C 
ATOM      7  O   UNL     1       2.263   6.866  19.563  1.00  0.00    -0.550 OA
ATOM      8  O   UNL     1       1.279   5.417  18.086  1.00  0.00    -0.550 OA
ENDBRANCH   5   6
ENDBRANCH   1   5
TORSDOF 3
ENDMDL
MODEL 5
REMARK VINA RESULT:    -3.648      2.583      4.035
REMARK INTER + INTRA:          -4.318
REMARK INTER:                  -4.289
REMARK INTRA:                  -0.029
REMARK UNBOUND:                -0.031
REMARK SMILES O=C([O-])CCC(=O)[O-]
REMARK SMILES IDX 4 1 2 2 1 3 3 4 5 5 6 6 7 7 8 8
REMARK H PARENT
REMARK Flexibility Score: inf
ROOT
ATOM      1  C   UNL     1       3.000   3.328  18.332  1.00  0.00     0.059 C 
ENDROOT
BRANCH   1   2
ATOM      2  C   UNL     1       2.426   3.934  19.576  1.00  0.00     0.042 C 
ATOM      3  O   UNL     1       2.757   5.096  19.926  1.00  0.00    -0.550 OA
ATOM      4  O   UNL     1       1.494   3.228  20.327  1.00  0.00    -0.550 OA
ENDBRANCH   1   2
BRANCH   1   5
ATOM      5  C   UNL     1       2.983   4.317  17.161  1.00  0.00     0.059 C 
BRANCH   5   6
ATOM      6  C   UNL     1       3.279   3.637  15.859  1.00  0.00     0.042 C 
ATOM      7  O   UNL     1       2.573   3.877  14.844  1.00  0.00    -0.550 OA
ATOM      8  O   UNL     1       4.359   2.769  15.757  1.00  0.00    -0.550 OA
ENDBRANCH   5   6
ENDBRANCH   1   5
TORSDOF 3
ENDMDL
MODEL 6
REMARK VINA RESULT:    -3.642      3.484      4.990
REMARK INTER + INTRA:          -4.311
REMARK INTER:                  -4.280
REMARK INTRA:                  -0.032
REMARK UNBOUND:                -0.031
REMARK SMILES O=C([O-])CCC(=O)[O-]
REMARK SMILES IDX 4 1 2 2 1 3 3 4 5 5 6 6 7 7 8 8
REMARK H PARENT
REMARK Flexibility Score: inf
ROOT
ATOM      1  C   UNL     1       4.118   7.772  16.355  1.00  0.00     0.059 C 
ENDROOT
BRANCH   1   2
ATOM      2  C   UNL     1       5.101   8.008  15.249  1.00  0.00     0.042 C 
ATOM      3  O   UNL     1       6.134   7.295  15.157  1.00  0.00    -0.550 OA
ATOM      4  O   UNL     1       4.854   8.988  14.296  1.00  0.00    -0.550 OA
ENDBRANCH   1   2
BRANCH   1   5
ATOM      5  C   UNL     1       3.695   9.084  17.025  1.00  0.00     0.059 C 
BRANCH   5   6
ATOM      6  C   UNL     1       2.636   8.859  18.060  1.00  0.00     0.042 C 
ATOM      7  O   UNL     1       1.977   9.832  18.515  1.00  0.00    -0.550 OA
ATOM      8  O   UNL     1       2.349   7.571  18.494  1.00  0.00    -0.550 OA
ENDBRANCH   5   6
ENDBRANCH   1   5
TORSDOF 3
ENDMDL
MODEL 7
REMARK VINA RESULT:    -3.613      2.519      3.984
REMARK INTER + INTRA:          -4.277
REMARK INTER:                  -4.248
REMARK INTRA:                  -0.029
REMARK UNBOUND:                -0.031
REMARK SMILES O=C([O-])CCC(=O)[O-]
REMARK SMILES IDX 4 1 2 2 1 3 3 4 5 5 6 6 7 7 8 8
REMARK H PARENT
REMARK Flexibility Score: inf
ROOT
ATOM      1  C   UNL     1       2.953   4.405  17.090  1.00  0.00     0.059 C 
ENDROOT
BRANCH   1   2
ATOM      2  C   UNL     1       3.268   3.710  15.801  1.00  0.00     0.042 C 
ATOM      3  O   UNL     1       2.530   3.877  14.795  1.00  0.00    -0.550 OA
ATOM      4  O   UNL     1       4.400   2.911  15.700  1.00  0.00    -0.550 OA
ENDBRANCH   1   2
BRANCH   1   5
ATOM      5  C   UNL     1       2.967   3.434  18.275  1.00  0.00     0.059 C 
BRANCH   5   6
ATOM      6  C   UNL     1       2.393   4.060  19.509  1.00  0.00     0.042 C 
ATOM      7  O   UNL     1       2.720   5.231  19.838  1.00  0.00    -0.550 OA
ATOM      8  O   UNL     1       1.464   3.365  20.275  1.00  0.00    -0.550 OA
ENDBRANCH   5   6
ENDBRANCH   1   5
TORSDOF 3
ENDMDL
MODEL 8
REMARK VINA RESULT:    -3.609      2.591      3.881
REMARK INTER + INTRA:          -4.272
REMARK INTER:                  -4.244
REMARK INTRA:                  -0.028
REMARK UNBOUND:                -0.031
REMARK SMILES O=C([O-])CCC(=O)[O-]
REMARK SMILES IDX 4 1 2 2 1 3 3 4 5 5 6 6 7 7 8 8
REMARK H PARENT
REMARK Flexibility Score: inf
ROOT
ATOM      1  C   UNL     1       3.041   3.569  17.296  1.00  0.00     0.059 C 
ENDROOT
BRANCH   1   2
ATOM      2  C   UNL     1       3.246   2.467  16.302  1.00  0.00     0.042 C 
ATOM      3  O   UNL     1       2.594   2.455  15.225  1.00  0.00    -0.550 OA
ATOM      4  O   UNL     1       4.187   1.475  16.547  1.00  0.00    -0.550 OA
ENDBRANCH   1   2
BRANCH   1   5
ATOM      5  C   UNL     1       3.180   3.065  18.736  1.00  0.00     0.059 C 
BRANCH   5   6
ATOM      6  C   UNL     1       2.365   3.884  19.689  1.00  0.00     0.042 C 
ATOM      7  O   UNL     1       1.461   3.343  20.380  1.00  0.00    -0.550 OA
ATOM      8  O   UNL     1       2.630   5.239  19.845  1.00  0.00    -0.550 OA
ENDBRANCH   5   6
ENDBRANCH   1   5
TORSDOF 3
ENDMDL
MODEL 9
REMARK VINA RESULT:    -3.604      2.593      4.179
REMARK INTER + INTRA:          -4.267
REMARK INTER:                  -4.237
REMARK INTRA:                  -0.030
REMARK UNBOUND:                -0.031
REMARK SMILES O=C([O-])CCC(=O)[O-]
REMARK SMILES IDX 4 1 2 2 1 3 3 4 5 5 6 6 7 7 8 8
REMARK H PARENT
REMARK Flexibility Score: inf
ROOT
ATOM      1  C   UNL     1       3.086   3.149  18.529  1.00  0.00     0.059 C 
ENDROOT
BRANCH   1   2
ATOM      2  C   UNL     1       2.376   3.885  19.625  1.00  0.00     0.042 C 
ATOM      3  O   UNL     1       1.525   3.292  20.338  1.00  0.00    -0.550 OA
ATOM      4  O   UNL     1       2.686   5.214  19.884  1.00  0.00    -0.550 OA
ENDBRANCH   1   2
BRANCH   1   5
ATOM      5  C   UNL     1       2.997   3.898  17.195  1.00  0.00     0.059 C 
BRANCH   5   6
ATOM      6  C   UNL     1       3.325   3.006  16.038  1.00  0.00     0.042 C 
ATOM      7  O   UNL     1       2.572   2.039  15.749  1.00  0.00    -0.550 OA
ATOM      8  O   UNL     1       4.442   3.266  15.252  1.00  0.00    -0.550 OA
ENDBRANCH   5   6
ENDBRANCH   1   5
TORSDOF 3
ENDMDL
