MODEL 1
REMARK VINA RESULT:    33.208      0.000      0.000
REMARK INTER + INTRA:          39.143
REMARK INTER:                  39.032
REMARK INTRA:                   0.110
REMARK UNBOUND:                 0.110
REMARK SMILES O=c1c(O)c(-c2ccc(O)cc2)oc2cc(O)cc(O)c12
REMARK SMILES IDX 5 1 3 2 2 3 1 4 21 5 19 6 18 7 16 8 15 9 14 10 13 11 6 12
REMARK SMILES IDX 7 13 8 14 9 15 12 16 11 17 10 18 4 20 20 22 17 24
REMARK H PARENT 10 19 4 21 20 23 17 25
REMARK Flexibility Score: inf
ROOT
ATOM      1  C   UNL     1      12.051  -1.999 -11.753  1.00  0.00     0.180 A 
ATOM      2  C   UNL     1      10.747  -2.522 -11.698  1.00  0.00     0.208 A 
ATOM      3  C   UNL     1      10.405  -3.388 -10.646  1.00  0.00     0.238 A 
ATOM      4  O   UNL     1       9.261  -3.911 -10.644  1.00  0.00    -0.285 OA
ATOM      5  C   UNL     1      11.352  -3.674  -9.632  1.00  0.00     0.111 A 
ATOM      6  C   UNL     1      11.100  -4.502  -8.496  1.00  0.00     0.134 A 
ATOM      7  C   UNL     1      12.146  -4.801  -7.614  1.00  0.00     0.093 A 
ATOM      8  C   UNL     1      13.415  -4.252  -7.789  1.00  0.00     0.123 A 
ATOM      9  C   UNL     1      13.658  -3.399  -8.865  1.00  0.00     0.094 A 
ATOM     10  C   UNL     1      12.646  -3.112  -9.784  1.00  0.00     0.146 A 
ATOM     11  O   UNL     1      12.926  -2.312 -10.806  1.00  0.00    -0.452 OA
ENDROOT
BRANCH   1  12
ATOM     12  C   UNL     1      12.491  -1.093 -12.838  1.00  0.00     0.021 A 
ATOM     13  C   UNL     1      11.684   0.001 -13.194  1.00  0.00     0.016 A 
ATOM     14  C   UNL     1      12.090   0.883 -14.200  1.00  0.00     0.047 A 
ATOM     15  C   UNL     1      13.316   0.691 -14.852  1.00  0.00     0.115 A 
ATOM     16  C   UNL     1      13.729  -1.267 -13.483  1.00  0.00     0.016 A 
ATOM     17  C   UNL     1      14.134  -0.383 -14.489  1.00  0.00     0.047 A 
BRANCH  15  18
ATOM     18  O   UNL     1      13.731   1.563 -15.856  1.00  0.00    -0.508 OA
ATOM     19  H   UNL     1      13.697   1.299 -16.834  1.00  0.00     0.293 HD
ENDBRANCH  15  18
ENDBRANCH   1  12
BRANCH   2  20
ATOM     20  O   UNL     1       9.804  -2.166 -12.666  1.00  0.00    -0.502 OA
ATOM     21  H   UNL     1       8.919  -1.734 -12.430  1.00  0.00     0.293 HD
ENDBRANCH   2  20
BRANCH   6  22
ATOM     22  O   UNL     1       9.846  -5.032  -8.176  1.00  0.00    -0.507 OA
ATOM     23  H   UNL     1       9.218  -5.467  -8.834  1.00  0.00     0.293 HD
ENDBRANCH   6  22
BRANCH   8  24
ATOM     24  O   UNL     1      14.427  -4.559  -6.881  1.00  0.00    -0.508 OA
ATOM     25  H   UNL     1      15.047  -3.844  -6.518  1.00  0.00     0.293 HD
ENDBRANCH   8  24
TORSDOF 5
ENDMDL
