MODEL 1
REMARK VINA RESULT:    -2.674      0.000      0.000
REMARK INTER + INTRA:          -6.421
REMARK INTER:                  -5.176
REMARK INTRA:                  -1.246
REMARK UNBOUND:                -1.246
REMARK SMILES CCCCCCCCCCCCCCCCCC(=O)[O-]
REMARK SMILES IDX 10 1 11 2 12 3 13 4 14 5 15 6 16 7 17 8 18 9 19 10 20 11
REMARK SMILES IDX 9 12 8 13 7 14 6 15 5 16 4 17 3 18 2 19 1 20
REMARK H PARENT
REMARK Flexibility Score: inf
ROOT
ATOM      1  C   UNL     1       4.909   8.491   4.289  1.00  0.00     0.000 C 
ENDROOT
BRANCH   1   2
ATOM      2  C   UNL     1       3.386   8.394   4.471  1.00  0.00     0.000 C 
BRANCH   2   3
ATOM      3  C   UNL     1       2.687   9.761   4.360  1.00  0.00     0.000 C 
BRANCH   3   4
ATOM      4  C   UNL     1       1.452   9.720   3.446  1.00  0.00     0.000 C 
BRANCH   4   5
ATOM      5  C   UNL     1       1.416   8.463   2.559  1.00  0.00     0.000 C 
BRANCH   5   6
ATOM      6  C   UNL     1       0.003   7.874   2.415  1.00  0.00     0.000 C 
BRANCH   6   7
ATOM      7  C   UNL     1      -0.468   7.089   3.658  1.00  0.00     0.006 C 
BRANCH   7   8
ATOM      8  C   UNL     1      -0.933   5.671   3.307  1.00  0.00     0.053 C 
BRANCH   8   9
ATOM      9  C   UNL     1      -0.348   4.676   4.258  1.00  0.00     0.041 C 
ATOM     10  O   UNL     1       0.840   4.802   4.657  1.00  0.00    -0.550 OA
ATOM     11  O   UNL     1      -1.125   3.627   4.736  1.00  0.00    -0.550 OA
ENDBRANCH   8   9
ENDBRANCH   7   8
ENDBRANCH   6   7
ENDBRANCH   5   6
ENDBRANCH   4   5
ENDBRANCH   3   4
ENDBRANCH   2   3
ENDBRANCH   1   2
BRANCH   1  12
ATOM     12  C   UNL     1       5.607   7.125   4.412  1.00  0.00     0.000 C 
BRANCH  12  13
ATOM     13  C   UNL     1       5.452   6.265   3.148  1.00  0.00    -0.000 C 
BRANCH  13  14
ATOM     14  C   UNL     1       6.009   6.957   1.892  1.00  0.00    -0.000 C 
BRANCH  14  15
ATOM     15  C   UNL     1       7.522   7.222   1.995  1.00  0.00    -0.000 C 
BRANCH  15  16
ATOM     16  C   UNL     1       7.864   8.718   1.888  1.00  0.00    -0.000 C 
BRANCH  16  17
ATOM     17  C   UNL     1       9.300   9.026   2.346  1.00  0.00    -0.000 C 
BRANCH  17  18
ATOM     18  C   UNL     1      10.213   7.792   2.279  1.00  0.00    -0.000 C 
BRANCH  18  19
ATOM     19  C   UNL     1      11.686   8.206   2.171  1.00  0.00    -0.003 C 
ATOM     20  C   UNL     1      11.839   9.724   2.227  1.00  0.00     0.004 C 
ENDBRANCH  18  19
ENDBRANCH  17  18
ENDBRANCH  16  17
ENDBRANCH  15  16
ENDBRANCH  14  15
ENDBRANCH  13  14
ENDBRANCH  12  13
ENDBRANCH   1  12
TORSDOF 16
ENDMDL
MODEL 2
REMARK VINA RESULT:    -0.531      3.013      7.487
REMARK INTER + INTRA:          -2.273
REMARK INTER:                  -1.562
REMARK INTRA:                  -0.711
REMARK UNBOUND:                -1.246
REMARK SMILES CCCCCCCCCCCCCCCCCC(=O)[O-]
REMARK SMILES IDX 10 1 11 2 12 3 13 4 14 5 15 6 16 7 17 8 18 9 19 10 20 11
REMARK SMILES IDX 9 12 8 13 7 14 6 15 5 16 4 17 3 18 2 19 1 20
REMARK H PARENT
REMARK Flexibility Score: inf
ROOT
ATOM      1  C   UNL     1       4.157   8.296   2.030  1.00  0.00     0.000 C 
ENDROOT
BRANCH   1   2
ATOM      2  C   UNL     1       5.138   9.478   2.086  1.00  0.00     0.000 C 
BRANCH   2   3
ATOM      3  C   UNL     1       6.569   9.044   2.451  1.00  0.00     0.000 C 
BRANCH   3   4
ATOM      4  C   UNL     1       6.887   7.612   1.992  1.00  0.00     0.000 C 
BRANCH   4   5
ATOM      5  C   UNL     1       6.831   6.596   3.146  1.00  0.00     0.000 C 
BRANCH   5   6
ATOM      6  C   UNL     1       5.405   6.100   3.437  1.00  0.00     0.000 C 
BRANCH   6   7
ATOM      7  C   UNL     1       5.325   4.587   3.726  1.00  0.00     0.006 C 
BRANCH   7   8
ATOM      8  C   UNL     1       5.152   3.759   2.447  1.00  0.00     0.053 C 
BRANCH   8   9
ATOM      9  C   UNL     1       5.993   2.523   2.502  1.00  0.00     0.041 C 
ATOM     10  O   UNL     1       5.568   1.492   3.087  1.00  0.00    -0.550 OA
ATOM     11  O   UNL     1       7.233   2.495   1.875  1.00  0.00    -0.550 OA
ENDBRANCH   8   9
ENDBRANCH   7   8
ENDBRANCH   6   7
ENDBRANCH   5   6
ENDBRANCH   4   5
ENDBRANCH   3   4
ENDBRANCH   2   3
ENDBRANCH   1   2
BRANCH   1  12
ATOM     12  C   UNL     1       2.707   8.717   2.328  1.00  0.00     0.000 C 
BRANCH  12  13
ATOM     13  C   UNL     1       2.617  10.100   2.995  1.00  0.00    -0.000 C 
BRANCH  13  14
ATOM     14  C   UNL     1       2.545  10.010   4.529  1.00  0.00    -0.000 C 
BRANCH  14  15
ATOM     15  C   UNL     1       1.437   9.055   5.006  1.00  0.00    -0.000 C 
BRANCH  15  16
ATOM     16  C   UNL     1       0.029   9.650   4.821  1.00  0.00    -0.000 C 
BRANCH  16  17
ATOM     17  C   UNL     1      -0.696   9.069   3.596  1.00  0.00    -0.000 C 
BRANCH  17  18
ATOM     18  C   UNL     1      -1.071   7.591   3.783  1.00  0.00    -0.000 C 
BRANCH  18  19
ATOM     19  C   UNL     1      -0.566   6.745   2.606  1.00  0.00    -0.003 C 
ATOM     20  C   UNL     1      -0.361   5.289   3.020  1.00  0.00     0.004 C 
ENDBRANCH  18  19
ENDBRANCH  17  18
ENDBRANCH  16  17
ENDBRANCH  15  16
ENDBRANCH  14  15
ENDBRANCH  13  14
ENDBRANCH  12  13
ENDBRANCH   1  12
TORSDOF 16
ENDMDL
MODEL 3
REMARK VINA RESULT:     0.136      4.035      8.742
REMARK INTER + INTRA:          -0.983
REMARK INTER:                  -0.799
REMARK INTRA:                  -0.184
REMARK UNBOUND:                -1.246
REMARK SMILES CCCCCCCCCCCCCCCCCC(=O)[O-]
REMARK SMILES IDX 10 1 11 2 12 3 13 4 14 5 15 6 16 7 17 8 18 9 19 10 20 11
REMARK SMILES IDX 9 12 8 13 7 14 6 15 5 16 4 17 3 18 2 19 1 20
REMARK H PARENT
REMARK Flexibility Score: inf
ROOT
ATOM      1  C   UNL     1       6.063   8.075   4.277  1.00  0.00     0.000 C 
ENDROOT
BRANCH   1   2
ATOM      2  C   UNL     1       5.891   6.617   4.728  1.00  0.00     0.000 C 
BRANCH   2   3
ATOM      3  C   UNL     1       5.050   5.786   3.741  1.00  0.00     0.000 C 
BRANCH   3   4
ATOM      4  C   UNL     1       5.680   5.719   2.341  1.00  0.00     0.000 C 
BRANCH   4   5
ATOM      5  C   UNL     1       6.935   6.600   2.216  1.00  0.00     0.000 C 
BRANCH   5   6
ATOM      6  C   UNL     1       8.199   5.794   1.875  1.00  0.00     0.000 C 
BRANCH   6   7
ATOM      7  C   UNL     1       9.494   6.634   1.904  1.00  0.00     0.006 C 
BRANCH   7   8
ATOM      8  C   UNL     1       9.208   8.139   1.988  1.00  0.00     0.053 C 
BRANCH   8   9
ATOM      9  C   UNL     1      10.423   8.879   2.449  1.00  0.00     0.041 C 
ATOM     10  O   UNL     1      10.510  10.124   2.278  1.00  0.00    -0.550 OA
ATOM     11  O   UNL     1      11.446   8.202   3.103  1.00  0.00    -0.550 OA
ENDBRANCH   8   9
ENDBRANCH   7   8
ENDBRANCH   6   7
ENDBRANCH   5   6
ENDBRANCH   4   5
ENDBRANCH   3   4
ENDBRANCH   2   3
ENDBRANCH   1   2
BRANCH   1  12
ATOM     12  C   UNL     1       4.733   8.725   3.858  1.00  0.00     0.000 C 
BRANCH  12  13
ATOM     13  C   UNL     1       3.619   8.516   4.897  1.00  0.00    -0.000 C 
BRANCH  13  14
ATOM     14  C   UNL     1       2.226   8.864   4.345  1.00  0.00    -0.000 C 
BRANCH  14  15
ATOM     15  C   UNL     1       1.843   7.994   3.135  1.00  0.00    -0.000 C 
BRANCH  15  16
ATOM     16  C   UNL     1       0.338   8.054   2.821  1.00  0.00    -0.000 C 
BRANCH  16  17
ATOM     17  C   UNL     1      -0.490   7.143   3.744  1.00  0.00    -0.000 C 
BRANCH  17  18
ATOM     18  C   UNL     1      -1.019   5.898   3.016  1.00  0.00    -0.000 C 
BRANCH  18  19
ATOM     19  C   UNL     1      -0.817   4.638   3.869  1.00  0.00    -0.003 C 
ATOM     20  C   UNL     1       0.452   4.740   4.712  1.00  0.00     0.004 C 
ENDBRANCH  18  19
ENDBRANCH  17  18
ENDBRANCH  16  17
ENDBRANCH  15  16
ENDBRANCH  14  15
ENDBRANCH  13  14
ENDBRANCH  12  13
ENDBRANCH   1  12
TORSDOF 16
ENDMDL
