MODEL 1
REMARK VINA RESULT:    -3.650      0.000      0.000
REMARK INTER + INTRA:          -4.083
REMARK INTER:                  -4.076
REMARK INTRA:                  -0.007
REMARK UNBOUND:                -0.007
REMARK SMILES CCCC(=O)[O-]
REMARK SMILES IDX 3 1 4 2 5 3 6 4 2 5 1 6
REMARK H PARENT
REMARK Flexibility Score: inf
ROOT
ATOM      1  C   UNL     1     -25.704   5.181  -3.993  1.00  0.00     0.052 C 
ENDROOT
BRANCH   1   2
ATOM      2  C   UNL     1     -25.005   6.417  -4.472  1.00  0.00     0.041 C 
ATOM      3  O   UNL     1     -25.636   7.289  -5.124  1.00  0.00    -0.550 OA
ATOM      4  O   UNL     1     -23.665   6.621  -4.169  1.00  0.00    -0.550 OA
ENDBRANCH   1   2
BRANCH   1   5
ATOM      5  C   UNL     1     -26.749   5.500  -2.917  1.00  0.00     0.003 C 
ATOM      6  C   UNL     1     -26.746   4.477  -1.781  1.00  0.00     0.004 C 
ENDBRANCH   1   5
TORSDOF 2
ENDMDL
MODEL 2
REMARK VINA RESULT:    -3.549     14.750     15.952
REMARK INTER + INTRA:          -3.971
REMARK INTER:                  -3.960
REMARK INTRA:                  -0.011
REMARK UNBOUND:                -0.007
REMARK SMILES CCCC(=O)[O-]
REMARK SMILES IDX 3 1 4 2 5 3 6 4 2 5 1 6
REMARK H PARENT
REMARK Flexibility Score: inf
ROOT
ATOM      1  C   UNL     1     -20.424  -0.638   9.133  1.00  0.00     0.052 C 
ENDROOT
BRANCH   1   2
ATOM      2  C   UNL     1     -19.912  -1.810   9.914  1.00  0.00     0.041 C 
ATOM      3  O   UNL     1     -19.995  -1.820  11.170  1.00  0.00    -0.550 OA
ATOM      4  O   UNL     1     -19.373  -2.906   9.252  1.00  0.00    -0.550 OA
ENDBRANCH   1   2
BRANCH   1   5
ATOM      5  C   UNL     1     -20.426  -0.917   7.625  1.00  0.00     0.003 C 
ATOM      6  C   UNL     1     -20.429   0.367   6.795  1.00  0.00     0.004 C 
ENDBRANCH   1   5
TORSDOF 2
ENDMDL
MODEL 3
REMARK VINA RESULT:    -3.543     14.827     16.030
REMARK INTER + INTRA:          -3.964
REMARK INTER:                  -3.950
REMARK INTRA:                  -0.014
REMARK UNBOUND:                -0.007
REMARK SMILES CCCC(=O)[O-]
REMARK SMILES IDX 3 1 4 2 5 3 6 4 2 5 1 6
REMARK H PARENT
REMARK Flexibility Score: inf
ROOT
ATOM      1  C   UNL     1     -20.398  -0.695   9.152  1.00  0.00     0.052 C 
ENDROOT
BRANCH   1   2
ATOM      2  C   UNL     1     -19.915  -1.869   9.949  1.00  0.00     0.041 C 
ATOM      3  O   UNL     1     -19.376  -2.848   9.370  1.00  0.00    -0.550 OA
ATOM      4  O   UNL     1     -20.030  -1.866  11.333  1.00  0.00    -0.550 OA
ENDBRANCH   1   2
BRANCH   1   5
ATOM      5  C   UNL     1     -20.410  -0.994   7.648  1.00  0.00     0.003 C 
ATOM      6  C   UNL     1     -20.352   0.277   6.801  1.00  0.00     0.004 C 
ENDBRANCH   1   5
TORSDOF 2
ENDMDL
MODEL 4
REMARK VINA RESULT:    -3.539     13.795     14.821
REMARK INTER + INTRA:          -3.960
REMARK INTER:                  -3.944
REMARK INTRA:                  -0.016
REMARK UNBOUND:                -0.007
REMARK SMILES CCCC(=O)[O-]
REMARK SMILES IDX 3 1 4 2 5 3 6 4 2 5 1 6
REMARK H PARENT
REMARK Flexibility Score: inf
ROOT
ATOM      1  C   UNL     1     -20.745   0.409   9.309  1.00  0.00     0.052 C 
ENDROOT
BRANCH   1   2
ATOM      2  C   UNL     1     -21.399   1.514  10.081  1.00  0.00     0.041 C 
ATOM      3  O   UNL     1     -21.871   2.514   9.480  1.00  0.00    -0.550 OA
ATOM      4  O   UNL     1     -21.518   1.423  11.462  1.00  0.00    -0.550 OA
ENDBRANCH   1   2
BRANCH   1   5
ATOM      5  C   UNL     1     -20.370   0.852   7.890  1.00  0.00     0.003 C 
ATOM      6  C   UNL     1     -20.338  -0.317   6.905  1.00  0.00     0.004 C 
ENDBRANCH   1   5
TORSDOF 2
ENDMDL
MODEL 5
REMARK VINA RESULT:    -3.490      2.047      3.128
REMARK INTER + INTRA:          -3.905
REMARK INTER:                  -3.892
REMARK INTRA:                  -0.013
REMARK UNBOUND:                -0.007
REMARK SMILES CCCC(=O)[O-]
REMARK SMILES IDX 3 1 4 2 5 3 6 4 2 5 1 6
REMARK H PARENT
REMARK Flexibility Score: inf
ROOT
ATOM      1  C   UNL     1     -25.316   5.411  -4.261  1.00  0.00     0.052 C 
ENDROOT
BRANCH   1   2
ATOM      2  C   UNL     1     -26.545   5.614  -3.428  1.00  0.00     0.041 C 
ATOM      3  O   UNL     1     -27.438   6.419  -3.802  1.00  0.00    -0.550 OA
ATOM      4  O   UNL     1     -26.719   4.890  -2.255  1.00  0.00    -0.550 OA
ENDBRANCH   1   2
BRANCH   1   5
ATOM      5  C   UNL     1     -24.687   6.744  -4.682  1.00  0.00     0.003 C 
ATOM      6  C   UNL     1     -23.262   6.908  -4.155  1.00  0.00     0.004 C 
ENDBRANCH   1   5
TORSDOF 2
ENDMDL
MODEL 6
REMARK VINA RESULT:    -3.394     13.613     14.416
REMARK INTER + INTRA:          -3.797
REMARK INTER:                  -3.789
REMARK INTRA:                  -0.009
REMARK UNBOUND:                -0.007
REMARK SMILES CCCC(=O)[O-]
REMARK SMILES IDX 3 1 4 2 5 3 6 4 2 5 1 6
REMARK H PARENT
REMARK Flexibility Score: inf
ROOT
ATOM      1  C   UNL     1     -20.459  -0.080   8.995  1.00  0.00     0.052 C 
ENDROOT
BRANCH   1   2
ATOM      2  C   UNL     1     -20.434  -0.467   7.548  1.00  0.00     0.041 C 
ATOM      3  O   UNL     1     -20.271  -1.671   7.217  1.00  0.00    -0.550 OA
ATOM      4  O   UNL     1     -20.625   0.497   6.566  1.00  0.00    -0.550 OA
ENDBRANCH   1   2
BRANCH   1   5
ATOM      5  C   UNL     1     -21.096   1.299   9.204  1.00  0.00     0.003 C 
ATOM      6  C   UNL     1     -21.537   1.524  10.651  1.00  0.00     0.004 C 
ENDBRANCH   1   5
TORSDOF 2
ENDMDL
MODEL 7
REMARK VINA RESULT:    -3.386     13.787     14.903
REMARK INTER + INTRA:          -3.788
REMARK INTER:                  -3.780
REMARK INTRA:                  -0.008
REMARK UNBOUND:                -0.007
REMARK SMILES CCCC(=O)[O-]
REMARK SMILES IDX 3 1 4 2 5 3 6 4 2 5 1 6
REMARK H PARENT
REMARK Flexibility Score: inf
ROOT
ATOM      1  C   UNL     1     -20.370  -0.427   8.281  1.00  0.00     0.052 C 
ENDROOT
BRANCH   1   2
ATOM      2  C   UNL     1     -20.738   1.018   8.429  1.00  0.00     0.041 C 
ATOM      3  O   UNL     1     -20.557   1.819   7.474  1.00  0.00    -0.550 OA
ATOM      4  O   UNL     1     -21.312   1.474   9.609  1.00  0.00    -0.550 OA
ENDBRANCH   1   2
BRANCH   1   5
ATOM      5  C   UNL     1     -20.252  -1.125   9.640  1.00  0.00     0.003 C 
ATOM      6  C   UNL     1     -19.561  -2.485   9.539  1.00  0.00     0.004 C 
ENDBRANCH   1   5
TORSDOF 2
ENDMDL
MODEL 8
REMARK VINA RESULT:    -3.003     14.023     14.986
REMARK INTER + INTRA:          -3.360
REMARK INTER:                  -3.349
REMARK INTRA:                  -0.012
REMARK UNBOUND:                -0.007
REMARK SMILES CCCC(=O)[O-]
REMARK SMILES IDX 3 1 4 2 5 3 6 4 2 5 1 6
REMARK H PARENT
REMARK Flexibility Score: inf
ROOT
ATOM      1  C   UNL     1     -20.743   0.462   9.491  1.00  0.00     0.052 C 
ENDROOT
BRANCH   1   2
ATOM      2  C   UNL     1     -20.355  -0.877   8.942  1.00  0.00     0.041 C 
ATOM      3  O   UNL     1     -20.463  -1.113   7.710  1.00  0.00    -0.550 OA
ATOM      4  O   UNL     1     -19.840  -1.854   9.785  1.00  0.00    -0.550 OA
ENDBRANCH   1   2
BRANCH   1   5
ATOM      5  C   UNL     1     -20.881   1.513   8.383  1.00  0.00     0.003 C 
ATOM      6  C   UNL     1     -21.586   2.780   8.866  1.00  0.00     0.004 C 
ENDBRANCH   1   5
TORSDOF 2
ENDMDL
MODEL 9
REMARK VINA RESULT:    -2.917     14.003     14.868
REMARK INTER + INTRA:          -3.264
REMARK INTER:                  -3.227
REMARK INTRA:                  -0.037
REMARK UNBOUND:                -0.007
REMARK SMILES CCCC(=O)[O-]
REMARK SMILES IDX 3 1 4 2 5 3 6 4 2 5 1 6
REMARK H PARENT
REMARK Flexibility Score: inf
ROOT
ATOM      1  C   UNL     1     -11.690  10.387  -2.508  1.00  0.00     0.052 C 
ENDROOT
BRANCH   1   2
ATOM      2  C   UNL     1     -11.646  10.162  -1.027  1.00  0.00     0.041 C 
ATOM      3  O   UNL     1     -10.661   9.577  -0.504  1.00  0.00    -0.550 OA
ATOM      4  O   UNL     1     -12.676  10.630  -0.221  1.00  0.00    -0.550 OA
ENDBRANCH   1   2
BRANCH   1   5
ATOM      5  C   UNL     1     -11.052   9.225  -3.279  1.00  0.00     0.003 C 
ATOM      6  C   UNL     1     -12.084   8.196  -3.741  1.00  0.00     0.004 C 
ENDBRANCH   1   5
TORSDOF 2
ENDMDL
