MODEL 1
REMARK VINA RESULT:    -3.612      0.000      0.000
REMARK INTER + INTRA:         -15.068
REMARK INTER:                  -9.420
REMARK INTRA:                  -5.648
REMARK UNBOUND:                -5.648
REMARK SMILES CCCCCCCCCCCCCCCCCCCCCCCCCCCCCO
REMARK SMILES IDX 16 1 15 2 14 3 13 4 12 5 11 6 10 7 9 8 8 9 7 10 6 11 5 12
REMARK SMILES IDX 4 13 3 14 2 15 1 16 17 17 18 18 19 19 20 20 21 21 22 22
REMARK SMILES IDX 23 23 24 24 25 25 26 26 27 27 28 28 29 29 30 30
REMARK H PARENT 30 31
REMARK Flexibility Score: inf
ROOT
ATOM      1  C   UNL     1     165.079 174.268 150.648  1.00  0.00     0.000 C 
ENDROOT
BRANCH   1   2
ATOM      2  C   UNL     1     165.863 174.475 149.340  1.00  0.00     0.000 C 
BRANCH   2   3
ATOM      3  C   UNL     1     167.247 175.108 149.564  1.00  0.00     0.000 C 
BRANCH   3   4
ATOM      4  C   UNL     1     167.214 176.647 149.542  1.00  0.00     0.000 C 
BRANCH   4   5
ATOM      5  C   UNL     1     167.127 177.319 150.926  1.00  0.00     0.000 C 
BRANCH   5   6
ATOM      6  C   UNL     1     168.133 176.743 151.937  1.00  0.00     0.000 C 
BRANCH   6   7
ATOM      7  C   UNL     1     167.845 177.199 153.383  1.00  0.00     0.000 C 
BRANCH   7   8
ATOM      8  C   UNL     1     166.425 177.759 153.586  1.00  0.00    -0.000 C 
BRANCH   8   9
ATOM      9  C   UNL     1     165.846 177.573 155.003  1.00  0.00    -0.000 C 
BRANCH   9  10
ATOM     10  C   UNL     1     164.308 177.591 155.082  1.00  0.00    -0.000 C 
BRANCH  10  11
ATOM     11  C   UNL     1     163.751 176.607 156.126  1.00  0.00    -0.000 C 
BRANCH  11  12
ATOM     12  C   UNL     1     162.599 175.752 155.564  1.00  0.00    -0.000 C 
BRANCH  12  13
ATOM     13  C   UNL     1     162.862 174.236 155.625  1.00  0.00    -0.000 C 
BRANCH  13  14
ATOM     14  C   UNL     1     163.810 173.760 154.510  1.00  0.00    -0.000 C 
BRANCH  14  15
ATOM     15  C   UNL     1     165.213 173.424 155.040  1.00  0.00    -0.003 C 
ATOM     16  C   UNL     1     166.325 173.962 154.138  1.00  0.00     0.004 C 
ENDBRANCH  14  15
ENDBRANCH  13  14
ENDBRANCH  12  13
ENDBRANCH  11  12
ENDBRANCH  10  11
ENDBRANCH   9  10
ENDBRANCH   8   9
ENDBRANCH   7   8
ENDBRANCH   6   7
ENDBRANCH   5   6
ENDBRANCH   4   5
ENDBRANCH   3   4
ENDBRANCH   2   3
ENDBRANCH   1   2
BRANCH   1  17
ATOM     17  C   UNL     1     163.762 175.066 150.767  1.00  0.00     0.000 C 
BRANCH  17  18
ATOM     18  C   UNL     1     163.782 176.216 151.791  1.00  0.00     0.000 C 
BRANCH  18  19
ATOM     19  C   UNL     1     163.369 177.564 151.178  1.00  0.00     0.000 C 
BRANCH  19  20
ATOM     20  C   UNL     1     161.844 177.784 151.175  1.00  0.00     0.000 C 
BRANCH  20  21
ATOM     21  C   UNL     1     161.177 177.796 152.565  1.00  0.00     0.000 C 
BRANCH  21  22
ATOM     22  C   UNL     1     160.243 176.604 152.854  1.00  0.00     0.000 C 
BRANCH  22  23
ATOM     23  C   UNL     1     159.664 175.912 151.603  1.00  0.00     0.000 C 
BRANCH  23  24
ATOM     24  C   UNL     1     159.821 174.379 151.572  1.00  0.00     0.000 C 
BRANCH  24  25
ATOM     25  C   UNL     1     160.819 173.801 152.591  1.00  0.00     0.000 C 
BRANCH  25  26
ATOM     26  C   UNL     1     160.715 172.273 152.730  1.00  0.00     0.000 C 
BRANCH  26  27
ATOM     27  C   UNL     1     161.753 171.533 151.869  1.00  0.00     0.002 C 
BRANCH  27  28
ATOM     28  C   UNL     1     161.102 170.612 150.826  1.00  0.00     0.028 C 
BRANCH  28  29
ATOM     29  C   UNL     1     159.581 170.757 150.837  1.00  0.00     0.156 C 
BRANCH  29  30
ATOM     30  O   UNL     1     159.098 170.705 149.525  1.00  0.00    -0.396 OA
ATOM     31  H   UNL     1     159.374 169.822 149.164  1.00  0.00     0.210 HD
ENDBRANCH  29  30
ENDBRANCH  28  29
ENDBRANCH  27  28
ENDBRANCH  26  27
ENDBRANCH  25  26
ENDBRANCH  24  25
ENDBRANCH  23  24
ENDBRANCH  22  23
ENDBRANCH  21  22
ENDBRANCH  20  21
ENDBRANCH  19  20
ENDBRANCH  18  19
ENDBRANCH  17  18
ENDBRANCH   1  17
TORSDOF 28
ENDMDL
MODEL 2
REMARK VINA RESULT:    -3.610      4.336      8.519
REMARK INTER + INTRA:         -15.061
REMARK INTER:                 -10.928
REMARK INTRA:                  -4.133
REMARK UNBOUND:                -5.648
REMARK SMILES CCCCCCCCCCCCCCCCCCCCCCCCCCCCCO
REMARK SMILES IDX 16 1 15 2 14 3 13 4 12 5 11 6 10 7 9 8 8 9 7 10 6 11 5 12
REMARK SMILES IDX 4 13 3 14 2 15 1 16 17 17 18 18 19 19 20 20 21 21 22 22
REMARK SMILES IDX 23 23 24 24 25 25 26 26 27 27 28 28 29 29 30 30
REMARK H PARENT 30 31
REMARK Flexibility Score: inf
ROOT
ATOM      1  C   UNL     1     166.038 174.177 151.227  1.00  0.00     0.000 C 
ENDROOT
BRANCH   1   2
ATOM      2  C   UNL     1     164.897 174.918 151.948  1.00  0.00     0.000 C 
BRANCH   2   3
ATOM      3  C   UNL     1     163.908 175.585 150.977  1.00  0.00     0.000 C 
BRANCH   3   4
ATOM      4  C   UNL     1     163.781 177.103 151.198  1.00  0.00     0.000 C 
BRANCH   4   5
ATOM      5  C   UNL     1     162.350 177.663 151.086  1.00  0.00     0.000 C 
BRANCH   5   6
ATOM      6  C   UNL     1     161.321 176.599 150.666  1.00  0.00     0.000 C 
BRANCH   6   7
ATOM      7  C   UNL     1     160.032 176.656 151.513  1.00  0.00     0.000 C 
BRANCH   7   8
ATOM      8  C   UNL     1     159.809 175.410 152.391  1.00  0.00    -0.000 C 
BRANCH   8   9
ATOM      9  C   UNL     1     161.095 174.685 152.833  1.00  0.00    -0.000 C 
BRANCH   9  10
ATOM     10  C   UNL     1     161.739 175.234 154.120  1.00  0.00    -0.000 C 
BRANCH  10  11
ATOM     11  C   UNL     1     160.816 176.195 154.889  1.00  0.00    -0.000 C 
BRANCH  11  12
ATOM     12  C   UNL     1     161.382 177.627 154.944  1.00  0.00    -0.000 C 
BRANCH  12  13
ATOM     13  C   UNL     1     162.908 177.700 154.746  1.00  0.00    -0.000 C 
BRANCH  13  14
ATOM     14  C   UNL     1     163.662 177.907 156.072  1.00  0.00    -0.000 C 
BRANCH  14  15
ATOM     15  C   UNL     1     165.186 177.824 155.895  1.00  0.00    -0.003 C 
ATOM     16  C   UNL     1     165.595 177.559 154.444  1.00  0.00     0.004 C 
ENDBRANCH  14  15
ENDBRANCH  13  14
ENDBRANCH  12  13
ENDBRANCH  11  12
ENDBRANCH  10  11
ENDBRANCH   9  10
ENDBRANCH   8   9
ENDBRANCH   7   8
ENDBRANCH   6   7
ENDBRANCH   5   6
ENDBRANCH   4   5
ENDBRANCH   3   4
ENDBRANCH   2   3
ENDBRANCH   1   2
BRANCH   1  17
ATOM     17  C   UNL     1     166.069 174.338 149.691  1.00  0.00     0.000 C 
BRANCH  17  18
ATOM     18  C   UNL     1     167.239 175.176 149.142  1.00  0.00     0.000 C 
BRANCH  18  19
ATOM     19  C   UNL     1     167.119 176.667 149.496  1.00  0.00     0.000 C 
BRANCH  19  20
ATOM     20  C   UNL     1     168.281 177.177 150.368  1.00  0.00     0.000 C 
BRANCH  20  21
ATOM     21  C   UNL     1     168.094 176.991 151.888  1.00  0.00     0.000 C 
BRANCH  21  22
ATOM     22  C   UNL     1     169.394 176.765 152.686  1.00  0.00     0.000 C 
BRANCH  22  23
ATOM     23  C   UNL     1     170.289 175.624 152.161  1.00  0.00     0.000 C 
BRANCH  23  24
ATOM     24  C   UNL     1     171.805 175.861 152.311  1.00  0.00     0.000 C 
BRANCH  24  25
ATOM     25  C   UNL     1     172.218 177.321 152.569  1.00  0.00     0.000 C 
BRANCH  25  26
ATOM     26  C   UNL     1     173.115 177.893 151.458  1.00  0.00     0.000 C 
BRANCH  26  27
ATOM     27  C   UNL     1     173.869 176.796 150.687  1.00  0.00     0.002 C 
BRANCH  27  28
ATOM     28  C   UNL     1     175.307 176.605 151.193  1.00  0.00     0.028 C 
BRANCH  28  29
ATOM     29  C   UNL     1     175.473 175.251 151.881  1.00  0.00     0.156 C 
BRANCH  29  30
ATOM     30  O   UNL     1     176.180 175.418 153.076  1.00  0.00    -0.396 OA
ATOM     31  H   UNL     1     175.683 176.102 153.598  1.00  0.00     0.210 HD
ENDBRANCH  29  30
ENDBRANCH  28  29
ENDBRANCH  27  28
ENDBRANCH  26  27
ENDBRANCH  25  26
ENDBRANCH  24  25
ENDBRANCH  23  24
ENDBRANCH  22  23
ENDBRANCH  21  22
ENDBRANCH  20  21
ENDBRANCH  19  20
ENDBRANCH  18  19
ENDBRANCH  17  18
ENDBRANCH   1  17
TORSDOF 28
ENDMDL
MODEL 3
REMARK VINA RESULT:    -3.496      6.151     10.375
REMARK INTER + INTRA:         -14.765
REMARK INTER:                 -10.498
REMARK INTRA:                  -4.268
REMARK UNBOUND:                -5.648
REMARK SMILES CCCCCCCCCCCCCCCCCCCCCCCCCCCCCO
REMARK SMILES IDX 16 1 15 2 14 3 13 4 12 5 11 6 10 7 9 8 8 9 7 10 6 11 5 12
REMARK SMILES IDX 4 13 3 14 2 15 1 16 17 17 18 18 19 19 20 20 21 21 22 22
REMARK SMILES IDX 23 23 24 24 25 25 26 26 27 27 28 28 29 29 30 30
REMARK H PARENT 30 31
REMARK Flexibility Score: inf
ROOT
ATOM      1  C   UNL     1     172.296 173.651 152.953  1.00  0.00     0.000 C 
ENDROOT
BRANCH   1   2
ATOM      2  C   UNL     1     171.354 174.155 151.844  1.00  0.00     0.000 C 
BRANCH   2   3
ATOM      3  C   UNL     1     169.886 174.233 152.295  1.00  0.00     0.000 C 
BRANCH   3   4
ATOM      4  C   UNL     1     169.591 175.467 153.169  1.00  0.00     0.000 C 
BRANCH   4   5
ATOM      5  C   UNL     1     168.603 176.479 152.559  1.00  0.00     0.000 C 
BRANCH   5   6
ATOM      6  C   UNL     1     169.089 177.058 151.218  1.00  0.00     0.000 C 
BRANCH   6   7
ATOM      7  C   UNL     1     168.005 176.999 150.121  1.00  0.00     0.000 C 
BRANCH   7   8
ATOM      8  C   UNL     1     167.127 175.735 150.183  1.00  0.00    -0.000 C 
BRANCH   8   9
ATOM      9  C   UNL     1     165.643 175.988 150.515  1.00  0.00    -0.000 C 
BRANCH   9  10
ATOM     10  C   UNL     1     165.295 177.449 150.857  1.00  0.00    -0.000 C 
BRANCH  10  11
ATOM     11  C   UNL     1     164.994 177.658 152.351  1.00  0.00    -0.000 C 
BRANCH  11  12
ATOM     12  C   UNL     1     163.484 177.622 152.652  1.00  0.00    -0.000 C 
BRANCH  12  13
ATOM     13  C   UNL     1     162.597 177.824 151.410  1.00  0.00    -0.000 C 
BRANCH  13  14
ATOM     14  C   UNL     1     161.381 176.881 151.397  1.00  0.00    -0.000 C 
BRANCH  14  15
ATOM     15  C   UNL     1     161.719 175.499 150.816  1.00  0.00    -0.003 C 
ATOM     16  C   UNL     1     161.989 174.456 151.903  1.00  0.00     0.004 C 
ENDBRANCH  14  15
ENDBRANCH  13  14
ENDBRANCH  12  13
ENDBRANCH  11  12
ENDBRANCH  10  11
ENDBRANCH   9  10
ENDBRANCH   8   9
ENDBRANCH   7   8
ENDBRANCH   6   7
ENDBRANCH   5   6
ENDBRANCH   4   5
ENDBRANCH   3   4
ENDBRANCH   2   3
ENDBRANCH   1   2
BRANCH   1  17
ATOM     17  C   UNL     1     173.804 173.742 152.635  1.00  0.00     0.000 C 
BRANCH  17  18
ATOM     18  C   UNL     1     174.156 174.475 151.327  1.00  0.00     0.000 C 
BRANCH  18  19
ATOM     19  C   UNL     1     175.480 175.251 151.420  1.00  0.00     0.000 C 
BRANCH  19  20
ATOM     20  C   UNL     1     175.316 176.760 151.162  1.00  0.00     0.000 C 
BRANCH  20  21
ATOM     21  C   UNL     1     173.962 177.181 150.553  1.00  0.00     0.000 C 
BRANCH  21  22
ATOM     22  C   UNL     1     173.112 178.119 151.432  1.00  0.00     0.000 C 
BRANCH  22  23
ATOM     23  C   UNL     1     172.497 177.460 152.683  1.00  0.00     0.000 C 
BRANCH  23  24
ATOM     24  C   UNL     1     173.163 177.843 154.020  1.00  0.00     0.000 C 
BRANCH  24  25
ATOM     25  C   UNL     1     173.460 176.666 154.966  1.00  0.00     0.000 C 
BRANCH  25  26
ATOM     26  C   UNL     1     174.956 176.320 155.038  1.00  0.00     0.000 C 
BRANCH  26  27
ATOM     27  C   UNL     1     175.242 175.140 155.983  1.00  0.00     0.002 C 
BRANCH  27  28
ATOM     28  C   UNL     1     176.730 174.759 156.013  1.00  0.00     0.028 C 
BRANCH  28  29
ATOM     29  C   UNL     1     176.917 173.255 155.813  1.00  0.00     0.156 C 
BRANCH  29  30
ATOM     30  O   UNL     1     178.081 173.024 155.073  1.00  0.00    -0.396 OA
ATOM     31  H   UNL     1     178.566 173.891 155.042  1.00  0.00     0.210 HD
ENDBRANCH  29  30
ENDBRANCH  28  29
ENDBRANCH  27  28
ENDBRANCH  26  27
ENDBRANCH  25  26
ENDBRANCH  24  25
ENDBRANCH  23  24
ENDBRANCH  22  23
ENDBRANCH  21  22
ENDBRANCH  20  21
ENDBRANCH  19  20
ENDBRANCH  18  19
ENDBRANCH  17  18
ENDBRANCH   1  17
TORSDOF 28
ENDMDL
MODEL 4
REMARK VINA RESULT:    -3.488      4.429      8.688
REMARK INTER + INTRA:         -14.742
REMARK INTER:                 -10.551
REMARK INTRA:                  -4.191
REMARK UNBOUND:                -5.648
REMARK SMILES CCCCCCCCCCCCCCCCCCCCCCCCCCCCCO
REMARK SMILES IDX 16 1 15 2 14 3 13 4 12 5 11 6 10 7 9 8 8 9 7 10 6 11 5 12
REMARK SMILES IDX 4 13 3 14 2 15 1 16 17 17 18 18 19 19 20 20 21 21 22 22
REMARK SMILES IDX 23 23 24 24 25 25 26 26 27 27 28 28 29 29 30 30
REMARK H PARENT 30 31
REMARK Flexibility Score: inf
ROOT
ATOM      1  C   UNL     1     166.379 173.594 150.327  1.00  0.00     0.000 C 
ENDROOT
BRANCH   1   2
ATOM      2  C   UNL     1     165.362 174.109 151.362  1.00  0.00     0.000 C 
BRANCH   2   3
ATOM      3  C   UNL     1     164.090 174.683 150.718  1.00  0.00     0.000 C 
BRANCH   3   4
ATOM      4  C   UNL     1     163.916 176.192 150.974  1.00  0.00     0.000 C 
BRANCH   4   5
ATOM      5  C   UNL     1     164.172 176.642 152.425  1.00  0.00     0.000 C 
BRANCH   5   6
ATOM      6  C   UNL     1     163.221 177.762 152.883  1.00  0.00     0.000 C 
BRANCH   6   7
ATOM      7  C   UNL     1     161.988 177.219 153.637  1.00  0.00     0.000 C 
BRANCH   7   8
ATOM      8  C   UNL     1     160.648 177.761 153.107  1.00  0.00    -0.000 C 
BRANCH   8   9
ATOM      9  C   UNL     1     160.527 177.815 151.572  1.00  0.00    -0.000 C 
BRANCH   9  10
ATOM     10  C   UNL     1     160.431 176.443 150.879  1.00  0.00    -0.000 C 
BRANCH  10  11
ATOM     11  C   UNL     1     159.707 175.390 151.736  1.00  0.00    -0.000 C 
BRANCH  11  12
ATOM     12  C   UNL     1     160.534 174.099 151.893  1.00  0.00    -0.000 C 
BRANCH  12  13
ATOM     13  C   UNL     1     160.949 173.799 153.345  1.00  0.00    -0.000 C 
BRANCH  13  14
ATOM     14  C   UNL     1     162.248 172.978 153.427  1.00  0.00    -0.000 C 
BRANCH  14  15
ATOM     15  C   UNL     1     163.283 173.615 154.367  1.00  0.00    -0.003 C 
ATOM     16  C   UNL     1     162.643 174.230 155.614  1.00  0.00     0.004 C 
ENDBRANCH  14  15
ENDBRANCH  13  14
ENDBRANCH  12  13
ENDBRANCH  11  12
ENDBRANCH  10  11
ENDBRANCH   9  10
ENDBRANCH   8   9
ENDBRANCH   7   8
ENDBRANCH   6   7
ENDBRANCH   5   6
ENDBRANCH   4   5
ENDBRANCH   3   4
ENDBRANCH   2   3
ENDBRANCH   1   2
BRANCH   1  17
ATOM     17  C   UNL     1     167.568 174.535 150.039  1.00  0.00     0.000 C 
BRANCH  17  18
ATOM     18  C   UNL     1     167.225 175.795 149.221  1.00  0.00     0.000 C 
BRANCH  18  19
ATOM     19  C   UNL     1     167.411 177.092 150.024  1.00  0.00     0.000 C 
BRANCH  19  20
ATOM     20  C   UNL     1     168.742 177.140 150.797  1.00  0.00     0.000 C 
BRANCH  20  21
ATOM     21  C   UNL     1     168.626 176.934 152.321  1.00  0.00     0.000 C 
BRANCH  21  22
ATOM     22  C   UNL     1     169.775 176.133 152.963  1.00  0.00     0.000 C 
BRANCH  22  23
ATOM     23  C   UNL     1     170.707 175.417 151.965  1.00  0.00     0.000 C 
BRANCH  23  24
ATOM     24  C   UNL     1     172.166 175.916 151.957  1.00  0.00     0.000 C 
BRANCH  24  25
ATOM     25  C   UNL     1     172.335 177.441 151.828  1.00  0.00     0.000 C 
BRANCH  25  26
ATOM     26  C   UNL     1     173.510 177.837 150.919  1.00  0.00     0.000 C 
BRANCH  26  27
ATOM     27  C   UNL     1     174.834 177.183 151.350  1.00  0.00     0.002 C 
BRANCH  27  28
ATOM     28  C   UNL     1     175.435 177.841 152.601  1.00  0.00     0.028 C 
BRANCH  28  29
ATOM     29  C   UNL     1     175.542 176.841 153.752  1.00  0.00     0.156 C 
BRANCH  29  30
ATOM     30  O   UNL     1     176.137 175.661 153.290  1.00  0.00    -0.396 OA
ATOM     31  H   UNL     1     175.715 174.921 153.800  1.00  0.00     0.210 HD
ENDBRANCH  29  30
ENDBRANCH  28  29
ENDBRANCH  27  28
ENDBRANCH  26  27
ENDBRANCH  25  26
ENDBRANCH  24  25
ENDBRANCH  23  24
ENDBRANCH  22  23
ENDBRANCH  21  22
ENDBRANCH  20  21
ENDBRANCH  19  20
ENDBRANCH  18  19
ENDBRANCH  17  18
ENDBRANCH   1  17
TORSDOF 28
ENDMDL
MODEL 5
REMARK VINA RESULT:    -3.452      4.482      9.275
REMARK INTER + INTRA:         -14.650
REMARK INTER:                 -11.034
REMARK INTRA:                  -3.616
REMARK UNBOUND:                -5.648
REMARK SMILES CCCCCCCCCCCCCCCCCCCCCCCCCCCCCO
REMARK SMILES IDX 16 1 15 2 14 3 13 4 12 5 11 6 10 7 9 8 8 9 7 10 6 11 5 12
REMARK SMILES IDX 4 13 3 14 2 15 1 16 17 17 18 18 19 19 20 20 21 21 22 22
REMARK SMILES IDX 23 23 24 24 25 25 26 26 27 27 28 28 29 29 30 30
REMARK H PARENT 30 31
REMARK Flexibility Score: inf
ROOT
ATOM      1  C   UNL     1     165.234 175.930 150.949  1.00  0.00     0.000 C 
ENDROOT
BRANCH   1   2
ATOM      2  C   UNL     1     164.954 177.442 151.027  1.00  0.00     0.000 C 
BRANCH   2   3
ATOM      3  C   UNL     1     163.468 177.766 151.255  1.00  0.00     0.000 C 
BRANCH   3   4
ATOM      4  C   UNL     1     162.527 176.655 150.753  1.00  0.00     0.000 C 
BRANCH   4   5
ATOM      5  C   UNL     1     161.107 177.120 150.381  1.00  0.00     0.000 C 
BRANCH   5   6
ATOM      6  C   UNL     1     160.247 177.465 151.609  1.00  0.00     0.000 C 
BRANCH   6   7
ATOM      7  C   UNL     1     160.134 176.288 152.602  1.00  0.00     0.000 C 
BRANCH   7   8
ATOM      8  C   UNL     1     159.537 175.010 151.984  1.00  0.00    -0.000 C 
BRANCH   8   9
ATOM      9  C   UNL     1     160.486 173.796 151.954  1.00  0.00    -0.000 C 
BRANCH   9  10
ATOM     10  C   UNL     1     161.247 173.534 153.267  1.00  0.00    -0.000 C 
BRANCH  10  11
ATOM     11  C   UNL     1     162.743 173.876 153.171  1.00  0.00    -0.000 C 
BRANCH  11  12
ATOM     12  C   UNL     1     163.285 174.491 154.476  1.00  0.00    -0.000 C 
BRANCH  12  13
ATOM     13  C   UNL     1     163.765 175.947 154.325  1.00  0.00    -0.000 C 
BRANCH  13  14
ATOM     14  C   UNL     1     162.753 176.960 154.889  1.00  0.00    -0.000 C 
BRANCH  14  15
ATOM     15  C   UNL     1     161.752 176.308 155.856  1.00  0.00    -0.003 C 
ATOM     16  C   UNL     1     160.491 177.151 156.052  1.00  0.00     0.004 C 
ENDBRANCH  14  15
ENDBRANCH  13  14
ENDBRANCH  12  13
ENDBRANCH  11  12
ENDBRANCH  10  11
ENDBRANCH   9  10
ENDBRANCH   8   9
ENDBRANCH   7   8
ENDBRANCH   6   7
ENDBRANCH   5   6
ENDBRANCH   4   5
ENDBRANCH   3   4
ENDBRANCH   2   3
ENDBRANCH   1   2
BRANCH   1  17
ATOM     17  C   UNL     1     166.638 175.540 150.438  1.00  0.00     0.000 C 
BRANCH  17  18
ATOM     18  C   UNL     1     167.443 176.684 149.793  1.00  0.00     0.000 C 
BRANCH  18  19
ATOM     19  C   UNL     1     168.541 177.232 150.718  1.00  0.00     0.000 C 
BRANCH  19  20
ATOM     20  C   UNL     1     168.993 176.219 151.786  1.00  0.00     0.000 C 
BRANCH  20  21
ATOM     21  C   UNL     1     170.518 176.118 151.995  1.00  0.00     0.000 C 
BRANCH  21  22
ATOM     22  C   UNL     1     171.149 177.283 152.783  1.00  0.00     0.000 C 
BRANCH  22  23
ATOM     23  C   UNL     1     172.194 178.106 152.003  1.00  0.00     0.000 C 
BRANCH  23  24
ATOM     24  C   UNL     1     173.145 177.282 151.113  1.00  0.00     0.000 C 
BRANCH  24  25
ATOM     25  C   UNL     1     174.641 177.607 151.277  1.00  0.00     0.000 C 
BRANCH  25  26
ATOM     26  C   UNL     1     174.992 178.113 152.686  1.00  0.00     0.000 C 
BRANCH  26  27
ATOM     27  C   UNL     1     175.743 177.060 153.519  1.00  0.00     0.002 C 
BRANCH  27  28
ATOM     28  C   UNL     1     175.281 177.031 154.984  1.00  0.00     0.028 C 
BRANCH  28  29
ATOM     29  C   UNL     1     173.809 176.634 155.088  1.00  0.00     0.156 C 
BRANCH  29  30
ATOM     30  O   UNL     1     173.635 175.346 154.571  1.00  0.00    -0.396 OA
ATOM     31  H   UNL     1     173.674 174.728 155.347  1.00  0.00     0.210 HD
ENDBRANCH  29  30
ENDBRANCH  28  29
ENDBRANCH  27  28
ENDBRANCH  26  27
ENDBRANCH  25  26
ENDBRANCH  24  25
ENDBRANCH  23  24
ENDBRANCH  22  23
ENDBRANCH  21  22
ENDBRANCH  20  21
ENDBRANCH  19  20
ENDBRANCH  18  19
ENDBRANCH  17  18
ENDBRANCH   1  17
TORSDOF 28
ENDMDL
MODEL 6
REMARK VINA RESULT:    -3.442      4.805      9.114
REMARK INTER + INTRA:         -14.623
REMARK INTER:                 -11.379
REMARK INTRA:                  -3.244
REMARK UNBOUND:                -5.648
REMARK SMILES CCCCCCCCCCCCCCCCCCCCCCCCCCCCCO
REMARK SMILES IDX 16 1 15 2 14 3 13 4 12 5 11 6 10 7 9 8 8 9 7 10 6 11 5 12
REMARK SMILES IDX 4 13 3 14 2 15 1 16 17 17 18 18 19 19 20 20 21 21 22 22
REMARK SMILES IDX 23 23 24 24 25 25 26 26 27 27 28 28 29 29 30 30
REMARK H PARENT 30 31
REMARK Flexibility Score: inf
ROOT
ATOM      1  C   UNL     1     164.634 174.052 151.319  1.00  0.00     0.000 C 
ENDROOT
BRANCH   1   2
ATOM      2  C   UNL     1     164.603 174.167 152.854  1.00  0.00     0.000 C 
BRANCH   2   3
ATOM      3  C   UNL     1     165.610 175.194 153.398  1.00  0.00     0.000 C 
BRANCH   3   4
ATOM      4  C   UNL     1     164.955 176.254 154.304  1.00  0.00     0.000 C 
BRANCH   4   5
ATOM      5  C   UNL     1     164.214 177.381 153.560  1.00  0.00     0.000 C 
BRANCH   5   6
ATOM      6  C   UNL     1     164.880 177.759 152.226  1.00  0.00     0.000 C 
BRANCH   6   7
ATOM      7  C   UNL     1     163.893 177.720 151.040  1.00  0.00     0.000 C 
BRANCH   7   8
ATOM      8  C   UNL     1     162.416 177.859 151.456  1.00  0.00    -0.000 C 
BRANCH   8   9
ATOM      9  C   UNL     1     161.424 177.015 150.633  1.00  0.00    -0.000 C 
BRANCH   9  10
ATOM     10  C   UNL     1     161.354 175.528 151.029  1.00  0.00    -0.000 C 
BRANCH  10  11
ATOM     11  C   UNL     1     160.345 175.255 152.158  1.00  0.00    -0.000 C 
BRANCH  11  12
ATOM     12  C   UNL     1     160.731 174.023 152.999  1.00  0.00    -0.000 C 
BRANCH  12  13
ATOM     13  C   UNL     1     161.156 172.805 152.159  1.00  0.00    -0.000 C 
BRANCH  13  14
ATOM     14  C   UNL     1     159.976 172.178 151.395  1.00  0.00    -0.000 C 
BRANCH  14  15
ATOM     15  C   UNL     1     160.252 170.722 150.988  1.00  0.00    -0.003 C 
ATOM     16  C   UNL     1     159.277 170.216 149.923  1.00  0.00     0.004 C 
ENDBRANCH  14  15
ENDBRANCH  13  14
ENDBRANCH  12  13
ENDBRANCH  11  12
ENDBRANCH  10  11
ENDBRANCH   9  10
ENDBRANCH   8   9
ENDBRANCH   7   8
ENDBRANCH   6   7
ENDBRANCH   5   6
ENDBRANCH   4   5
ENDBRANCH   3   4
ENDBRANCH   2   3
ENDBRANCH   1   2
BRANCH   1  17
ATOM     17  C   UNL     1     166.032 174.164 150.672  1.00  0.00     0.000 C 
BRANCH  17  18
ATOM     18  C   UNL     1     166.176 175.268 149.608  1.00  0.00     0.000 C 
BRANCH  18  19
ATOM     19  C   UNL     1     167.601 175.842 149.538  1.00  0.00     0.000 C 
BRANCH  19  20
ATOM     20  C   UNL     1     167.990 176.647 150.792  1.00  0.00     0.000 C 
BRANCH  20  21
ATOM     21  C   UNL     1     169.298 176.203 151.479  1.00  0.00     0.000 C 
BRANCH  21  22
ATOM     22  C   UNL     1     170.297 177.337 151.781  1.00  0.00     0.000 C 
BRANCH  22  23
ATOM     23  C   UNL     1     171.768 176.893 151.908  1.00  0.00     0.000 C 
BRANCH  23  24
ATOM     24  C   UNL     1     172.811 177.992 151.622  1.00  0.00     0.000 C 
BRANCH  24  25
ATOM     25  C   UNL     1     173.880 177.626 150.577  1.00  0.00     0.000 C 
BRANCH  25  26
ATOM     26  C   UNL     1     175.234 177.262 151.208  1.00  0.00     0.000 C 
BRANCH  26  27
ATOM     27  C   UNL     1     175.249 175.835 151.784  1.00  0.00     0.002 C 
BRANCH  27  28
ATOM     28  C   UNL     1     176.087 174.867 150.935  1.00  0.00     0.028 C 
BRANCH  28  29
ATOM     29  C   UNL     1     176.411 173.592 151.713  1.00  0.00     0.156 C 
BRANCH  29  30
ATOM     30  O   UNL     1     176.742 173.922 153.032  1.00  0.00    -0.396 OA
ATOM     31  H   UNL     1     177.540 174.510 152.978  1.00  0.00     0.210 HD
ENDBRANCH  29  30
ENDBRANCH  28  29
ENDBRANCH  27  28
ENDBRANCH  26  27
ENDBRANCH  25  26
ENDBRANCH  24  25
ENDBRANCH  23  24
ENDBRANCH  22  23
ENDBRANCH  21  22
ENDBRANCH  20  21
ENDBRANCH  19  20
ENDBRANCH  18  19
ENDBRANCH  17  18
ENDBRANCH   1  17
TORSDOF 28
ENDMDL
MODEL 7
REMARK VINA RESULT:    -3.438      5.008      9.015
REMARK INTER + INTRA:         -14.614
REMARK INTER:                 -11.034
REMARK INTRA:                  -3.580
REMARK UNBOUND:                -5.648
REMARK SMILES CCCCCCCCCCCCCCCCCCCCCCCCCCCCCO
REMARK SMILES IDX 16 1 15 2 14 3 13 4 12 5 11 6 10 7 9 8 8 9 7 10 6 11 5 12
REMARK SMILES IDX 4 13 3 14 2 15 1 16 17 17 18 18 19 19 20 20 21 21 22 22
REMARK SMILES IDX 23 23 24 24 25 25 26 26 27 27 28 28 29 29 30 30
REMARK H PARENT 30 31
REMARK Flexibility Score: inf
ROOT
ATOM      1  C   UNL     1     165.790 174.439 151.063  1.00  0.00     0.000 C 
ENDROOT
BRANCH   1   2
ATOM      2  C   UNL     1     164.559 174.935 150.283  1.00  0.00     0.000 C 
BRANCH   2   3
ATOM      3  C   UNL     1     163.680 175.898 151.098  1.00  0.00     0.000 C 
BRANCH   3   4
ATOM      4  C   UNL     1     164.203 177.346 151.084  1.00  0.00     0.000 C 
BRANCH   4   5
ATOM      5  C   UNL     1     165.063 177.742 152.299  1.00  0.00     0.000 C 
BRANCH   5   6
ATOM      6  C   UNL     1     164.389 177.417 153.644  1.00  0.00     0.000 C 
BRANCH   6   7
ATOM      7  C   UNL     1     165.170 176.364 154.457  1.00  0.00     0.000 C 
BRANCH   7   8
ATOM      8  C   UNL     1     164.463 174.998 154.546  1.00  0.00    -0.000 C 
BRANCH   8   9
ATOM      9  C   UNL     1     162.957 175.063 154.867  1.00  0.00    -0.000 C 
BRANCH   9  10
ATOM     10  C   UNL     1     162.618 175.493 156.306  1.00  0.00    -0.000 C 
BRANCH  10  11
ATOM     11  C   UNL     1     161.940 176.872 156.375  1.00  0.00    -0.000 C 
BRANCH  11  12
ATOM     12  C   UNL     1     160.728 176.973 155.428  1.00  0.00    -0.000 C 
BRANCH  12  13
ATOM     13  C   UNL     1     160.838 178.112 154.397  1.00  0.00    -0.000 C 
BRANCH  13  14
ATOM     14  C   UNL     1     160.716 177.607 152.949  1.00  0.00    -0.000 C 
BRANCH  14  15
ATOM     15  C   UNL     1     160.065 176.217 152.869  1.00  0.00    -0.003 C 
ATOM     16  C   UNL     1     160.112 175.628 151.458  1.00  0.00     0.004 C 
ENDBRANCH  14  15
ENDBRANCH  13  14
ENDBRANCH  12  13
ENDBRANCH  11  12
ENDBRANCH  10  11
ENDBRANCH   9  10
ENDBRANCH   8   9
ENDBRANCH   7   8
ENDBRANCH   6   7
ENDBRANCH   5   6
ENDBRANCH   4   5
ENDBRANCH   3   4
ENDBRANCH   2   3
ENDBRANCH   1   2
BRANCH   1  17
ATOM     17  C   UNL     1     167.150 174.651 150.363  1.00  0.00     0.000 C 
BRANCH  17  18
ATOM     18  C   UNL     1     167.290 175.975 149.589  1.00  0.00     0.000 C 
BRANCH  18  19
ATOM     19  C   UNL     1     168.113 177.025 150.352  1.00  0.00     0.000 C 
BRANCH  19  20
ATOM     20  C   UNL     1     168.922 176.428 151.519  1.00  0.00     0.000 C 
BRANCH  20  21
ATOM     21  C   UNL     1     170.190 177.214 151.912  1.00  0.00     0.000 C 
BRANCH  21  22
ATOM     22  C   UNL     1     171.510 176.428 151.796  1.00  0.00     0.000 C 
BRANCH  22  23
ATOM     23  C   UNL     1     172.773 177.213 152.204  1.00  0.00     0.000 C 
BRANCH  23  24
ATOM     24  C   UNL     1     173.560 177.842 151.037  1.00  0.00     0.000 C 
BRANCH  24  25
ATOM     25  C   UNL     1     174.760 177.018 150.536  1.00  0.00     0.000 C 
BRANCH  25  26
ATOM     26  C   UNL     1     174.750 175.571 151.055  1.00  0.00     0.000 C 
BRANCH  26  27
ATOM     27  C   UNL     1     176.151 174.937 151.057  1.00  0.00     0.002 C 
BRANCH  27  28
ATOM     28  C   UNL     1     176.114 173.429 151.349  1.00  0.00     0.028 C 
BRANCH  28  29
ATOM     29  C   UNL     1     176.678 173.123 152.736  1.00  0.00     0.156 C 
BRANCH  29  30
ATOM     30  O   UNL     1     176.964 171.757 152.832  1.00  0.00    -0.396 OA
ATOM     31  H   UNL     1     176.417 171.310 152.134  1.00  0.00     0.210 HD
ENDBRANCH  29  30
ENDBRANCH  28  29
ENDBRANCH  27  28
ENDBRANCH  26  27
ENDBRANCH  25  26
ENDBRANCH  24  25
ENDBRANCH  23  24
ENDBRANCH  22  23
ENDBRANCH  21  22
ENDBRANCH  20  21
ENDBRANCH  19  20
ENDBRANCH  18  19
ENDBRANCH  17  18
ENDBRANCH   1  17
TORSDOF 28
ENDMDL
MODEL 8
REMARK VINA RESULT:    -3.426      6.739     11.010
REMARK INTER + INTRA:         -14.583
REMARK INTER:                 -10.374
REMARK INTRA:                  -4.209
REMARK UNBOUND:                -5.648
REMARK SMILES CCCCCCCCCCCCCCCCCCCCCCCCCCCCCO
REMARK SMILES IDX 16 1 15 2 14 3 13 4 12 5 11 6 10 7 9 8 8 9 7 10 6 11 5 12
REMARK SMILES IDX 4 13 3 14 2 15 1 16 17 17 18 18 19 19 20 20 21 21 22 22
REMARK SMILES IDX 23 23 24 24 25 25 26 26 27 27 28 28 29 29 30 30
REMARK H PARENT 30 31
REMARK Flexibility Score: inf
ROOT
ATOM      1  C   UNL     1     173.626 172.327 149.989  1.00  0.00     0.000 C 
ENDROOT
BRANCH   1   2
ATOM      2  C   UNL     1     172.797 171.809 151.179  1.00  0.00     0.000 C 
BRANCH   2   3
ATOM      3  C   UNL     1     172.452 172.912 152.193  1.00  0.00     0.000 C 
BRANCH   3   4
ATOM      4  C   UNL     1     172.020 174.230 151.524  1.00  0.00     0.000 C 
BRANCH   4   5
ATOM      5  C   UNL     1     170.936 175.022 152.279  1.00  0.00     0.000 C 
BRANCH   5   6
ATOM      6  C   UNL     1     170.943 176.523 151.939  1.00  0.00     0.000 C 
BRANCH   6   7
ATOM      7  C   UNL     1     169.565 177.027 151.458  1.00  0.00     0.000 C 
BRANCH   7   8
ATOM      8  C   UNL     1     168.608 175.900 151.026  1.00  0.00    -0.000 C 
BRANCH   8   9
ATOM      9  C   UNL     1     167.608 176.283 149.918  1.00  0.00    -0.000 C 
BRANCH   9  10
ATOM     10  C   UNL     1     166.370 175.372 149.819  1.00  0.00    -0.000 C 
BRANCH  10  11
ATOM     11  C   UNL     1     165.200 175.852 150.695  1.00  0.00    -0.000 C 
BRANCH  11  12
ATOM     12  C   UNL     1     165.196 177.383 150.872  1.00  0.00    -0.000 C 
BRANCH  12  13
ATOM     13  C   UNL     1     165.179 177.839 152.343  1.00  0.00    -0.000 C 
BRANCH  13  14
ATOM     14  C   UNL     1     165.665 176.739 153.304  1.00  0.00    -0.000 C 
BRANCH  14  15
ATOM     15  C   UNL     1     166.874 177.186 154.140  1.00  0.00    -0.003 C 
ATOM     16  C   UNL     1     167.761 176.013 154.563  1.00  0.00     0.004 C 
ENDBRANCH  14  15
ENDBRANCH  13  14
ENDBRANCH  12  13
ENDBRANCH  11  12
ENDBRANCH  10  11
ENDBRANCH   9  10
ENDBRANCH   8   9
ENDBRANCH   7   8
ENDBRANCH   6   7
ENDBRANCH   5   6
ENDBRANCH   4   5
ENDBRANCH   3   4
ENDBRANCH   2   3
ENDBRANCH   1   2
BRANCH   1  17
ATOM     17  C   UNL     1     174.598 171.304 149.362  1.00  0.00     0.000 C 
BRANCH  17  18
ATOM     18  C   UNL     1     176.078 171.478 149.753  1.00  0.00     0.000 C 
BRANCH  18  19
ATOM     19  C   UNL     1     176.275 172.489 150.893  1.00  0.00     0.000 C 
BRANCH  19  20
ATOM     20  C   UNL     1     176.842 173.839 150.414  1.00  0.00     0.000 C 
BRANCH  20  21
ATOM     21  C   UNL     1     176.428 175.064 151.255  1.00  0.00     0.000 C 
BRANCH  21  22
ATOM     22  C   UNL     1     175.052 175.664 150.906  1.00  0.00     0.000 C 
BRANCH  22  23
ATOM     23  C   UNL     1     175.033 177.197 150.741  1.00  0.00     0.000 C 
BRANCH  23  24
ATOM     24  C   UNL     1     174.412 177.974 151.919  1.00  0.00     0.000 C 
BRANCH  24  25
ATOM     25  C   UNL     1     175.139 177.811 153.267  1.00  0.00     0.000 C 
BRANCH  25  26
ATOM     26  C   UNL     1     174.176 177.549 154.437  1.00  0.00     0.000 C 
BRANCH  26  27
ATOM     27  C   UNL     1     173.689 176.090 154.482  1.00  0.00     0.002 C 
BRANCH  27  28
ATOM     28  C   UNL     1     174.850 175.086 154.553  1.00  0.00     0.028 C 
BRANCH  28  29
ATOM     29  C   UNL     1     175.586 175.189 155.888  1.00  0.00     0.156 C 
BRANCH  29  30
ATOM     30  O   UNL     1     176.967 175.172 155.661  1.00  0.00    -0.396 OA
ATOM     31  H   UNL     1     177.091 174.828 154.738  1.00  0.00     0.210 HD
ENDBRANCH  29  30
ENDBRANCH  28  29
ENDBRANCH  27  28
ENDBRANCH  26  27
ENDBRANCH  25  26
ENDBRANCH  24  25
ENDBRANCH  23  24
ENDBRANCH  22  23
ENDBRANCH  21  22
ENDBRANCH  20  21
ENDBRANCH  19  20
ENDBRANCH  18  19
ENDBRANCH  17  18
ENDBRANCH   1  17
TORSDOF 28
ENDMDL
