MODEL 1
REMARK VINA RESULT:     6.715      0.000      0.000
REMARK INTER + INTRA:          20.648
REMARK INTER:                  12.799
REMARK INTRA:                   7.848
REMARK UNBOUND:                 7.848
REMARK SMILES C[C@H]1O[C@@H](O[C@@H]2[C@@H](O)[C@@H](OCCc3ccc(O)c(O)c3)O[C@H](CO)[C@@H]2OC(=O)C=Cc2ccc(O)c(O)c2)[C@@H](O)[C@H](O)[C@@H]1O
REMARK SMILES IDX 6 1 7 2 9 3 21 4 22 5 25 6 5 7 4 8 1 9 2 10 43 11 3 12 41 13
REMARK SMILES IDX 39 14 44 15 42 17 40 19 8 21 26 23 27 24 28 25 29 26 30 27
REMARK SMILES IDX 31 28 38 29 32 30 36 31 33 32 34 33 37 34 35 36 10 38 11 39
REMARK SMILES IDX 12 40 13 41 20 42 14 43 18 44 15 45 16 46 19 47 17 49 23 51
REMARK SMILES IDX 24 52
REMARK H PARENT 44 16 42 18 40 20 8 22 37 35 35 37 19 48 17 50 24 53
REMARK Flexibility Score: inf
ROOT
ATOM      1  C   UNL     1      73.543  41.442  21.800  1.00  0.00     0.199 C 
ATOM      2  C   UNL     1      73.538  41.013  20.310  1.00  0.00     0.203 C 
ATOM      3  C   UNL     1      74.801  40.191  19.919  1.00  0.00     0.282 C 
ATOM      4  O   UNL     1      76.071  40.713  20.318  1.00  0.00    -0.340 OA
ATOM      5  C   UNL     1      76.035  41.762  21.266  1.00  0.00     0.190 C 
ATOM      6  C   UNL     1      74.993  41.514  22.376  1.00  0.00     0.240 C 
ENDROOT
BRANCH   1   7
ATOM      7  O   UNL     1      72.748  40.516  22.538  1.00  0.00    -0.340 OA
BRANCH   7   8
ATOM      8  C   UNL     1      71.342  40.610  22.284  1.00  0.00     0.282 C 
ATOM      9  C   UNL     1      68.609  38.205  22.927  1.00  0.00     0.041 C 
ATOM     10  C   UNL     1      69.219  39.522  22.443  1.00  0.00     0.150 C 
ATOM     11  C   UNL     1      68.945  39.711  20.937  1.00  0.00     0.174 C 
ATOM     12  O   UNL     1      70.615  39.438  22.687  1.00  0.00    -0.344 OA
ATOM     13  C   UNL     1      69.631  40.985  20.417  1.00  0.00     0.179 C 
ATOM     14  C   UNL     1      71.120  40.955  20.800  1.00  0.00     0.202 C 
BRANCH  11  15
ATOM     15  O   UNL     1      67.575  39.712  20.634  1.00  0.00    -0.388 OA
ATOM     16  H   UNL     1      67.090  39.346  21.423  1.00  0.00     0.211 HD
ENDBRANCH  11  15
BRANCH  13  17
ATOM     17  O   UNL     1      69.039  42.123  20.997  1.00  0.00    -0.387 OA
ATOM     18  H   UNL     1      69.411  42.234  21.912  1.00  0.00     0.211 HD
ENDBRANCH  13  17
BRANCH  14  19
ATOM     19  O   UNL     1      71.855  40.100  19.963  1.00  0.00    -0.385 OA
ATOM     20  H   UNL     1      71.934  39.217  20.408  1.00  0.00     0.211 HD
ENDBRANCH  14  19
ENDBRANCH   7   8
ENDBRANCH   1   7
BRANCH   2  21
ATOM     21  O   UNL     1      73.261  42.087  19.432  1.00  0.00    -0.385 OA
ATOM     22  H   UNL     1      72.455  42.570  19.760  1.00  0.00     0.211 HD
ENDBRANCH   2  21
BRANCH   6  23
ATOM     23  O   UNL     1      75.277  40.316  23.105  1.00  0.00    -0.453 OA
BRANCH  23  24
ATOM     24  C   UNL     1      76.373  40.237  23.970  1.00  0.00     0.331 C 
ATOM     25  O   UNL     1      77.355  41.014  23.835  1.00  0.00    -0.247 OA
BRANCH  24  26
ATOM     26  C   UNL     1      76.368  39.313  25.105  1.00  0.00     0.094 C 
ATOM     27  C   UNL     1      75.560  39.465  26.159  1.00  0.00     0.016 C 
BRANCH  27  28
ATOM     28  C   UNL     1      75.731  38.598  27.342  1.00  0.00    -0.021 A 
ATOM     29  C   UNL     1      76.914  37.853  27.512  1.00  0.00     0.058 A 
ATOM     30  C   UNL     1      74.726  38.521  28.305  1.00  0.00     0.012 A 
ATOM     31  C   UNL     1      77.026  36.931  28.550  1.00  0.00     0.157 A 
ATOM     32  C   UNL     1      74.831  37.599  29.346  1.00  0.00     0.051 A 
ATOM     33  C   UNL     1      75.971  36.796  29.467  1.00  0.00     0.157 A 
BRANCH  31  34
ATOM     34  O   UNL     1      78.187  36.164  28.644  1.00  0.00    -0.504 OA
ATOM     35  H   UNL     1      78.177  35.223  29.023  1.00  0.00     0.293 HD
ENDBRANCH  31  34
BRANCH  33  36
ATOM     36  O   UNL     1      76.032  35.829  30.462  1.00  0.00    -0.504 OA
ATOM     37  H   UNL     1      76.495  34.951  30.321  1.00  0.00     0.293 HD
ENDBRANCH  33  36
ENDBRANCH  27  28
ENDBRANCH  24  26
ENDBRANCH  23  24
ENDBRANCH   6  23
BRANCH   3  38
ATOM     38  O   UNL     1      74.785  40.049  18.508  1.00  0.00    -0.350 OA
BRANCH  38  39
ATOM     39  C   UNL     1      75.968  39.434  18.021  1.00  0.00     0.168 C 
BRANCH  39  40
ATOM     40  C   UNL     1      75.740  37.935  17.878  1.00  0.00     0.064 C 
BRANCH  40  41
ATOM     41  C   UNL     1      74.530  37.497  18.683  1.00  0.00    -0.042 A 
ATOM     42  C   UNL     1      74.390  37.882  20.020  1.00  0.00     0.054 A 
ATOM     43  C   UNL     1      73.570  36.650  18.100  1.00  0.00     0.008 A 
ATOM     44  C   UNL     1      73.305  37.449  20.780  1.00  0.00     0.157 A 
ATOM     45  C   UNL     1      72.472  36.217  18.852  1.00  0.00     0.050 A 
ATOM     46  C   UNL     1      72.329  36.629  20.184  1.00  0.00     0.157 A 
BRANCH  44  47
ATOM     47  O   UNL     1      73.212  37.831  22.115  1.00  0.00    -0.504 OA
ATOM     48  H   UNL     1      72.857  37.210  22.830  1.00  0.00     0.293 HD
ENDBRANCH  44  47
BRANCH  46  49
ATOM     49  O   UNL     1      71.222  36.217  20.922  1.00  0.00    -0.504 OA
ATOM     50  H   UNL     1      70.294  36.387  20.581  1.00  0.00     0.293 HD
ENDBRANCH  46  49
ENDBRANCH  40  41
ENDBRANCH  39  40
ENDBRANCH  38  39
ENDBRANCH   3  38
BRANCH   5  51
ATOM     51  C   UNL     1      77.464  42.014  21.791  1.00  0.00     0.192 C 
BRANCH  51  52
ATOM     52  O   UNL     1      78.434  41.685  20.836  1.00  0.00    -0.394 OA
ATOM     53  H   UNL     1      79.193  42.310  20.953  1.00  0.00     0.210 HD
ENDBRANCH  51  52
ENDBRANCH   5  51
TORSDOF 20
ENDMDL
MODEL 2
REMARK VINA RESULT:     7.261      2.199      8.464
REMARK INTER + INTRA:          21.690
REMARK INTER:                  14.528
REMARK INTRA:                   7.161
REMARK UNBOUND:                 7.848
REMARK SMILES C[C@H]1O[C@@H](O[C@@H]2[C@@H](O)[C@@H](OCCc3ccc(O)c(O)c3)O[C@H](CO)[C@@H]2OC(=O)C=Cc2ccc(O)c(O)c2)[C@@H](O)[C@H](O)[C@@H]1O
REMARK SMILES IDX 6 1 7 2 9 3 21 4 22 5 25 6 5 7 4 8 1 9 2 10 43 11 3 12 41 13
REMARK SMILES IDX 39 14 44 15 42 17 40 19 8 21 26 23 27 24 28 25 29 26 30 27
REMARK SMILES IDX 31 28 38 29 32 30 36 31 33 32 34 33 37 34 35 36 10 38 11 39
REMARK SMILES IDX 12 40 13 41 20 42 14 43 18 44 15 45 16 46 19 47 17 49 23 51
REMARK SMILES IDX 24 52
REMARK H PARENT 44 16 42 18 40 20 8 22 37 35 35 37 19 48 17 50 24 53
REMARK Flexibility Score: inf
ROOT
ATOM      1  C   UNL     1      76.453  41.911  21.937  1.00  0.00     0.199 C 
ATOM      2  C   UNL     1      77.019  40.922  22.989  1.00  0.00     0.203 C 
ATOM      3  C   UNL     1      75.949  39.917  23.504  1.00  0.00     0.282 C 
ATOM      4  O   UNL     1      74.686  40.453  23.904  1.00  0.00    -0.340 OA
ATOM      5  C   UNL     1      74.438  41.792  23.526  1.00  0.00     0.190 C 
ATOM      6  C   UNL     1      74.908  42.093  22.088  1.00  0.00     0.240 C 
ENDROOT
BRANCH   1   7
ATOM      7  O   UNL     1      76.782  41.424  20.638  1.00  0.00    -0.340 OA
BRANCH   7   8
ATOM      8  C   UNL     1      75.813  40.531  20.078  1.00  0.00     0.282 C 
ATOM      9  C   UNL     1      74.960  37.041  20.952  1.00  0.00     0.041 C 
ATOM     10  C   UNL     1      74.839  38.349  20.166  1.00  0.00     0.150 C 
ATOM     11  C   UNL     1      75.125  38.099  18.672  1.00  0.00     0.174 C 
ATOM     12  O   UNL     1      75.799  39.242  20.713  1.00  0.00    -0.344 OA
ATOM     13  C   UNL     1      75.098  39.419  17.885  1.00  0.00     0.179 C 
ATOM     14  C   UNL     1      76.039  40.432  18.557  1.00  0.00     0.202 C 
BRANCH  11  15
ATOM     15  O   UNL     1      74.254  37.153  18.107  1.00  0.00    -0.388 OA
ATOM     16  H   UNL     1      74.804  36.381  17.800  1.00  0.00     0.211 HD
ENDBRANCH  11  15
BRANCH  13  17
ATOM     17  O   UNL     1      73.794  39.950  17.879  1.00  0.00    -0.387 OA
ATOM     18  H   UNL     1      73.163  39.222  17.638  1.00  0.00     0.211 HD
ENDBRANCH  13  17
BRANCH  14  19
ATOM     19  O   UNL     1      77.385  40.169  18.258  1.00  0.00    -0.385 OA
ATOM     20  H   UNL     1      77.833  39.846  19.084  1.00  0.00     0.211 HD
ENDBRANCH  14  19
ENDBRANCH   7   8
ENDBRANCH   1   7
BRANCH   2  21
ATOM     21  O   UNL     1      77.735  41.574  24.021  1.00  0.00    -0.385 OA
ATOM     22  H   UNL     1      78.470  42.107  23.616  1.00  0.00     0.211 HD
ENDBRANCH   2  21
BRANCH   6  23
ATOM     23  O   UNL     1      74.235  41.269  21.132  1.00  0.00    -0.453 OA
BRANCH  23  24
ATOM     24  C   UNL     1      73.708  41.808  19.954  1.00  0.00     0.331 C 
ATOM     25  O   UNL     1      74.465  42.125  18.998  1.00  0.00    -0.247 OA
BRANCH  24  26
ATOM     26  C   UNL     1      72.262  41.934  19.768  1.00  0.00     0.094 C 
ATOM     27  C   UNL     1      71.386  41.071  20.291  1.00  0.00     0.016 C 
BRANCH  27  28
ATOM     28  C   UNL     1      69.960  41.160  19.918  1.00  0.00    -0.021 A 
ATOM     29  C   UNL     1      68.967  40.650  20.777  1.00  0.00     0.058 A 
ATOM     30  C   UNL     1      69.588  41.761  18.717  1.00  0.00     0.012 A 
ATOM     31  C   UNL     1      67.636  40.607  20.371  1.00  0.00     0.157 A 
ATOM     32  C   UNL     1      68.256  41.721  18.304  1.00  0.00     0.051 A 
ATOM     33  C   UNL     1      67.280  41.137  19.120  1.00  0.00     0.157 A 
BRANCH  31  34
ATOM     34  O   UNL     1      66.693  40.033  21.223  1.00  0.00    -0.504 OA
ATOM     35  H   UNL     1      65.754  40.406  21.311  1.00  0.00     0.293 HD
ENDBRANCH  31  34
BRANCH  33  36
ATOM     36  O   UNL     1      65.972  41.034  18.665  1.00  0.00    -0.504 OA
ATOM     37  H   UNL     1      65.336  41.808  18.701  1.00  0.00     0.293 HD
ENDBRANCH  33  36
ENDBRANCH  27  28
ENDBRANCH  24  26
ENDBRANCH  23  24
ENDBRANCH   6  23
BRANCH   3  38
ATOM     38  O   UNL     1      76.523  39.223  24.600  1.00  0.00    -0.350 OA
BRANCH  38  39
ATOM     39  C   UNL     1      75.543  38.807  25.539  1.00  0.00     0.168 C 
BRANCH  39  40
ATOM     40  C   UNL     1      76.182  38.674  26.915  1.00  0.00     0.064 C 
BRANCH  40  41
ATOM     41  C   UNL     1      75.514  39.606  27.909  1.00  0.00    -0.042 A 
ATOM     42  C   UNL     1      76.276  40.300  28.854  1.00  0.00     0.054 A 
ATOM     43  C   UNL     1      74.113  39.730  27.921  1.00  0.00     0.008 A 
ATOM     44  C   UNL     1      75.668  41.123  29.800  1.00  0.00     0.157 A 
ATOM     45  C   UNL     1      73.493  40.563  28.859  1.00  0.00     0.050 A 
ATOM     46  C   UNL     1      74.268  41.272  29.786  1.00  0.00     0.157 A 
BRANCH  44  47
ATOM     47  O   UNL     1      76.457  41.778  30.741  1.00  0.00    -0.504 OA
ATOM     48  H   UNL     1      76.962  41.278  31.462  1.00  0.00     0.293 HD
ENDBRANCH  44  47
BRANCH  46  49
ATOM     49  O   UNL     1      73.651  42.119  30.703  1.00  0.00    -0.504 OA
ATOM     50  H   UNL     1      73.445  43.070  30.455  1.00  0.00     0.293 HD
ENDBRANCH  46  49
ENDBRANCH  40  41
ENDBRANCH  39  40
ENDBRANCH  38  39
ENDBRANCH   3  38
BRANCH   5  51
ATOM     51  C   UNL     1      72.952  42.121  23.782  1.00  0.00     0.192 C 
BRANCH  51  52
ATOM     52  O   UNL     1      72.103  41.164  23.212  1.00  0.00    -0.394 OA
ATOM     53  H   UNL     1      71.188  41.340  23.545  1.00  0.00     0.210 HD
ENDBRANCH  51  52
ENDBRANCH   5  51
TORSDOF 20
ENDMDL
MODEL 3
REMARK VINA RESULT:     8.327      1.772      7.697
REMARK INTER + INTRA:          23.721
REMARK INTER:                  17.560
REMARK INTRA:                   6.162
REMARK UNBOUND:                 7.848
REMARK SMILES C[C@H]1O[C@@H](O[C@@H]2[C@@H](O)[C@@H](OCCc3ccc(O)c(O)c3)O[C@H](CO)[C@@H]2OC(=O)C=Cc2ccc(O)c(O)c2)[C@@H](O)[C@H](O)[C@@H]1O
REMARK SMILES IDX 6 1 7 2 9 3 21 4 22 5 25 6 5 7 4 8 1 9 2 10 43 11 3 12 41 13
REMARK SMILES IDX 39 14 44 15 42 17 40 19 8 21 26 23 27 24 28 25 29 26 30 27
REMARK SMILES IDX 31 28 38 29 32 30 36 31 33 32 34 33 37 34 35 36 10 38 11 39
REMARK SMILES IDX 12 40 13 41 20 42 14 43 18 44 15 45 16 46 19 47 17 49 23 51
REMARK SMILES IDX 24 52
REMARK H PARENT 44 16 42 18 40 20 8 22 37 35 35 37 19 48 17 50 24 53
REMARK Flexibility Score: inf
ROOT
ATOM      1  C   UNL     1      77.854  41.759  21.905  1.00  0.00     0.199 C 
ATOM      2  C   UNL     1      78.830  40.701  22.484  1.00  0.00     0.203 C 
ATOM      3  C   UNL     1      78.092  39.543  23.216  1.00  0.00     0.282 C 
ATOM      4  O   UNL     1      77.080  39.905  24.159  1.00  0.00    -0.340 OA
ATOM      5  C   UNL     1      76.657  41.253  24.121  1.00  0.00     0.190 C 
ATOM      6  C   UNL     1      76.497  41.778  22.679  1.00  0.00     0.240 C 
ENDROOT
BRANCH   1   7
ATOM      7  O   UNL     1      77.648  41.475  20.524  1.00  0.00    -0.340 OA
BRANCH   7   8
ATOM      8  C   UNL     1      76.297  41.143  20.183  1.00  0.00     0.282 C 
ATOM      9  C   UNL     1      74.765  37.905  19.270  1.00  0.00     0.041 C 
ATOM     10  C   UNL     1      74.777  39.409  19.551  1.00  0.00     0.150 C 
ATOM     11  C   UNL     1      74.322  40.186  18.300  1.00  0.00     0.174 C 
ATOM     12  O   UNL     1      76.115  39.749  19.887  1.00  0.00    -0.344 OA
ATOM     13  C   UNL     1      74.418  41.702  18.537  1.00  0.00     0.179 C 
ATOM     14  C   UNL     1      75.831  42.052  19.030  1.00  0.00     0.202 C 
BRANCH  11  15
ATOM     15  O   UNL     1      73.035  39.819  17.875  1.00  0.00    -0.388 OA
ATOM     16  H   UNL     1      72.415  40.563  18.110  1.00  0.00     0.211 HD
ENDBRANCH  11  15
BRANCH  13  17
ATOM     17  O   UNL     1      73.487  42.097  19.517  1.00  0.00    -0.387 OA
ATOM     18  H   UNL     1      73.815  41.783  20.401  1.00  0.00     0.211 HD
ENDBRANCH  13  17
BRANCH  14  19
ATOM     19  O   UNL     1      76.762  42.060  17.979  1.00  0.00    -0.385 OA
ATOM     20  H   UNL     1      76.283  42.282  17.138  1.00  0.00     0.211 HD
ENDBRANCH  14  19
ENDBRANCH   7   8
ENDBRANCH   1   7
BRANCH   2  21
ATOM     21  O   UNL     1      79.879  41.278  23.237  1.00  0.00    -0.385 OA
ATOM     22  H   UNL     1      80.161  40.634  23.940  1.00  0.00     0.211 HD
ENDBRANCH   2  21
BRANCH   6  23
ATOM     23  O   UNL     1      75.523  41.024  21.950  1.00  0.00    -0.453 OA
BRANCH  23  24
ATOM     24  C   UNL     1      74.361  40.552  22.570  1.00  0.00     0.331 C 
ATOM     25  O   UNL     1      74.430  39.798  23.576  1.00  0.00    -0.247 OA
BRANCH  24  26
ATOM     26  C   UNL     1      73.040  40.995  22.122  1.00  0.00     0.094 C 
ATOM     27  C   UNL     1      71.929  40.279  22.322  1.00  0.00     0.016 C 
BRANCH  27  28
ATOM     28  C   UNL     1      70.663  40.703  21.692  1.00  0.00    -0.021 A 
ATOM     29  C   UNL     1      69.470  39.998  21.949  1.00  0.00     0.058 A 
ATOM     30  C   UNL     1      70.638  41.811  20.847  1.00  0.00     0.012 A 
ATOM     31  C   UNL     1      68.304  40.306  21.254  1.00  0.00     0.157 A 
ATOM     32  C   UNL     1      69.473  42.125  20.147  1.00  0.00     0.051 A 
ATOM     33  C   UNL     1      68.309  41.371  20.337  1.00  0.00     0.157 A 
BRANCH  31  34
ATOM     34  O   UNL     1      67.162  39.542  21.487  1.00  0.00    -0.504 OA
ATOM     35  H   UNL     1      66.290  39.961  21.794  1.00  0.00     0.293 HD
ENDBRANCH  31  34
BRANCH  33  36
ATOM     36  O   UNL     1      67.179  41.645  19.579  1.00  0.00    -0.504 OA
ATOM     37  H   UNL     1      67.216  42.223  18.760  1.00  0.00     0.293 HD
ENDBRANCH  33  36
ENDBRANCH  27  28
ENDBRANCH  24  26
ENDBRANCH  23  24
ENDBRANCH   6  23
BRANCH   3  38
ATOM     38  O   UNL     1      79.081  38.771  23.877  1.00  0.00    -0.350 OA
BRANCH  38  39
ATOM     39  C   UNL     1      78.804  38.620  25.261  1.00  0.00     0.168 C 
BRANCH  39  40
ATOM     40  C   UNL     1      77.986  37.354  25.480  1.00  0.00     0.064 C 
BRANCH  40  41
ATOM     41  C   UNL     1      77.210  37.435  26.782  1.00  0.00    -0.042 A 
ATOM     42  C   UNL     1      77.636  36.725  27.908  1.00  0.00     0.054 A 
ATOM     43  C   UNL     1      76.020  38.184  26.842  1.00  0.00     0.008 A 
ATOM     44  C   UNL     1      76.905  36.758  29.094  1.00  0.00     0.157 A 
ATOM     45  C   UNL     1      75.285  38.233  28.032  1.00  0.00     0.050 A 
ATOM     46  C   UNL     1      75.734  37.536  29.161  1.00  0.00     0.157 A 
BRANCH  44  47
ATOM     47  O   UNL     1      77.346  36.018  30.187  1.00  0.00    -0.504 OA
ATOM     48  H   UNL     1      77.927  35.196  30.083  1.00  0.00     0.293 HD
ENDBRANCH  44  47
BRANCH  46  49
ATOM     49  O   UNL     1      75.014  37.606  30.351  1.00  0.00    -0.504 OA
ATOM     50  H   UNL     1      75.306  37.077  31.152  1.00  0.00     0.293 HD
ENDBRANCH  46  49
ENDBRANCH  40  41
ENDBRANCH  39  40
ENDBRANCH  38  39
ENDBRANCH   3  38
BRANCH   5  51
ATOM     51  C   UNL     1      75.390  41.408  24.988  1.00  0.00     0.192 C 
BRANCH  51  52
ATOM     52  O   UNL     1      75.581  40.905  26.281  1.00  0.00    -0.394 OA
ATOM     53  H   UNL     1      75.998  41.620  26.822  1.00  0.00     0.210 HD
ENDBRANCH  51  52
ENDBRANCH   5  51
TORSDOF 20
ENDMDL
MODEL 4
REMARK VINA RESULT:     8.896      2.076      2.409
REMARK INTER + INTRA:          24.805
REMARK INTER:                  19.793
REMARK INTRA:                   5.012
REMARK UNBOUND:                 7.848
REMARK SMILES C[C@H]1O[C@@H](O[C@@H]2[C@@H](O)[C@@H](OCCc3ccc(O)c(O)c3)O[C@H](CO)[C@@H]2OC(=O)C=Cc2ccc(O)c(O)c2)[C@@H](O)[C@H](O)[C@@H]1O
REMARK SMILES IDX 6 1 7 2 9 3 21 4 22 5 25 6 5 7 4 8 1 9 2 10 43 11 3 12 41 13
REMARK SMILES IDX 39 14 44 15 42 17 40 19 8 21 26 23 27 24 28 25 29 26 30 27
REMARK SMILES IDX 31 28 38 29 32 30 36 31 33 32 34 33 37 34 35 36 10 38 11 39
REMARK SMILES IDX 12 40 13 41 20 42 14 43 18 44 15 45 16 46 19 47 17 49 23 51
REMARK SMILES IDX 24 52
REMARK H PARENT 44 16 42 18 40 20 8 22 37 35 35 37 19 48 17 50 24 53
REMARK Flexibility Score: inf
ROOT
ATOM      1  C   UNL     1      73.323  41.076  22.065  1.00  0.00     0.199 C 
ATOM      2  C   UNL     1      73.382  40.927  20.522  1.00  0.00     0.203 C 
ATOM      3  C   UNL     1      74.710  40.278  20.034  1.00  0.00     0.282 C 
ATOM      4  O   UNL     1      75.929  40.803  20.566  1.00  0.00    -0.340 OA
ATOM      5  C   UNL     1      75.796  41.656  21.685  1.00  0.00     0.190 C 
ATOM      6  C   UNL     1      74.751  41.140  22.696  1.00  0.00     0.240 C 
ENDROOT
BRANCH   1   7
ATOM      7  O   UNL     1      72.581  39.980  22.595  1.00  0.00    -0.340 OA
BRANCH   7   8
ATOM      8  C   UNL     1      71.162  40.172  22.598  1.00  0.00     0.282 C 
ATOM      9  C   UNL     1      68.397  37.722  22.449  1.00  0.00     0.041 C 
ATOM     10  C   UNL     1      69.016  39.119  22.530  1.00  0.00     0.150 C 
ATOM     11  C   UNL     1      68.576  39.965  21.319  1.00  0.00     0.174 C 
ATOM     12  O   UNL     1      70.425  38.940  22.525  1.00  0.00    -0.344 OA
ATOM     13  C   UNL     1      69.264  41.340  21.338  1.00  0.00     0.179 C 
ATOM     14  C   UNL     1      70.784  41.148  21.468  1.00  0.00     0.202 C 
BRANCH  11  15
ATOM     15  O   UNL     1      67.181  40.096  21.231  1.00  0.00    -0.388 OA
ATOM     16  H   UNL     1      66.972  40.532  20.360  1.00  0.00     0.211 HD
ENDBRANCH  11  15
BRANCH  13  17
ATOM     17  O   UNL     1      68.809  42.092  22.438  1.00  0.00    -0.387 OA
ATOM     18  H   UNL     1      67.960  42.538  22.180  1.00  0.00     0.211 HD
ENDBRANCH  13  17
BRANCH  14  19
ATOM     19  O   UNL     1      71.365  40.766  20.248  1.00  0.00    -0.385 OA
ATOM     20  H   UNL     1      72.351  40.732  20.368  1.00  0.00     0.211 HD
ENDBRANCH  14  19
ENDBRANCH   7   8
ENDBRANCH   1   7
BRANCH   2  21
ATOM     21  O   UNL     1      73.047  42.123  19.844  1.00  0.00    -0.385 OA
ATOM     22  H   UNL     1      72.509  42.697  20.453  1.00  0.00     0.211 HD
ENDBRANCH   2  21
BRANCH   6  23
ATOM     23  O   UNL     1      75.105  39.850  23.205  1.00  0.00    -0.453 OA
BRANCH  23  24
ATOM     24  C   UNL     1      75.872  39.717  24.366  1.00  0.00     0.331 C 
ATOM     25  O   UNL     1      76.942  39.052  24.357  1.00  0.00    -0.247 OA
BRANCH  24  26
ATOM     26  C   UNL     1      75.501  40.419  25.596  1.00  0.00     0.094 C 
ATOM     27  C   UNL     1      75.900  40.020  26.808  1.00  0.00     0.016 C 
BRANCH  27  28
ATOM     28  C   UNL     1      75.346  40.671  28.011  1.00  0.00    -0.021 A 
ATOM     29  C   UNL     1      76.204  41.136  29.027  1.00  0.00     0.058 A 
ATOM     30  C   UNL     1      73.969  40.841  28.143  1.00  0.00     0.012 A 
ATOM     31  C   UNL     1      75.684  41.625  30.222  1.00  0.00     0.157 A 
ATOM     32  C   UNL     1      73.441  41.330  29.338  1.00  0.00     0.051 A 
ATOM     33  C   UNL     1      74.291  41.712  30.382  1.00  0.00     0.157 A 
BRANCH  31  34
ATOM     34  O   UNL     1      76.566  42.012  31.230  1.00  0.00    -0.504 OA
ATOM     35  H   UNL     1      76.312  41.963  32.211  1.00  0.00     0.293 HD
ENDBRANCH  31  34
BRANCH  33  36
ATOM     36  O   UNL     1      73.752  42.125  31.594  1.00  0.00    -0.504 OA
ATOM     37  H   UNL     1      72.762  42.174  31.745  1.00  0.00     0.293 HD
ENDBRANCH  33  36
ENDBRANCH  27  28
ENDBRANCH  24  26
ENDBRANCH  23  24
ENDBRANCH   6  23
BRANCH   3  38
ATOM     38  O   UNL     1      74.735  40.396  18.621  1.00  0.00    -0.350 OA
BRANCH  38  39
ATOM     39  C   UNL     1      76.003  40.056  18.081  1.00  0.00     0.168 C 
BRANCH  39  40
ATOM     40  C   UNL     1      76.273  38.575  18.312  1.00  0.00     0.064 C 
BRANCH  40  41
ATOM     41  C   UNL     1      74.995  37.768  18.177  1.00  0.00    -0.042 A 
ATOM     42  C   UNL     1      73.748  38.388  18.301  1.00  0.00     0.054 A 
ATOM     43  C   UNL     1      75.063  36.376  17.981  1.00  0.00     0.008 A 
ATOM     44  C   UNL     1      72.570  37.648  18.223  1.00  0.00     0.157 A 
ATOM     45  C   UNL     1      73.885  35.626  17.889  1.00  0.00     0.050 A 
ATOM     46  C   UNL     1      72.640  36.261  17.992  1.00  0.00     0.157 A 
BRANCH  44  47
ATOM     47  O   UNL     1      71.347  38.295  18.378  1.00  0.00    -0.504 OA
ATOM     48  H   UNL     1      70.520  38.014  17.866  1.00  0.00     0.293 HD
ENDBRANCH  44  47
BRANCH  46  49
ATOM     49  O   UNL     1      71.470  35.516  17.876  1.00  0.00    -0.504 OA
ATOM     50  H   UNL     1      71.232  34.834  18.574  1.00  0.00     0.293 HD
ENDBRANCH  46  49
ENDBRANCH  40  41
ENDBRANCH  39  40
ENDBRANCH  38  39
ENDBRANCH   3  38
BRANCH   5  51
ATOM     51  C   UNL     1      77.191  41.904  22.297  1.00  0.00     0.192 C 
BRANCH  51  52
ATOM     52  O   UNL     1      77.992  40.757  22.247  1.00  0.00    -0.394 OA
ATOM     53  H   UNL     1      78.311  40.655  21.315  1.00  0.00     0.210 HD
ENDBRANCH  51  52
ENDBRANCH   5  51
TORSDOF 20
ENDMDL
MODEL 5
REMARK VINA RESULT:     8.972      3.723      8.721
REMARK INTER + INTRA:          24.950
REMARK INTER:                  22.763
REMARK INTRA:                   2.187
REMARK UNBOUND:                 7.848
REMARK SMILES C[C@H]1O[C@@H](O[C@@H]2[C@@H](O)[C@@H](OCCc3ccc(O)c(O)c3)O[C@H](CO)[C@@H]2OC(=O)C=Cc2ccc(O)c(O)c2)[C@@H](O)[C@H](O)[C@@H]1O
REMARK SMILES IDX 6 1 7 2 9 3 21 4 22 5 25 6 5 7 4 8 1 9 2 10 43 11 3 12 41 13
REMARK SMILES IDX 39 14 44 15 42 17 40 19 8 21 26 23 27 24 28 25 29 26 30 27
REMARK SMILES IDX 31 28 38 29 32 30 36 31 33 32 34 33 37 34 35 36 10 38 11 39
REMARK SMILES IDX 12 40 13 41 20 42 14 43 18 44 15 45 16 46 19 47 17 49 23 51
REMARK SMILES IDX 24 52
REMARK H PARENT 44 16 42 18 40 20 8 22 37 35 35 37 19 48 17 50 24 53
REMARK Flexibility Score: inf
ROOT
ATOM      1  C   UNL     1      75.081  39.259  26.213  1.00  0.00     0.199 C 
ATOM      2  C   UNL     1      74.699  40.254  27.341  1.00  0.00     0.203 C 
ATOM      3  C   UNL     1      75.849  40.466  28.367  1.00  0.00     0.282 C 
ATOM      4  O   UNL     1      76.489  39.296  28.884  1.00  0.00    -0.340 OA
ATOM      5  C   UNL     1      76.210  38.090  28.203  1.00  0.00     0.190 C 
ATOM      6  C   UNL     1      76.200  38.269  26.671  1.00  0.00     0.240 C 
ENDROOT
BRANCH   1   7
ATOM      7  O   UNL     1      75.498  40.007  25.074  1.00  0.00    -0.340 OA
BRANCH   7   8
ATOM      8  C   UNL     1      74.515  40.104  24.037  1.00  0.00     0.282 C 
ATOM      9  C   UNL     1      74.004  38.056  21.001  1.00  0.00     0.041 C 
ATOM     10  C   UNL     1      73.695  39.185  21.987  1.00  0.00     0.150 C 
ATOM     11  C   UNL     1      73.783  40.550  21.275  1.00  0.00     0.174 C 
ATOM     12  O   UNL     1      74.668  39.100  23.019  1.00  0.00    -0.344 OA
ATOM     13  C   UNL     1      73.567  41.699  22.273  1.00  0.00     0.179 C 
ATOM     14  C   UNL     1      74.531  41.531  23.460  1.00  0.00     0.202 C 
BRANCH  11  15
ATOM     15  O   UNL     1      72.900  40.649  20.188  1.00  0.00    -0.388 OA
ATOM     16  H   UNL     1      73.151  39.945  19.529  1.00  0.00     0.211 HD
ENDBRANCH  11  15
BRANCH  13  17
ATOM     17  O   UNL     1      72.246  41.674  22.759  1.00  0.00    -0.387 OA
ATOM     18  H   UNL     1      71.892  40.752  22.650  1.00  0.00     0.211 HD
ENDBRANCH  13  17
BRANCH  14  19
ATOM     19  O   UNL     1      75.835  41.933  23.130  1.00  0.00    -0.385 OA
ATOM     20  H   UNL     1      76.473  41.425  23.697  1.00  0.00     0.211 HD
ENDBRANCH  14  19
ENDBRANCH   7   8
ENDBRANCH   1   7
BRANCH   2  21
ATOM     21  O   UNL     1      73.450  39.954  27.934  1.00  0.00    -0.385 OA
ATOM     22  H   UNL     1      72.989  39.266  27.383  1.00  0.00     0.211 HD
ENDBRANCH   2  21
BRANCH   6  23
ATOM     23  O   UNL     1      77.467  38.726  26.188  1.00  0.00    -0.453 OA
BRANCH  23  24
ATOM     24  C   UNL     1      78.115  38.081  25.130  1.00  0.00     0.331 C 
ATOM     25  O   UNL     1      78.284  36.833  25.145  1.00  0.00    -0.247 OA
BRANCH  24  26
ATOM     26  C   UNL     1      78.531  38.825  23.940  1.00  0.00     0.094 C 
ATOM     27  C   UNL     1      77.932  39.952  23.543  1.00  0.00     0.016 C 
BRANCH  27  28
ATOM     28  C   UNL     1      78.290  40.551  22.241  1.00  0.00    -0.021 A 
ATOM     29  C   UNL     1      77.284  41.023  21.376  1.00  0.00     0.058 A 
ATOM     30  C   UNL     1      79.628  40.663  21.867  1.00  0.00     0.012 A 
ATOM     31  C   UNL     1      77.604  41.462  20.094  1.00  0.00     0.157 A 
ATOM     32  C   UNL     1      79.955  41.100  20.584  1.00  0.00     0.051 A 
ATOM     33  C   UNL     1      78.950  41.490  19.691  1.00  0.00     0.157 A 
BRANCH  31  34
ATOM     34  O   UNL     1      76.573  41.858  19.243  1.00  0.00    -0.504 OA
ATOM     35  H   UNL     1      76.716  42.551  18.516  1.00  0.00     0.293 HD
ENDBRANCH  31  34
BRANCH  33  36
ATOM     36  O   UNL     1      79.282  41.850  18.392  1.00  0.00    -0.504 OA
ATOM     37  H   UNL     1      78.620  42.282  17.776  1.00  0.00     0.293 HD
ENDBRANCH  33  36
ENDBRANCH  27  28
ENDBRANCH  24  26
ENDBRANCH  23  24
ENDBRANCH   6  23
BRANCH   3  38
ATOM     38  O   UNL     1      75.311  41.211  29.447  1.00  0.00    -0.350 OA
BRANCH  38  39
ATOM     39  C   UNL     1      73.891  41.226  29.430  1.00  0.00     0.168 C 
BRANCH  39  40
ATOM     40  C   UNL     1      73.374  41.891  30.699  1.00  0.00     0.064 C 
BRANCH  40  41
ATOM     41  C   UNL     1      71.859  41.972  30.684  1.00  0.00    -0.042 A 
ATOM     42  C   UNL     1      71.140  42.047  31.881  1.00  0.00     0.054 A 
ATOM     43  C   UNL     1      71.166  41.913  29.460  1.00  0.00     0.008 A 
ATOM     44  C   UNL     1      69.747  42.076  31.879  1.00  0.00     0.157 A 
ATOM     45  C   UNL     1      69.768  41.953  29.447  1.00  0.00     0.050 A 
ATOM     46  C   UNL     1      69.058  42.052  30.651  1.00  0.00     0.157 A 
BRANCH  44  47
ATOM     47  O   UNL     1      69.065  42.124  33.091  1.00  0.00    -0.504 OA
ATOM     48  H   UNL     1      68.329  41.468  33.322  1.00  0.00     0.293 HD
ENDBRANCH  44  47
BRANCH  46  49
ATOM     49  O   UNL     1      67.668  42.116  30.634  1.00  0.00    -0.504 OA
ATOM     50  H   UNL     1      67.196  42.709  29.976  1.00  0.00     0.293 HD
ENDBRANCH  46  49
ENDBRANCH  40  41
ENDBRANCH  39  40
ENDBRANCH  38  39
ENDBRANCH   3  38
BRANCH   5  51
ATOM     51  C   UNL     1      77.177  36.995  28.700  1.00  0.00     0.192 C 
BRANCH  51  52
ATOM     52  O   UNL     1      78.261  36.825  27.829  1.00  0.00    -0.394 OA
ATOM     53  H   UNL     1      78.209  37.537  27.145  1.00  0.00     0.210 HD
ENDBRANCH  51  52
ENDBRANCH   5  51
TORSDOF 20
ENDMDL
MODEL 6
REMARK VINA RESULT:     8.973      1.518      2.682
REMARK INTER + INTRA:          24.951
REMARK INTER:                  16.454
REMARK INTRA:                   8.497
REMARK UNBOUND:                 7.848
REMARK SMILES C[C@H]1O[C@@H](O[C@@H]2[C@@H](O)[C@@H](OCCc3ccc(O)c(O)c3)O[C@H](CO)[C@@H]2OC(=O)C=Cc2ccc(O)c(O)c2)[C@@H](O)[C@H](O)[C@@H]1O
REMARK SMILES IDX 6 1 7 2 9 3 21 4 22 5 25 6 5 7 4 8 1 9 2 10 43 11 3 12 41 13
REMARK SMILES IDX 39 14 44 15 42 17 40 19 8 21 26 23 27 24 28 25 29 26 30 27
REMARK SMILES IDX 31 28 38 29 32 30 36 31 33 32 34 33 37 34 35 36 10 38 11 39
REMARK SMILES IDX 12 40 13 41 20 42 14 43 18 44 15 45 16 46 19 47 17 49 23 51
REMARK SMILES IDX 24 52
REMARK H PARENT 44 16 42 18 40 20 8 22 37 35 35 37 19 48 17 50 24 53
REMARK Flexibility Score: inf
ROOT
ATOM      1  C   UNL     1      73.982  41.989  20.515  1.00  0.00     0.199 C 
ATOM      2  C   UNL     1      74.037  40.791  19.531  1.00  0.00     0.203 C 
ATOM      3  C   UNL     1      75.030  39.684  19.990  1.00  0.00     0.282 C 
ATOM      4  O   UNL     1      76.336  40.102  20.393  1.00  0.00    -0.340 OA
ATOM      5  C   UNL     1      76.500  41.490  20.605  1.00  0.00     0.190 C 
ATOM      6  C   UNL     1      75.300  42.117  21.344  1.00  0.00     0.240 C 
ENDROOT
BRANCH   1   7
ATOM      7  O   UNL     1      72.856  41.815  21.372  1.00  0.00    -0.340 OA
BRANCH   7   8
ATOM      8  C   UNL     1      71.745  41.148  20.763  1.00  0.00     0.282 C 
ATOM      9  C   UNL     1      69.645  42.106  17.875  1.00  0.00     0.041 C 
ATOM     10  C   UNL     1      70.097  41.212  19.032  1.00  0.00     0.150 C 
ATOM     11  C   UNL     1      68.947  41.030  20.042  1.00  0.00     0.174 C 
ATOM     12  O   UNL     1      71.198  41.867  19.645  1.00  0.00    -0.344 OA
ATOM     13  C   UNL     1      69.414  40.211  21.256  1.00  0.00     0.179 C 
ATOM     14  C   UNL     1      70.687  40.845  21.840  1.00  0.00     0.202 C 
BRANCH  11  15
ATOM     15  O   UNL     1      67.801  40.466  19.459  1.00  0.00    -0.388 OA
ATOM     16  H   UNL     1      67.792  40.725  18.497  1.00  0.00     0.211 HD
ENDBRANCH  11  15
BRANCH  13  17
ATOM     17  O   UNL     1      69.709  38.891  20.862  1.00  0.00    -0.387 OA
ATOM     18  H   UNL     1      70.286  38.481  21.559  1.00  0.00     0.211 HD
ENDBRANCH  13  17
BRANCH  14  19
ATOM     19  O   UNL     1      70.394  41.988  22.602  1.00  0.00    -0.385 OA
ATOM     20  H   UNL     1      70.891  41.929  23.460  1.00  0.00     0.211 HD
ENDBRANCH  14  19
ENDBRANCH   7   8
ENDBRANCH   1   7
BRANCH   2  21
ATOM     21  O   UNL     1      74.214  41.195  18.186  1.00  0.00    -0.385 OA
ATOM     22  H   UNL     1      74.669  40.464  17.688  1.00  0.00     0.211 HD
ENDBRANCH   2  21
BRANCH   6  23
ATOM     23  O   UNL     1      75.111  41.528  22.634  1.00  0.00    -0.453 OA
BRANCH  23  24
ATOM     24  C   UNL     1      74.728  40.190  22.770  1.00  0.00     0.331 C 
ATOM     25  O   UNL     1      74.045  39.623  21.876  1.00  0.00    -0.247 OA
BRANCH  24  26
ATOM     26  C   UNL     1      75.186  39.390  23.907  1.00  0.00     0.094 C 
ATOM     27  C   UNL     1      76.304  39.669  24.586  1.00  0.00     0.016 C 
BRANCH  27  28
ATOM     28  C   UNL     1      76.795  38.721  25.606  1.00  0.00    -0.021 A 
ATOM     29  C   UNL     1      76.056  38.501  26.785  1.00  0.00     0.058 A 
ATOM     30  C   UNL     1      77.987  38.029  25.402  1.00  0.00     0.012 A 
ATOM     31  C   UNL     1      76.578  37.716  27.810  1.00  0.00     0.157 A 
ATOM     32  C   UNL     1      78.516  37.242  26.426  1.00  0.00     0.051 A 
ATOM     33  C   UNL     1      77.823  37.091  27.632  1.00  0.00     0.157 A 
BRANCH  31  34
ATOM     34  O   UNL     1      75.846  37.577  28.988  1.00  0.00    -0.504 OA
ATOM     35  H   UNL     1      75.616  36.666  29.372  1.00  0.00     0.293 HD
ENDBRANCH  31  34
BRANCH  33  36
ATOM     36  O   UNL     1      78.395  36.368  28.670  1.00  0.00    -0.504 OA
ATOM     37  H   UNL     1      79.160  36.728  29.209  1.00  0.00     0.293 HD
ENDBRANCH  33  36
ENDBRANCH  27  28
ENDBRANCH  24  26
ENDBRANCH  23  24
ENDBRANCH   6  23
BRANCH   3  38
ATOM     38  O   UNL     1      75.152  38.763  18.918  1.00  0.00    -0.350 OA
BRANCH  38  39
ATOM     39  C   UNL     1      74.195  39.002  17.898  1.00  0.00     0.168 C 
BRANCH  39  40
ATOM     40  C   UNL     1      72.795  38.985  18.500  1.00  0.00     0.064 C 
BRANCH  40  41
ATOM     41  C   UNL     1      72.476  37.618  19.076  1.00  0.00    -0.042 A 
ATOM     42  C   UNL     1      72.205  36.537  18.231  1.00  0.00     0.054 A 
ATOM     43  C   UNL     1      72.394  37.447  20.470  1.00  0.00     0.008 A 
ATOM     44  C   UNL     1      71.867  35.289  18.751  1.00  0.00     0.157 A 
ATOM     45  C   UNL     1      72.067  36.195  21.002  1.00  0.00     0.050 A 
ATOM     46  C   UNL     1      71.820  35.113  20.147  1.00  0.00     0.157 A 
BRANCH  44  47
ATOM     47  O   UNL     1      71.579  34.243  17.879  1.00  0.00    -0.504 OA
ATOM     48  H   UNL     1      71.106  34.392  16.996  1.00  0.00     0.293 HD
ENDBRANCH  44  47
BRANCH  46  49
ATOM     49  O   UNL     1      71.518  33.862  20.679  1.00  0.00    -0.504 OA
ATOM     50  H   UNL     1      71.637  33.034  20.125  1.00  0.00     0.293 HD
ENDBRANCH  46  49
ENDBRANCH  40  41
ENDBRANCH  39  40
ENDBRANCH  38  39
ENDBRANCH   3  38
BRANCH   5  51
ATOM     51  C   UNL     1      77.859  41.738  21.293  1.00  0.00     0.192 C 
BRANCH  51  52
ATOM     52  O   UNL     1      78.471  40.539  21.680  1.00  0.00    -0.394 OA
ATOM     53  H   UNL     1      78.068  39.811  21.145  1.00  0.00     0.210 HD
ENDBRANCH  51  52
ENDBRANCH   5  51
TORSDOF 20
ENDMDL
