MODEL 1
REMARK VINA RESULT:     0.900      0.000      0.000
REMARK INTER + INTRA:           8.657
REMARK INTER:                   1.374
REMARK INTRA:                   7.283
REMARK UNBOUND:                 7.283
REMARK SMILES CC1=CCC[C@@H](C)C(=O)C[C@H](C(C)C)C(=O)C1
REMARK SMILES IDX 8 1 9 2 6 3 7 4 5 5 4 6 3 7 2 8 1 9 10 11 11 12 15 13 16 14
REMARK SMILES IDX 17 15 12 17 13 18 14 19
REMARK H PARENT
REMARK Flexibility Score: 70.00
ROOT
ATOM      1  C   UNL     1      24.746 -18.190   3.042  1.00  0.00     0.136 C 
ATOM      2  O   UNL     1      25.681 -17.549   2.581  1.00  0.00    -0.299 OA
ENDROOT
BRANCH   1   3
ATOM      3  C   UNL     1      23.750 -17.515   3.962  1.00  0.00     0.053 C 
ATOM      4  C   UNL     1      22.521 -18.415   4.125  1.00  0.00     0.016 C 
BRANCH   3   5
ATOM      5  C   UNL     1      23.331 -16.124   3.434  1.00  0.00     0.015 C 
BRANCH   5   6
ATOM      6  C   UNL     1      22.015 -16.146   2.640  1.00  0.00     0.028 C 
BRANCH   6   7
ATOM      7  C   UNL     1      22.259 -15.908   1.169  1.00  0.00    -0.028 C 
ATOM      8  C   UNL     1      23.295 -16.401   0.452  1.00  0.00    -0.070 CG0
ATOM      9  C   UNL     1      23.369 -16.055  -1.014  1.00  0.00     0.039 C 
ATOM     10  G   UNL     1      24.397 -17.248   1.058  1.00  0.00     0.000 G0
ENDBRANCH   6   7
ENDBRANCH   5   6
ENDBRANCH   3   5
ENDBRANCH   1   3
BRANCH   1  11
ATOM     11  C   UNL     1      24.599 -19.641   2.663  1.00  0.00     0.087 C 
BRANCH  11  12
ATOM     12  C   UNL     1      24.630 -19.843   1.126  1.00  0.00     0.066 C 
BRANCH  12  13
ATOM     13  C   UNL     1      24.733 -18.510   0.404  1.00  0.00     0.140 C 
ATOM     14  O   UNL     1      25.023 -18.481  -0.784  1.00  0.00    -0.299 OA
BRANCH  13  15
ATOM     15  C   UNL     1      24.431 -17.212   1.109  1.00  0.00     0.106 CG0
ATOM     16  G   UNL     1      23.315 -16.462   0.407  1.00  0.00     0.000 G0
ENDBRANCH  13  15
ENDBRANCH  12  13
BRANCH  12  17
ATOM     17  C   UNL     1      25.761 -20.808   0.647  1.00  0.00    -0.006 C 
ATOM     18  C   UNL     1      26.379 -21.653   1.775  1.00  0.00     0.008 C 
ATOM     19  C   UNL     1      25.283 -21.721  -0.493  1.00  0.00     0.008 C 
ENDBRANCH  12  17
ENDBRANCH  11  12
ENDBRANCH   1  11
TORSDOF 1
ENDMDL
MODEL 2
REMARK VINA RESULT:     1.936      1.972      2.966
REMARK INTER + INTRA:          10.238
REMARK INTER:                   4.828
REMARK INTRA:                   5.410
REMARK UNBOUND:                 7.283
REMARK SMILES CC1=CCC[C@@H](C)C(=O)C[C@H](C(C)C)C(=O)C1
REMARK SMILES IDX 8 1 9 2 6 3 7 4 5 5 4 6 3 7 2 8 1 9 10 11 11 12 15 13 16 14
REMARK SMILES IDX 17 15 12 17 13 18 14 19
REMARK H PARENT
REMARK Flexibility Score: 70.00
ROOT
ATOM      1  C   UNL     1      23.158 -17.573   2.364  1.00  0.00     0.136 C 
ATOM      2  O   UNL     1      22.164 -17.012   1.924  1.00  0.00    -0.299 OA
ENDROOT
BRANCH   1   3
ATOM      3  C   UNL     1      24.348 -16.752   2.817  1.00  0.00     0.053 C 
ATOM      4  C   UNL     1      23.937 -15.877   4.005  1.00  0.00     0.016 C 
BRANCH   3   5
ATOM      5  C   UNL     1      24.909 -15.875   1.674  1.00  0.00     0.015 C 
BRANCH   5   6
ATOM      6  C   UNL     1      26.422 -16.042   1.466  1.00  0.00     0.028 C 
BRANCH   6   7
ATOM      7  C   UNL     1      26.871 -17.443   1.805  1.00  0.00    -0.028 C 
ATOM      8  C   UNL     1      26.583 -18.557   1.094  1.00  0.00    -0.070 CG0
ATOM      9  C   UNL     1      27.125 -19.873   1.592  1.00  0.00     0.039 C 
ATOM     10  G   UNL     1      25.717 -18.548  -0.151  1.00  0.00     0.000 G0
ENDBRANCH   6   7
ENDBRANCH   5   6
ENDBRANCH   3   5
ENDBRANCH   1   3
BRANCH   1  11
ATOM     11  C   UNL     1      23.165 -19.076   2.462  1.00  0.00     0.087 C 
BRANCH  11  12
ATOM     12  C   UNL     1      23.741 -19.737   1.183  1.00  0.00     0.066 C 
BRANCH  12  13
ATOM     13  C   UNL     1      24.241 -18.685   0.206  1.00  0.00     0.140 C 
ATOM     14  O   UNL     1      23.458 -17.874  -0.269  1.00  0.00    -0.299 OA
BRANCH  13  15
ATOM     15  C   UNL     1      25.701 -18.581  -0.154  1.00  0.00     0.106 CG0
ATOM     16  G   UNL     1      26.563 -18.520   1.093  1.00  0.00     0.000 G0
ENDBRANCH  13  15
ENDBRANCH  12  13
BRANCH  12  17
ATOM     17  C   UNL     1      24.862 -20.784   1.473  1.00  0.00    -0.006 C 
ATOM     18  C   UNL     1      24.801 -21.387   2.888  1.00  0.00     0.008 C 
ATOM     19  C   UNL     1      24.876 -21.907   0.423  1.00  0.00     0.008 C 
ENDBRANCH  12  17
ENDBRANCH  11  12
ENDBRANCH   1  11
TORSDOF 1
ENDMDL
