MODEL 1
REMARK VINA RESULT:    -3.788      0.000      0.000
REMARK INTER + INTRA:          -3.634
REMARK INTER:                  -4.674
REMARK INTRA:                   1.041
REMARK UNBOUND:                 1.041
REMARK SMILES C=C1[C@@H]2CC[C@H]3[C@@H]2C(C)(C)CCC[C@@]13C
REMARK SMILES IDX 14 1 6 2 7 3 3 4 2 5 1 6 4 7 5 8 15 9 8 10 9 11 10 12 11 13
REMARK SMILES IDX 13 15 12 16
REMARK H PARENT
REMARK Flexibility Score: 80.00
ROOT
ATOM      1  C   UNL     1     146.323 145.077 131.844  1.00  0.00    -0.008 C 
ATOM      2  C   UNL     1     144.982 145.206 131.022  1.00  0.00     0.003 C 
ATOM      3  C   UNL     1     143.868 145.227 132.093  1.00  0.00     0.006 C 
ATOM      4  C   UNL     1     144.356 143.958 132.780  1.00  0.00     0.019 C 
ATOM      5  C   UNL     1     145.806 144.273 133.017  1.00  0.00    -0.068 C 
ATOM      6  C   UNL     1     146.527 143.815 134.047  1.00  0.00     0.009 C 
ATOM      7  C   UNL     1     144.304 142.955 131.604  1.00  0.00     0.008 C 
ATOM      8  C   UNL     1     144.638 143.837 130.375  1.00  0.00     0.005 C 
ATOM      9  C   UNL     1     147.441 144.284 131.113  1.00  0.00     0.016 C 
ENDROOT
BRANCH   3  10
ATOM     10  C   UNL     1     143.618 146.515 132.967  1.00  0.00    -0.032 C 
ATOM     11  C   UNL     1     142.654 146.155 134.124  1.00  0.00     0.011 C 
ATOM     12  C   UNL     1     142.886 147.566 132.089  1.00  0.00     0.011 C 
BRANCH  10  13
ATOM     13  C   UNL     1     144.882 147.151 133.609  1.00  0.00     0.007 CG0
ATOM     14  G   UNL     1     145.961 147.568 132.607  1.00  0.00     0.000 G0
ENDBRANCH  10  13
ENDBRANCH   3  10
BRANCH   1  15
ATOM     15  C   UNL     1     146.935 146.444 132.267  1.00  0.00     0.011 C 
BRANCH  15  16
ATOM     16  C   UNL     1     145.958 147.567 132.610  1.00  0.00     0.001 CG0
ATOM     17  G   UNL     1     144.878 147.136 133.606  1.00  0.00     0.000 G0
ENDBRANCH  15  16
ENDBRANCH   1  15
TORSDOF 0
ENDMDL
MODEL 2
REMARK VINA RESULT:    -3.769      1.710      4.049
REMARK INTER + INTRA:          -3.610
REMARK INTER:                  -4.633
REMARK INTRA:                   1.023
REMARK UNBOUND:                 1.041
REMARK SMILES C=C1[C@@H]2CC[C@H]3[C@@H]2C(C)(C)CCC[C@@]13C
REMARK SMILES IDX 14 1 6 2 7 3 3 4 2 5 1 6 4 7 5 8 15 9 8 10 9 11 10 12 11 13
REMARK SMILES IDX 13 15 12 16
REMARK H PARENT
REMARK Flexibility Score: 80.00
ROOT
ATOM      1  C   UNL     1     144.331 145.711 131.851  1.00  0.00    -0.008 C 
ATOM      2  C   UNL     1     145.635 145.441 131.006  1.00  0.00     0.003 C 
ATOM      3  C   UNL     1     146.783 145.472 132.040  1.00  0.00     0.006 C 
ATOM      4  C   UNL     1     146.375 146.822 132.613  1.00  0.00     0.019 C 
ATOM      5  C   UNL     1     144.922 146.600 132.923  1.00  0.00    -0.068 C 
ATOM      6  C   UNL     1     144.257 147.188 133.925  1.00  0.00     0.009 C 
ATOM      7  C   UNL     1     146.429 147.704 131.343  1.00  0.00     0.008 C 
ATOM      8  C   UNL     1     146.016 146.724 130.217  1.00  0.00     0.005 C 
ATOM      9  C   UNL     1     143.223 146.480 131.080  1.00  0.00     0.016 C 
ENDROOT
BRANCH   3  10
ATOM     10  C   UNL     1     147.008 144.265 133.027  1.00  0.00    -0.032 C 
ATOM     11  C   UNL     1     148.013 144.695 134.124  1.00  0.00     0.011 C 
ATOM     12  C   UNL     1     147.679 143.107 132.239  1.00  0.00     0.011 C 
BRANCH  10  13
ATOM     13  C   UNL     1     145.738 143.741 133.754  1.00  0.00     0.007 CG0
ATOM     14  G   UNL     1     144.615 143.286 132.819  1.00  0.00     0.000 G0
ENDBRANCH  10  13
ENDBRANCH   3  10
BRANCH   1  15
ATOM     15  C   UNL     1     143.675 144.420 132.425  1.00  0.00     0.011 C 
BRANCH  15  16
ATOM     16  C   UNL     1     144.613 143.281 132.820  1.00  0.00     0.001 CG0
ATOM     17  G   UNL     1     145.743 143.732 133.748  1.00  0.00     0.000 G0
ENDBRANCH  15  16
ENDBRANCH   1  15
TORSDOF 0
ENDMDL
MODEL 3
REMARK VINA RESULT:    -3.610      1.103      3.185
REMARK INTER + INTRA:          -3.413
REMARK INTER:                  -4.435
REMARK INTRA:                   1.022
REMARK UNBOUND:                 1.041
REMARK SMILES C=C1[C@@H]2CC[C@H]3[C@@H]2C(C)(C)CCC[C@@]13C
REMARK SMILES IDX 14 1 6 2 7 3 3 4 2 5 1 6 4 7 5 8 15 9 8 10 9 11 10 12 11 13
REMARK SMILES IDX 13 15 12 16
REMARK H PARENT
REMARK Flexibility Score: 80.00
ROOT
ATOM      1  C   UNL     1     144.841 144.229 132.883  1.00  0.00    -0.008 C 
ATOM      2  C   UNL     1     146.089 144.923 133.556  1.00  0.00     0.003 C 
ATOM      3  C   UNL     1     146.592 145.930 132.497  1.00  0.00     0.006 C 
ATOM      4  C   UNL     1     146.662 144.892 131.385  1.00  0.00     0.019 C 
ATOM      5  C   UNL     1     145.286 144.291 131.438  1.00  0.00    -0.068 C 
ATOM      6  C   UNL     1     144.628 143.798 130.382  1.00  0.00     0.009 C 
ATOM      7  C   UNL     1     147.623 143.858 132.015  1.00  0.00     0.008 C 
ATOM      8  C   UNL     1     147.299 143.951 133.527  1.00  0.00     0.005 C 
ATOM      9  C   UNL     1     144.633 142.750 133.308  1.00  0.00     0.016 C 
ENDROOT
BRANCH   3  10
ATOM     10  C   UNL     1     145.814 147.275 132.233  1.00  0.00    -0.032 C 
ATOM     11  C   UNL     1     146.366 147.928 130.942  1.00  0.00     0.011 C 
ATOM     12  C   UNL     1     146.125 148.256 133.396  1.00  0.00     0.011 C 
BRANCH  10  13
ATOM     13  C   UNL     1     144.276 147.140 132.053  1.00  0.00     0.007 CG0
ATOM     14  G   UNL     1     143.553 146.496 133.237  1.00  0.00     0.000 G0
ENDBRANCH  10  13
ENDBRANCH   3  10
BRANCH   1  15
ATOM     15  C   UNL     1     143.496 144.971 133.138  1.00  0.00     0.011 C 
BRANCH  15  16
ATOM     16  C   UNL     1     143.551 146.495 133.235  1.00  0.00     0.001 CG0
ATOM     17  G   UNL     1     144.272 147.143 132.051  1.00  0.00     0.000 G0
ENDBRANCH  15  16
ENDBRANCH   1  15
TORSDOF 0
ENDMDL
MODEL 4
REMARK VINA RESULT:    -3.582      1.713      3.704
REMARK INTER + INTRA:          -3.380
REMARK INTER:                  -4.402
REMARK INTRA:                   1.023
REMARK UNBOUND:                 1.041
REMARK SMILES C=C1[C@@H]2CC[C@H]3[C@@H]2C(C)(C)CCC[C@@]13C
REMARK SMILES IDX 14 1 6 2 7 3 3 4 2 5 1 6 4 7 5 8 15 9 8 10 9 11 10 12 11 13
REMARK SMILES IDX 13 15 12 16
REMARK H PARENT
REMARK Flexibility Score: 80.00
ROOT
ATOM      1  C   UNL     1     145.902 146.527 132.885  1.00  0.00    -0.008 C 
ATOM      2  C   UNL     1     144.672 145.828 133.583  1.00  0.00     0.003 C 
ATOM      3  C   UNL     1     144.134 144.839 132.524  1.00  0.00     0.006 C 
ATOM      4  C   UNL     1     144.035 145.895 131.431  1.00  0.00     0.019 C 
ATOM      5  C   UNL     1     145.415 146.491 131.453  1.00  0.00    -0.068 C 
ATOM      6  C   UNL     1     146.043 146.998 130.386  1.00  0.00     0.009 C 
ATOM      7  C   UNL     1     143.097 146.923 132.106  1.00  0.00     0.008 C 
ATOM      8  C   UNL     1     143.465 146.804 133.606  1.00  0.00     0.005 C 
ATOM      9  C   UNL     1     146.129 147.999 133.328  1.00  0.00     0.016 C 
ENDROOT
BRANCH   3  10
ATOM     10  C   UNL     1     144.898 143.497 132.215  1.00  0.00    -0.032 C 
ATOM     11  C   UNL     1     144.306 142.866 130.930  1.00  0.00     0.011 C 
ATOM     12  C   UNL     1     144.618 142.497 133.370  1.00  0.00     0.011 C 
BRANCH  10  13
ATOM     13  C   UNL     1     146.431 143.629 131.992  1.00  0.00     0.007 CG0
ATOM     14  G   UNL     1     147.190 144.257 133.162  1.00  0.00     0.000 G0
ENDBRANCH  10  13
ENDBRANCH   3  10
BRANCH   1  15
ATOM     15  C   UNL     1     147.251 145.777 133.087  1.00  0.00     0.011 C 
BRANCH  15  16
ATOM     16  C   UNL     1     147.193 144.253 133.163  1.00  0.00     0.001 CG0
ATOM     17  G   UNL     1     146.434 143.624 131.993  1.00  0.00     0.000 G0
ENDBRANCH  15  16
ENDBRANCH   1  15
TORSDOF 0
ENDMDL
MODEL 5
REMARK VINA RESULT:    -3.156      1.468      2.892
REMARK INTER + INTRA:          -2.854
REMARK INTER:                  -3.858
REMARK INTRA:                   1.004
REMARK UNBOUND:                 1.041
REMARK SMILES C=C1[C@@H]2CC[C@H]3[C@@H]2C(C)(C)CCC[C@@]13C
REMARK SMILES IDX 14 1 6 2 7 3 3 4 2 5 1 6 4 7 5 8 15 9 8 10 9 11 10 12 11 13
REMARK SMILES IDX 13 15 12 16
REMARK H PARENT
REMARK Flexibility Score: 80.00
ROOT
ATOM      1  C   UNL     1     144.944 144.351 131.953  1.00  0.00    -0.008 C 
ATOM      2  C   UNL     1     145.410 145.512 130.991  1.00  0.00     0.003 C 
ATOM      3  C   UNL     1     145.270 146.798 131.836  1.00  0.00     0.006 C 
ATOM      4  C   UNL     1     143.826 146.513 132.228  1.00  0.00     0.019 C 
ATOM      5  C   UNL     1     143.924 145.115 132.769  1.00  0.00    -0.068 C 
ATOM      6  C   UNL     1     143.150 144.618 133.741  1.00  0.00     0.009 C 
ATOM      7  C   UNL     1     143.165 146.405 130.834  1.00  0.00     0.008 C 
ATOM      8  C   UNL     1     144.292 145.807 129.955  1.00  0.00     0.005 C 
ATOM      9  C   UNL     1     144.255 143.164 131.226  1.00  0.00     0.016 C 
ENDROOT
BRANCH   3  10
ATOM     10  C   UNL     1     146.312 147.133 132.970  1.00  0.00    -0.032 C 
ATOM     11  C   UNL     1     145.753 148.287 133.839  1.00  0.00     0.011 C 
ATOM     12  C   UNL     1     147.608 147.667 132.301  1.00  0.00     0.011 C 
BRANCH  10  13
ATOM     13  C   UNL     1     146.659 145.964 133.934  1.00  0.00     0.007 CG0
ATOM     14  G   UNL     1     147.206 144.713 133.243  1.00  0.00     0.000 G0
ENDBRANCH  10  13
ENDBRANCH   3  10
BRANCH   1  15
ATOM     15  C   UNL     1     146.091 143.753 132.819  1.00  0.00     0.011 C 
BRANCH  15  16
ATOM     16  C   UNL     1     147.198 144.707 133.261  1.00  0.00     0.001 CG0
ATOM     17  G   UNL     1     146.662 145.975 133.931  1.00  0.00     0.000 G0
ENDBRANCH  15  16
ENDBRANCH   1  15
TORSDOF 0
ENDMDL
MODEL 6
REMARK VINA RESULT:    -3.125      1.425      2.830
REMARK INTER + INTRA:          -2.815
REMARK INTER:                  -3.819
REMARK INTRA:                   1.004
REMARK UNBOUND:                 1.041
REMARK SMILES C=C1[C@@H]2CC[C@H]3[C@@H]2C(C)(C)CCC[C@@]13C
REMARK SMILES IDX 14 1 6 2 7 3 3 4 2 5 1 6 4 7 5 8 15 9 8 10 9 11 10 12 11 13
REMARK SMILES IDX 13 15 12 16
REMARK H PARENT
REMARK Flexibility Score: 80.00
ROOT
ATOM      1  C   UNL     1     145.799 146.429 131.959  1.00  0.00    -0.008 C 
ATOM      2  C   UNL     1     145.331 145.285 130.978  1.00  0.00     0.003 C 
ATOM      3  C   UNL     1     145.457 143.986 131.805  1.00  0.00     0.006 C 
ATOM      4  C   UNL     1     146.900 144.256 132.209  1.00  0.00     0.019 C 
ATOM      5  C   UNL     1     146.809 145.647 132.770  1.00  0.00    -0.068 C 
ATOM      6  C   UNL     1     147.581 146.125 133.753  1.00  0.00     0.009 C 
ATOM      7  C   UNL     1     147.571 144.380 130.821  1.00  0.00     0.008 C 
ATOM      8  C   UNL     1     146.453 144.997 129.944  1.00  0.00     0.005 C 
ATOM      9  C   UNL     1     146.500 147.622 131.252  1.00  0.00     0.016 C 
ENDROOT
BRANCH   3  10
ATOM     10  C   UNL     1     144.407 143.643 132.929  1.00  0.00    -0.032 C 
ATOM     11  C   UNL     1     144.953 142.474 133.785  1.00  0.00     0.011 C 
ATOM     12  C   UNL     1     143.112 143.125 132.245  1.00  0.00     0.011 C 
BRANCH  10  13
ATOM     13  C   UNL     1     144.061 144.800 133.906  1.00  0.00     0.007 CG0
ATOM     14  G   UNL     1     143.521 146.062 133.228  1.00  0.00     0.000 G0
ENDBRANCH  10  13
ENDBRANCH   3  10
BRANCH   1  15
ATOM     15  C   UNL     1     144.651 147.023 132.826  1.00  0.00     0.011 C 
BRANCH  15  16
ATOM     16  C   UNL     1     143.538 146.068 133.254  1.00  0.00     0.001 CG0
ATOM     17  G   UNL     1     144.067 144.787 133.902  1.00  0.00     0.000 G0
ENDBRANCH  15  16
ENDBRANCH   1  15
TORSDOF 0
ENDMDL
MODEL 7
REMARK VINA RESULT:    -2.939      1.071      3.548
REMARK INTER + INTRA:          -2.586
REMARK INTER:                  -3.626
REMARK INTRA:                   1.040
REMARK UNBOUND:                 1.041
REMARK SMILES C=C1[C@@H]2CC[C@H]3[C@@H]2C(C)(C)CCC[C@@]13C
REMARK SMILES IDX 14 1 6 2 7 3 3 4 2 5 1 6 4 7 5 8 15 9 8 10 9 11 10 12 11 13
REMARK SMILES IDX 13 15 12 16
REMARK H PARENT
REMARK Flexibility Score: 80.00
ROOT
ATOM      1  C   UNL     1     144.110 145.678 133.138  1.00  0.00    -0.008 C 
ATOM      2  C   UNL     1     144.827 144.332 133.546  1.00  0.00     0.003 C 
ATOM      3  C   UNL     1     145.746 144.001 132.348  1.00  0.00     0.006 C 
ATOM      4  C   UNL     1     144.629 144.122 131.320  1.00  0.00     0.019 C 
ATOM      5  C   UNL     1     144.059 145.474 131.640  1.00  0.00    -0.068 C 
ATOM      6  C   UNL     1     143.504 146.299 130.743  1.00  0.00     0.009 C 
ATOM      7  C   UNL     1     143.625 143.077 131.860  1.00  0.00     0.008 C 
ATOM      8  C   UNL     1     143.833 143.149 133.393  1.00  0.00     0.005 C 
ATOM      9  C   UNL     1     142.670 145.824 133.700  1.00  0.00     0.016 C 
ENDROOT
BRANCH   3  10
ATOM     10  C   UNL     1     147.082 144.803 132.114  1.00  0.00    -0.032 C 
ATOM     11  C   UNL     1     147.636 144.456 130.711  1.00  0.00     0.011 C 
ATOM     12  C   UNL     1     148.136 144.308 133.143  1.00  0.00     0.011 C 
BRANCH  10  13
ATOM     13  C   UNL     1     146.962 146.351 132.186  1.00  0.00     0.007 CG0
ATOM     14  G   UNL     1     146.418 146.884 133.514  1.00  0.00     0.000 G0
ENDBRANCH  10  13
ENDBRANCH   3  10
BRANCH   1  15
ATOM     15  C   UNL     1     144.894 146.958 133.552  1.00  0.00     0.011 C 
BRANCH  15  16
ATOM     16  C   UNL     1     146.419 146.883 133.510  1.00  0.00     0.001 CG0
ATOM     17  G   UNL     1     146.955 146.348 132.181  1.00  0.00     0.000 G0
ENDBRANCH  15  16
ENDBRANCH   1  15
TORSDOF 0
ENDMDL
MODEL 8
REMARK VINA RESULT:    -2.905      1.684      3.314
REMARK INTER + INTRA:          -2.543
REMARK INTER:                  -3.584
REMARK INTRA:                   1.041
REMARK UNBOUND:                 1.041
REMARK SMILES C=C1[C@@H]2CC[C@H]3[C@@H]2C(C)(C)CCC[C@@]13C
REMARK SMILES IDX 14 1 6 2 7 3 3 4 2 5 1 6 4 7 5 8 15 9 8 10 9 11 10 12 11 13
REMARK SMILES IDX 13 15 12 16
REMARK H PARENT
REMARK Flexibility Score: 80.00
ROOT
ATOM      1  C   UNL     1     146.533 145.138 132.891  1.00  0.00    -0.008 C 
ATOM      2  C   UNL     1     145.859 146.467 133.409  1.00  0.00     0.003 C 
ATOM      3  C   UNL     1     144.862 146.859 132.296  1.00  0.00     0.006 C 
ATOM      4  C   UNL     1     145.903 146.780 131.187  1.00  0.00     0.019 C 
ATOM      5  C   UNL     1     146.481 145.411 131.403  1.00  0.00    -0.068 C 
ATOM      6  C   UNL     1     146.965 144.625 130.433  1.00  0.00     0.009 C 
ATOM      7  C   UNL     1     146.952 147.793 131.704  1.00  0.00     0.008 C 
ATOM      8  C   UNL     1     146.851 147.650 133.243  1.00  0.00     0.005 C 
ATOM      9  C   UNL     1     148.007 144.957 133.343  1.00  0.00     0.016 C 
ENDROOT
BRANCH   3  10
ATOM     10  C   UNL     1     143.505 146.077 132.119  1.00  0.00    -0.032 C 
ATOM     11  C   UNL     1     142.856 146.497 130.777  1.00  0.00     0.011 C 
ATOM     12  C   UNL     1     142.532 146.526 133.243  1.00  0.00     0.011 C 
BRANCH  10  13
ATOM     13  C   UNL     1     143.616 144.527 132.106  1.00  0.00     0.007 CG0
ATOM     14  G   UNL     1     144.247 143.926 133.364  1.00  0.00     0.000 G0
ENDBRANCH  10  13
ENDBRANCH   3  10
BRANCH   1  15
ATOM     15  C   UNL     1     145.768 143.844 133.298  1.00  0.00     0.011 C 
BRANCH  15  16
ATOM     16  C   UNL     1     144.244 143.930 133.365  1.00  0.00     0.001 CG0
ATOM     17  G   UNL     1     143.624 144.532 132.102  1.00  0.00     0.000 G0
ENDBRANCH  15  16
ENDBRANCH   1  15
TORSDOF 0
ENDMDL
MODEL 9
REMARK VINA RESULT:    -2.308      1.511      3.200
REMARK INTER + INTRA:          -1.807
REMARK INTER:                  -2.840
REMARK INTRA:                   1.034
REMARK UNBOUND:                 1.041
REMARK SMILES C=C1[C@@H]2CC[C@H]3[C@@H]2C(C)(C)CCC[C@@]13C
REMARK SMILES IDX 14 1 6 2 7 3 3 4 2 5 1 6 4 7 5 8 15 9 8 10 9 11 10 12 11 13
REMARK SMILES IDX 13 15 12 16
REMARK H PARENT
REMARK Flexibility Score: 80.00
ROOT
ATOM      1  C   UNL     1     144.434 144.166 131.973  1.00  0.00    -0.008 C 
ATOM      2  C   UNL     1     144.021 145.678 131.789  1.00  0.00     0.003 C 
ATOM      3  C   UNL     1     145.032 146.466 132.651  1.00  0.00     0.006 C 
ATOM      4  C   UNL     1     144.777 145.636 133.902  1.00  0.00     0.019 C 
ATOM      5  C   UNL     1     144.967 144.237 133.387  1.00  0.00    -0.068 C 
ATOM      6  C   UNL     1     145.431 143.213 134.115  1.00  0.00     0.009 C 
ATOM      7  C   UNL     1     143.254 145.841 134.079  1.00  0.00     0.008 C 
ATOM      8  C   UNL     1     142.745 145.972 132.623  1.00  0.00     0.005 C 
ATOM      9  C   UNL     1     143.242 143.171 131.908  1.00  0.00     0.016 C 
ENDROOT
BRANCH   3  10
ATOM     10  C   UNL     1     146.518 146.668 132.165  1.00  0.00    -0.032 C 
ATOM     11  C   UNL     1     147.357 147.231 133.339  1.00  0.00     0.011 C 
ATOM     12  C   UNL     1     146.525 147.754 131.054  1.00  0.00     0.011 C 
BRANCH  10  13
ATOM     13  C   UNL     1     147.242 145.390 131.659  1.00  0.00     0.007 CG0
ATOM     14  G   UNL     1     146.536 144.676 130.504  1.00  0.00     0.000 G0
ENDBRANCH  10  13
ENDBRANCH   3  10
BRANCH   1  15
ATOM     15  C   UNL     1     145.496 143.674 130.947  1.00  0.00     0.011 C 
BRANCH  15  16
ATOM     16  C   UNL     1     146.553 144.683 130.504  1.00  0.00     0.001 CG0
ATOM     17  G   UNL     1     147.234 145.390 131.678  1.00  0.00     0.000 G0
ENDBRANCH  15  16
ENDBRANCH   1  15
TORSDOF 0
ENDMDL
