MODEL 1
REMARK VINA RESULT:    -5.868      0.000      0.000
REMARK INTER + INTRA:          -6.437
REMARK INTER:                  -6.212
REMARK INTRA:                  -0.226
REMARK UNBOUND:                -0.226
REMARK SMILES O=c1cc(-c2ccccc2)oc2ccccc12
REMARK SMILES IDX 4 1 3 2 2 3 1 4 17 5 16 6 15 7 14 8 13 9 12 10 11 11 5 12
REMARK SMILES IDX 8 13 7 14 9 15 6 16 10 17
REMARK H PARENT
REMARK Flexibility Score: inf
ROOT
ATOM      1  C   UNL     1      27.312   0.337  -7.488  1.00  0.00     0.138 A 
ATOM      2  C   UNL     1      26.327  -0.564  -7.031  1.00  0.00     0.100 A 
ATOM      3  C   UNL     1      26.700  -1.854  -6.648  1.00  0.00     0.193 A 
ATOM      4  O   UNL     1      25.820  -2.660  -6.239  1.00  0.00    -0.289 OA
ATOM      5  C   UNL     1      28.047  -2.234  -6.723  1.00  0.00     0.065 A 
ATOM      6  C   UNL     1      28.489  -3.518  -6.353  1.00  0.00     0.016 A 
ATOM      7  C   UNL     1      29.846  -3.845  -6.447  1.00  0.00     0.001 A 
ATOM      8  C   UNL     1      30.766  -2.900  -6.908  1.00  0.00     0.004 A 
ATOM      9  C   UNL     1      30.335  -1.623  -7.279  1.00  0.00     0.048 A 
ATOM     10  C   UNL     1      28.980  -1.285  -7.188  1.00  0.00     0.138 A 
ATOM     11  O   UNL     1      28.581  -0.068  -7.543  1.00  0.00    -0.456 OA
ENDROOT
BRANCH   1  12
ATOM     12  C   UNL     1      26.998   1.736  -7.916  1.00  0.00     0.017 A 
ATOM     13  C   UNL     1      26.445   4.407  -8.640  1.00  0.00     0.000 A 
ATOM     14  C   UNL     1      27.058   4.127  -7.420  1.00  0.00     0.001 A 
ATOM     15  C   UNL     1      26.105   3.365  -9.503  1.00  0.00     0.001 A 
ATOM     16  C   UNL     1      27.333   2.805  -7.059  1.00  0.00     0.012 A 
ATOM     17  C   UNL     1      26.376   2.039  -9.149  1.00  0.00     0.012 A 
ENDBRANCH   1  12
TORSDOF 1
ENDMDL
MODEL 2
REMARK VINA RESULT:    -5.612      4.582      7.262
REMARK INTER + INTRA:          -6.166
REMARK INTER:                  -5.938
REMARK INTRA:                  -0.227
REMARK UNBOUND:                -0.226
REMARK SMILES O=c1cc(-c2ccccc2)oc2ccccc12
REMARK SMILES IDX 4 1 3 2 2 3 1 4 17 5 16 6 15 7 14 8 13 9 12 10 11 11 5 12
REMARK SMILES IDX 8 13 7 14 9 15 6 16 10 17
REMARK H PARENT
REMARK Flexibility Score: inf
ROOT
ATOM      1  C   UNL     1      25.551   6.240  -5.285  1.00  0.00     0.138 A 
ATOM      2  C   UNL     1      25.728   4.994  -4.649  1.00  0.00     0.100 A 
ATOM      3  C   UNL     1      25.947   3.852  -5.423  1.00  0.00     0.193 A 
ATOM      4  O   UNL     1      26.106   2.737  -4.854  1.00  0.00    -0.289 OA
ATOM      5  C   UNL     1      25.987   3.961  -6.820  1.00  0.00     0.065 A 
ATOM      6  C   UNL     1      26.203   2.852  -7.657  1.00  0.00     0.016 A 
ATOM      7  C   UNL     1      26.234   3.017  -9.045  1.00  0.00     0.001 A 
ATOM      8  C   UNL     1      26.050   4.284  -9.606  1.00  0.00     0.004 A 
ATOM      9  C   UNL     1      25.834   5.392  -8.782  1.00  0.00     0.048 A 
ATOM     10  C   UNL     1      25.802   5.237  -7.391  1.00  0.00     0.138 A 
ATOM     11  O   UNL     1      25.596   6.298  -6.617  1.00  0.00    -0.456 OA
ENDROOT
BRANCH   1  12
ATOM     12  C   UNL     1      25.312   7.511  -4.532  1.00  0.00     0.017 A 
ATOM     13  C   UNL     1      24.953   9.938  -3.137  1.00  0.00     0.000 A 
ATOM     14  C   UNL     1      26.148   9.690  -3.811  1.00  0.00     0.001 A 
ATOM     15  C   UNL     1      23.935   8.985  -3.153  1.00  0.00     0.001 A 
ATOM     16  C   UNL     1      26.328   8.490  -4.503  1.00  0.00     0.012 A 
ATOM     17  C   UNL     1      24.108   7.780  -3.842  1.00  0.00     0.012 A 
ENDBRANCH   1  12
TORSDOF 1
ENDMDL
MODEL 3
REMARK VINA RESULT:    -5.437      1.472      6.048
REMARK INTER + INTRA:          -5.981
REMARK INTER:                  -5.749
REMARK INTRA:                  -0.232
REMARK UNBOUND:                -0.226
REMARK SMILES O=c1cc(-c2ccccc2)oc2ccccc12
REMARK SMILES IDX 4 1 3 2 2 3 1 4 17 5 16 6 15 7 14 8 13 9 12 10 11 11 5 12
REMARK SMILES IDX 8 13 7 14 9 15 6 16 10 17
REMARK H PARENT
REMARK Flexibility Score: inf
ROOT
ATOM      1  C   UNL     1      27.364   0.309  -7.752  1.00  0.00     0.138 A 
ATOM      2  C   UNL     1      26.424   0.264  -8.803  1.00  0.00     0.100 A 
ATOM      3  C   UNL     1      25.764   1.434  -9.185  1.00  0.00     0.193 A 
ATOM      4  O   UNL     1      24.923   1.395 -10.125  1.00  0.00    -0.289 OA
ATOM      5  C   UNL     1      26.044   2.635  -8.518  1.00  0.00     0.065 A 
ATOM      6  C   UNL     1      25.414   3.847  -8.853  1.00  0.00     0.016 A 
ATOM      7  C   UNL     1      25.731   5.017  -8.155  1.00  0.00     0.001 A 
ATOM      8  C   UNL     1      26.674   4.986  -7.123  1.00  0.00     0.004 A 
ATOM      9  C   UNL     1      27.304   3.785  -6.784  1.00  0.00     0.048 A 
ATOM     10  C   UNL     1      26.994   2.610  -7.476  1.00  0.00     0.138 A 
ATOM     11  O   UNL     1      27.599   1.473  -7.145  1.00  0.00    -0.456 OA
ENDROOT
BRANCH   1  12
ATOM     12  C   UNL     1      28.115  -0.896  -7.281  1.00  0.00     0.017 A 
ATOM     13  C   UNL     1      29.617  -3.125  -6.421  1.00  0.00     0.000 A 
ATOM     14  C   UNL     1      30.262  -2.020  -6.973  1.00  0.00     0.001 A 
ATOM     15  C   UNL     1      28.228  -3.128  -6.294  1.00  0.00     0.001 A 
ATOM     16  C   UNL     1      29.521  -0.915  -7.400  1.00  0.00     0.012 A 
ATOM     17  C   UNL     1      27.479  -2.026  -6.719  1.00  0.00     0.012 A 
ENDBRANCH   1  12
TORSDOF 1
ENDMDL
MODEL 4
REMARK VINA RESULT:    -5.418      4.338      7.040
REMARK INTER + INTRA:          -5.961
REMARK INTER:                  -5.739
REMARK INTRA:                  -0.222
REMARK UNBOUND:                -0.226
REMARK SMILES O=c1cc(-c2ccccc2)oc2ccccc12
REMARK SMILES IDX 4 1 3 2 2 3 1 4 17 5 16 6 15 7 14 8 13 9 12 10 11 11 5 12
REMARK SMILES IDX 8 13 7 14 9 15 6 16 10 17
REMARK H PARENT
REMARK Flexibility Score: inf
ROOT
ATOM      1  C   UNL     1      25.579   6.350  -6.099  1.00  0.00     0.138 A 
ATOM      2  C   UNL     1      25.088   6.498  -7.413  1.00  0.00     0.100 A 
ATOM      3  C   UNL     1      25.331   5.496  -8.355  1.00  0.00     0.193 A 
ATOM      4  O   UNL     1      24.893   5.628  -9.531  1.00  0.00    -0.289 OA
ATOM      5  C   UNL     1      26.060   4.359  -7.981  1.00  0.00     0.065 A 
ATOM      6  C   UNL     1      26.340   3.314  -8.880  1.00  0.00     0.016 A 
ATOM      7  C   UNL     1      27.071   2.200  -8.454  1.00  0.00     0.001 A 
ATOM      8  C   UNL     1      27.525   2.121  -7.134  1.00  0.00     0.004 A 
ATOM      9  C   UNL     1      27.252   3.155  -6.234  1.00  0.00     0.048 A 
ATOM     10  C   UNL     1      26.521   4.273  -6.651  1.00  0.00     0.138 A 
ATOM     11  O   UNL     1      26.267   5.251  -5.787  1.00  0.00    -0.456 OA
ENDROOT
BRANCH   1  12
ATOM     12  C   UNL     1      25.362   7.374  -5.030  1.00  0.00     0.017 A 
ATOM     13  C   UNL     1      24.862   9.270  -3.000  1.00  0.00     0.000 A 
ATOM     14  C   UNL     1      23.875   8.353  -3.357  1.00  0.00     0.001 A 
ATOM     15  C   UNL     1      26.097   9.250  -3.648  1.00  0.00     0.001 A 
ATOM     16  C   UNL     1      24.120   7.413  -4.361  1.00  0.00     0.012 A 
ATOM     17  C   UNL     1      26.351   8.313  -4.655  1.00  0.00     0.012 A 
ENDBRANCH   1  12
TORSDOF 1
ENDMDL
MODEL 5
REMARK VINA RESULT:    -5.345     18.832     20.578
REMARK INTER + INTRA:          -5.883
REMARK INTER:                  -5.643
REMARK INTRA:                  -0.239
REMARK UNBOUND:                -0.226
REMARK SMILES O=c1cc(-c2ccccc2)oc2ccccc12
REMARK SMILES IDX 4 1 3 2 2 3 1 4 17 5 16 6 15 7 14 8 13 9 12 10 11 11 5 12
REMARK SMILES IDX 8 13 7 14 9 15 6 16 10 17
REMARK H PARENT
REMARK Flexibility Score: inf
ROOT
ATOM      1  C   UNL     1      28.736  11.175   8.818  1.00  0.00     0.138 A 
ATOM      2  C   UNL     1      29.499  10.479   7.858  1.00  0.00     0.100 A 
ATOM      3  C   UNL     1      30.835  10.829   7.655  1.00  0.00     0.193 A 
ATOM      4  O   UNL     1      31.518  10.206   6.796  1.00  0.00    -0.289 OA
ATOM      5  C   UNL     1      31.399  11.868   8.408  1.00  0.00     0.065 A 
ATOM      6  C   UNL     1      32.737  12.271   8.253  1.00  0.00     0.016 A 
ATOM      7  C   UNL     1      33.249  13.315   9.031  1.00  0.00     0.001 A 
ATOM      8  C   UNL     1      32.434  13.960   9.965  1.00  0.00     0.004 A 
ATOM      9  C   UNL     1      31.102  13.566  10.125  1.00  0.00     0.048 A 
ATOM     10  C   UNL     1      30.580  12.524   9.351  1.00  0.00     0.138 A 
ATOM     11  O   UNL     1      29.312  12.157   9.512  1.00  0.00    -0.456 OA
ENDROOT
BRANCH   1  12
ATOM     12  C   UNL     1      27.299  10.863   9.097  1.00  0.00     0.017 A 
ATOM     13  C   UNL     1      24.615  10.178   9.636  1.00  0.00     0.000 A 
ATOM     14  C   UNL     1      25.601   9.193   9.639  1.00  0.00     0.001 A 
ATOM     15  C   UNL     1      24.957  11.503   9.367  1.00  0.00     0.001 A 
ATOM     16  C   UNL     1      26.931   9.529   9.373  1.00  0.00     0.012 A 
ATOM     17  C   UNL     1      26.286  11.848   9.098  1.00  0.00     0.012 A 
ENDBRANCH   1  12
TORSDOF 1
ENDMDL
MODEL 6
REMARK VINA RESULT:    -5.276      4.204      7.354
REMARK INTER + INTRA:          -5.810
REMARK INTER:                  -5.589
REMARK INTRA:                  -0.221
REMARK UNBOUND:                -0.226
REMARK SMILES O=c1cc(-c2ccccc2)oc2ccccc12
REMARK SMILES IDX 4 1 3 2 2 3 1 4 17 5 16 6 15 7 14 8 13 9 12 10 11 11 5 12
REMARK SMILES IDX 8 13 7 14 9 15 6 16 10 17
REMARK H PARENT
REMARK Flexibility Score: inf
ROOT
ATOM      1  C   UNL     1      31.278  -4.049  -7.358  1.00  0.00     0.138 A 
ATOM      2  C   UNL     1      30.972  -2.672  -7.378  1.00  0.00     0.100 A 
ATOM      3  C   UNL     1      29.790  -2.222  -6.785  1.00  0.00     0.193 A 
ATOM      4  O   UNL     1      29.515  -0.991  -6.802  1.00  0.00    -0.289 OA
ATOM      5  C   UNL     1      28.926  -3.145  -6.179  1.00  0.00     0.065 A 
ATOM      6  C   UNL     1      27.721  -2.760  -5.565  1.00  0.00     0.016 A 
ATOM      7  C   UNL     1      26.896  -3.722  -4.975  1.00  0.00     0.001 A 
ATOM      8  C   UNL     1      27.265  -5.070  -4.993  1.00  0.00     0.004 A 
ATOM      9  C   UNL     1      28.461  -5.463  -5.602  1.00  0.00     0.048 A 
ATOM     10  C   UNL     1      29.293  -4.507  -6.195  1.00  0.00     0.138 A 
ATOM     11  O   UNL     1      30.428  -4.891  -6.771  1.00  0.00    -0.456 OA
ENDROOT
BRANCH   1  12
ATOM     12  C   UNL     1      32.522  -4.613  -7.970  1.00  0.00     0.017 A 
ATOM     13  C   UNL     1      34.823  -5.674  -9.212  1.00  0.00     0.000 A 
ATOM     14  C   UNL     1      33.694  -5.376  -9.973  1.00  0.00     0.001 A 
ATOM     15  C   UNL     1      34.814  -5.447  -7.836  1.00  0.00     0.001 A 
ATOM     16  C   UNL     1      32.553  -4.850  -9.361  1.00  0.00     0.012 A 
ATOM     17  C   UNL     1      33.677  -4.921  -7.215  1.00  0.00     0.012 A 
ENDBRANCH   1  12
TORSDOF 1
ENDMDL
MODEL 7
REMARK VINA RESULT:    -5.237      1.876      6.384
REMARK INTER + INTRA:          -5.769
REMARK INTER:                  -5.547
REMARK INTRA:                  -0.222
REMARK UNBOUND:                -0.226
REMARK SMILES O=c1cc(-c2ccccc2)oc2ccccc12
REMARK SMILES IDX 4 1 3 2 2 3 1 4 17 5 16 6 15 7 14 8 13 9 12 10 11 11 5 12
REMARK SMILES IDX 8 13 7 14 9 15 6 16 10 17
REMARK H PARENT
REMARK Flexibility Score: inf
ROOT
ATOM      1  C   UNL     1      27.098   1.206  -7.509  1.00  0.00     0.138 A 
ATOM      2  C   UNL     1      26.907   1.733  -8.804  1.00  0.00     0.100 A 
ATOM      3  C   UNL     1      26.451   3.044  -8.953  1.00  0.00     0.193 A 
ATOM      4  O   UNL     1      26.280   3.516 -10.111  1.00  0.00    -0.289 OA
ATOM      5  C   UNL     1      26.191   3.818  -7.814  1.00  0.00     0.065 A 
ATOM      6  C   UNL     1      25.730   5.145  -7.893  1.00  0.00     0.016 A 
ATOM      7  C   UNL     1      25.486   5.873  -6.724  1.00  0.00     0.001 A 
ATOM      8  C   UNL     1      25.698   5.286  -5.474  1.00  0.00     0.004 A 
ATOM      9  C   UNL     1      26.155   3.968  -5.386  1.00  0.00     0.048 A 
ATOM     10  C   UNL     1      26.403   3.231  -6.549  1.00  0.00     0.138 A 
ATOM     11  O   UNL     1      26.837   1.978  -6.454  1.00  0.00    -0.456 OA
ENDROOT
BRANCH   1  12
ATOM     12  C   UNL     1      27.583  -0.187  -7.262  1.00  0.00     0.017 A 
ATOM     13  C   UNL     1      28.591  -2.785  -6.813  1.00  0.00     0.000 A 
ATOM     14  C   UNL     1      29.459  -1.748  -7.153  1.00  0.00     0.001 A 
ATOM     15  C   UNL     1      27.224  -2.537  -6.696  1.00  0.00     0.001 A 
ATOM     16  C   UNL     1      28.963  -0.461  -7.375  1.00  0.00     0.012 A 
ATOM     17  C   UNL     1      26.718  -1.251  -6.918  1.00  0.00     0.012 A 
ENDBRANCH   1  12
TORSDOF 1
ENDMDL
MODEL 8
REMARK VINA RESULT:    -5.217      1.291      2.460
REMARK INTER + INTRA:          -5.747
REMARK INTER:                  -5.519
REMARK INTRA:                  -0.228
REMARK UNBOUND:                -0.226
REMARK SMILES O=c1cc(-c2ccccc2)oc2ccccc12
REMARK SMILES IDX 4 1 3 2 2 3 1 4 17 5 16 6 15 7 14 8 13 9 12 10 11 11 5 12
REMARK SMILES IDX 8 13 7 14 9 15 6 16 10 17
REMARK H PARENT
REMARK Flexibility Score: inf
ROOT
ATOM      1  C   UNL     1      27.727  -0.126  -7.552  1.00  0.00     0.138 A 
ATOM      2  C   UNL     1      29.094  -0.476  -7.538  1.00  0.00     0.100 A 
ATOM      3  C   UNL     1      29.484  -1.703  -6.999  1.00  0.00     0.193 A 
ATOM      4  O   UNL     1      30.706  -2.016  -6.986  1.00  0.00    -0.289 OA
ATOM      5  C   UNL     1      28.512  -2.569  -6.479  1.00  0.00     0.065 A 
ATOM      6  C   UNL     1      28.838  -3.819  -5.921  1.00  0.00     0.016 A 
ATOM      7  C   UNL     1      27.828  -4.645  -5.416  1.00  0.00     0.001 A 
ATOM      8  C   UNL     1      26.493  -4.232  -5.464  1.00  0.00     0.004 A 
ATOM      9  C   UNL     1      26.161  -2.992  -6.016  1.00  0.00     0.048 A 
ATOM     10  C   UNL     1      27.164  -2.158  -6.524  1.00  0.00     0.138 A 
ATOM     11  O   UNL     1      26.837  -0.980  -7.047  1.00  0.00    -0.456 OA
ENDROOT
BRANCH   1  12
ATOM     12  C   UNL     1      27.225   1.168  -8.112  1.00  0.00     0.017 A 
ATOM     13  C   UNL     1      26.322   3.656  -9.091  1.00  0.00     0.000 A 
ATOM     14  C   UNL     1      27.082   3.600  -7.923  1.00  0.00     0.001 A 
ATOM     15  C   UNL     1      26.009   2.482  -9.774  1.00  0.00     0.001 A 
ATOM     16  C   UNL     1      27.531   2.369  -7.437  1.00  0.00     0.012 A 
ATOM     17  C   UNL     1      26.453   1.245  -9.293  1.00  0.00     0.012 A 
ENDBRANCH   1  12
TORSDOF 1
ENDMDL
MODEL 9
REMARK VINA RESULT:    -5.204     19.032     20.544
REMARK INTER + INTRA:          -5.734
REMARK INTER:                  -5.486
REMARK INTRA:                  -0.248
REMARK UNBOUND:                -0.226
REMARK SMILES O=c1cc(-c2ccccc2)oc2ccccc12
REMARK SMILES IDX 4 1 3 2 2 3 1 4 17 5 16 6 15 7 14 8 13 9 12 10 11 11 5 12
REMARK SMILES IDX 8 13 7 14 9 15 6 16 10 17
REMARK H PARENT
REMARK Flexibility Score: inf
ROOT
ATOM      1  C   UNL     1      28.624  11.559   9.007  1.00  0.00     0.138 A 
ATOM      2  C   UNL     1      27.870  12.690   9.382  1.00  0.00     0.100 A 
ATOM      3  C   UNL     1      26.534  12.532   9.759  1.00  0.00     0.193 A 
ATOM      4  O   UNL     1      25.859  13.543  10.095  1.00  0.00    -0.289 OA
ATOM      5  C   UNL     1      25.963  11.252   9.757  1.00  0.00     0.065 A 
ATOM      6  C   UNL     1      24.625  11.023  10.125  1.00  0.00     0.016 A 
ATOM      7  C   UNL     1      24.105   9.725  10.106  1.00  0.00     0.001 A 
ATOM      8  C   UNL     1      24.913   8.650   9.723  1.00  0.00     0.004 A 
ATOM      9  C   UNL     1      26.244   8.869   9.356  1.00  0.00     0.048 A 
ATOM     10  C   UNL     1      26.773  10.164   9.371  1.00  0.00     0.138 A 
ATOM     11  O   UNL     1      28.041  10.360   9.020  1.00  0.00    -0.456 OA
ENDROOT
BRANCH   1  12
ATOM     12  C   UNL     1      30.059  11.640   8.591  1.00  0.00     0.017 A 
ATOM     13  C   UNL     1      32.782  11.860   7.880  1.00  0.00     0.000 A 
ATOM     14  C   UNL     1      32.276  12.605   8.945  1.00  0.00     0.001 A 
ATOM     15  C   UNL     1      31.941  11.006   7.167  1.00  0.00     0.001 A 
ATOM     16  C   UNL     1      30.929  12.497   9.299  1.00  0.00     0.012 A 
ATOM     17  C   UNL     1      30.590  10.894   7.515  1.00  0.00     0.012 A 
ENDBRANCH   1  12
TORSDOF 1
ENDMDL
