MODEL 1
REMARK VINA RESULT:    28.294      0.000      0.000
REMARK INTER + INTRA:          33.734
REMARK INTER:                  34.084
REMARK INTRA:                  -0.350
REMARK UNBOUND:                -0.350
REMARK SMILES Oc1cc(O)c2cc(O)c(-c3ccc(O)c(O)c3)[o+]c2c1.[Cl-]
REMARK SMILES IDX 10 1 19 2 20 3 21 4 2 5 3 6 4 7 6 8 7 9 8 10 11 11 12 12
REMARK SMILES IDX 13 13 14 14 18 15 16 16 15 17 17 19 9 21 1 23 5 25
REMARK H PARENT 15 18 17 20 9 22 1 24 5 26
REMARK Flexibility Score: inf
ROOT
ATOM      1  C   UNL     1      10.419  11.217  30.811  1.00  0.00     0.402 A 
ATOM      2  O   UNL     1      11.643  10.737  30.608  1.00  0.00    -0.202 OA
ATOM      3  C   UNL     1      12.599  11.416  29.982  1.00  0.00     0.368 A 
ATOM      4  C   UNL     1      13.856  10.827  29.818  1.00  0.00     0.162 A 
ATOM      5  C   UNL     1      14.879  11.518  29.168  1.00  0.00     0.128 A 
ATOM      6  C   UNL     1      14.647  12.808  28.676  1.00  0.00     0.093 A 
ATOM      7  C   UNL     1      13.396  13.418  28.827  1.00  0.00     0.136 A 
ATOM      8  C   UNL     1      12.352  12.719  29.487  1.00  0.00     0.125 A 
ATOM      9  C   UNL     1      11.064  13.248  29.672  1.00  0.00     0.078 A 
ATOM     10  C   UNL     1      10.085  12.495  30.327  1.00  0.00     0.223 A 
ENDROOT
BRANCH   1  11
ATOM     11  C   UNL     1       9.445  10.367  31.531  1.00  0.00     0.087 A 
ATOM     12  C   UNL     1       9.352  10.387  32.935  1.00  0.00     0.022 A 
ATOM     13  C   UNL     1       8.440   9.557  33.594  1.00  0.00     0.051 A 
ATOM     14  C   UNL     1       7.619   8.689  32.863  1.00  0.00     0.157 A 
ATOM     15  C   UNL     1       8.633   9.479  30.806  1.00  0.00     0.068 A 
ATOM     16  C   UNL     1       7.717   8.648  31.468  1.00  0.00     0.158 A 
BRANCH  14  17
ATOM     17  O   UNL     1       6.706   7.863  33.517  1.00  0.00    -0.504 OA
ATOM     18  H   UNL     1       6.125   7.208  33.007  1.00  0.00     0.293 HD
ENDBRANCH  14  17
BRANCH  16  19
ATOM     19  O   UNL     1       6.903   7.778  30.743  1.00  0.00    -0.504 OA
ATOM     20  H   UNL     1       7.078   7.579  29.765  1.00  0.00     0.293 HD
ENDBRANCH  16  19
ENDBRANCH   1  11
BRANCH  10  21
ATOM     21  O   UNL     1       8.792  13.001  30.467  1.00  0.00    -0.500 OA
ATOM     22  H   UNL     1       8.138  12.615  31.137  1.00  0.00     0.294 HD
ENDBRANCH  10  21
BRANCH   5  23
ATOM     23  O   UNL     1      16.124  10.914  29.014  1.00  0.00    -0.507 OA
ATOM     24  H   UNL     1      16.952  11.279  29.473  1.00  0.00     0.293 HD
ENDBRANCH   5  23
BRANCH   7  25
ATOM     25  O   UNL     1      13.244  14.710  28.312  1.00  0.00    -0.507 OA
ATOM     26  H   UNL     1      12.870  15.491  28.831  1.00  0.00     0.293 HD
ENDBRANCH   7  25
TORSDOF 6
ENDMDL
MODEL 2
REMARK VINA RESULT:    28.339      1.662      2.783
REMARK INTER + INTRA:          33.788
REMARK INTER:                  33.487
REMARK INTRA:                   0.301
REMARK UNBOUND:                -0.350
REMARK SMILES Oc1cc(O)c2cc(O)c(-c3ccc(O)c(O)c3)[o+]c2c1.[Cl-]
REMARK SMILES IDX 10 1 19 2 20 3 21 4 2 5 3 6 4 7 6 8 7 9 8 10 11 11 12 12
REMARK SMILES IDX 13 13 14 14 18 15 16 16 15 17 17 19 9 21 1 23 5 25
REMARK H PARENT 15 18 17 20 9 22 1 24 5 26
REMARK Flexibility Score: inf
ROOT
ATOM      1  C   UNL     1      10.444  11.218  30.575  1.00  0.00     0.402 A 
ATOM      2  O   UNL     1      10.277  11.789  29.386  1.00  0.00    -0.202 OA
ATOM      3  C   UNL     1      11.166  12.612  28.840  1.00  0.00     0.368 A 
ATOM      4  C   UNL     1      10.902  13.163  27.583  1.00  0.00     0.162 A 
ATOM      5  C   UNL     1      11.818  14.028  26.984  1.00  0.00     0.128 A 
ATOM      6  C   UNL     1      13.011  14.346  27.645  1.00  0.00     0.093 A 
ATOM      7  C   UNL     1      13.298  13.807  28.905  1.00  0.00     0.136 A 
ATOM      8  C   UNL     1      12.368  12.929  29.518  1.00  0.00     0.125 A 
ATOM      9  C   UNL     1      12.567  12.353  30.784  1.00  0.00     0.078 A 
ATOM     10  C   UNL     1      11.600  11.501  31.326  1.00  0.00     0.223 A 
ENDROOT
BRANCH   1  11
ATOM     11  C   UNL     1       9.385  10.311  31.071  1.00  0.00     0.087 A 
ATOM     12  C   UNL     1       8.041  10.475  30.688  1.00  0.00     0.022 A 
ATOM     13  C   UNL     1       7.055   9.620  31.188  1.00  0.00     0.051 A 
ATOM     14  C   UNL     1       7.393   8.601  32.087  1.00  0.00     0.157 A 
ATOM     15  C   UNL     1       9.714   9.300  31.988  1.00  0.00     0.068 A 
ATOM     16  C   UNL     1       8.724   8.441  32.489  1.00  0.00     0.158 A 
BRANCH  14  17
ATOM     17  O   UNL     1       6.412   7.744  32.585  1.00  0.00    -0.504 OA
ATOM     18  H   UNL     1       6.631   6.795  32.865  1.00  0.00     0.293 HD
ENDBRANCH  14  17
BRANCH  16  19
ATOM     19  O   UNL     1       9.057   7.429  33.389  1.00  0.00    -0.504 OA
ATOM     20  H   UNL     1       9.602   7.618  34.222  1.00  0.00     0.293 HD
ENDBRANCH  16  19
ENDBRANCH   1  11
BRANCH  10  21
ATOM     21  O   UNL     1      11.775  10.968  32.603  1.00  0.00    -0.500 OA
ATOM     22  H   UNL     1      12.550  10.355  32.824  1.00  0.00     0.294 HD
ENDBRANCH  10  21
BRANCH   5  23
ATOM     23  O   UNL     1      11.536  14.567  25.732  1.00  0.00    -0.507 OA
ATOM     24  H   UNL     1      11.304  13.977  24.940  1.00  0.00     0.293 HD
ENDBRANCH   5  23
BRANCH   7  25
ATOM     25  O   UNL     1      14.511  14.171  29.498  1.00  0.00    -0.507 OA
ATOM     26  H   UNL     1      14.639  14.981  30.086  1.00  0.00     0.293 HD
ENDBRANCH   7  25
TORSDOF 6
ENDMDL
MODEL 3
REMARK VINA RESULT:    28.679      1.577      2.475
REMARK INTER + INTRA:          34.197
REMARK INTER:                  33.880
REMARK INTRA:                   0.317
REMARK UNBOUND:                -0.350
REMARK SMILES Oc1cc(O)c2cc(O)c(-c3ccc(O)c(O)c3)[o+]c2c1.[Cl-]
REMARK SMILES IDX 10 1 19 2 20 3 21 4 2 5 3 6 4 7 6 8 7 9 8 10 11 11 12 12
REMARK SMILES IDX 13 13 14 14 18 15 16 16 15 17 17 19 9 21 1 23 5 25
REMARK H PARENT 15 18 17 20 9 22 1 24 5 26
REMARK Flexibility Score: inf
ROOT
ATOM      1  C   UNL     1      10.755  11.473  30.855  1.00  0.00     0.402 A 
ATOM      2  O   UNL     1      11.183  12.603  31.410  1.00  0.00    -0.202 OA
ATOM      3  C   UNL     1      12.079  13.403  30.841  1.00  0.00     0.368 A 
ATOM      4  C   UNL     1      12.465  14.571  31.503  1.00  0.00     0.162 A 
ATOM      5  C   UNL     1      13.401  15.432  30.928  1.00  0.00     0.128 A 
ATOM      6  C   UNL     1      13.956  15.124  29.681  1.00  0.00     0.093 A 
ATOM      7  C   UNL     1      13.586  13.959  28.998  1.00  0.00     0.136 A 
ATOM      8  C   UNL     1      12.636  13.081  29.580  1.00  0.00     0.125 A 
ATOM      9  C   UNL     1      12.215  11.885  28.974  1.00  0.00     0.078 A 
ATOM     10  C   UNL     1      11.279  11.067  29.613  1.00  0.00     0.223 A 
ENDROOT
BRANCH   1  11
ATOM     11  C   UNL     1       9.746  10.672  31.584  1.00  0.00     0.087 A 
ATOM     12  C   UNL     1       9.652  10.714  32.987  1.00  0.00     0.022 A 
ATOM     13  C   UNL     1       8.706   9.931  33.655  1.00  0.00     0.051 A 
ATOM     14  C   UNL     1       7.853   9.086  32.935  1.00  0.00     0.157 A 
ATOM     15  C   UNL     1       8.901   9.807  30.869  1.00  0.00     0.068 A 
ATOM     16  C   UNL     1       7.952   9.022  31.540  1.00  0.00     0.158 A 
BRANCH  14  17
ATOM     17  O   UNL     1       6.907   8.306  33.598  1.00  0.00    -0.504 OA
ATOM     18  H   UNL     1       7.177   7.490  34.136  1.00  0.00     0.293 HD
ENDBRANCH  14  17
BRANCH  16  19
ATOM     19  O   UNL     1       7.105   8.175  30.825  1.00  0.00    -0.504 OA
ATOM     20  H   UNL     1       6.633   7.397  31.271  1.00  0.00     0.293 HD
ENDBRANCH  16  19
ENDBRANCH   1  11
BRANCH  10  21
ATOM     21  O   UNL     1      10.898   9.856  29.034  1.00  0.00    -0.500 OA
ATOM     22  H   UNL     1      10.666   9.784  28.051  1.00  0.00     0.294 HD
ENDBRANCH  10  21
BRANCH   5  23
ATOM     23  O   UNL     1      13.773  16.591  31.604  1.00  0.00    -0.507 OA
ATOM     24  H   UNL     1      13.091  17.292  31.872  1.00  0.00     0.293 HD
ENDBRANCH   5  23
BRANCH   7  25
ATOM     25  O   UNL     1      14.183  13.724  27.756  1.00  0.00    -0.507 OA
ATOM     26  H   UNL     1      14.928  14.283  27.366  1.00  0.00     0.293 HD
ENDBRANCH   7  25
TORSDOF 6
ENDMDL
MODEL 4
REMARK VINA RESULT:    29.504      2.728      7.025
REMARK INTER + INTRA:          35.191
REMARK INTER:                  34.772
REMARK INTRA:                   0.419
REMARK UNBOUND:                -0.350
REMARK SMILES Oc1cc(O)c2cc(O)c(-c3ccc(O)c(O)c3)[o+]c2c1.[Cl-]
REMARK SMILES IDX 10 1 19 2 20 3 21 4 2 5 3 6 4 7 6 8 7 9 8 10 11 11 12 12
REMARK SMILES IDX 13 13 14 14 18 15 16 16 15 17 17 19 9 21 1 23 5 25
REMARK H PARENT 15 18 17 20 9 22 1 24 5 26
REMARK Flexibility Score: inf
ROOT
ATOM      1  C   UNL     1      11.590  13.101  28.742  1.00  0.00     0.402 A 
ATOM      2  O   UNL     1      10.520  12.351  28.988  1.00  0.00    -0.202 OA
ATOM      3  C   UNL     1      10.368  11.637  30.100  1.00  0.00     0.368 A 
ATOM      4  C   UNL     1       9.206  10.879  30.268  1.00  0.00     0.162 A 
ATOM      5  C   UNL     1       9.019  10.123  31.426  1.00  0.00     0.128 A 
ATOM      6  C   UNL     1      10.000  10.123  32.425  1.00  0.00     0.093 A 
ATOM      7  C   UNL     1      11.173  10.873  32.278  1.00  0.00     0.136 A 
ATOM      8  C   UNL     1      11.368  11.642  31.102  1.00  0.00     0.125 A 
ATOM      9  C   UNL     1      12.518  12.413  30.865  1.00  0.00     0.078 A 
ATOM     10  C   UNL     1      12.641  13.140  29.677  1.00  0.00     0.223 A 
ENDROOT
BRANCH   1  11
ATOM     11  C   UNL     1      11.637  13.858  27.471  1.00  0.00     0.087 A 
ATOM     12  C   UNL     1      12.760  14.630  27.119  1.00  0.00     0.022 A 
ATOM     13  C   UNL     1      12.771  15.355  25.924  1.00  0.00     0.051 A 
ATOM     14  C   UNL     1      11.659  15.331  25.073  1.00  0.00     0.157 A 
ATOM     15  C   UNL     1      10.517  13.855  26.623  1.00  0.00     0.068 A 
ATOM     16  C   UNL     1      10.529  14.582  25.423  1.00  0.00     0.158 A 
BRANCH  14  17
ATOM     17  O   UNL     1      11.668  16.050  23.879  1.00  0.00    -0.504 OA
ATOM     18  H   UNL     1      12.154  16.936  23.798  1.00  0.00     0.293 HD
ENDBRANCH  14  17
BRANCH  16  19
ATOM     19  O   UNL     1       9.421  14.565  24.577  1.00  0.00    -0.504 OA
ATOM     20  H   UNL     1       8.476  14.613  24.940  1.00  0.00     0.293 HD
ENDBRANCH  16  19
ENDBRANCH   1  11
BRANCH  10  21
ATOM     21  O   UNL     1      13.805  13.866  29.420  1.00  0.00    -0.500 OA
ATOM     22  H   UNL     1      14.222  14.469  30.119  1.00  0.00     0.294 HD
ENDBRANCH  10  21
BRANCH   5  23
ATOM     23  O   UNL     1       7.854   9.375  31.575  1.00  0.00    -0.507 OA
ATOM     24  H   UNL     1       6.960   9.709  31.231  1.00  0.00     0.293 HD
ENDBRANCH   5  23
BRANCH   7  25
ATOM     25  O   UNL     1      12.102  10.823  33.322  1.00  0.00    -0.507 OA
ATOM     26  H   UNL     1      13.035  10.447  33.238  1.00  0.00     0.293 HD
ENDBRANCH   7  25
TORSDOF 6
ENDMDL
