MODEL 1
REMARK VINA RESULT:    -6.915      0.000      0.000
REMARK INTER + INTRA:         -13.546
REMARK INTER:                 -12.979
REMARK INTRA:                  -0.568
REMARK UNBOUND:                -0.568
REMARK SMILES CCCCCCCCC=CCCCCCCCC(=O)[O-]
REMARK SMILES IDX 10 1 9 2 11 3 12 4 13 5 14 6 15 7 16 8 17 9 18 10 19 11
REMARK SMILES IDX 20 12 8 13 7 14 6 15 5 16 4 17 3 18 2 19 1 20
REMARK H PARENT
REMARK Flexibility Score: inf
ROOT
ATOM      1  C   UNL     1      14.507 119.387  17.385  1.00  0.00    -0.031 C 
ATOM      2  C   UNL     1      13.494 118.661  16.877  1.00  0.00    -0.031 C 
ENDROOT
BRANCH   1   3
ATOM      3  C   UNL     1      15.953 119.251  16.976  1.00  0.00     0.027 C 
BRANCH   3   4
ATOM      4  C   UNL     1      16.429 120.441  16.126  1.00  0.00     0.004 C 
BRANCH   4   5
ATOM      5  C   UNL     1      17.362 121.420  16.867  1.00  0.00     0.000 C 
BRANCH   5   6
ATOM      6  C   UNL     1      17.981 122.527  15.990  1.00  0.00     0.000 C 
BRANCH   6   7
ATOM      7  C   UNL     1      18.367 123.814  16.743  1.00  0.00     0.000 C 
BRANCH   7   8
ATOM      8  C   UNL     1      18.419 125.046  15.828  1.00  0.00     0.006 C 
BRANCH   8   9
ATOM      9  C   UNL     1      17.669 126.225  16.455  1.00  0.00     0.053 C 
BRANCH   9  10
ATOM     10  C   UNL     1      18.592 127.044  17.302  1.00  0.00     0.041 C 
ATOM     11  O   UNL     1      18.589 126.909  18.554  1.00  0.00    -0.550 OA
ATOM     12  O   UNL     1      19.419 127.992  16.714  1.00  0.00    -0.550 OA
ENDBRANCH   9  10
ENDBRANCH   8   9
ENDBRANCH   7   8
ENDBRANCH   6   7
ENDBRANCH   5   6
ENDBRANCH   4   5
ENDBRANCH   3   4
ENDBRANCH   1   3
BRANCH   2  13
ATOM     13  C   UNL     1      13.658 117.526  15.896  1.00  0.00     0.027 C 
BRANCH  13  14
ATOM     14  C   UNL     1      12.340 117.193  15.181  1.00  0.00     0.004 C 
BRANCH  14  15
ATOM     15  C   UNL     1      12.147 115.681  14.996  1.00  0.00     0.000 C 
BRANCH  15  16
ATOM     16  C   UNL     1      11.613 115.034  16.279  1.00  0.00     0.000 C 
BRANCH  16  17
ATOM     17  C   UNL     1      11.110 113.608  16.010  1.00  0.00    -0.000 C 
BRANCH  17  18
ATOM     18  C   UNL     1      11.618 112.601  17.063  1.00  0.00    -0.000 C 
BRANCH  18  19
ATOM     19  C   UNL     1      10.895 111.245  17.017  1.00  0.00    -0.003 C 
ATOM     20  C   UNL     1      10.130 111.018  15.715  1.00  0.00     0.004 C 
ENDBRANCH  18  19
ENDBRANCH  17  18
ENDBRANCH  16  17
ENDBRANCH  15  16
ENDBRANCH  14  15
ENDBRANCH  13  14
ENDBRANCH   2  13
TORSDOF 15
ENDMDL
MODEL 2
REMARK VINA RESULT:    -6.881      4.728     10.251
REMARK INTER + INTRA:         -13.483
REMARK INTER:                 -12.223
REMARK INTRA:                  -1.260
REMARK UNBOUND:                -0.568
REMARK SMILES CCCCCCCCC=CCCCCCCCC(=O)[O-]
REMARK SMILES IDX 10 1 9 2 11 3 12 4 13 5 14 6 15 7 16 8 17 9 18 10 19 11
REMARK SMILES IDX 20 12 8 13 7 14 6 15 5 16 4 17 3 18 2 19 1 20
REMARK H PARENT
REMARK Flexibility Score: inf
ROOT
ATOM      1  C   UNL     1      16.556 119.774  17.581  1.00  0.00    -0.031 C 
ATOM      2  C   UNL     1      17.022 120.965  17.162  1.00  0.00    -0.031 C 
ENDROOT
BRANCH   1   3
ATOM      3  C   UNL     1      16.083 118.667  16.673  1.00  0.00     0.027 C 
BRANCH   3   4
ATOM      4  C   UNL     1      14.549 118.563  16.637  1.00  0.00     0.004 C 
BRANCH   4   5
ATOM      5  C   UNL     1      13.831 119.362  17.743  1.00  0.00     0.000 C 
BRANCH   5   6
ATOM      6  C   UNL     1      13.125 118.510  18.816  1.00  0.00     0.000 C 
BRANCH   6   7
ATOM      7  C   UNL     1      13.244 119.043  20.255  1.00  0.00     0.000 C 
BRANCH   7   8
ATOM      8  C   UNL     1      14.540 118.603  20.949  1.00  0.00     0.006 C 
BRANCH   8   9
ATOM      9  C   UNL     1      15.468 119.798  21.187  1.00  0.00     0.053 C 
BRANCH   9  10
ATOM     10  C   UNL     1      15.310 120.316  22.581  1.00  0.00     0.041 C 
ATOM     11  O   UNL     1      16.049 119.885  23.505  1.00  0.00    -0.550 OA
ATOM     12  O   UNL     1      14.312 121.238  22.872  1.00  0.00    -0.550 OA
ENDBRANCH   9  10
ENDBRANCH   8   9
ENDBRANCH   7   8
ENDBRANCH   6   7
ENDBRANCH   5   6
ENDBRANCH   4   5
ENDBRANCH   3   4
ENDBRANCH   1   3
BRANCH   2  13
ATOM     13  C   UNL     1      17.046 121.420  15.724  1.00  0.00     0.027 C 
BRANCH  13  14
ATOM     14  C   UNL     1      17.605 122.844  15.583  1.00  0.00     0.004 C 
BRANCH  14  15
ATOM     15  C   UNL     1      18.313 123.317  16.859  1.00  0.00     0.000 C 
BRANCH  15  16
ATOM     16  C   UNL     1      19.118 124.596  16.600  1.00  0.00     0.000 C 
BRANCH  16  17
ATOM     17  C   UNL     1      18.594 125.761  17.453  1.00  0.00    -0.000 C 
BRANCH  17  18
ATOM     18  C   UNL     1      18.144 126.960  16.592  1.00  0.00    -0.000 C 
BRANCH  18  19
ATOM     19  C   UNL     1      19.238 128.023  16.398  1.00  0.00    -0.003 C 
ATOM     20  C   UNL     1      20.214 127.681  15.274  1.00  0.00     0.004 C 
ENDBRANCH  18  19
ENDBRANCH  17  18
ENDBRANCH  16  17
ENDBRANCH  15  16
ENDBRANCH  14  15
ENDBRANCH  13  14
ENDBRANCH   2  13
TORSDOF 15
ENDMDL
MODEL 3
REMARK VINA RESULT:    -6.852      5.558     12.195
REMARK INTER + INTRA:         -13.429
REMARK INTER:                 -12.823
REMARK INTRA:                  -0.606
REMARK UNBOUND:                -0.568
REMARK SMILES CCCCCCCCC=CCCCCCCCC(=O)[O-]
REMARK SMILES IDX 10 1 9 2 11 3 12 4 13 5 14 6 15 7 16 8 17 9 18 10 19 11
REMARK SMILES IDX 20 12 8 13 7 14 6 15 5 16 4 17 3 18 2 19 1 20
REMARK H PARENT
REMARK Flexibility Score: inf
ROOT
ATOM      1  C   UNL     1      15.686 119.404  16.955  1.00  0.00    -0.031 C 
ATOM      2  C   UNL     1      16.685 120.135  16.427  1.00  0.00    -0.031 C 
ENDROOT
BRANCH   1   3
ATOM      3  C   UNL     1      14.228 119.550  16.595  1.00  0.00     0.027 C 
BRANCH   3   4
ATOM      4  C   UNL     1      13.406 118.316  17.002  1.00  0.00     0.004 C 
BRANCH   4   5
ATOM      5  C   UNL     1      12.755 117.567  15.821  1.00  0.00     0.000 C 
BRANCH   5   6
ATOM      6  C   UNL     1      12.104 116.216  16.178  1.00  0.00     0.000 C 
BRANCH   6   7
ATOM      7  C   UNL     1      11.661 115.367  14.973  1.00  0.00     0.000 C 
BRANCH   7   8
ATOM      8  C   UNL     1      11.588 113.867  15.295  1.00  0.00     0.006 C 
BRANCH   8   9
ATOM      9  C   UNL     1      11.142 113.639  16.741  1.00  0.00     0.053 C 
BRANCH   9  10
ATOM     10  C   UNL     1      11.218 112.186  17.091  1.00  0.00     0.041 C 
ATOM     11  O   UNL     1      11.603 111.830  18.235  1.00  0.00    -0.550 OA
ATOM     12  O   UNL     1      10.912 111.224  16.137  1.00  0.00    -0.550 OA
ENDBRANCH   9  10
ENDBRANCH   8   9
ENDBRANCH   7   8
ENDBRANCH   6   7
ENDBRANCH   5   6
ENDBRANCH   4   5
ENDBRANCH   3   4
ENDBRANCH   1   3
BRANCH   2  13
ATOM     13  C   UNL     1      16.493 121.286  15.470  1.00  0.00     0.027 C 
BRANCH  13  14
ATOM     14  C   UNL     1      17.750 122.162  15.368  1.00  0.00     0.004 C 
BRANCH  14  15
ATOM     15  C   UNL     1      18.089 122.847  16.699  1.00  0.00     0.000 C 
BRANCH  15  16
ATOM     16  C   UNL     1      18.764 124.203  16.464  1.00  0.00     0.000 C 
BRANCH  16  17
ATOM     17  C   UNL     1      18.043 125.321  17.232  1.00  0.00    -0.000 C 
BRANCH  17  18
ATOM     18  C   UNL     1      18.061 126.661  16.467  1.00  0.00    -0.000 C 
BRANCH  18  19
ATOM     19  C   UNL     1      19.414 127.388  16.530  1.00  0.00    -0.003 C 
ATOM     20  C   UNL     1      20.077 127.540  15.163  1.00  0.00     0.004 C 
ENDBRANCH  18  19
ENDBRANCH  17  18
ENDBRANCH  16  17
ENDBRANCH  15  16
ENDBRANCH  14  15
ENDBRANCH  13  14
ENDBRANCH   2  13
TORSDOF 15
ENDMDL
MODEL 4
REMARK VINA RESULT:    -6.637      4.837      9.809
REMARK INTER + INTRA:         -13.026
REMARK INTER:                 -11.901
REMARK INTRA:                  -1.125
REMARK UNBOUND:                -0.568
REMARK SMILES CCCCCCCCC=CCCCCCCCC(=O)[O-]
REMARK SMILES IDX 10 1 9 2 11 3 12 4 13 5 14 6 15 7 16 8 17 9 18 10 19 11
REMARK SMILES IDX 20 12 8 13 7 14 6 15 5 16 4 17 3 18 2 19 1 20
REMARK H PARENT
REMARK Flexibility Score: inf
ROOT
ATOM      1  C   UNL     1      15.003 118.980  16.649  1.00  0.00    -0.031 C 
ATOM      2  C   UNL     1      16.312 119.257  16.796  1.00  0.00    -0.031 C 
ENDROOT
BRANCH   1   3
ATOM      3  C   UNL     1      13.901 119.553  17.504  1.00  0.00     0.027 C 
BRANCH   3   4
ATOM      4  C   UNL     1      13.241 118.484  18.391  1.00  0.00     0.004 C 
BRANCH   4   5
ATOM      5  C   UNL     1      13.241 118.818  19.897  1.00  0.00     0.000 C 
BRANCH   5   6
ATOM      6  C   UNL     1      14.610 119.221  20.480  1.00  0.00     0.000 C 
BRANCH   6   7
ATOM      7  C   UNL     1      14.761 119.007  21.997  1.00  0.00     0.000 C 
BRANCH   7   8
ATOM      8  C   UNL     1      15.158 120.289  22.743  1.00  0.00     0.006 C 
BRANCH   8   9
ATOM      9  C   UNL     1      14.247 120.523  23.951  1.00  0.00     0.053 C 
BRANCH   9  10
ATOM     10  C   UNL     1      13.057 121.341  23.560  1.00  0.00     0.041 C 
ATOM     11  O   UNL     1      12.132 120.828  22.877  1.00  0.00    -0.550 OA
ATOM     12  O   UNL     1      12.992 122.685  23.906  1.00  0.00    -0.550 OA
ENDBRANCH   9  10
ENDBRANCH   8   9
ENDBRANCH   7   8
ENDBRANCH   6   7
ENDBRANCH   5   6
ENDBRANCH   4   5
ENDBRANCH   3   4
ENDBRANCH   1   3
BRANCH   2  13
ATOM     13  C   UNL     1      16.892 120.100  17.905  1.00  0.00     0.027 C 
BRANCH  13  14
ATOM     14  C   UNL     1      17.338 121.481  17.401  1.00  0.00     0.004 C 
BRANCH  14  15
ATOM     15  C   UNL     1      17.547 121.503  15.881  1.00  0.00     0.000 C 
BRANCH  15  16
ATOM     16  C   UNL     1      18.005 122.888  15.409  1.00  0.00     0.000 C 
BRANCH  16  17
ATOM     17  C   UNL     1      18.376 123.783  16.601  1.00  0.00    -0.000 C 
BRANCH  17  18
ATOM     18  C   UNL     1      18.164 125.281  16.294  1.00  0.00    -0.000 C 
BRANCH  18  19
ATOM     19  C   UNL     1      19.464 126.102  16.311  1.00  0.00    -0.003 C 
ATOM     20  C   UNL     1      19.245 127.562  16.702  1.00  0.00     0.004 C 
ENDBRANCH  18  19
ENDBRANCH  17  18
ENDBRANCH  16  17
ENDBRANCH  15  16
ENDBRANCH  14  15
ENDBRANCH  13  14
ENDBRANCH   2  13
TORSDOF 15
ENDMDL
MODEL 5
REMARK VINA RESULT:    -6.575      4.803      6.306
REMARK INTER + INTRA:         -12.908
REMARK INTER:                 -11.545
REMARK INTRA:                  -1.363
REMARK UNBOUND:                -0.568
REMARK SMILES CCCCCCCCC=CCCCCCCCC(=O)[O-]
REMARK SMILES IDX 10 1 9 2 11 3 12 4 13 5 14 6 15 7 16 8 17 9 18 10 19 11
REMARK SMILES IDX 20 12 8 13 7 14 6 15 5 16 4 17 3 18 2 19 1 20
REMARK H PARENT
REMARK Flexibility Score: inf
ROOT
ATOM      1  C   UNL     1      16.816 119.759  19.125  1.00  0.00    -0.031 C 
ATOM      2  C   UNL     1      16.208 119.624  20.318  1.00  0.00    -0.031 C 
ENDROOT
BRANCH   1   3
ATOM      3  C   UNL     1      16.179 119.445  17.794  1.00  0.00     0.027 C 
BRANCH   3   4
ATOM      4  C   UNL     1      16.605 120.438  16.700  1.00  0.00     0.004 C 
BRANCH   4   5
ATOM      5  C   UNL     1      17.564 121.544  17.184  1.00  0.00     0.000 C 
BRANCH   5   6
ATOM      6  C   UNL     1      17.798 122.694  16.184  1.00  0.00     0.000 C 
BRANCH   6   7
ATOM      7  C   UNL     1      18.608 123.883  16.734  1.00  0.00     0.000 C 
BRANCH   7   8
ATOM      8  C   UNL     1      18.603 125.095  15.792  1.00  0.00     0.006 C 
BRANCH   8   9
ATOM      9  C   UNL     1      17.808 126.255  16.397  1.00  0.00     0.053 C 
BRANCH   9  10
ATOM     10  C   UNL     1      18.723 127.374  16.782  1.00  0.00     0.041 C 
ATOM     11  O   UNL     1      18.695 127.842  17.950  1.00  0.00    -0.550 OA
ATOM     12  O   UNL     1      19.573 127.935  15.837  1.00  0.00    -0.550 OA
ENDBRANCH   9  10
ENDBRANCH   8   9
ENDBRANCH   7   8
ENDBRANCH   6   7
ENDBRANCH   5   6
ENDBRANCH   4   5
ENDBRANCH   3   4
ENDBRANCH   1   3
BRANCH   2  13
ATOM     13  C   UNL     1      14.831 119.040  20.520  1.00  0.00     0.027 C 
BRANCH  13  14
ATOM     14  C   UNL     1      14.079 119.729  21.668  1.00  0.00     0.004 C 
BRANCH  14  15
ATOM     15  C   UNL     1      15.004 120.605  22.523  1.00  0.00     0.000 C 
BRANCH  15  16
ATOM     16  C   UNL     1      14.839 120.287  24.014  1.00  0.00     0.000 C 
BRANCH  16  17
ATOM     17  C   UNL     1      16.190 119.945  24.659  1.00  0.00    -0.000 C 
BRANCH  17  18
ATOM     18  C   UNL     1      16.898 118.774  23.945  1.00  0.00    -0.000 C 
BRANCH  18  19
ATOM     19  C   UNL     1      16.428 117.389  24.421  1.00  0.00    -0.003 C 
ATOM     20  C   UNL     1      16.084 116.446  23.270  1.00  0.00     0.004 C 
ENDBRANCH  18  19
ENDBRANCH  17  18
ENDBRANCH  16  17
ENDBRANCH  15  16
ENDBRANCH  14  15
ENDBRANCH  13  14
ENDBRANCH   2  13
TORSDOF 15
ENDMDL
MODEL 6
REMARK VINA RESULT:    -6.569      5.137     10.354
REMARK INTER + INTRA:         -12.896
REMARK INTER:                 -11.791
REMARK INTRA:                  -1.105
REMARK UNBOUND:                -0.568
REMARK SMILES CCCCCCCCC=CCCCCCCCC(=O)[O-]
REMARK SMILES IDX 10 1 9 2 11 3 12 4 13 5 14 6 15 7 16 8 17 9 18 10 19 11
REMARK SMILES IDX 20 12 8 13 7 14 6 15 5 16 4 17 3 18 2 19 1 20
REMARK H PARENT
REMARK Flexibility Score: inf
ROOT
ATOM      1  C   UNL     1      15.885 119.377  17.347  1.00  0.00    -0.031 C 
ATOM      2  C   UNL     1      16.838 120.117  16.751  1.00  0.00    -0.031 C 
ENDROOT
BRANCH   1   3
ATOM      3  C   UNL     1      14.408 119.679  17.306  1.00  0.00     0.027 C 
BRANCH   3   4
ATOM      4  C   UNL     1      13.579 118.614  18.044  1.00  0.00     0.004 C 
BRANCH   4   5
ATOM      5  C   UNL     1      13.206 118.989  19.493  1.00  0.00     0.000 C 
BRANCH   5   6
ATOM      6  C   UNL     1      14.222 118.547  20.566  1.00  0.00     0.000 C 
BRANCH   6   7
ATOM      7  C   UNL     1      15.274 119.606  20.942  1.00  0.00     0.000 C 
BRANCH   7   8
ATOM      8  C   UNL     1      15.167 120.060  22.405  1.00  0.00     0.006 C 
BRANCH   8   9
ATOM      9  C   UNL     1      14.542 118.965  23.274  1.00  0.00     0.053 C 
BRANCH   9  10
ATOM     10  C   UNL     1      15.599 118.244  24.050  1.00  0.00     0.041 C 
ATOM     11  O   UNL     1      16.794 118.637  24.009  1.00  0.00    -0.550 OA
ATOM     12  O   UNL     1      15.272 117.108  24.780  1.00  0.00    -0.550 OA
ENDBRANCH   9  10
ENDBRANCH   8   9
ENDBRANCH   7   8
ENDBRANCH   6   7
ENDBRANCH   5   6
ENDBRANCH   4   5
ENDBRANCH   3   4
ENDBRANCH   1   3
BRANCH   2  13
ATOM     13  C   UNL     1      16.589 121.423  16.036  1.00  0.00     0.027 C 
BRANCH  13  14
ATOM     14  C   UNL     1      17.658 121.705  14.969  1.00  0.00     0.004 C 
BRANCH  14  15
ATOM     15  C   UNL     1      18.329 123.070  15.169  1.00  0.00     0.000 C 
BRANCH  15  16
ATOM     16  C   UNL     1      18.146 123.567  16.608  1.00  0.00     0.000 C 
BRANCH  16  17
ATOM     17  C   UNL     1      17.952 125.091  16.645  1.00  0.00    -0.000 C 
BRANCH  17  18
ATOM     18  C   UNL     1      18.510 125.782  15.383  1.00  0.00    -0.000 C 
BRANCH  18  19
ATOM     19  C   UNL     1      19.303 127.064  15.684  1.00  0.00    -0.003 C 
ATOM     20  C   UNL     1      19.048 127.611  17.088  1.00  0.00     0.004 C 
ENDBRANCH  18  19
ENDBRANCH  17  18
ENDBRANCH  16  17
ENDBRANCH  15  16
ENDBRANCH  14  15
ENDBRANCH  13  14
ENDBRANCH   2  13
TORSDOF 15
ENDMDL
MODEL 7
REMARK VINA RESULT:    -6.495      5.469     11.530
REMARK INTER + INTRA:         -12.758
REMARK INTER:                 -11.908
REMARK INTRA:                  -0.850
REMARK UNBOUND:                -0.568
REMARK SMILES CCCCCCCCC=CCCCCCCCC(=O)[O-]
REMARK SMILES IDX 10 1 9 2 11 3 12 4 13 5 14 6 15 7 16 8 17 9 18 10 19 11
REMARK SMILES IDX 20 12 8 13 7 14 6 15 5 16 4 17 3 18 2 19 1 20
REMARK H PARENT
REMARK Flexibility Score: inf
ROOT
ATOM      1  C   UNL     1      15.831 119.301  17.050  1.00  0.00    -0.031 C 
ATOM      2  C   UNL     1      16.735 119.996  16.336  1.00  0.00    -0.031 C 
ENDROOT
BRANCH   1   3
ATOM      3  C   UNL     1      14.360 119.627  17.126  1.00  0.00     0.027 C 
BRANCH   3   4
ATOM      4  C   UNL     1      13.479 118.418  16.769  1.00  0.00     0.004 C 
BRANCH   4   5
ATOM      5  C   UNL     1      14.068 117.503  15.676  1.00  0.00     0.000 C 
BRANCH   5   6
ATOM      6  C   UNL     1      13.104 116.434  15.124  1.00  0.00     0.000 C 
BRANCH   6   7
ATOM      7  C   UNL     1      11.847 116.987  14.427  1.00  0.00     0.000 C 
BRANCH   7   8
ATOM      8  C   UNL     1      11.202 115.974  13.470  1.00  0.00     0.006 C 
BRANCH   8   9
ATOM      9  C   UNL     1      10.908 116.616  12.111  1.00  0.00     0.053 C 
BRANCH   9  10
ATOM     10  C   UNL     1       9.434 116.674  11.866  1.00  0.00     0.041 C 
ATOM     11  O   UNL     1       8.645 116.950  12.808  1.00  0.00    -0.550 OA
ATOM     12  O   UNL     1       8.925 116.375  10.609  1.00  0.00    -0.550 OA
ENDBRANCH   9  10
ENDBRANCH   8   9
ENDBRANCH   7   8
ENDBRANCH   6   7
ENDBRANCH   5   6
ENDBRANCH   4   5
ENDBRANCH   3   4
ENDBRANCH   1   3
BRANCH   2  13
ATOM     13  C   UNL     1      16.441 121.270  15.584  1.00  0.00     0.027 C 
BRANCH  13  14
ATOM     14  C   UNL     1      17.671 122.186  15.505  1.00  0.00     0.004 C 
BRANCH  14  15
ATOM     15  C   UNL     1      18.031 122.792  16.868  1.00  0.00     0.000 C 
BRANCH  15  16
ATOM     16  C   UNL     1      18.085 124.322  16.793  1.00  0.00     0.000 C 
BRANCH  16  17
ATOM     17  C   UNL     1      18.706 124.789  15.468  1.00  0.00    -0.000 C 
BRANCH  17  18
ATOM     18  C   UNL     1      18.443 126.285  15.196  1.00  0.00    -0.000 C 
BRANCH  18  19
ATOM     19  C   UNL     1      19.540 127.212  15.745  1.00  0.00    -0.003 C 
ATOM     20  C   UNL     1      19.113 127.966  17.002  1.00  0.00     0.004 C 
ENDBRANCH  18  19
ENDBRANCH  17  18
ENDBRANCH  16  17
ENDBRANCH  15  16
ENDBRANCH  14  15
ENDBRANCH  13  14
ENDBRANCH   2  13
TORSDOF 15
ENDMDL
MODEL 8
REMARK VINA RESULT:    -6.424      5.899     11.961
REMARK INTER + INTRA:         -12.624
REMARK INTER:                 -11.914
REMARK INTRA:                  -0.711
REMARK UNBOUND:                -0.568
REMARK SMILES CCCCCCCCC=CCCCCCCCC(=O)[O-]
REMARK SMILES IDX 10 1 9 2 11 3 12 4 13 5 14 6 15 7 16 8 17 9 18 10 19 11
REMARK SMILES IDX 20 12 8 13 7 14 6 15 5 16 4 17 3 18 2 19 1 20
REMARK H PARENT
REMARK Flexibility Score: inf
ROOT
ATOM      1  C   UNL     1      13.439 118.713  16.891  1.00  0.00    -0.031 C 
ATOM      2  C   UNL     1      14.566 119.346  17.268  1.00  0.00    -0.031 C 
ENDROOT
BRANCH   1   3
ATOM      3  C   UNL     1      13.391 117.504  15.991  1.00  0.00     0.027 C 
BRANCH   3   4
ATOM      4  C   UNL     1      12.278 117.612  14.936  1.00  0.00     0.004 C 
BRANCH   4   5
ATOM      5  C   UNL     1      12.191 116.408  13.976  1.00  0.00     0.000 C 
BRANCH   5   6
ATOM      6  C   UNL     1      11.235 115.282  14.419  1.00  0.00     0.000 C 
BRANCH   6   7
ATOM      7  C   UNL     1      11.875 114.191  15.296  1.00  0.00     0.000 C 
BRANCH   7   8
ATOM      8  C   UNL     1      11.010 113.815  16.508  1.00  0.00     0.006 C 
BRANCH   8   9
ATOM      9  C   UNL     1      11.401 112.439  17.055  1.00  0.00     0.053 C 
BRANCH   9  10
ATOM     10  C   UNL     1      10.552 111.370  16.443  1.00  0.00     0.041 C 
ATOM     11  O   UNL     1       9.594 111.677  15.686  1.00  0.00    -0.550 OA
ATOM     12  O   UNL     1      10.787 110.035  16.748  1.00  0.00    -0.550 OA
ENDBRANCH   9  10
ENDBRANCH   8   9
ENDBRANCH   7   8
ENDBRANCH   6   7
ENDBRANCH   5   6
ENDBRANCH   4   5
ENDBRANCH   3   4
ENDBRANCH   1   3
BRANCH   2  13
ATOM     13  C   UNL     1      15.949 119.009  16.766  1.00  0.00     0.027 C 
BRANCH  13  14
ATOM     14  C   UNL     1      16.885 120.226  16.809  1.00  0.00     0.004 C 
BRANCH  14  15
ATOM     15  C   UNL     1      16.562 121.245  15.708  1.00  0.00     0.000 C 
BRANCH  15  16
ATOM     16  C   UNL     1      17.748 122.185  15.462  1.00  0.00     0.000 C 
BRANCH  16  17
ATOM     17  C   UNL     1      18.043 123.038  16.705  1.00  0.00    -0.000 C 
BRANCH  17  18
ATOM     18  C   UNL     1      18.759 124.358  16.350  1.00  0.00    -0.000 C 
BRANCH  18  19
ATOM     19  C   UNL     1      18.364 125.536  17.256  1.00  0.00    -0.003 C 
ATOM     20  C   UNL     1      18.117 126.830  16.484  1.00  0.00     0.004 C 
ENDBRANCH  18  19
ENDBRANCH  17  18
ENDBRANCH  16  17
ENDBRANCH  15  16
ENDBRANCH  14  15
ENDBRANCH  13  14
ENDBRANCH   2  13
TORSDOF 15
ENDMDL
MODEL 9
REMARK VINA RESULT:    -6.415      2.451      3.753
REMARK INTER + INTRA:         -12.609
REMARK INTER:                 -11.923
REMARK INTRA:                  -0.686
REMARK UNBOUND:                -0.568
REMARK SMILES CCCCCCCCC=CCCCCCCCC(=O)[O-]
REMARK SMILES IDX 10 1 9 2 11 3 12 4 13 5 14 6 15 7 16 8 17 9 18 10 19 11
REMARK SMILES IDX 20 12 8 13 7 14 6 15 5 16 4 17 3 18 2 19 1 20
REMARK H PARENT
REMARK Flexibility Score: inf
ROOT
ATOM      1  C   UNL     1      14.703 119.351  17.263  1.00  0.00    -0.031 C 
ATOM      2  C   UNL     1      13.718 118.531  16.852  1.00  0.00    -0.031 C 
ENDROOT
BRANCH   1   3
ATOM      3  C   UNL     1      16.065 119.451  16.622  1.00  0.00     0.027 C 
BRANCH   3   4
ATOM      4  C   UNL     1      16.626 120.882  16.674  1.00  0.00     0.004 C 
BRANCH   4   5
ATOM      5  C   UNL     1      17.493 121.269  15.459  1.00  0.00     0.000 C 
BRANCH   5   6
ATOM      6  C   UNL     1      17.999 122.726  15.452  1.00  0.00     0.000 C 
BRANCH   6   7
ATOM      7  C   UNL     1      18.275 123.327  16.842  1.00  0.00     0.000 C 
BRANCH   7   8
ATOM      8  C   UNL     1      18.227 124.862  16.848  1.00  0.00     0.006 C 
BRANCH   8   9
ATOM      9  C   UNL     1      19.448 125.450  16.136  1.00  0.00     0.053 C 
BRANCH   9  10
ATOM     10  C   UNL     1      19.493 126.935  16.312  1.00  0.00     0.041 C 
ATOM     11  O   UNL     1      19.905 127.672  15.378  1.00  0.00    -0.550 OA
ATOM     12  O   UNL     1      19.127 127.504  17.526  1.00  0.00    -0.550 OA
ENDBRANCH   9  10
ENDBRANCH   8   9
ENDBRANCH   7   8
ENDBRANCH   6   7
ENDBRANCH   5   6
ENDBRANCH   4   5
ENDBRANCH   3   4
ENDBRANCH   1   3
BRANCH   2  13
ATOM     13  C   UNL     1      13.856 117.507  15.752  1.00  0.00     0.027 C 
BRANCH  13  14
ATOM     14  C   UNL     1      12.505 116.877  15.384  1.00  0.00     0.004 C 
BRANCH  14  15
ATOM     15  C   UNL     1      12.118 117.148  13.924  1.00  0.00     0.000 C 
BRANCH  15  16
ATOM     16  C   UNL     1      11.187 116.053  13.390  1.00  0.00     0.000 C 
BRANCH  16  17
ATOM     17  C   UNL     1      10.487 116.504  12.099  1.00  0.00    -0.000 C 
BRANCH  17  18
ATOM     18  C   UNL     1       9.148 117.219  12.380  1.00  0.00    -0.000 C 
BRANCH  18  19
ATOM     19  C   UNL     1       9.037 118.600  11.714  1.00  0.00    -0.003 C 
ATOM     20  C   UNL     1      10.392 119.271  11.496  1.00  0.00     0.004 C 
ENDBRANCH  18  19
ENDBRANCH  17  18
ENDBRANCH  16  17
ENDBRANCH  15  16
ENDBRANCH  14  15
ENDBRANCH  13  14
ENDBRANCH   2  13
TORSDOF 15
ENDMDL
