MODEL 1
REMARK VINA RESULT:    -3.784      0.000      0.000
REMARK INTER + INTRA:          -5.595
REMARK INTER:                  -5.111
REMARK INTRA:                  -0.484
REMARK UNBOUND:                -0.484
REMARK SMILES O=C[C@@H](O)[C@H](O)[C@H](O)CO
REMARK SMILES IDX 7 1 9 2 10 3 5 5 3 6 2 7 1 8 4 9 6 11 8 13
REMARK H PARENT 10 4 4 10 6 12 8 14
REMARK Flexibility Score: inf
ROOT
ATOM      1  C   UNL     1       2.151   0.873  39.681  1.00  0.00     0.171 C 
ENDROOT
BRANCH   1   2
ATOM      2  C   UNL     1       3.149   1.518  38.701  1.00  0.00     0.190 C 
BRANCH   2   3
ATOM      3  O   UNL     1       2.518   1.820  37.486  1.00  0.00    -0.394 OA
ATOM      4  H   UNL     1       3.169   2.346  36.951  1.00  0.00     0.210 HD
ENDBRANCH   2   3
ENDBRANCH   1   2
BRANCH   1   5
ATOM      5  C   UNL     1       1.463   1.938  40.581  1.00  0.00     0.181 C 
BRANCH   5   6
ATOM      6  C   UNL     1      -0.021   1.596  40.855  1.00  0.00     0.209 C 
BRANCH   6   7
ATOM      7  C   UNL     1      -0.199   1.032  42.240  1.00  0.00     0.258 C 
ATOM      8  O   UNL     1       0.650   0.307  42.734  1.00  0.00    -0.300 OA
ENDBRANCH   6   7
BRANCH   6   9
ATOM      9  O   UNL     1      -0.824   2.739  40.697  1.00  0.00    -0.383 OA
ATOM     10  H   UNL     1      -1.767   2.442  40.786  1.00  0.00     0.211 HD
ENDBRANCH   6   9
ENDBRANCH   5   6
BRANCH   5  11
ATOM     11  O   UNL     1       1.587   3.222  40.019  1.00  0.00    -0.387 OA
ATOM     12  H   UNL     1       2.550   3.383  39.839  1.00  0.00     0.211 HD
ENDBRANCH   5  11
ENDBRANCH   1   5
BRANCH   1  13
ATOM     13  O   UNL     1       2.801  -0.100  40.462  1.00  0.00    -0.388 OA
ATOM     14  H   UNL     1       3.776  -0.011  40.302  1.00  0.00     0.211 HD
ENDBRANCH   1  13
TORSDOF 8
ENDMDL
MODEL 2
REMARK VINA RESULT:    -3.624      7.751      8.991
REMARK INTER + INTRA:          -5.379
REMARK INTER:                  -4.896
REMARK INTRA:                  -0.483
REMARK UNBOUND:                -0.484
REMARK SMILES O=C[C@@H](O)[C@H](O)[C@H](O)CO
REMARK SMILES IDX 7 1 9 2 10 3 5 5 3 6 2 7 1 8 4 9 6 11 8 13
REMARK H PARENT 10 4 4 10 6 12 8 14
REMARK Flexibility Score: inf
ROOT
ATOM      1  C   UNL     1       1.974   5.790  32.848  1.00  0.00     0.171 C 
ENDROOT
BRANCH   1   2
ATOM      2  C   UNL     1       2.649   4.715  33.720  1.00  0.00     0.190 C 
BRANCH   2   3
ATOM      3  O   UNL     1       2.281   3.433  33.291  1.00  0.00    -0.394 OA
ATOM      4  H   UNL     1       2.232   2.864  34.104  1.00  0.00     0.210 HD
ENDBRANCH   2   3
ENDBRANCH   1   2
BRANCH   1   5
ATOM      5  C   UNL     1       2.474   7.217  33.207  1.00  0.00     0.181 C 
BRANCH   5   6
ATOM      6  C   UNL     1       2.083   7.626  34.648  1.00  0.00     0.209 C 
BRANCH   6   7
ATOM      7  C   UNL     1       3.056   8.630  35.208  1.00  0.00     0.258 C 
ATOM      8  O   UNL     1       4.012   9.008  34.549  1.00  0.00    -0.300 OA
ENDBRANCH   6   7
BRANCH   6   9
ATOM      9  O   UNL     1       0.782   8.156  34.671  1.00  0.00    -0.383 OA
ATOM     10  H   UNL     1       0.191   7.488  34.234  1.00  0.00     0.211 HD
ENDBRANCH   6   9
ENDBRANCH   5   6
BRANCH   5  11
ATOM     11  O   UNL     1       2.006   8.161  32.273  1.00  0.00    -0.387 OA
ATOM     12  H   UNL     1       1.294   7.726  31.734  1.00  0.00     0.211 HD
ENDBRANCH   5  11
ENDBRANCH   1   5
BRANCH   1  13
ATOM     13  O   UNL     1       0.575   5.703  32.971  1.00  0.00    -0.388 OA
ATOM     14  H   UNL     1       0.185   6.508  32.542  1.00  0.00     0.211 HD
ENDBRANCH   1  13
TORSDOF 8
ENDMDL
MODEL 3
REMARK VINA RESULT:    -3.605      2.342      3.112
REMARK INTER + INTRA:          -5.354
REMARK INTER:                  -4.622
REMARK INTRA:                  -0.732
REMARK UNBOUND:                -0.484
REMARK SMILES O=C[C@@H](O)[C@H](O)[C@H](O)CO
REMARK SMILES IDX 7 1 9 2 10 3 5 5 3 6 2 7 1 8 4 9 6 11 8 13
REMARK H PARENT 10 4 4 10 6 12 8 14
REMARK Flexibility Score: inf
ROOT
ATOM      1  C   UNL     1       1.401   3.919  41.630  1.00  0.00     0.171 C 
ENDROOT
BRANCH   1   2
ATOM      2  C   UNL     1       1.871   4.674  40.373  1.00  0.00     0.190 C 
BRANCH   2   3
ATOM      3  O   UNL     1       2.057   3.784  39.306  1.00  0.00    -0.394 OA
ATOM      4  H   UNL     1       3.015   3.521  39.320  1.00  0.00     0.210 HD
ENDBRANCH   2   3
ENDBRANCH   1   2
BRANCH   1   5
ATOM      5  C   UNL     1      -0.044   3.373  41.463  1.00  0.00     0.181 C 
BRANCH   5   6
ATOM      6  C   UNL     1      -0.071   1.832  41.317  1.00  0.00     0.209 C 
BRANCH   6   7
ATOM      7  C   UNL     1      -1.455   1.290  41.561  1.00  0.00     0.258 C 
ATOM      8  O   UNL     1      -2.312   1.349  40.693  1.00  0.00    -0.300 OA
ENDBRANCH   6   7
BRANCH   6   9
ATOM      9  O   UNL     1       0.372   1.453  40.039  1.00  0.00    -0.383 OA
ATOM     10  H   UNL     1      -0.137   1.998  39.384  1.00  0.00     0.211 HD
ENDBRANCH   6   9
ENDBRANCH   5   6
BRANCH   5  11
ATOM     11  O   UNL     1      -0.690   3.991  40.376  1.00  0.00    -0.387 OA
ATOM     12  H   UNL     1      -0.500   4.965  40.425  1.00  0.00     0.211 HD
ENDBRANCH   5  11
ENDBRANCH   1   5
BRANCH   1  13
ATOM     13  O   UNL     1       1.496   4.754  42.759  1.00  0.00    -0.388 OA
ATOM     14  H   UNL     1       0.577   5.047  42.993  1.00  0.00     0.211 HD
ENDBRANCH   1  13
TORSDOF 8
ENDMDL
MODEL 4
REMARK VINA RESULT:    -3.588      2.737      3.656
REMARK INTER + INTRA:          -5.330
REMARK INTER:                  -4.357
REMARK INTRA:                  -0.973
REMARK UNBOUND:                -0.484
REMARK SMILES O=C[C@@H](O)[C@H](O)[C@H](O)CO
REMARK SMILES IDX 7 1 9 2 10 3 5 5 3 6 2 7 1 8 4 9 6 11 8 13
REMARK H PARENT 10 4 4 10 6 12 8 14
REMARK Flexibility Score: inf
ROOT
ATOM      1  C   UNL     1       2.577   5.207  40.169  1.00  0.00     0.171 C 
ENDROOT
BRANCH   1   2
ATOM      2  C   UNL     1       2.676   4.171  39.033  1.00  0.00     0.190 C 
BRANCH   2   3
ATOM      3  O   UNL     1       2.150   2.939  39.446  1.00  0.00    -0.394 OA
ATOM      4  H   UNL     1       2.060   2.986  40.434  1.00  0.00     0.210 HD
ENDBRANCH   2   3
ENDBRANCH   1   2
BRANCH   1   5
ATOM      5  C   UNL     1       1.101   5.475  40.572  1.00  0.00     0.181 C 
BRANCH   5   6
ATOM      6  C   UNL     1       0.728   4.788  41.908  1.00  0.00     0.209 C 
BRANCH   6   7
ATOM      7  C   UNL     1      -0.414   3.825  41.721  1.00  0.00     0.258 C 
ATOM      8  O   UNL     1      -0.225   2.715  41.249  1.00  0.00    -0.300 OA
ENDBRANCH   6   7
BRANCH   6   9
ATOM      9  O   UNL     1       1.840   4.114  42.440  1.00  0.00    -0.383 OA
ATOM     10  H   UNL     1       1.567   3.169  42.575  1.00  0.00     0.211 HD
ENDBRANCH   6   9
ENDBRANCH   5   6
BRANCH   5  11
ATOM     11  O   UNL     1       0.223   5.082  39.544  1.00  0.00    -0.387 OA
ATOM     12  H   UNL     1      -0.093   5.904  39.084  1.00  0.00     0.211 HD
ENDBRANCH   5  11
ENDBRANCH   1   5
BRANCH   1  13
ATOM     13  O   UNL     1       3.219   6.401  39.791  1.00  0.00    -0.388 OA
ATOM     14  H   UNL     1       2.920   6.624  38.872  1.00  0.00     0.211 HD
ENDBRANCH   1  13
TORSDOF 8
ENDMDL
MODEL 5
REMARK VINA RESULT:    -3.579      2.567      4.754
REMARK INTER + INTRA:          -5.318
REMARK INTER:                  -4.853
REMARK INTRA:                  -0.464
REMARK UNBOUND:                -0.484
REMARK SMILES O=C[C@@H](O)[C@H](O)[C@H](O)CO
REMARK SMILES IDX 7 1 9 2 10 3 5 5 3 6 2 7 1 8 4 9 6 11 8 13
REMARK H PARENT 10 4 4 10 6 12 8 14
REMARK Flexibility Score: inf
ROOT
ATOM      1  C   UNL     1       2.176   3.592  39.977  1.00  0.00     0.171 C 
ENDROOT
BRANCH   1   2
ATOM      2  C   UNL     1       1.305   4.841  40.215  1.00  0.00     0.190 C 
BRANCH   2   3
ATOM      3  O   UNL     1       2.065   6.007  40.049  1.00  0.00    -0.394 OA
ATOM      4  H   UNL     1       2.791   5.973  40.726  1.00  0.00     0.210 HD
ENDBRANCH   2   3
ENDBRANCH   1   2
BRANCH   1   5
ATOM      5  C   UNL     1       2.882   3.643  38.593  1.00  0.00     0.181 C 
BRANCH   5   6
ATOM      6  C   UNL     1       3.000   2.241  37.948  1.00  0.00     0.209 C 
BRANCH   6   7
ATOM      7  C   UNL     1       3.374   2.345  36.493  1.00  0.00     0.258 C 
ATOM      8  O   UNL     1       3.013   1.496  35.693  1.00  0.00    -0.300 OA
ENDBRANCH   6   7
BRANCH   6   9
ATOM      9  O   UNL     1       3.951   1.464  38.632  1.00  0.00    -0.383 OA
ATOM     10  H   UNL     1       3.692   0.515  38.506  1.00  0.00     0.211 HD
ENDBRANCH   6   9
ENDBRANCH   5   6
BRANCH   5  11
ATOM     11  O   UNL     1       4.146   4.254  38.699  1.00  0.00    -0.387 OA
ATOM     12  H   UNL     1       4.336   4.710  37.838  1.00  0.00     0.211 HD
ENDBRANCH   5  11
ENDBRANCH   1   5
BRANCH   1  13
ATOM     13  O   UNL     1       1.396   2.428  40.100  1.00  0.00    -0.388 OA
ATOM     14  H   UNL     1       1.340   2.205  41.066  1.00  0.00     0.211 HD
ENDBRANCH   1  13
TORSDOF 8
ENDMDL
MODEL 6
REMARK VINA RESULT:    -3.537      8.917     10.157
REMARK INTER + INTRA:          -5.262
REMARK INTER:                  -5.146
REMARK INTRA:                  -0.115
REMARK UNBOUND:                -0.484
REMARK SMILES O=C[C@@H](O)[C@H](O)[C@H](O)CO
REMARK SMILES IDX 7 1 9 2 10 3 5 5 3 6 2 7 1 8 4 9 6 11 8 13
REMARK H PARENT 10 4 4 10 6 12 8 14
REMARK Flexibility Score: inf
ROOT
ATOM      1  C   UNL     1       5.364   8.015  32.755  1.00  0.00     0.171 C 
ENDROOT
BRANCH   1   2
ATOM      2  C   UNL     1       6.213   9.025  33.550  1.00  0.00     0.190 C 
BRANCH   2   3
ATOM      3  O   UNL     1       7.008   9.787  32.682  1.00  0.00    -0.394 OA
ATOM      4  H   UNL     1       7.950   9.528  32.859  1.00  0.00     0.210 HD
ENDBRANCH   2   3
ENDBRANCH   1   2
BRANCH   1   5
ATOM      5  C   UNL     1       4.128   7.540  33.569  1.00  0.00     0.181 C 
BRANCH   5   6
ATOM      6  C   UNL     1       2.803   7.770  32.804  1.00  0.00     0.209 C 
BRANCH   6   7
ATOM      7  C   UNL     1       1.980   6.510  32.757  1.00  0.00     0.258 C 
ATOM      8  O   UNL     1       2.343   5.503  33.346  1.00  0.00    -0.300 OA
ENDBRANCH   6   7
BRANCH   6   9
ATOM      9  O   UNL     1       2.063   8.803  33.404  1.00  0.00    -0.383 OA
ATOM     10  H   UNL     1       2.137   9.594  32.808  1.00  0.00     0.211 HD
ENDBRANCH   6   9
ENDBRANCH   5   6
BRANCH   5  11
ATOM     11  O   UNL     1       4.093   8.162  34.832  1.00  0.00    -0.387 OA
ATOM     12  H   UNL     1       4.034   7.448  35.520  1.00  0.00     0.211 HD
ENDBRANCH   5  11
ENDBRANCH   1   5
BRANCH   1  13
ATOM     13  O   UNL     1       6.157   6.921  32.362  1.00  0.00    -0.388 OA
ATOM     14  H   UNL     1       5.677   6.449  31.633  1.00  0.00     0.211 HD
ENDBRANCH   1  13
TORSDOF 8
ENDMDL
MODEL 7
REMARK VINA RESULT:    -3.537      1.621      2.615
REMARK INTER + INTRA:          -5.262
REMARK INTER:                  -4.533
REMARK INTRA:                  -0.728
REMARK UNBOUND:                -0.484
REMARK SMILES O=C[C@@H](O)[C@H](O)[C@H](O)CO
REMARK SMILES IDX 7 1 9 2 10 3 5 5 3 6 2 7 1 8 4 9 6 11 8 13
REMARK H PARENT 10 4 4 10 6 12 8 14
REMARK Flexibility Score: inf
ROOT
ATOM      1  C   UNL     1       1.070   1.213  41.382  1.00  0.00     0.171 C 
ENDROOT
BRANCH   1   2
ATOM      2  C   UNL     1       2.065   1.075  40.213  1.00  0.00     0.190 C 
BRANCH   2   3
ATOM      3  O   UNL     1       1.381   1.033  38.990  1.00  0.00    -0.394 OA
ATOM      4  H   UNL     1       1.343   1.967  38.653  1.00  0.00     0.210 HD
ENDBRANCH   2   3
ENDBRANCH   1   2
BRANCH   1   5
ATOM      5  C   UNL     1       0.392   2.611  41.395  1.00  0.00     0.181 C 
BRANCH   5   6
ATOM      6  C   UNL     1      -1.141   2.517  41.204  1.00  0.00     0.209 C 
BRANCH   6   7
ATOM      7  C   UNL     1      -1.760   3.887  41.113  1.00  0.00     0.258 C 
ATOM      8  O   UNL     1      -1.877   4.451  40.036  1.00  0.00    -0.300 OA
ENDBRANCH   6   7
BRANCH   6   9
ATOM      9  O   UNL     1      -1.446   1.777  40.049  1.00  0.00    -0.383 OA
ATOM     10  H   UNL     1      -0.698   1.140  39.909  1.00  0.00     0.211 HD
ENDBRANCH   6   9
ENDBRANCH   5   6
BRANCH   5  11
ATOM     11  O   UNL     1       0.968   3.455  40.426  1.00  0.00    -0.387 OA
ATOM     12  H   UNL     1       1.471   4.166  40.903  1.00  0.00     0.211 HD
ENDBRANCH   5  11
ENDBRANCH   1   5
BRANCH   1  13
ATOM     13  O   UNL     1       1.722   0.959  42.603  1.00  0.00    -0.388 OA
ATOM     14  H   UNL     1       2.408   1.664  42.729  1.00  0.00     0.211 HD
ENDBRANCH   1  13
TORSDOF 8
ENDMDL
MODEL 8
REMARK VINA RESULT:    -3.498      2.307      3.869
REMARK INTER + INTRA:          -5.209
REMARK INTER:                  -4.531
REMARK INTRA:                  -0.678
REMARK UNBOUND:                -0.484
REMARK SMILES O=C[C@@H](O)[C@H](O)[C@H](O)CO
REMARK SMILES IDX 7 1 9 2 10 3 5 5 3 6 2 7 1 8 4 9 6 11 8 13
REMARK H PARENT 10 4 4 10 6 12 8 14
REMARK Flexibility Score: inf
ROOT
ATOM      1  C   UNL     1       0.953   2.102  40.881  1.00  0.00     0.171 C 
ENDROOT
BRANCH   1   2
ATOM      2  C   UNL     1       1.367   0.993  41.867  1.00  0.00     0.190 C 
BRANCH   2   3
ATOM      3  O   UNL     1       0.349   0.765  42.803  1.00  0.00    -0.394 OA
ATOM      4  H   UNL     1       0.743   0.935  43.699  1.00  0.00     0.210 HD
ENDBRANCH   2   3
ENDBRANCH   1   2
BRANCH   1   5
ATOM      5  C   UNL     1       0.803   3.475  41.593  1.00  0.00     0.181 C 
BRANCH   5   6
ATOM      6  C   UNL     1       0.860   4.658  40.596  1.00  0.00     0.209 C 
BRANCH   6   7
ATOM      7  C   UNL     1       2.089   4.576  39.730  1.00  0.00     0.258 C 
ATOM      8  O   UNL     1       3.162   5.005  40.124  1.00  0.00    -0.300 OA
ENDBRANCH   6   7
BRANCH   6   9
ATOM      9  O   UNL     1      -0.292   4.677  39.792  1.00  0.00    -0.383 OA
ATOM     10  H   UNL     1      -0.024   4.345  38.896  1.00  0.00     0.211 HD
ENDBRANCH   6   9
ENDBRANCH   5   6
BRANCH   5  11
ATOM     11  O   UNL     1       1.774   3.623  42.603  1.00  0.00    -0.387 OA
ATOM     12  H   UNL     1       1.680   2.857  43.228  1.00  0.00     0.211 HD
ENDBRANCH   5  11
ENDBRANCH   1   5
BRANCH   1  13
ATOM     13  O   UNL     1      -0.238   1.744  40.224  1.00  0.00    -0.388 OA
ATOM     14  H   UNL     1      -0.581   0.917  40.653  1.00  0.00     0.211 HD
ENDBRANCH   1  13
TORSDOF 8
ENDMDL
MODEL 9
REMARK VINA RESULT:    -3.471      2.679      4.069
REMARK INTER + INTRA:          -5.172
REMARK INTER:                  -4.521
REMARK INTRA:                  -0.652
REMARK UNBOUND:                -0.484
REMARK SMILES O=C[C@@H](O)[C@H](O)[C@H](O)CO
REMARK SMILES IDX 7 1 9 2 10 3 5 5 3 6 2 7 1 8 4 9 6 11 8 13
REMARK H PARENT 10 4 4 10 6 12 8 14
REMARK Flexibility Score: inf
ROOT
ATOM      1  C   UNL     1      -0.037   2.308  41.259  1.00  0.00     0.171 C 
ENDROOT
BRANCH   1   2
ATOM      2  C   UNL     1      -1.427   1.706  40.975  1.00  0.00     0.190 C 
BRANCH   2   3
ATOM      3  O   UNL     1      -1.928   2.186  39.757  1.00  0.00    -0.394 OA
ATOM      4  H   UNL     1      -1.732   3.159  39.732  1.00  0.00     0.210 HD
ENDBRANCH   2   3
ENDBRANCH   1   2
BRANCH   1   5
ATOM      5  C   UNL     1      -0.067   3.861  41.217  1.00  0.00     0.181 C 
BRANCH   5   6
ATOM      6  C   UNL     1       1.241   4.484  41.762  1.00  0.00     0.209 C 
BRANCH   6   7
ATOM      7  C   UNL     1       0.975   5.813  42.418  1.00  0.00     0.258 C 
ATOM      8  O   UNL     1       0.752   5.886  43.616  1.00  0.00    -0.300 OA
ENDBRANCH   6   7
BRANCH   6   9
ATOM      9  O   UNL     1       1.854   3.613  42.678  1.00  0.00    -0.383 OA
ATOM     10  H   UNL     1       1.305   3.631  43.505  1.00  0.00     0.211 HD
ENDBRANCH   6   9
ENDBRANCH   5   6
BRANCH   5  11
ATOM     11  O   UNL     1      -1.187   4.359  41.911  1.00  0.00    -0.387 OA
ATOM     12  H   UNL     1      -1.906   4.525  41.247  1.00  0.00     0.211 HD
ENDBRANCH   5  11
ENDBRANCH   1   5
BRANCH   1  13
ATOM     13  O   UNL     1       0.905   1.799  40.347  1.00  0.00    -0.388 OA
ATOM     14  H   UNL     1       1.804   1.905  40.754  1.00  0.00     0.211 HD
ENDBRANCH   1  13
TORSDOF 8
ENDMDL
