MODEL 1
REMARK VINA RESULT:    -6.122      0.000      0.000
REMARK INTER + INTRA:          -8.386
REMARK INTER:                  -7.733
REMARK INTRA:                  -0.653
REMARK UNBOUND:                -0.653
REMARK SMILES O=C(C=Cc1ccc(O)cc1)c1ccc(O)cc1O
REMARK SMILES IDX 4 1 3 2 5 3 6 4 7 5 8 6 11 7 10 8 9 9 2 11 1 12 12 13 18 14
REMARK SMILES IDX 13 15 17 16 14 17 15 18 19 19 16 21
REMARK H PARENT 9 10 19 20 16 22
REMARK Flexibility Score: inf
ROOT
ATOM      1  C   UNL     1      51.625  32.615   3.239  1.00  0.00     0.012 C 
ATOM      2  C   UNL     1      51.341  33.381   2.174  1.00  0.00     0.053 C 
ENDROOT
BRANCH   1   3
ATOM      3  C   UNL     1      50.948  32.744   4.553  1.00  0.00    -0.025 A 
ATOM      4  C   UNL     1      51.213  31.875   5.631  1.00  0.00     0.012 A 
ATOM      5  C   UNL     1      50.541  32.032   6.848  1.00  0.00     0.047 A 
ATOM      6  C   UNL     1      49.590  33.050   7.002  1.00  0.00     0.115 A 
ATOM      7  C   UNL     1      49.982  33.751   4.716  1.00  0.00     0.012 A 
ATOM      8  C   UNL     1      49.313  33.904   5.932  1.00  0.00     0.047 A 
BRANCH   6   9
ATOM      9  O   UNL     1      48.917  33.215   8.210  1.00  0.00    -0.508 OA
ATOM     10  H   UNL     1      49.369  33.033   9.098  1.00  0.00     0.293 HD
ENDBRANCH   6   9
ENDBRANCH   1   3
BRANCH   2  11
ATOM     11  C   UNL     1      52.022  33.231   0.871  1.00  0.00     0.189 C 
ATOM     12  O   UNL     1      53.281  33.167   0.854  1.00  0.00    -0.289 OA
BRANCH  11  13
ATOM     13  C   UNL     1      51.290  33.121  -0.410  1.00  0.00     0.064 A 
ATOM     14  C   UNL     1      51.745  33.753  -1.591  1.00  0.00     0.130 A 
ATOM     15  C   UNL     1      50.116  32.354  -0.449  1.00  0.00     0.020 A 
ATOM     16  C   UNL     1      50.992  33.648  -2.766  1.00  0.00     0.093 A 
ATOM     17  C   UNL     1      49.378  32.247  -1.631  1.00  0.00     0.047 A 
ATOM     18  C   UNL     1      49.813  32.899  -2.792  1.00  0.00     0.119 A 
BRANCH  14  19
ATOM     19  O   UNL     1      52.941  34.472  -1.634  1.00  0.00    -0.507 OA
ATOM     20  H   UNL     1      53.645  34.329  -2.347  1.00  0.00     0.293 HD
ENDBRANCH  14  19
BRANCH  18  21
ATOM     21  O   UNL     1      49.082  32.804  -3.974  1.00  0.00    -0.508 OA
ATOM     22  H   UNL     1      49.540  32.705  -4.873  1.00  0.00     0.293 HD
ENDBRANCH  18  21
ENDBRANCH  11  13
ENDBRANCH   2  11
TORSDOF 6
ENDMDL
MODEL 2
REMARK VINA RESULT:    -6.068     14.843     17.516
REMARK INTER + INTRA:          -8.318
REMARK INTER:                  -7.654
REMARK INTRA:                  -0.664
REMARK UNBOUND:                -0.653
REMARK SMILES O=C(C=Cc1ccc(O)cc1)c1ccc(O)cc1O
REMARK SMILES IDX 4 1 3 2 5 3 6 4 7 5 8 6 11 7 10 8 9 9 2 11 1 12 12 13 18 14
REMARK SMILES IDX 13 15 17 16 14 17 15 18 19 19 16 21
REMARK H PARENT 9 10 19 20 16 22
REMARK Flexibility Score: inf
ROOT
ATOM      1  C   UNL     1      49.526  47.242  12.080  1.00  0.00     0.012 C 
ATOM      2  C   UNL     1      50.689  47.746  11.641  1.00  0.00     0.053 C 
ENDROOT
BRANCH   1   3
ATOM      3  C   UNL     1      48.204  47.599  11.510  1.00  0.00    -0.025 A 
ATOM      4  C   UNL     1      47.982  48.796  10.798  1.00  0.00     0.012 A 
ATOM      5  C   UNL     1      46.714  49.092  10.288  1.00  0.00     0.047 A 
ATOM      6  C   UNL     1      45.649  48.204  10.489  1.00  0.00     0.115 A 
ATOM      7  C   UNL     1      47.124  46.725  11.717  1.00  0.00     0.012 A 
ATOM      8  C   UNL     1      45.858  47.024  11.206  1.00  0.00     0.047 A 
BRANCH   6   9
ATOM      9  O   UNL     1      44.382  48.489   9.984  1.00  0.00    -0.508 OA
ATOM     10  H   UNL     1      43.966  49.407  10.086  1.00  0.00     0.293 HD
ENDBRANCH   6   9
ENDBRANCH   1   3
BRANCH   2  11
ATOM     11  C   UNL     1      51.998  47.370  12.219  1.00  0.00     0.189 C 
ATOM     12  O   UNL     1      52.462  48.068  13.160  1.00  0.00    -0.289 OA
BRANCH  11  13
ATOM     13  C   UNL     1      52.769  46.194  11.762  1.00  0.00     0.064 A 
ATOM     14  C   UNL     1      53.489  45.373  12.662  1.00  0.00     0.130 A 
ATOM     15  C   UNL     1      52.773  45.882  10.394  1.00  0.00     0.020 A 
ATOM     16  C   UNL     1      54.234  44.295  12.170  1.00  0.00     0.093 A 
ATOM     17  C   UNL     1      53.512  44.797   9.917  1.00  0.00     0.047 A 
ATOM     18  C   UNL     1      54.249  44.003  10.804  1.00  0.00     0.119 A 
BRANCH  14  19
ATOM     19  O   UNL     1      53.469  45.589  14.041  1.00  0.00    -0.507 OA
ATOM     20  H   UNL     1      53.816  44.913  14.710  1.00  0.00     0.293 HD
ENDBRANCH  14  19
BRANCH  18  21
ATOM     21  O   UNL     1      54.994  42.922  10.338  1.00  0.00    -0.508 OA
ATOM     22  H   UNL     1      54.921  42.006  10.764  1.00  0.00     0.293 HD
ENDBRANCH  18  21
ENDBRANCH  11  13
ENDBRANCH   2  11
TORSDOF 6
ENDMDL
MODEL 3
REMARK VINA RESULT:    -5.783     17.655     18.788
REMARK INTER + INTRA:          -7.958
REMARK INTER:                  -7.336
REMARK INTRA:                  -0.622
REMARK UNBOUND:                -0.653
REMARK SMILES O=C(C=Cc1ccc(O)cc1)c1ccc(O)cc1O
REMARK SMILES IDX 4 1 3 2 5 3 6 4 7 5 8 6 11 7 10 8 9 9 2 11 1 12 12 13 18 14
REMARK SMILES IDX 13 15 17 16 14 17 15 18 19 19 16 21
REMARK H PARENT 9 10 19 20 16 22
REMARK Flexibility Score: inf
ROOT
ATOM      1  C   UNL     1      50.076  51.583   0.290  1.00  0.00     0.012 C 
ATOM      2  C   UNL     1      51.101  51.205   1.070  1.00  0.00     0.053 C 
ENDROOT
BRANCH   1   3
ATOM      3  C   UNL     1      48.658  51.566   0.725  1.00  0.00    -0.025 A 
ATOM      4  C   UNL     1      47.620  52.125  -0.049  1.00  0.00     0.012 A 
ATOM      5  C   UNL     1      46.299  52.092   0.410  1.00  0.00     0.047 A 
ATOM      6  C   UNL     1      45.997  51.511   1.648  1.00  0.00     0.115 A 
ATOM      7  C   UNL     1      48.343  51.000   1.972  1.00  0.00     0.012 A 
ATOM      8  C   UNL     1      47.023  50.969   2.426  1.00  0.00     0.047 A 
BRANCH   6   9
ATOM      9  O   UNL     1      44.685  51.473   2.113  1.00  0.00    -0.508 OA
ATOM     10  H   UNL     1      44.434  51.843   3.023  1.00  0.00     0.293 HD
ENDBRANCH   6   9
ENDBRANCH   1   3
BRANCH   2  11
ATOM     11  C   UNL     1      52.509  51.237   0.619  1.00  0.00     0.189 C 
ATOM     12  O   UNL     1      52.762  51.690  -0.529  1.00  0.00    -0.289 OA
BRANCH  11  13
ATOM     13  C   UNL     1      53.633  50.791   1.469  1.00  0.00     0.064 A 
ATOM     14  C   UNL     1      54.658  49.947   0.976  1.00  0.00     0.130 A 
ATOM     15  C   UNL     1      53.687  51.231   2.801  1.00  0.00     0.020 A 
ATOM     16  C   UNL     1      55.679  49.524   1.836  1.00  0.00     0.093 A 
ATOM     17  C   UNL     1      54.716  50.809   3.646  1.00  0.00     0.047 A 
ATOM     18  C   UNL     1      55.713  49.951   3.166  1.00  0.00     0.119 A 
BRANCH  14  19
ATOM     19  O   UNL     1      54.700  49.532  -0.356  1.00  0.00    -0.507 OA
ATOM     20  H   UNL     1      54.321  48.647  -0.668  1.00  0.00     0.293 HD
ENDBRANCH  14  19
BRANCH  18  21
ATOM     21  O   UNL     1      56.741  49.520   4.001  1.00  0.00    -0.508 OA
ATOM     22  H   UNL     1      57.007  48.544   4.053  1.00  0.00     0.293 HD
ENDBRANCH  18  21
ENDBRANCH  11  13
ENDBRANCH   2  11
TORSDOF 6
ENDMDL
MODEL 4
REMARK VINA RESULT:    -5.775      1.168      2.030
REMARK INTER + INTRA:          -7.947
REMARK INTER:                  -7.719
REMARK INTRA:                  -0.228
REMARK UNBOUND:                -0.653
REMARK SMILES O=C(C=Cc1ccc(O)cc1)c1ccc(O)cc1O
REMARK SMILES IDX 4 1 3 2 5 3 6 4 7 5 8 6 11 7 10 8 9 9 2 11 1 12 12 13 18 14
REMARK SMILES IDX 13 15 17 16 14 17 15 18 19 19 16 21
REMARK H PARENT 9 10 19 20 16 22
REMARK Flexibility Score: inf
ROOT
ATOM      1  C   UNL     1      51.518  32.432   3.082  1.00  0.00     0.012 C 
ATOM      2  C   UNL     1      51.500  33.270   2.034  1.00  0.00     0.053 C 
ENDROOT
BRANCH   1   3
ATOM      3  C   UNL     1      50.882  32.730   4.388  1.00  0.00    -0.025 A 
ATOM      4  C   UNL     1      49.946  33.771   4.557  1.00  0.00     0.012 A 
ATOM      5  C   UNL     1      49.382  34.018   5.813  1.00  0.00     0.047 A 
ATOM      6  C   UNL     1      49.749  33.238   6.917  1.00  0.00     0.115 A 
ATOM      7  C   UNL     1      51.253  31.965   5.507  1.00  0.00     0.012 A 
ATOM      8  C   UNL     1      50.687  32.214   6.759  1.00  0.00     0.047 A 
BRANCH   6   9
ATOM      9  O   UNL     1      49.192  33.475   8.171  1.00  0.00    -0.508 OA
ATOM     10  H   UNL     1      49.687  34.005   8.879  1.00  0.00     0.293 HD
ENDBRANCH   6   9
ENDBRANCH   1   3
BRANCH   2  11
ATOM     11  C   UNL     1      52.135  32.951   0.737  1.00  0.00     0.189 C 
ATOM     12  O   UNL     1      53.182  32.250   0.737  1.00  0.00    -0.289 OA
BRANCH  11  13
ATOM     13  C   UNL     1      51.575  33.389  -0.560  1.00  0.00     0.064 A 
ATOM     14  C   UNL     1      50.236  33.121  -0.929  1.00  0.00     0.130 A 
ATOM     15  C   UNL     1      52.401  34.104  -1.441  1.00  0.00     0.020 A 
ATOM     16  C   UNL     1      49.770  33.526  -2.185  1.00  0.00     0.093 A 
ATOM     17  C   UNL     1      51.922  34.511  -2.689  1.00  0.00     0.047 A 
ATOM     18  C   UNL     1      50.605  34.219  -3.066  1.00  0.00     0.119 A 
BRANCH  14  19
ATOM     19  O   UNL     1      49.345  32.477  -0.069  1.00  0.00    -0.507 OA
ATOM     20  H   UNL     1      48.544  32.940   0.342  1.00  0.00     0.293 HD
ENDBRANCH  14  19
BRANCH  18  21
ATOM     21  O   UNL     1      50.118  34.615  -4.309  1.00  0.00    -0.508 OA
ATOM     22  H   UNL     1      50.267  35.554  -4.661  1.00  0.00     0.293 HD
ENDBRANCH  18  21
ENDBRANCH  11  13
ENDBRANCH   2  11
TORSDOF 6
ENDMDL
MODEL 5
REMARK VINA RESULT:    -5.733      1.958      3.221
REMARK INTER + INTRA:          -7.895
REMARK INTER:                  -7.240
REMARK INTRA:                  -0.655
REMARK UNBOUND:                -0.653
REMARK SMILES O=C(C=Cc1ccc(O)cc1)c1ccc(O)cc1O
REMARK SMILES IDX 4 1 3 2 5 3 6 4 7 5 8 6 11 7 10 8 9 9 2 11 1 12 12 13 18 14
REMARK SMILES IDX 13 15 17 16 14 17 15 18 19 19 16 21
REMARK H PARENT 9 10 19 20 16 22
REMARK Flexibility Score: inf
ROOT
ATOM      1  C   UNL     1      50.327  33.696   3.518  1.00  0.00     0.012 C 
ATOM      2  C   UNL     1      50.994  32.962   2.614  1.00  0.00     0.053 C 
ENDROOT
BRANCH   1   3
ATOM      3  C   UNL     1      50.239  33.351   4.959  1.00  0.00    -0.025 A 
ATOM      4  C   UNL     1      49.496  34.119   5.879  1.00  0.00     0.012 A 
ATOM      5  C   UNL     1      49.452  33.757   7.229  1.00  0.00     0.047 A 
ATOM      6  C   UNL     1      50.155  32.632   7.681  1.00  0.00     0.115 A 
ATOM      7  C   UNL     1      50.951  32.234   5.427  1.00  0.00     0.012 A 
ATOM      8  C   UNL     1      50.904  31.875   6.777  1.00  0.00     0.047 A 
BRANCH   6   9
ATOM      9  O   UNL     1      50.116  32.263   9.023  1.00  0.00    -0.508 OA
ATOM     10  H   UNL     1      49.817  32.911   9.743  1.00  0.00     0.293 HD
ENDBRANCH   6   9
ENDBRANCH   1   3
BRANCH   2  11
ATOM     11  C   UNL     1      51.076  33.329   1.184  1.00  0.00     0.189 C 
ATOM     12  O   UNL     1      50.031  33.730   0.605  1.00  0.00    -0.289 OA
BRANCH  11  13
ATOM     13  C   UNL     1      52.337  33.275   0.413  1.00  0.00     0.064 A 
ATOM     14  C   UNL     1      52.411  32.665  -0.862  1.00  0.00     0.130 A 
ATOM     15  C   UNL     1      53.488  33.860   0.963  1.00  0.00     0.020 A 
ATOM     16  C   UNL     1      53.640  32.609  -1.531  1.00  0.00     0.093 A 
ATOM     17  C   UNL     1      54.706  33.806   0.281  1.00  0.00     0.047 A 
ATOM     18  C   UNL     1      54.785  33.175  -0.967  1.00  0.00     0.119 A 
BRANCH  14  19
ATOM     19  O   UNL     1      51.288  32.128  -1.494  1.00  0.00    -0.507 OA
ATOM     20  H   UNL     1      50.601  31.565  -1.009  1.00  0.00     0.293 HD
ENDBRANCH  14  19
BRANCH  18  21
ATOM     21  O   UNL     1      55.996  33.111  -1.653  1.00  0.00    -0.508 OA
ATOM     22  H   UNL     1      56.051  33.297  -2.647  1.00  0.00     0.293 HD
ENDBRANCH  18  21
ENDBRANCH  11  13
ENDBRANCH   2  11
TORSDOF 6
ENDMDL
MODEL 6
REMARK VINA RESULT:    -5.677      4.531     10.438
REMARK INTER + INTRA:          -7.824
REMARK INTER:                  -7.313
REMARK INTRA:                  -0.510
REMARK UNBOUND:                -0.653
REMARK SMILES O=C(C=Cc1ccc(O)cc1)c1ccc(O)cc1O
REMARK SMILES IDX 4 1 3 2 5 3 6 4 7 5 8 6 11 7 10 8 9 9 2 11 1 12 12 13 18 14
REMARK SMILES IDX 13 15 17 16 14 17 15 18 19 19 16 21
REMARK H PARENT 9 10 19 20 16 22
REMARK Flexibility Score: inf
ROOT
ATOM      1  C   UNL     1      49.363  33.441   8.665  1.00  0.00     0.012 C 
ATOM      2  C   UNL     1      48.171  34.008   8.901  1.00  0.00     0.053 C 
ENDROOT
BRANCH   1   3
ATOM      3  C   UNL     1      49.887  33.155   7.306  1.00  0.00    -0.025 A 
ATOM      4  C   UNL     1      50.781  32.097   7.045  1.00  0.00     0.012 A 
ATOM      5  C   UNL     1      51.254  31.875   5.747  1.00  0.00     0.047 A 
ATOM      6  C   UNL     1      50.850  32.709   4.697  1.00  0.00     0.115 A 
ATOM      7  C   UNL     1      49.501  33.994   6.247  1.00  0.00     0.012 A 
ATOM      8  C   UNL     1      49.976  33.769   4.952  1.00  0.00     0.047 A 
BRANCH   6   9
ATOM      9  O   UNL     1      51.315  32.496   3.402  1.00  0.00    -0.508 OA
ATOM     10  H   UNL     1      50.789  31.943   2.735  1.00  0.00     0.293 HD
ENDBRANCH   6   9
ENDBRANCH   1   3
BRANCH   2  11
ATOM     11  C   UNL     1      47.671  34.292  10.264  1.00  0.00     0.189 C 
ATOM     12  O   UNL     1      47.509  33.326  11.057  1.00  0.00    -0.289 OA
BRANCH  11  13
ATOM     13  C   UNL     1      47.383  35.660  10.745  1.00  0.00     0.064 A 
ATOM     14  C   UNL     1      48.293  36.377  11.558  1.00  0.00     0.130 A 
ATOM     15  C   UNL     1      46.173  36.265  10.369  1.00  0.00     0.020 A 
ATOM     16  C   UNL     1      47.952  37.654  12.018  1.00  0.00     0.093 A 
ATOM     17  C   UNL     1      45.849  37.545  10.826  1.00  0.00     0.047 A 
ATOM     18  C   UNL     1      46.736  38.241  11.655  1.00  0.00     0.119 A 
BRANCH  14  19
ATOM     19  O   UNL     1      49.541  35.858  11.908  1.00  0.00    -0.507 OA
ATOM     20  H   UNL     1      49.708  34.869  12.042  1.00  0.00     0.293 HD
ENDBRANCH  14  19
BRANCH  18  21
ATOM     21  O   UNL     1      46.421  39.515  12.121  1.00  0.00    -0.508 OA
ATOM     22  H   UNL     1      47.064  40.291  12.017  1.00  0.00     0.293 HD
ENDBRANCH  18  21
ENDBRANCH  11  13
ENDBRANCH   2  11
TORSDOF 6
ENDMDL
MODEL 7
REMARK VINA RESULT:    -5.625     15.175     17.352
REMARK INTER + INTRA:          -7.759
REMARK INTER:                  -7.274
REMARK INTRA:                  -0.484
REMARK UNBOUND:                -0.653
REMARK SMILES O=C(C=Cc1ccc(O)cc1)c1ccc(O)cc1O
REMARK SMILES IDX 4 1 3 2 5 3 6 4 7 5 8 6 11 7 10 8 9 9 2 11 1 12 12 13 18 14
REMARK SMILES IDX 13 15 17 16 14 17 15 18 19 19 16 21
REMARK H PARENT 9 10 19 20 16 22
REMARK Flexibility Score: inf
ROOT
ATOM      1  C   UNL     1      49.989  46.506  12.587  1.00  0.00     0.012 C 
ATOM      2  C   UNL     1      50.790  47.484  13.036  1.00  0.00     0.053 C 
ENDROOT
BRANCH   1   3
ATOM      3  C   UNL     1      48.508  46.556  12.653  1.00  0.00    -0.025 A 
ATOM      4  C   UNL     1      47.760  45.756  13.541  1.00  0.00     0.012 A 
ATOM      5  C   UNL     1      46.364  45.834  13.558  1.00  0.00     0.047 A 
ATOM      6  C   UNL     1      45.695  46.701  12.684  1.00  0.00     0.115 A 
ATOM      7  C   UNL     1      47.825  47.410  11.772  1.00  0.00     0.012 A 
ATOM      8  C   UNL     1      46.429  47.485  11.792  1.00  0.00     0.047 A 
BRANCH   6   9
ATOM      9  O   UNL     1      44.305  46.786  12.694  1.00  0.00    -0.508 OA
ATOM     10  H   UNL     1      43.816  47.524  12.201  1.00  0.00     0.293 HD
ENDBRANCH   6   9
ENDBRANCH   1   3
BRANCH   2  11
ATOM     11  C   UNL     1      52.265  47.417  12.953  1.00  0.00     0.189 C 
ATOM     12  O   UNL     1      52.940  48.316  13.523  1.00  0.00    -0.289 OA
BRANCH  11  13
ATOM     13  C   UNL     1      52.982  46.325  12.260  1.00  0.00     0.064 A 
ATOM     14  C   UNL     1      52.991  46.211  10.849  1.00  0.00     0.130 A 
ATOM     15  C   UNL     1      53.682  45.384  13.030  1.00  0.00     0.020 A 
ATOM     16  C   UNL     1      53.654  45.135  10.247  1.00  0.00     0.093 A 
ATOM     17  C   UNL     1      54.347  44.320  12.416  1.00  0.00     0.047 A 
ATOM     18  C   UNL     1      54.331  44.191  11.023  1.00  0.00     0.119 A 
BRANCH  14  19
ATOM     19  O   UNL     1      52.373  47.154  10.025  1.00  0.00    -0.507 OA
ATOM     20  H   UNL     1      52.076  46.947   9.080  1.00  0.00     0.293 HD
ENDBRANCH  14  19
BRANCH  18  21
ATOM     21  O   UNL     1      54.987  43.131  10.400  1.00  0.00    -0.508 OA
ATOM     22  H   UNL     1      55.924  43.233  10.028  1.00  0.00     0.293 HD
ENDBRANCH  18  21
ENDBRANCH  11  13
ENDBRANCH   2  11
TORSDOF 6
ENDMDL
MODEL 8
REMARK VINA RESULT:    -5.592     16.319     17.733
REMARK INTER + INTRA:          -7.716
REMARK INTER:                  -7.052
REMARK INTRA:                  -0.664
REMARK UNBOUND:                -0.653
REMARK SMILES O=C(C=Cc1ccc(O)cc1)c1ccc(O)cc1O
REMARK SMILES IDX 4 1 3 2 5 3 6 4 7 5 8 6 11 7 10 8 9 9 2 11 1 12 12 13 18 14
REMARK SMILES IDX 13 15 17 16 14 17 15 18 19 19 16 21
REMARK H PARENT 9 10 19 20 16 22
REMARK Flexibility Score: inf
ROOT
ATOM      1  C   UNL     1      50.207  47.375  11.435  1.00  0.00     0.012 C 
ATOM      2  C   UNL     1      49.319  47.837  12.328  1.00  0.00     0.053 C 
ENDROOT
BRANCH   1   3
ATOM      3  C   UNL     1      51.442  46.639  11.802  1.00  0.00    -0.025 A 
ATOM      4  C   UNL     1      52.329  46.117  10.838  1.00  0.00     0.012 A 
ATOM      5  C   UNL     1      53.475  45.421  11.236  1.00  0.00     0.047 A 
ATOM      6  C   UNL     1      53.748  45.229  12.597  1.00  0.00     0.115 A 
ATOM      7  C   UNL     1      51.718  46.427  13.163  1.00  0.00     0.012 A 
ATOM      8  C   UNL     1      52.865  45.731  13.556  1.00  0.00     0.047 A 
BRANCH   6   9
ATOM      9  O   UNL     1      54.887  44.539  13.002  1.00  0.00    -0.508 OA
ATOM     10  H   UNL     1      55.116  44.424  13.983  1.00  0.00     0.293 HD
ENDBRANCH   6   9
ENDBRANCH   1   3
BRANCH   2  11
ATOM     11  C   UNL     1      48.091  48.562  11.941  1.00  0.00     0.189 C 
ATOM     12  O   UNL     1      48.019  49.796  12.185  1.00  0.00    -0.289 OA
BRANCH  11  13
ATOM     13  C   UNL     1      46.958  47.910  11.250  1.00  0.00     0.064 A 
ATOM     14  C   UNL     1      46.148  48.601  10.317  1.00  0.00     0.130 A 
ATOM     15  C   UNL     1      46.690  46.560  11.524  1.00  0.00     0.020 A 
ATOM     16  C   UNL     1      45.064  47.945   9.722  1.00  0.00     0.093 A 
ATOM     17  C   UNL     1      45.611  45.913  10.916  1.00  0.00     0.047 A 
ATOM     18  C   UNL     1      44.792  46.606  10.016  1.00  0.00     0.119 A 
BRANCH  14  19
ATOM     19  O   UNL     1      46.405  49.924   9.950  1.00  0.00    -0.507 OA
ATOM     20  H   UNL     1      45.759  50.681  10.135  1.00  0.00     0.293 HD
ENDBRANCH  14  19
BRANCH  18  21
ATOM     21  O   UNL     1      43.711  45.974   9.408  1.00  0.00    -0.508 OA
ATOM     22  H   UNL     1      42.757  46.264   9.590  1.00  0.00     0.293 HD
ENDBRANCH  18  21
ENDBRANCH  11  13
ENDBRANCH   2  11
TORSDOF 6
ENDMDL
MODEL 9
REMARK VINA RESULT:    -5.210      4.512     10.463
REMARK INTER + INTRA:          -7.234
REMARK INTER:                  -6.810
REMARK INTRA:                  -0.424
REMARK UNBOUND:                -0.653
REMARK SMILES O=C(C=Cc1ccc(O)cc1)c1ccc(O)cc1O
REMARK SMILES IDX 4 1 3 2 5 3 6 4 7 5 8 6 11 7 10 8 9 9 2 11 1 12 12 13 18 14
REMARK SMILES IDX 13 15 17 16 14 17 15 18 19 19 16 21
REMARK H PARENT 9 10 19 20 16 22
REMARK Flexibility Score: inf
ROOT
ATOM      1  C   UNL     1      48.755  33.206   8.363  1.00  0.00     0.012 C 
ATOM      2  C   UNL     1      48.678  34.376   9.015  1.00  0.00     0.053 C 
ENDROOT
BRANCH   1   3
ATOM      3  C   UNL     1      49.508  33.011   7.100  1.00  0.00    -0.025 A 
ATOM      4  C   UNL     1      50.490  32.011   6.948  1.00  0.00     0.012 A 
ATOM      5  C   UNL     1      51.180  31.875   5.739  1.00  0.00     0.047 A 
ATOM      6  C   UNL     1      50.908  32.739   4.670  1.00  0.00     0.115 A 
ATOM      7  C   UNL     1      49.255  33.881   6.026  1.00  0.00     0.012 A 
ATOM      8  C   UNL     1      49.946  33.742   4.820  1.00  0.00     0.047 A 
BRANCH   6   9
ATOM      9  O   UNL     1      51.588  32.611   3.462  1.00  0.00    -0.508 OA
ATOM     10  H   UNL     1      51.239  32.019   2.717  1.00  0.00     0.293 HD
ENDBRANCH   6   9
ENDBRANCH   1   3
BRANCH   2  11
ATOM     11  C   UNL     1      47.928  34.546  10.277  1.00  0.00     0.189 C 
ATOM     12  O   UNL     1      47.709  33.529  10.988  1.00  0.00    -0.289 OA
BRANCH  11  13
ATOM     13  C   UNL     1      47.452  35.861  10.757  1.00  0.00     0.064 A 
ATOM     14  C   UNL     1      46.179  36.372  10.409  1.00  0.00     0.130 A 
ATOM     15  C   UNL     1      48.289  36.615  11.594  1.00  0.00     0.020 A 
ATOM     16  C   UNL     1      45.795  37.640  10.859  1.00  0.00     0.093 A 
ATOM     17  C   UNL     1      47.890  37.876  12.046  1.00  0.00     0.047 A 
ATOM     18  C   UNL     1      46.643  38.393  11.676  1.00  0.00     0.119 A 
BRANCH  14  19
ATOM     19  O   UNL     1      45.273  35.641   9.637  1.00  0.00    -0.507 OA
ATOM     20  H   UNL     1      45.234  35.703   8.628  1.00  0.00     0.293 HD
ENDBRANCH  14  19
BRANCH  18  21
ATOM     21  O   UNL     1      46.238  39.651  12.116  1.00  0.00    -0.508 OA
ATOM     22  H   UNL     1      45.366  40.065  11.806  1.00  0.00     0.293 HD
ENDBRANCH  18  21
ENDBRANCH  11  13
ENDBRANCH   2  11
TORSDOF 6
ENDMDL
