MODEL 1
REMARK VINA RESULT:    -3.623      0.000      0.000
REMARK INTER + INTRA:          -5.895
REMARK INTER:                  -5.529
REMARK INTRA:                  -0.366
REMARK UNBOUND:                -0.366
REMARK SMILES CC1=CCC[C@@H](C)C(=O)C[C@@H](C(C)C)C(=O)C1
REMARK SMILES IDX 8 1 9 2 6 3 7 4 5 5 4 6 3 7 2 8 1 9 10 11 11 12 15 13 16 14
REMARK SMILES IDX 17 15 12 17 13 18 14 19
REMARK H PARENT
REMARK Flexibility Score: 70.00
ROOT
ATOM      1  C   UNL     1      51.604  23.665  19.225  1.00  0.00     0.136 C 
ATOM      2  O   UNL     1      52.420  22.823  18.878  1.00  0.00    -0.299 OA
ENDROOT
BRANCH   1   3
ATOM      3  C   UNL     1      50.290  23.792  18.466  1.00  0.00     0.053 C 
ATOM      4  C   UNL     1      49.492  22.477  18.466  1.00  0.00     0.016 C 
BRANCH   3   5
ATOM      5  C   UNL     1      50.531  24.280  17.017  1.00  0.00     0.015 C 
BRANCH   5   6
ATOM      6  C   UNL     1      50.599  25.822  16.922  1.00  0.00     0.028 C 
BRANCH   6   7
ATOM      7  C   UNL     1      52.008  26.321  16.712  1.00  0.00    -0.028 C 
ATOM      8  C   UNL     1      52.626  27.249  17.480  1.00  0.00    -0.070 CG0
ATOM      9  C   UNL     1      54.038  27.637  17.125  1.00  0.00     0.039 C 
ATOM     10  G   UNL     1      51.980  27.892  18.697  1.00  0.00     0.000 G0
ENDBRANCH   6   7
ENDBRANCH   5   6
ENDBRANCH   3   5
ENDBRANCH   1   3
BRANCH   1  11
ATOM     11  C   UNL     1      51.998  24.619  20.338  1.00  0.00     0.087 C 
BRANCH  11  12
ATOM     12  C   UNL     1      51.231  25.979  20.351  1.00  0.00     0.066 C 
BRANCH  12  13
ATOM     13  C   UNL     1      52.188  27.100  19.967  1.00  0.00     0.140 C 
ATOM     14  O   UNL     1      53.091  27.403  20.736  1.00  0.00    -0.299 OA
BRANCH  13  15
ATOM     15  C   UNL     1      51.990  27.911  18.707  1.00  0.00     0.106 CG0
ATOM     16  G   UNL     1      52.625  27.247  17.497  1.00  0.00     0.000 G0
ENDBRANCH  13  15
ENDBRANCH  12  13
BRANCH  12  17
ATOM     17  C   UNL     1      50.562  26.262  21.738  1.00  0.00    -0.006 C 
ATOM     18  C   UNL     1      49.666  25.087  22.184  1.00  0.00     0.008 C 
ATOM     19  C   UNL     1      49.702  27.542  21.723  1.00  0.00     0.008 C 
ENDBRANCH  12  17
ENDBRANCH  11  12
ENDBRANCH   1  11
TORSDOF 1
ENDMDL
MODEL 2
REMARK VINA RESULT:    -3.567      2.672      4.518
REMARK INTER + INTRA:          -5.809
REMARK INTER:                  -5.650
REMARK INTRA:                  -0.159
REMARK UNBOUND:                -0.366
REMARK SMILES CC1=CCC[C@@H](C)C(=O)C[C@@H](C(C)C)C(=O)C1
REMARK SMILES IDX 8 1 9 2 6 3 7 4 5 5 4 6 3 7 2 8 1 9 10 11 11 12 15 13 16 14
REMARK SMILES IDX 17 15 12 17 13 18 14 19
REMARK H PARENT
REMARK Flexibility Score: 70.00
ROOT
ATOM      1  C   UNL     1      51.815  26.072  18.428  1.00  0.00     0.136 C 
ATOM      2  O   UNL     1      52.683  26.931  18.504  1.00  0.00    -0.299 OA
ENDROOT
BRANCH   1   3
ATOM      3  C   UNL     1      51.845  25.077  17.275  1.00  0.00     0.053 C 
ATOM      4  C   UNL     1      51.933  25.777  15.908  1.00  0.00     0.016 C 
BRANCH   3   5
ATOM      5  C   UNL     1      50.619  24.134  17.325  1.00  0.00     0.015 C 
BRANCH   5   6
ATOM      6  C   UNL     1      50.905  22.844  18.128  1.00  0.00     0.028 C 
BRANCH   6   7
ATOM      7  C   UNL     1      49.649  22.240  18.707  1.00  0.00    -0.028 C 
ATOM      8  C   UNL     1      49.304  22.273  20.016  1.00  0.00    -0.070 CG0
ATOM      9  C   UNL     1      48.011  21.614  20.425  1.00  0.00     0.039 C 
ATOM     10  G   UNL     1      50.134  22.967  21.083  1.00  0.00     0.000 G0
ENDBRANCH   6   7
ENDBRANCH   5   6
ENDBRANCH   3   5
ENDBRANCH   1   3
BRANCH   1  11
ATOM     11  C   UNL     1      50.686  26.114  19.441  1.00  0.00     0.087 C 
BRANCH  11  12
ATOM     12  C   UNL     1      51.003  25.450  20.818  1.00  0.00     0.066 C 
BRANCH  12  13
ATOM     13  C   UNL     1      49.896  24.463  21.168  1.00  0.00     0.140 C 
ATOM     14  O   UNL     1      48.823  24.891  21.574  1.00  0.00    -0.299 OA
BRANCH  13  15
ATOM     15  C   UNL     1      50.124  22.970  21.119  1.00  0.00     0.106 CG0
ATOM     16  G   UNL     1      49.304  22.306  20.025  1.00  0.00     0.000 G0
ENDBRANCH  13  15
ENDBRANCH  12  13
BRANCH  12  17
ATOM     17  C   UNL     1      51.186  26.513  21.953  1.00  0.00    -0.006 C 
ATOM     18  C   UNL     1      50.660  27.897  21.520  1.00  0.00     0.008 C 
ATOM     19  C   UNL     1      52.662  26.672  22.373  1.00  0.00     0.008 C 
ENDBRANCH  12  17
ENDBRANCH  11  12
ENDBRANCH   1  11
TORSDOF 1
ENDMDL
MODEL 3
REMARK VINA RESULT:    -3.472      1.484      1.734
REMARK INTER + INTRA:          -5.664
REMARK INTER:                  -5.511
REMARK INTRA:                  -0.153
REMARK UNBOUND:                -0.366
REMARK SMILES CC1=CCC[C@@H](C)C(=O)C[C@@H](C(C)C)C(=O)C1
REMARK SMILES IDX 8 1 9 2 6 3 7 4 5 5 4 6 3 7 2 8 1 9 10 11 11 12 15 13 16 14
REMARK SMILES IDX 17 15 12 17 13 18 14 19
REMARK H PARENT
REMARK Flexibility Score: 70.00
ROOT
ATOM      1  C   UNL     1      50.976  23.845  20.412  1.00  0.00     0.136 C 
ATOM      2  O   UNL     1      50.659  23.504  21.543  1.00  0.00    -0.299 OA
ENDROOT
BRANCH   1   3
ATOM      3  C   UNL     1      50.374  23.121  19.215  1.00  0.00     0.053 C 
ATOM      4  C   UNL     1      50.046  21.652  19.532  1.00  0.00     0.016 C 
BRANCH   3   5
ATOM      5  C   UNL     1      51.307  23.216  17.983  1.00  0.00     0.015 C 
BRANCH   5   6
ATOM      6  C   UNL     1      50.743  24.155  16.893  1.00  0.00     0.028 C 
BRANCH   6   7
ATOM      7  C   UNL     1      51.834  24.869  16.132  1.00  0.00    -0.028 C 
ATOM      8  C   UNL     1      52.213  26.153  16.339  1.00  0.00    -0.070 CG0
ATOM      9  C   UNL     1      53.321  26.711  15.483  1.00  0.00     0.039 C 
ATOM     10  G   UNL     1      51.601  27.044  17.407  1.00  0.00     0.000 G0
ENDBRANCH   6   7
ENDBRANCH   5   6
ENDBRANCH   3   5
ENDBRANCH   1   3
BRANCH   1  11
ATOM     11  C   UNL     1      52.043  24.915  20.266  1.00  0.00     0.087 C 
BRANCH  11  12
ATOM     12  C   UNL     1      51.510  26.347  19.946  1.00  0.00     0.066 C 
BRANCH  12  13
ATOM     13  C   UNL     1      52.264  26.908  18.747  1.00  0.00     0.140 C 
ATOM     14  O   UNL     1      53.408  27.317  18.900  1.00  0.00    -0.299 OA
BRANCH  13  15
ATOM     15  C   UNL     1      51.600  27.061  17.398  1.00  0.00     0.106 CG0
ATOM     16  G   UNL     1      52.227  26.157  16.350  1.00  0.00     0.000 G0
ENDBRANCH  13  15
ENDBRANCH  12  13
BRANCH  12  17
ATOM     17  C   UNL     1      51.625  27.305  21.179  1.00  0.00    -0.006 C 
ATOM     18  C   UNL     1      52.512  26.696  22.286  1.00  0.00     0.008 C 
ATOM     19  C   UNL     1      50.250  27.635  21.795  1.00  0.00     0.008 C 
ENDBRANCH  12  17
ENDBRANCH  11  12
ENDBRANCH   1  11
TORSDOF 1
ENDMDL
MODEL 4
REMARK VINA RESULT:    -3.415      1.959      4.192
REMARK INTER + INTRA:          -5.578
REMARK INTER:                  -6.189
REMARK INTRA:                   0.612
REMARK UNBOUND:                -0.366
REMARK SMILES CC1=CCC[C@@H](C)C(=O)C[C@@H](C(C)C)C(=O)C1
REMARK SMILES IDX 8 1 9 2 6 3 7 4 5 5 4 6 3 7 2 8 1 9 10 11 11 12 15 13 16 14
REMARK SMILES IDX 17 15 12 17 13 18 14 19
REMARK H PARENT
REMARK Flexibility Score: 70.00
ROOT
ATOM      1  C   UNL     1      50.522  22.338  18.709  1.00  0.00     0.136 C 
ATOM      2  O   UNL     1      51.578  21.761  18.488  1.00  0.00    -0.299 OA
ENDROOT
BRANCH   1   3
ATOM      3  C   UNL     1      49.557  21.764  19.736  1.00  0.00     0.053 C 
ATOM      4  C   UNL     1      48.247  21.279  19.093  1.00  0.00     0.016 C 
BRANCH   3   5
ATOM      5  C   UNL     1      49.264  22.790  20.858  1.00  0.00     0.015 C 
BRANCH   5   6
ATOM      6  C   UNL     1      50.485  23.687  21.165  1.00  0.00     0.028 C 
BRANCH   6   7
ATOM      7  C   UNL     1      50.081  25.069  21.617  1.00  0.00    -0.028 C 
ATOM      8  C   UNL     1      49.735  26.086  20.793  1.00  0.00    -0.070 CG0
ATOM      9  C   UNL     1      49.361  27.407  21.415  1.00  0.00     0.039 C 
ATOM     10  G   UNL     1      49.674  25.953  19.281  1.00  0.00     0.000 G0
ENDBRANCH   6   7
ENDBRANCH   5   6
ENDBRANCH   3   5
ENDBRANCH   1   3
BRANCH   1  11
ATOM     11  C   UNL     1      50.185  23.550  17.860  1.00  0.00     0.087 C 
BRANCH  11  12
ATOM     12  C   UNL     1      51.327  24.607  17.727  1.00  0.00     0.066 C 
BRANCH  12  13
ATOM     13  C   UNL     1      51.032  25.784  18.649  1.00  0.00     0.140 C 
ATOM     14  O   UNL     1      51.942  26.545  18.954  1.00  0.00    -0.299 OA
BRANCH  13  15
ATOM     15  C   UNL     1      49.669  25.977  19.272  1.00  0.00     0.106 CG0
ATOM     16  G   UNL     1      49.746  26.082  20.786  1.00  0.00     0.000 G0
ENDBRANCH  13  15
ENDBRANCH  12  13
BRANCH  12  17
ATOM     17  C   UNL     1      51.513  25.086  16.248  1.00  0.00    -0.006 C 
ATOM     18  C   UNL     1      53.005  25.169  15.865  1.00  0.00     0.008 C 
ATOM     19  C   UNL     1      50.876  26.467  15.995  1.00  0.00     0.008 C 
ENDBRANCH  12  17
ENDBRANCH  11  12
ENDBRANCH   1  11
TORSDOF 1
ENDMDL
MODEL 5
REMARK VINA RESULT:    -3.372      1.899      4.263
REMARK INTER + INTRA:          -5.512
REMARK INTER:                  -5.197
REMARK INTRA:                  -0.315
REMARK UNBOUND:                -0.366
REMARK SMILES CC1=CCC[C@@H](C)C(=O)C[C@@H](C(C)C)C(=O)C1
REMARK SMILES IDX 8 1 9 2 6 3 7 4 5 5 4 6 3 7 2 8 1 9 10 11 11 12 15 13 16 14
REMARK SMILES IDX 17 15 12 17 13 18 14 19
REMARK H PARENT
REMARK Flexibility Score: 70.00
ROOT
ATOM      1  C   UNL     1      50.956  23.842  17.398  1.00  0.00     0.136 C 
ATOM      2  O   UNL     1      49.750  23.724  17.563  1.00  0.00    -0.299 OA
ENDROOT
BRANCH   1   3
ATOM      3  C   UNL     1      51.914  23.244  18.419  1.00  0.00     0.053 C 
ATOM      4  C   UNL     1      51.879  21.706  18.416  1.00  0.00     0.016 C 
BRANCH   3   5
ATOM      5  C   UNL     1      51.625  23.791  19.838  1.00  0.00     0.015 C 
BRANCH   5   6
ATOM      6  C   UNL     1      52.255  25.183  20.069  1.00  0.00     0.028 C 
BRANCH   6   7
ATOM      7  C   UNL     1      51.214  26.265  20.225  1.00  0.00    -0.028 C 
ATOM      8  C   UNL     1      51.146  27.392  19.478  1.00  0.00    -0.070 CG0
ATOM      9  C   UNL     1      50.040  28.372  19.772  1.00  0.00     0.039 C 
ATOM     10  G   UNL     1      52.108  27.702  18.343  1.00  0.00     0.000 G0
ENDBRANCH   6   7
ENDBRANCH   5   6
ENDBRANCH   3   5
ENDBRANCH   1   3
BRANCH   1  11
ATOM     11  C   UNL     1      51.433  24.679  16.225  1.00  0.00     0.087 C 
BRANCH  11  12
ATOM     12  C   UNL     1      52.472  25.790  16.580  1.00  0.00     0.066 C 
BRANCH  12  13
ATOM     13  C   UNL     1      51.732  27.039  17.043  1.00  0.00     0.140 C 
ATOM     14  O   UNL     1      50.880  27.532  16.315  1.00  0.00    -0.299 OA
BRANCH  13  15
ATOM     15  C   UNL     1      52.095  27.738  18.333  1.00  0.00     0.106 CG0
ATOM     16  G   UNL     1      51.145  27.376  19.462  1.00  0.00     0.000 G0
ENDBRANCH  13  15
ENDBRANCH  12  13
BRANCH  12  17
ATOM     17  C   UNL     1      53.419  26.113  15.376  1.00  0.00    -0.006 C 
ATOM     18  C   UNL     1      53.703  24.856  14.527  1.00  0.00     0.008 C 
ATOM     19  C   UNL     1      54.772  26.695  15.835  1.00  0.00     0.008 C 
ENDBRANCH  12  17
ENDBRANCH  11  12
ENDBRANCH   1  11
TORSDOF 1
ENDMDL
MODEL 6
REMARK VINA RESULT:    -3.146      9.615     11.279
REMARK INTER + INTRA:          -5.166
REMARK INTER:                  -4.917
REMARK INTRA:                  -0.249
REMARK UNBOUND:                -0.366
REMARK SMILES CC1=CCC[C@@H](C)C(=O)C[C@@H](C(C)C)C(=O)C1
REMARK SMILES IDX 8 1 9 2 6 3 7 4 5 5 4 6 3 7 2 8 1 9 10 11 11 12 15 13 16 14
REMARK SMILES IDX 17 15 12 17 13 18 14 19
REMARK H PARENT
REMARK Flexibility Score: 70.00
ROOT
ATOM      1  C   UNL     1      41.283  21.490  22.019  1.00  0.00     0.136 C 
ATOM      2  O   UNL     1      40.557  20.542  21.753  1.00  0.00    -0.299 OA
ENDROOT
BRANCH   1   3
ATOM      3  C   UNL     1      42.505  21.763  21.154  1.00  0.00     0.053 C 
ATOM      4  C   UNL     1      43.820  21.523  21.914  1.00  0.00     0.016 C 
BRANCH   3   5
ATOM      5  C   UNL     1      42.467  23.198  20.576  1.00  0.00     0.015 C 
BRANCH   5   6
ATOM      6  C   UNL     1      43.567  24.102  21.177  1.00  0.00     0.028 C 
BRANCH   6   7
ATOM      7  C   UNL     1      43.089  25.516  21.400  1.00  0.00    -0.028 C 
ATOM      8  C   UNL     1      42.432  25.950  22.502  1.00  0.00    -0.070 CG0
ATOM      9  C   UNL     1      42.022  27.399  22.558  1.00  0.00     0.039 C 
ATOM     10  G   UNL     1      42.118  25.059  23.693  1.00  0.00     0.000 G0
ENDBRANCH   6   7
ENDBRANCH   5   6
ENDBRANCH   3   5
ENDBRANCH   1   3
BRANCH   1  11
ATOM     11  C   UNL     1      40.979  22.285  23.276  1.00  0.00     0.087 C 
BRANCH  11  12
ATOM     12  C   UNL     1      40.070  23.538  23.067  1.00  0.00     0.066 C 
BRANCH  12  13
ATOM     13  C   UNL     1      40.662  24.720  23.824  1.00  0.00     0.140 C 
ATOM     14  O   UNL     1      39.919  25.442  24.476  1.00  0.00    -0.299 OA
BRANCH  13  15
ATOM     15  C   UNL     1      42.125  25.080  23.707  1.00  0.00     0.106 CG0
ATOM     16  G   UNL     1      42.401  25.953  22.494  1.00  0.00     0.000 G0
ENDBRANCH  13  15
ENDBRANCH  12  13
BRANCH  12  17
ATOM     17  C   UNL     1      38.592  23.270  23.510  1.00  0.00    -0.006 C 
ATOM     18  C   UNL     1      38.513  22.140  24.557  1.00  0.00     0.008 C 
ATOM     19  C   UNL     1      37.686  22.886  22.322  1.00  0.00     0.008 C 
ENDBRANCH  12  17
ENDBRANCH  11  12
ENDBRANCH   1  11
TORSDOF 1
ENDMDL
MODEL 7
REMARK VINA RESULT:    -3.128      2.101      5.117
REMARK INTER + INTRA:          -5.140
REMARK INTER:                  -5.050
REMARK INTRA:                  -0.090
REMARK UNBOUND:                -0.366
REMARK SMILES CC1=CCC[C@@H](C)C(=O)C[C@@H](C(C)C)C(=O)C1
REMARK SMILES IDX 8 1 9 2 6 3 7 4 5 5 4 6 3 7 2 8 1 9 10 11 11 12 15 13 16 14
REMARK SMILES IDX 17 15 12 17 13 18 14 19
REMARK H PARENT
REMARK Flexibility Score: 70.00
ROOT
ATOM      1  C   UNL     1      50.651  27.356  19.666  1.00  0.00     0.136 C 
ATOM      2  O   UNL     1      50.100  28.255  19.045  1.00  0.00    -0.299 OA
ENDROOT
BRANCH   1   3
ATOM      3  C   UNL     1      50.260  27.098  21.114  1.00  0.00     0.053 C 
ATOM      4  C   UNL     1      51.486  26.877  22.016  1.00  0.00     0.016 C 
BRANCH   3   5
ATOM      5  C   UNL     1      49.285  25.901  21.221  1.00  0.00     0.015 C 
BRANCH   5   6
ATOM      6  C   UNL     1      49.982  24.621  21.735  1.00  0.00     0.028 C 
BRANCH   6   7
ATOM      7  C   UNL     1      49.701  23.424  20.859  1.00  0.00    -0.028 C 
ATOM      8  C   UNL     1      50.460  23.035  19.807  1.00  0.00    -0.070 CG0
ATOM      9  C   UNL     1      50.030  21.814  19.036  1.00  0.00     0.039 C 
ATOM     10  G   UNL     1      51.736  23.747  19.389  1.00  0.00     0.000 G0
ENDBRANCH   6   7
ENDBRANCH   5   6
ENDBRANCH   3   5
ENDBRANCH   1   3
BRANCH   1  11
ATOM     11  C   UNL     1      51.781  26.611  18.980  1.00  0.00     0.087 C 
BRANCH  11  12
ATOM     12  C   UNL     1      51.365  25.781  17.725  1.00  0.00     0.066 C 
BRANCH  12  13
ATOM     13  C   UNL     1      51.656  24.307  17.977  1.00  0.00     0.140 C 
ATOM     14  O   UNL     1      51.743  23.544  17.024  1.00  0.00    -0.299 OA
BRANCH  13  15
ATOM     15  C   UNL     1      51.742  23.748  19.379  1.00  0.00     0.106 CG0
ATOM     16  G   UNL     1      50.461  23.039  19.787  1.00  0.00     0.000 G0
ENDBRANCH  13  15
ENDBRANCH  12  13
BRANCH  12  17
ATOM     17  C   UNL     1      52.084  26.281  16.427  1.00  0.00    -0.006 C 
ATOM     18  C   UNL     1      53.540  26.701  16.714  1.00  0.00     0.008 C 
ATOM     19  C   UNL     1      51.359  27.479  15.781  1.00  0.00     0.008 C 
ENDBRANCH  12  17
ENDBRANCH  11  12
ENDBRANCH   1  11
TORSDOF 1
ENDMDL
MODEL 8
REMARK VINA RESULT:    -3.036      1.963      2.397
REMARK INTER + INTRA:          -4.999
REMARK INTER:                  -5.026
REMARK INTRA:                   0.027
REMARK UNBOUND:                -0.366
REMARK SMILES CC1=CCC[C@@H](C)C(=O)C[C@@H](C(C)C)C(=O)C1
REMARK SMILES IDX 8 1 9 2 6 3 7 4 5 5 4 6 3 7 2 8 1 9 10 11 11 12 15 13 16 14
REMARK SMILES IDX 17 15 12 17 13 18 14 19
REMARK H PARENT
REMARK Flexibility Score: 70.00
ROOT
ATOM      1  C   UNL     1      50.370  24.455  20.716  1.00  0.00     0.136 C 
ATOM      2  O   UNL     1      50.487  24.089  21.877  1.00  0.00    -0.299 OA
ENDROOT
BRANCH   1   3
ATOM      3  C   UNL     1      50.021  23.435  19.641  1.00  0.00     0.053 C 
ATOM      4  C   UNL     1      49.637  22.071  20.240  1.00  0.00     0.016 C 
BRANCH   3   5
ATOM      5  C   UNL     1      51.179  23.277  18.627  1.00  0.00     0.015 C 
BRANCH   5   6
ATOM      6  C   UNL     1      50.800  23.790  17.220  1.00  0.00     0.028 C 
BRANCH   6   7
ATOM      7  C   UNL     1      51.892  24.631  16.603  1.00  0.00    -0.028 C 
ATOM      8  C   UNL     1      51.822  25.968  16.402  1.00  0.00    -0.070 CG0
ATOM      9  C   UNL     1      53.007  26.652  15.768  1.00  0.00     0.039 C 
ATOM     10  G   UNL     1      50.628  26.815  16.810  1.00  0.00     0.000 G0
ENDBRANCH   6   7
ENDBRANCH   5   6
ENDBRANCH   3   5
ENDBRANCH   1   3
BRANCH   1  11
ATOM     11  C   UNL     1      50.689  25.903  20.393  1.00  0.00     0.087 C 
BRANCH  11  12
ATOM     12  C   UNL     1      49.785  26.554  19.298  1.00  0.00     0.066 C 
BRANCH  12  13
ATOM     13  C   UNL     1      50.666  27.232  18.256  1.00  0.00     0.140 C 
ATOM     14  O   UNL     1      51.366  28.178  18.592  1.00  0.00    -0.299 OA
BRANCH  13  15
ATOM     15  C   UNL     1      50.621  26.828  16.800  1.00  0.00     0.106 CG0
ATOM     16  G   UNL     1      51.817  25.976  16.410  1.00  0.00     0.000 G0
ENDBRANCH  13  15
ENDBRANCH  12  13
BRANCH  12  17
ATOM     17  C   UNL     1      48.759  27.567  19.910  1.00  0.00    -0.006 C 
ATOM     18  C   UNL     1      47.530  26.841  20.496  1.00  0.00     0.008 C 
ATOM     19  C   UNL     1      48.260  28.594  18.874  1.00  0.00     0.008 C 
ENDBRANCH  12  17
ENDBRANCH  11  12
ENDBRANCH   1  11
TORSDOF 1
ENDMDL
MODEL 9
REMARK VINA RESULT:    -2.971      2.331      5.209
REMARK INTER + INTRA:          -4.899
REMARK INTER:                  -4.774
REMARK INTRA:                  -0.125
REMARK UNBOUND:                -0.366
REMARK SMILES CC1=CCC[C@@H](C)C(=O)C[C@@H](C(C)C)C(=O)C1
REMARK SMILES IDX 8 1 9 2 6 3 7 4 5 5 4 6 3 7 2 8 1 9 10 11 11 12 15 13 16 14
REMARK SMILES IDX 17 15 12 17 13 18 14 19
REMARK H PARENT
REMARK Flexibility Score: 70.00
ROOT
ATOM      1  C   UNL     1      52.090  26.835  19.936  1.00  0.00     0.136 C 
ATOM      2  O   UNL     1      53.169  27.231  20.354  1.00  0.00    -0.299 OA
ENDROOT
BRANCH   1   3
ATOM      3  C   UNL     1      50.968  27.835  19.692  1.00  0.00     0.053 C 
ATOM      4  C   UNL     1      51.228  28.706  18.451  1.00  0.00     0.016 C 
BRANCH   3   5
ATOM      5  C   UNL     1      50.735  28.723  20.938  1.00  0.00     0.015 C 
BRANCH   5   6
ATOM      6  C   UNL     1      50.117  27.931  22.114  1.00  0.00     0.028 C 
BRANCH   6   7
ATOM      7  C   UNL     1      48.752  27.381  21.779  1.00  0.00    -0.028 C 
ATOM      8  C   UNL     1      48.465  26.070  21.602  1.00  0.00    -0.070 CG0
ATOM      9  C   UNL     1      47.045  25.694  21.267  1.00  0.00     0.039 C 
ATOM     10  G   UNL     1      49.493  24.961  21.757  1.00  0.00     0.000 G0
ENDBRANCH   6   7
ENDBRANCH   5   6
ENDBRANCH   3   5
ENDBRANCH   1   3
BRANCH   1  11
ATOM     11  C   UNL     1      51.894  25.337  19.783  1.00  0.00     0.087 C 
BRANCH  11  12
ATOM     12  C   UNL     1      50.478  24.899  19.293  1.00  0.00     0.066 C 
BRANCH  12  13
ATOM     13  C   UNL     1      49.731  24.233  20.442  1.00  0.00     0.140 C 
ATOM     14  O   UNL     1      49.252  23.118  20.276  1.00  0.00    -0.299 OA
BRANCH  13  15
ATOM     15  C   UNL     1      49.484  24.956  21.746  1.00  0.00     0.106 CG0
ATOM     16  G   UNL     1      48.460  26.068  21.593  1.00  0.00     0.000 G0
ENDBRANCH  13  15
ENDBRANCH  12  13
BRANCH  12  17
ATOM     17  C   UNL     1      50.556  23.949  18.050  1.00  0.00    -0.006 C 
ATOM     18  C   UNL     1      51.579  22.815  18.269  1.00  0.00     0.008 C 
ATOM     19  C   UNL     1      50.946  24.702  16.762  1.00  0.00     0.008 C 
ENDBRANCH  12  17
ENDBRANCH  11  12
ENDBRANCH   1  11
TORSDOF 1
ENDMDL
