MODEL 1
REMARK VINA RESULT:    -3.985      0.000      0.000
REMARK INTER + INTRA:          -8.443
REMARK INTER:                  -6.781
REMARK INTRA:                  -1.662
REMARK UNBOUND:                -1.662
REMARK SMILES CCCCCCCCCCCCCC(=O)[O-]
REMARK SMILES IDX 8 1 9 2 10 3 11 4 12 5 13 6 14 7 15 8 16 9 7 10 6 11 5 12
REMARK SMILES IDX 4 13 3 14 2 15 1 16
REMARK H PARENT
REMARK Flexibility Score: inf
ROOT
ATOM      1  C   UNL     1       0.934   5.133   5.853  1.00  0.00     0.000 C 
ENDROOT
BRANCH   1   2
ATOM      2  C   UNL     1       1.743   3.972   6.453  1.00  0.00     0.000 C 
BRANCH   2   3
ATOM      3  C   UNL     1       1.165   3.477   7.789  1.00  0.00     0.000 C 
BRANCH   3   4
ATOM      4  C   UNL     1       0.869   1.967   7.791  1.00  0.00     0.000 C 
BRANCH   4   5
ATOM      5  C   UNL     1       1.451   1.184   6.599  1.00  0.00     0.006 C 
BRANCH   5   6
ATOM      6  C   UNL     1       2.605   0.255   6.999  1.00  0.00     0.053 C 
BRANCH   6   7
ATOM      7  C   UNL     1       3.844   1.047   7.269  1.00  0.00     0.041 C 
ATOM      8  O   UNL     1       4.200   1.284   8.454  1.00  0.00    -0.550 OA
ATOM      9  O   UNL     1       4.581   1.568   6.214  1.00  0.00    -0.550 OA
ENDBRANCH   6   7
ENDBRANCH   5   6
ENDBRANCH   4   5
ENDBRANCH   3   4
ENDBRANCH   2   3
ENDBRANCH   1   2
BRANCH   1  10
ATOM     10  C   UNL     1      -0.580   4.866   5.858  1.00  0.00     0.000 C 
BRANCH  10  11
ATOM     11  C   UNL     1      -0.977   3.937   4.702  1.00  0.00    -0.000 C 
BRANCH  11  12
ATOM     12  C   UNL     1      -1.619   2.624   5.182  1.00  0.00    -0.000 C 
BRANCH  12  13
ATOM     13  C   UNL     1      -2.570   2.805   6.384  1.00  0.00    -0.000 C 
BRANCH  13  14
ATOM     14  C   UNL     1      -4.050   2.808   5.958  1.00  0.00    -0.000 C 
BRANCH  14  15
ATOM     15  C   UNL     1      -4.798   4.064   6.426  1.00  0.00    -0.003 C 
ATOM     16  C   UNL     1      -4.298   5.338   5.746  1.00  0.00     0.004 C 
ENDBRANCH  14  15
ENDBRANCH  13  14
ENDBRANCH  12  13
ENDBRANCH  11  12
ENDBRANCH  10  11
ENDBRANCH   1  10
TORSDOF 12
ENDMDL
MODEL 2
REMARK VINA RESULT:    -3.981      3.016      6.456
REMARK INTER + INTRA:          -8.436
REMARK INTER:                  -6.979
REMARK INTRA:                  -1.457
REMARK UNBOUND:                -1.662
REMARK SMILES CCCCCCCCCCCCCC(=O)[O-]
REMARK SMILES IDX 8 1 9 2 10 3 11 4 12 5 13 6 14 7 15 8 16 9 7 10 6 11 5 12
REMARK SMILES IDX 4 13 3 14 2 15 1 16
REMARK H PARENT
REMARK Flexibility Score: inf
ROOT
ATOM      1  C   UNL     1       4.334   3.376   6.169  1.00  0.00     0.000 C 
ENDROOT
BRANCH   1   2
ATOM      2  C   UNL     1       2.895   3.883   6.355  1.00  0.00     0.000 C 
BRANCH   2   3
ATOM      3  C   UNL     1       2.387   3.704   7.796  1.00  0.00     0.000 C 
BRANCH   3   4
ATOM      4  C   UNL     1       1.189   2.743   7.895  1.00  0.00     0.000 C 
BRANCH   4   5
ATOM      5  C   UNL     1       0.397   2.549   6.589  1.00  0.00     0.006 C 
BRANCH   5   6
ATOM      6  C   UNL     1      -1.093   2.884   6.735  1.00  0.00     0.053 C 
BRANCH   6   7
ATOM      7  C   UNL     1      -1.806   2.670   5.438  1.00  0.00     0.041 C 
ATOM      8  O   UNL     1      -1.275   3.033   4.356  1.00  0.00    -0.550 OA
ATOM      9  O   UNL     1      -3.079   2.114   5.427  1.00  0.00    -0.550 OA
ENDBRANCH   6   7
ENDBRANCH   5   6
ENDBRANCH   4   5
ENDBRANCH   3   4
ENDBRANCH   2   3
ENDBRANCH   1   2
BRANCH   1  10
ATOM     10  C   UNL     1       5.277   3.845   7.288  1.00  0.00     0.000 C 
BRANCH  10  11
ATOM     11  C   UNL     1       6.058   2.662   7.879  1.00  0.00    -0.000 C 
BRANCH  11  12
ATOM     12  C   UNL     1       5.144   1.586   8.490  1.00  0.00    -0.000 C 
BRANCH  12  13
ATOM     13  C   UNL     1       5.506   0.150   8.057  1.00  0.00    -0.000 C 
BRANCH  13  14
ATOM     14  C   UNL     1       4.260  -0.678   7.692  1.00  0.00    -0.000 C 
BRANCH  14  15
ATOM     15  C   UNL     1       3.347   0.039   6.687  1.00  0.00    -0.003 C 
ATOM     16  C   UNL     1       2.127  -0.795   6.299  1.00  0.00     0.004 C 
ENDBRANCH  14  15
ENDBRANCH  13  14
ENDBRANCH  12  13
ENDBRANCH  11  12
ENDBRANCH  10  11
ENDBRANCH   1  10
TORSDOF 12
ENDMDL
MODEL 3
REMARK VINA RESULT:    -3.971      1.233      1.630
REMARK INTER + INTRA:          -8.419
REMARK INTER:                  -6.825
REMARK INTRA:                  -1.594
REMARK UNBOUND:                -1.662
REMARK SMILES CCCCCCCCCCCCCC(=O)[O-]
REMARK SMILES IDX 8 1 9 2 10 3 11 4 12 5 13 6 14 7 15 8 16 9 7 10 6 11 5 12
REMARK SMILES IDX 4 13 3 14 2 15 1 16
REMARK H PARENT
REMARK Flexibility Score: inf
ROOT
ATOM      1  C   UNL     1      -0.382   5.047   6.228  1.00  0.00     0.000 C 
ENDROOT
BRANCH   1   2
ATOM      2  C   UNL     1       1.115   5.376   6.340  1.00  0.00     0.000 C 
BRANCH   2   3
ATOM      3  C   UNL     1       1.761   4.773   7.599  1.00  0.00     0.000 C 
BRANCH   3   4
ATOM      4  C   UNL     1       1.438   3.279   7.781  1.00  0.00     0.000 C 
BRANCH   4   5
ATOM      5  C   UNL     1       2.139   2.334   6.788  1.00  0.00     0.006 C 
BRANCH   5   6
ATOM      6  C   UNL     1       1.534   0.924   6.773  1.00  0.00     0.053 C 
BRANCH   6   7
ATOM      7  C   UNL     1       2.588  -0.094   6.473  1.00  0.00     0.041 C 
ATOM      8  O   UNL     1       2.360  -1.017   5.646  1.00  0.00    -0.550 OA
ATOM      9  O   UNL     1       3.805  -0.055   7.140  1.00  0.00    -0.550 OA
ENDBRANCH   6   7
ENDBRANCH   5   6
ENDBRANCH   4   5
ENDBRANCH   3   4
ENDBRANCH   2   3
ENDBRANCH   1   2
BRANCH   1  10
ATOM     10  C   UNL     1      -0.759   4.460   4.858  1.00  0.00     0.000 C 
BRANCH  10  11
ATOM     11  C   UNL     1      -1.174   2.988   4.988  1.00  0.00    -0.000 C 
BRANCH  11  12
ATOM     12  C   UNL     1      -1.948   2.696   6.286  1.00  0.00    -0.000 C 
BRANCH  12  13
ATOM     13  C   UNL     1      -3.370   2.147   6.046  1.00  0.00    -0.000 C 
BRANCH  13  14
ATOM     14  C   UNL     1      -4.417   3.271   5.948  1.00  0.00    -0.000 C 
BRANCH  14  15
ATOM     15  C   UNL     1      -4.013   4.527   6.732  1.00  0.00    -0.003 C 
ATOM     16  C   UNL     1      -4.615   5.806   6.151  1.00  0.00     0.004 C 
ENDBRANCH  14  15
ENDBRANCH  13  14
ENDBRANCH  12  13
ENDBRANCH  11  12
ENDBRANCH  10  11
ENDBRANCH   1  10
TORSDOF 12
ENDMDL
MODEL 4
REMARK VINA RESULT:    -3.883      3.065      6.473
REMARK INTER + INTRA:          -8.268
REMARK INTER:                  -6.921
REMARK INTRA:                  -1.347
REMARK UNBOUND:                -1.662
REMARK SMILES CCCCCCCCCCCCCC(=O)[O-]
REMARK SMILES IDX 8 1 9 2 10 3 11 4 12 5 13 6 14 7 15 8 16 9 7 10 6 11 5 12
REMARK SMILES IDX 4 13 3 14 2 15 1 16
REMARK H PARENT
REMARK Flexibility Score: inf
ROOT
ATOM      1  C   UNL     1       0.365   2.855   6.995  1.00  0.00     0.000 C 
ENDROOT
BRANCH   1   2
ATOM      2  C   UNL     1      -0.328   2.639   5.640  1.00  0.00     0.000 C 
BRANCH   2   3
ATOM      3  C   UNL     1      -0.801   3.955   5.001  1.00  0.00     0.000 C 
BRANCH   3   4
ATOM      4  C   UNL     1      -1.681   4.797   5.943  1.00  0.00     0.000 C 
BRANCH   4   5
ATOM      5  C   UNL     1      -3.194   4.535   5.831  1.00  0.00     0.006 C 
BRANCH   5   6
ATOM      6  C   UNL     1      -3.761   3.772   7.036  1.00  0.00     0.053 C 
BRANCH   6   7
ATOM      7  C   UNL     1      -3.638   2.296   6.824  1.00  0.00     0.041 C 
ATOM      8  O   UNL     1      -3.359   1.539   7.791  1.00  0.00    -0.550 OA
ATOM      9  O   UNL     1      -3.784   1.761   5.552  1.00  0.00    -0.550 OA
ENDBRANCH   6   7
ENDBRANCH   5   6
ENDBRANCH   4   5
ENDBRANCH   3   4
ENDBRANCH   2   3
ENDBRANCH   1   2
BRANCH   1  10
ATOM     10  C   UNL     1       1.081   1.593   7.503  1.00  0.00     0.000 C 
BRANCH  10  11
ATOM     11  C   UNL     1       1.332   0.605   6.356  1.00  0.00    -0.000 C 
BRANCH  11  12
ATOM     12  C   UNL     1       2.746  -0.002   6.387  1.00  0.00    -0.000 C 
BRANCH  12  13
ATOM     13  C   UNL     1       3.610   0.506   7.561  1.00  0.00    -0.000 C 
BRANCH  13  14
ATOM     14  C   UNL     1       4.821   1.325   7.079  1.00  0.00    -0.000 C 
BRANCH  14  15
ATOM     15  C   UNL     1       4.604   2.839   7.219  1.00  0.00    -0.003 C 
ATOM     16  C   UNL     1       4.147   3.494   5.917  1.00  0.00     0.004 C 
ENDBRANCH  14  15
ENDBRANCH  13  14
ENDBRANCH  12  13
ENDBRANCH  11  12
ENDBRANCH  10  11
ENDBRANCH   1  10
TORSDOF 12
ENDMDL
MODEL 5
REMARK VINA RESULT:    -3.873      3.417      6.505
REMARK INTER + INTRA:          -8.252
REMARK INTER:                  -6.682
REMARK INTRA:                  -1.570
REMARK UNBOUND:                -1.662
REMARK SMILES CCCCCCCCCCCCCC(=O)[O-]
REMARK SMILES IDX 8 1 9 2 10 3 11 4 12 5 13 6 14 7 15 8 16 9 7 10 6 11 5 12
REMARK SMILES IDX 4 13 3 14 2 15 1 16
REMARK H PARENT
REMARK Flexibility Score: inf
ROOT
ATOM      1  C   UNL     1       1.923   4.196   6.875  1.00  0.00     0.000 C 
ENDROOT
BRANCH   1   2
ATOM      2  C   UNL     1       1.299   3.032   7.660  1.00  0.00     0.000 C 
BRANCH   2   3
ATOM      3  C   UNL     1      -0.152   2.744   7.237  1.00  0.00     0.000 C 
BRANCH   3   4
ATOM      4  C   UNL     1      -0.312   2.583   5.715  1.00  0.00     0.000 C 
BRANCH   4   5
ATOM      5  C   UNL     1      -1.460   3.396   5.089  1.00  0.00     0.006 C 
BRANCH   5   6
ATOM      6  C   UNL     1      -2.487   3.876   6.123  1.00  0.00     0.053 C 
BRANCH   6   7
ATOM      7  C   UNL     1      -3.780   3.143   5.954  1.00  0.00     0.041 C 
ATOM      8  O   UNL     1      -4.873   3.721   6.193  1.00  0.00    -0.550 OA
ATOM      9  O   UNL     1      -3.778   1.805   5.580  1.00  0.00    -0.550 OA
ENDBRANCH   6   7
ENDBRANCH   5   6
ENDBRANCH   4   5
ENDBRANCH   3   4
ENDBRANCH   2   3
ENDBRANCH   1   2
BRANCH   1  10
ATOM     10  C   UNL     1       3.213   3.794   6.143  1.00  0.00     0.000 C 
BRANCH  10  11
ATOM     11  C   UNL     1       4.349   3.527   7.140  1.00  0.00    -0.000 C 
BRANCH  11  12
ATOM     12  C   UNL     1       4.921   2.103   7.029  1.00  0.00    -0.000 C 
BRANCH  12  13
ATOM     13  C   UNL     1       4.682   1.241   8.287  1.00  0.00    -0.000 C 
BRANCH  13  14
ATOM     14  C   UNL     1       3.584   0.185   8.066  1.00  0.00    -0.000 C 
BRANCH  14  15
ATOM     15  C   UNL     1       3.348  -0.122   6.580  1.00  0.00    -0.003 C 
ATOM     16  C   UNL     1       1.875  -0.364   6.254  1.00  0.00     0.004 C 
ENDBRANCH  14  15
ENDBRANCH  13  14
ENDBRANCH  12  13
ENDBRANCH  11  12
ENDBRANCH  10  11
ENDBRANCH   1  10
TORSDOF 12
ENDMDL
MODEL 6
REMARK VINA RESULT:    -3.822     13.143     14.941
REMARK INTER + INTRA:          -8.164
REMARK INTER:                  -6.596
REMARK INTRA:                  -1.568
REMARK UNBOUND:                -1.662
REMARK SMILES CCCCCCCCCCCCCC(=O)[O-]
REMARK SMILES IDX 8 1 9 2 10 3 11 4 12 5 13 6 14 7 15 8 16 9 7 10 6 11 5 12
REMARK SMILES IDX 4 13 3 14 2 15 1 16
REMARK H PARENT
REMARK Flexibility Score: inf
ROOT
ATOM      1  C   UNL     1      -4.404   0.004  -6.960  1.00  0.00     0.000 C 
ENDROOT
BRANCH   1   2
ATOM      2  C   UNL     1      -4.660  -1.418  -7.484  1.00  0.00     0.000 C 
BRANCH   2   3
ATOM      3  C   UNL     1      -6.107  -1.882  -7.248  1.00  0.00     0.000 C 
BRANCH   3   4
ATOM      4  C   UNL     1      -6.196  -3.330  -6.734  1.00  0.00     0.000 C 
BRANCH   4   5
ATOM      5  C   UNL     1      -4.881  -3.909  -6.181  1.00  0.00     0.006 C 
BRANCH   5   6
ATOM      6  C   UNL     1      -4.822  -3.906  -4.648  1.00  0.00     0.053 C 
BRANCH   6   7
ATOM      7  C   UNL     1      -4.852  -5.306  -4.121  1.00  0.00     0.041 C 
ATOM      8  O   UNL     1      -5.321  -6.238  -4.827  1.00  0.00    -0.550 OA
ATOM      9  O   UNL     1      -4.409  -5.575  -2.833  1.00  0.00    -0.550 OA
ENDBRANCH   6   7
ENDBRANCH   5   6
ENDBRANCH   4   5
ENDBRANCH   3   4
ENDBRANCH   2   3
ENDBRANCH   1   2
BRANCH   1  10
ATOM     10  C   UNL     1      -3.358   0.042  -5.834  1.00  0.00     0.000 C 
BRANCH  10  11
ATOM     11  C   UNL     1      -2.604  -1.292  -5.741  1.00  0.00    -0.000 C 
BRANCH  11  12
ATOM     12  C   UNL     1      -1.186  -1.222  -6.336  1.00  0.00    -0.000 C 
BRANCH  12  13
ATOM     13  C   UNL     1      -0.727  -2.539  -6.996  1.00  0.00    -0.000 C 
BRANCH  13  14
ATOM     14  C   UNL     1      -1.202  -3.777  -6.213  1.00  0.00    -0.000 C 
BRANCH  14  15
ATOM     15  C   UNL     1      -0.304  -4.095  -5.008  1.00  0.00    -0.003 C 
ATOM     16  C   UNL     1      -1.073  -4.115  -3.688  1.00  0.00     0.004 C 
ENDBRANCH  14  15
ENDBRANCH  13  14
ENDBRANCH  12  13
ENDBRANCH  11  12
ENDBRANCH  10  11
ENDBRANCH   1  10
TORSDOF 12
ENDMDL
MODEL 7
REMARK VINA RESULT:    -3.802      3.364      6.141
REMARK INTER + INTRA:          -8.131
REMARK INTER:                  -6.435
REMARK INTRA:                  -1.696
REMARK UNBOUND:                -1.662
REMARK SMILES CCCCCCCCCCCCCC(=O)[O-]
REMARK SMILES IDX 8 1 9 2 10 3 11 4 12 5 13 6 14 7 15 8 16 9 7 10 6 11 5 12
REMARK SMILES IDX 4 13 3 14 2 15 1 16
REMARK H PARENT
REMARK Flexibility Score: inf
ROOT
ATOM      1  C   UNL     1       0.412   6.013   7.484  1.00  0.00     0.000 C 
ENDROOT
BRANCH   1   2
ATOM      2  C   UNL     1      -0.144   6.150   6.059  1.00  0.00     0.000 C 
BRANCH   2   3
ATOM      3  C   UNL     1       0.181   4.933   5.177  1.00  0.00     0.000 C 
BRANCH   3   4
ATOM      4  C   UNL     1      -1.067   4.116   4.798  1.00  0.00     0.000 C 
BRANCH   4   5
ATOM      5  C   UNL     1      -1.223   2.777   5.543  1.00  0.00     0.006 C 
BRANCH   5   6
ATOM      6  C   UNL     1      -2.201   2.858   6.723  1.00  0.00     0.053 C 
BRANCH   6   7
ATOM      7  C   UNL     1      -3.611   2.715   6.243  1.00  0.00     0.041 C 
ATOM      8  O   UNL     1      -3.912   1.806   5.425  1.00  0.00    -0.550 OA
ATOM      9  O   UNL     1      -4.583   3.614   6.660  1.00  0.00    -0.550 OA
ENDBRANCH   6   7
ENDBRANCH   5   6
ENDBRANCH   4   5
ENDBRANCH   3   4
ENDBRANCH   2   3
ENDBRANCH   1   2
BRANCH   1  10
ATOM     10  C   UNL     1       1.436   4.874   7.615  1.00  0.00     0.000 C 
BRANCH  10  11
ATOM     11  C   UNL     1       0.930   3.787   8.574  1.00  0.00    -0.000 C 
BRANCH  11  12
ATOM     12  C   UNL     1       1.675   2.451   8.412  1.00  0.00    -0.000 C 
BRANCH  12  13
ATOM     13  C   UNL     1       2.050   2.126   6.951  1.00  0.00    -0.000 C 
BRANCH  13  14
ATOM     14  C   UNL     1       3.303   1.237   6.857  1.00  0.00    -0.000 C 
BRANCH  14  15
ATOM     15  C   UNL     1       4.606   2.049   6.852  1.00  0.00    -0.003 C 
ATOM     16  C   UNL     1       4.472   3.378   6.110  1.00  0.00     0.004 C 
ENDBRANCH  14  15
ENDBRANCH  13  14
ENDBRANCH  12  13
ENDBRANCH  11  12
ENDBRANCH  10  11
ENDBRANCH   1  10
TORSDOF 12
ENDMDL
MODEL 8
REMARK VINA RESULT:    -3.789     13.581     15.271
REMARK INTER + INTRA:          -8.108
REMARK INTER:                  -6.393
REMARK INTRA:                  -1.716
REMARK UNBOUND:                -1.662
REMARK SMILES CCCCCCCCCCCCCC(=O)[O-]
REMARK SMILES IDX 8 1 9 2 10 3 11 4 12 5 13 6 14 7 15 8 16 9 7 10 6 11 5 12
REMARK SMILES IDX 4 13 3 14 2 15 1 16
REMARK H PARENT
REMARK Flexibility Score: inf
ROOT
ATOM      1  C   UNL     1      -5.991  -1.869  -6.826  1.00  0.00     0.000 C 
ENDROOT
BRANCH   1   2
ATOM      2  C   UNL     1      -6.112  -3.396  -6.955  1.00  0.00     0.000 C 
BRANCH   2   3
ATOM      3  C   UNL     1      -4.992  -4.142  -6.212  1.00  0.00     0.000 C 
BRANCH   3   4
ATOM      4  C   UNL     1      -4.946  -3.814  -4.709  1.00  0.00     0.000 C 
BRANCH   4   5
ATOM      5  C   UNL     1      -4.544  -4.987  -3.796  1.00  0.00     0.006 C 
BRANCH   5   6
ATOM      6  C   UNL     1      -4.623  -6.348  -4.499  1.00  0.00     0.053 C 
BRANCH   6   7
ATOM      7  C   UNL     1      -5.913  -7.031  -4.170  1.00  0.00     0.041 C 
ATOM      8  O   UNL     1      -6.093  -7.527  -3.027  1.00  0.00    -0.550 OA
ATOM      9  O   UNL     1      -6.897  -7.165  -5.141  1.00  0.00    -0.550 OA
ENDBRANCH   6   7
ENDBRANCH   5   6
ENDBRANCH   4   5
ENDBRANCH   3   4
ENDBRANCH   2   3
ENDBRANCH   1   2
BRANCH   1  10
ATOM     10  C   UNL     1      -4.732  -1.313  -7.509  1.00  0.00     0.000 C 
BRANCH  10  11
ATOM     11  C   UNL     1      -4.107  -0.186  -6.674  1.00  0.00    -0.000 C 
BRANCH  11  12
ATOM     12  C   UNL     1      -2.587  -0.347  -6.493  1.00  0.00    -0.000 C 
BRANCH  12  13
ATOM     13  C   UNL     1      -2.193  -1.577  -5.649  1.00  0.00    -0.000 C 
BRANCH  13  14
ATOM     14  C   UNL     1      -1.534  -2.678  -6.499  1.00  0.00    -0.000 C 
BRANCH  14  15
ATOM     15  C   UNL     1      -1.301  -3.975  -5.711  1.00  0.00    -0.003 C 
ATOM     16  C   UNL     1      -1.069  -3.728  -4.221  1.00  0.00     0.004 C 
ENDBRANCH  14  15
ENDBRANCH  13  14
ENDBRANCH  12  13
ENDBRANCH  11  12
ENDBRANCH  10  11
ENDBRANCH   1  10
TORSDOF 12
ENDMDL
MODEL 9
REMARK VINA RESULT:    -3.770      1.266      2.333
REMARK INTER + INTRA:          -8.076
REMARK INTER:                  -6.225
REMARK INTRA:                  -1.851
REMARK UNBOUND:                -1.662
REMARK SMILES CCCCCCCCCCCCCC(=O)[O-]
REMARK SMILES IDX 8 1 9 2 10 3 11 4 12 5 13 6 14 7 15 8 16 9 7 10 6 11 5 12
REMARK SMILES IDX 4 13 3 14 2 15 1 16
REMARK H PARENT
REMARK Flexibility Score: inf
ROOT
ATOM      1  C   UNL     1       0.814   3.884   7.837  1.00  0.00     0.000 C 
ENDROOT
BRANCH   1   2
ATOM      2  C   UNL     1       0.554   2.459   8.351  1.00  0.00     0.000 C 
BRANCH   2   3
ATOM      3  C   UNL     1       0.963   1.379   7.336  1.00  0.00     0.000 C 
BRANCH   3   4
ATOM      4  C   UNL     1       2.257   0.644   7.730  1.00  0.00     0.000 C 
BRANCH   4   5
ATOM      5  C   UNL     1       3.313   0.537   6.615  1.00  0.00     0.006 C 
BRANCH   5   6
ATOM      6  C   UNL     1       4.629   1.243   6.966  1.00  0.00     0.053 C 
BRANCH   6   7
ATOM      7  C   UNL     1       4.513   2.715   6.723  1.00  0.00     0.041 C 
ATOM      8  O   UNL     1       4.553   3.168   5.548  1.00  0.00    -0.550 OA
ATOM      9  O   UNL     1       4.410   3.591   7.795  1.00  0.00    -0.550 OA
ENDBRANCH   6   7
ENDBRANCH   5   6
ENDBRANCH   4   5
ENDBRANCH   3   4
ENDBRANCH   2   3
ENDBRANCH   1   2
BRANCH   1  10
ATOM     10  C   UNL     1       1.154   3.920   6.339  1.00  0.00     0.000 C 
BRANCH  10  11
ATOM     11  C   UNL     1       0.461   5.104   5.648  1.00  0.00    -0.000 C 
BRANCH  11  12
ATOM     12  C   UNL     1      -0.894   4.725   5.026  1.00  0.00    -0.000 C 
BRANCH  12  13
ATOM     13  C   UNL     1      -1.089   3.204   4.850  1.00  0.00    -0.000 C 
BRANCH  13  14
ATOM     14  C   UNL     1      -2.312   2.682   5.626  1.00  0.00    -0.000 C 
BRANCH  14  15
ATOM     15  C   UNL     1      -2.990   3.773   6.467  1.00  0.00    -0.003 C 
ATOM     16  C   UNL     1      -3.080   3.408   7.948  1.00  0.00     0.004 C 
ENDBRANCH  14  15
ENDBRANCH  13  14
ENDBRANCH  12  13
ENDBRANCH  11  12
ENDBRANCH  10  11
ENDBRANCH   1  10
TORSDOF 12
ENDMDL
