MODEL 1
REMARK VINA RESULT:    -4.707      0.000      0.000
REMARK INTER + INTRA:         -16.203
REMARK INTER:                 -11.861
REMARK INTRA:                  -4.342
REMARK UNBOUND:                -4.342
REMARK SMILES CCCCCCCCCCCCCCCCCCCCCCCCCCCC(=O)[O-]
REMARK SMILES IDX 15 1 16 2 17 3 18 4 19 5 20 6 21 7 22 8 23 9 24 10 25 11
REMARK SMILES IDX 26 12 27 13 28 14 29 15 30 16 14 17 13 18 12 19 11 20 10 21
REMARK SMILES IDX 9 22 8 23 7 24 6 25 5 26 4 27 3 28 2 29 1 30
REMARK H PARENT
REMARK Flexibility Score: inf
ROOT
ATOM      1  C   UNL     1       6.069 -12.465   6.877  1.00  0.00     0.000 C 
ENDROOT
BRANCH   1   2
ATOM      2  C   UNL     1       4.876 -13.369   6.520  1.00  0.00     0.000 C 
BRANCH   2   3
ATOM      3  C   UNL     1       4.855 -13.770   5.034  1.00  0.00     0.000 C 
BRANCH   3   4
ATOM      4  C   UNL     1       3.588 -14.512   4.573  1.00  0.00     0.000 C 
BRANCH   4   5
ATOM      5  C   UNL     1       3.076 -14.024   3.206  1.00  0.00     0.000 C 
BRANCH   5   6
ATOM      6  C   UNL     1       1.662 -13.425   3.282  1.00  0.00     0.000 C 
BRANCH   6   7
ATOM      7  C   UNL     1       1.227 -12.761   1.961  1.00  0.00     0.000 C 
BRANCH   7   8
ATOM      8  C   UNL     1       2.234 -12.993   0.824  1.00  0.00     0.000 C 
BRANCH   8   9
ATOM      9  C   UNL     1       2.904 -11.694   0.351  1.00  0.00     0.000 C 
BRANCH   9  10
ATOM     10  C   UNL     1       4.311 -11.556   0.945  1.00  0.00     0.000 C 
BRANCH  10  11
ATOM     11  C   UNL     1       5.291 -12.530   0.276  1.00  0.00     0.000 C 
BRANCH  11  12
ATOM     12  C   UNL     1       6.295 -13.139   1.271  1.00  0.00     0.006 C 
BRANCH  12  13
ATOM     13  C   UNL     1       7.769 -12.922   0.897  1.00  0.00     0.053 C 
BRANCH  13  14
ATOM     14  C   UNL     1       8.442 -14.199   0.494  1.00  0.00     0.041 C 
ATOM     15  O   UNL     1       9.658 -14.198   0.168  1.00  0.00    -0.550 OA
ATOM     16  O   UNL     1       7.725 -15.389   0.476  1.00  0.00    -0.550 OA
ENDBRANCH  13  14
ENDBRANCH  12  13
ENDBRANCH  11  12
ENDBRANCH  10  11
ENDBRANCH   9  10
ENDBRANCH   8   9
ENDBRANCH   7   8
ENDBRANCH   6   7
ENDBRANCH   5   6
ENDBRANCH   4   5
ENDBRANCH   3   4
ENDBRANCH   2   3
ENDBRANCH   1   2
BRANCH   1  17
ATOM     17  C   UNL     1       5.638 -11.040   7.264  1.00  0.00     0.000 C 
BRANCH  17  18
ATOM     18  C   UNL     1       4.155 -10.768   6.967  1.00  0.00     0.000 C 
BRANCH  18  19
ATOM     19  C   UNL     1       3.903  -9.273   6.732  1.00  0.00     0.000 C 
BRANCH  19  20
ATOM     20  C   UNL     1       3.920  -8.942   5.236  1.00  0.00     0.000 C 
BRANCH  20  21
ATOM     21  C   UNL     1       3.364 -10.108   4.407  1.00  0.00     0.000 C 
BRANCH  21  22
ATOM     22  C   UNL     1       2.211  -9.687   3.482  1.00  0.00    -0.000 C 
BRANCH  22  23
ATOM     23  C   UNL     1       1.070  -8.916   4.174  1.00  0.00    -0.000 C 
BRANCH  23  24
ATOM     24  C   UNL     1       0.251  -9.766   5.170  1.00  0.00    -0.000 C 
BRANCH  24  25
ATOM     25  C   UNL     1      -0.350  -8.918   6.306  1.00  0.00    -0.000 C 
BRANCH  25  26
ATOM     26  C   UNL     1       0.409  -9.073   7.638  1.00  0.00    -0.000 C 
BRANCH  26  27
ATOM     27  C   UNL     1       1.006  -7.771   8.200  1.00  0.00    -0.000 C 
BRANCH  27  28
ATOM     28  C   UNL     1       1.248  -6.707   7.116  1.00  0.00    -0.000 C 
BRANCH  28  29
ATOM     29  C   UNL     1       1.955  -5.458   7.665  1.00  0.00    -0.003 C 
ATOM     30  C   UNL     1       3.463  -5.658   7.828  1.00  0.00     0.004 C 
ENDBRANCH  28  29
ENDBRANCH  27  28
ENDBRANCH  26  27
ENDBRANCH  25  26
ENDBRANCH  24  25
ENDBRANCH  23  24
ENDBRANCH  22  23
ENDBRANCH  21  22
ENDBRANCH  20  21
ENDBRANCH  19  20
ENDBRANCH  18  19
ENDBRANCH  17  18
ENDBRANCH   1  17
TORSDOF 26
ENDMDL
MODEL 2
REMARK VINA RESULT:    -4.637      3.149      7.983
REMARK INTER + INTRA:         -16.027
REMARK INTER:                 -11.103
REMARK INTRA:                  -4.924
REMARK UNBOUND:                -4.342
REMARK SMILES CCCCCCCCCCCCCCCCCCCCCCCCCCCC(=O)[O-]
REMARK SMILES IDX 15 1 16 2 17 3 18 4 19 5 20 6 21 7 22 8 23 9 24 10 25 11
REMARK SMILES IDX 26 12 27 13 28 14 29 15 30 16 14 17 13 18 12 19 11 20 10 21
REMARK SMILES IDX 9 22 8 23 7 24 6 25 5 26 4 27 3 28 2 29 1 30
REMARK H PARENT
REMARK Flexibility Score: inf
ROOT
ATOM      1  C   UNL     1       5.223 -10.993   7.251  1.00  0.00     0.000 C 
ENDROOT
BRANCH   1   2
ATOM      2  C   UNL     1       3.732 -10.782   6.933  1.00  0.00     0.000 C 
BRANCH   2   3
ATOM      3  C   UNL     1       3.383  -9.308   6.659  1.00  0.00     0.000 C 
BRANCH   3   4
ATOM      4  C   UNL     1       4.413  -8.537   5.815  1.00  0.00     0.000 C 
BRANCH   4   5
ATOM      5  C   UNL     1       4.109  -7.031   5.734  1.00  0.00     0.000 C 
BRANCH   5   6
ATOM      6  C   UNL     1       2.780  -6.658   6.412  1.00  0.00     0.000 C 
BRANCH   6   7
ATOM      7  C   UNL     1       2.975  -5.757   7.647  1.00  0.00     0.000 C 
BRANCH   7   8
ATOM      8  C   UNL     1       1.851  -5.923   8.681  1.00  0.00     0.000 C 
BRANCH   8   9
ATOM      9  C   UNL     1       0.683  -6.771   8.157  1.00  0.00     0.000 C 
BRANCH   9  10
ATOM     10  C   UNL     1       0.654  -8.144   8.839  1.00  0.00     0.000 C 
BRANCH  10  11
ATOM     11  C   UNL     1      -0.228  -9.130   8.059  1.00  0.00     0.000 C 
BRANCH  11  12
ATOM     12  C   UNL     1      -0.688  -8.571   6.702  1.00  0.00     0.006 C 
BRANCH  12  13
ATOM     13  C   UNL     1       0.076  -9.136   5.494  1.00  0.00     0.053 C 
BRANCH  13  14
ATOM     14  C   UNL     1       0.021  -8.216   4.312  1.00  0.00     0.041 C 
ATOM     15  O   UNL     1       0.294  -8.648   3.161  1.00  0.00    -0.550 OA
ATOM     16  O   UNL     1      -0.327  -6.882   4.483  1.00  0.00    -0.550 OA
ENDBRANCH  13  14
ENDBRANCH  12  13
ENDBRANCH  11  12
ENDBRANCH  10  11
ENDBRANCH   9  10
ENDBRANCH   8   9
ENDBRANCH   7   8
ENDBRANCH   6   7
ENDBRANCH   5   6
ENDBRANCH   4   5
ENDBRANCH   3   4
ENDBRANCH   2   3
ENDBRANCH   1   2
BRANCH   1  17
ATOM     17  C   UNL     1       5.835 -12.168   6.468  1.00  0.00     0.000 C 
BRANCH  17  18
ATOM     18  C   UNL     1       4.910 -13.393   6.416  1.00  0.00     0.000 C 
BRANCH  18  19
ATOM     19  C   UNL     1       4.890 -14.013   5.014  1.00  0.00     0.000 C 
BRANCH  19  20
ATOM     20  C   UNL     1       4.327 -13.025   3.986  1.00  0.00     0.000 C 
BRANCH  20  21
ATOM     21  C   UNL     1       2.798 -12.937   4.087  1.00  0.00     0.000 C 
BRANCH  21  22
ATOM     22  C   UNL     1       2.249 -11.567   3.657  1.00  0.00    -0.000 C 
BRANCH  22  23
ATOM     23  C   UNL     1       3.296 -10.601   3.068  1.00  0.00    -0.000 C 
BRANCH  23  24
ATOM     24  C   UNL     1       3.095 -10.296   1.567  1.00  0.00    -0.000 C 
BRANCH  24  25
ATOM     25  C   UNL     1       1.898 -11.058   0.970  1.00  0.00    -0.000 C 
BRANCH  25  26
ATOM     26  C   UNL     1       2.311 -12.079  -0.105  1.00  0.00    -0.000 C 
BRANCH  26  27
ATOM     27  C   UNL     1       3.190 -13.237   0.402  1.00  0.00    -0.000 C 
BRANCH  27  28
ATOM     28  C   UNL     1       4.518 -13.359  -0.363  1.00  0.00    -0.000 C 
BRANCH  28  29
ATOM     29  C   UNL     1       5.742 -13.193   0.551  1.00  0.00    -0.003 C 
ATOM     30  C   UNL     1       6.745 -12.171   0.013  1.00  0.00     0.004 C 
ENDBRANCH  28  29
ENDBRANCH  27  28
ENDBRANCH  26  27
ENDBRANCH  25  26
ENDBRANCH  24  25
ENDBRANCH  23  24
ENDBRANCH  22  23
ENDBRANCH  21  22
ENDBRANCH  20  21
ENDBRANCH  19  20
ENDBRANCH  18  19
ENDBRANCH  17  18
ENDBRANCH   1  17
TORSDOF 26
ENDMDL
MODEL 3
REMARK VINA RESULT:    -4.622      3.575      8.172
REMARK INTER + INTRA:         -15.990
REMARK INTER:                 -11.628
REMARK INTRA:                  -4.363
REMARK UNBOUND:                -4.342
REMARK SMILES CCCCCCCCCCCCCCCCCCCCCCCCCCCC(=O)[O-]
REMARK SMILES IDX 15 1 16 2 17 3 18 4 19 5 20 6 21 7 22 8 23 9 24 10 25 11
REMARK SMILES IDX 26 12 27 13 28 14 29 15 30 16 14 17 13 18 12 19 11 20 10 21
REMARK SMILES IDX 9 22 8 23 7 24 6 25 5 26 4 27 3 28 2 29 1 30
REMARK H PARENT
REMARK Flexibility Score: inf
ROOT
ATOM      1  C   UNL     1       4.951 -13.910   5.184  1.00  0.00     0.000 C 
ENDROOT
BRANCH   1   2
ATOM      2  C   UNL     1       4.775 -13.173   6.523  1.00  0.00     0.000 C 
BRANCH   2   3
ATOM      3  C   UNL     1       6.069 -12.490   7.002  1.00  0.00     0.000 C 
BRANCH   3   4
ATOM      4  C   UNL     1       5.928 -11.002   7.369  1.00  0.00     0.000 C 
BRANCH   4   5
ATOM      5  C   UNL     1       4.727 -10.331   6.679  1.00  0.00     0.000 C 
BRANCH   5   6
ATOM      6  C   UNL     1       4.833  -8.797   6.664  1.00  0.00     0.000 C 
BRANCH   6   7
ATOM      7  C   UNL     1       4.135  -8.165   5.445  1.00  0.00     0.000 C 
BRANCH   7   8
ATOM      8  C   UNL     1       3.280  -9.175   4.665  1.00  0.00     0.000 C 
BRANCH   8   9
ATOM      9  C   UNL     1       1.782  -8.837   4.701  1.00  0.00     0.000 C 
BRANCH   9  10
ATOM     10  C   UNL     1       1.142  -9.324   6.006  1.00  0.00     0.000 C 
BRANCH  10  11
ATOM     11  C   UNL     1       0.215  -8.254   6.601  1.00  0.00     0.000 C 
BRANCH  11  12
ATOM     12  C   UNL     1       0.885  -6.872   6.690  1.00  0.00     0.006 C 
BRANCH  12  13
ATOM     13  C   UNL     1       1.859  -6.716   7.868  1.00  0.00     0.053 C 
BRANCH  13  14
ATOM     14  C   UNL     1       2.820  -5.585   7.658  1.00  0.00     0.041 C 
ATOM     15  O   UNL     1       3.901  -5.545   8.302  1.00  0.00    -0.550 OA
ATOM     16  O   UNL     1       2.519  -4.573   6.754  1.00  0.00    -0.550 OA
ENDBRANCH  13  14
ENDBRANCH  12  13
ENDBRANCH  11  12
ENDBRANCH  10  11
ENDBRANCH   9  10
ENDBRANCH   8   9
ENDBRANCH   7   8
ENDBRANCH   6   7
ENDBRANCH   5   6
ENDBRANCH   4   5
ENDBRANCH   3   4
ENDBRANCH   2   3
ENDBRANCH   1   2
BRANCH   1  17
ATOM     17  C   UNL     1       3.612 -14.168   4.469  1.00  0.00     0.000 C 
BRANCH  17  18
ATOM     18  C   UNL     1       2.796 -12.884   4.258  1.00  0.00     0.000 C 
BRANCH  18  19
ATOM     19  C   UNL     1       1.452 -13.187   3.585  1.00  0.00     0.000 C 
BRANCH  19  20
ATOM     20  C   UNL     1       0.785 -11.899   3.087  1.00  0.00     0.000 C 
BRANCH  20  21
ATOM     21  C   UNL     1       1.077 -11.667   1.598  1.00  0.00     0.000 C 
BRANCH  21  22
ATOM     22  C   UNL     1       2.158 -10.601   1.361  1.00  0.00    -0.000 C 
BRANCH  22  23
ATOM     23  C   UNL     1       3.558 -11.156   1.030  1.00  0.00    -0.000 C 
BRANCH  23  24
ATOM     24  C   UNL     1       3.538 -12.449   0.185  1.00  0.00    -0.000 C 
BRANCH  24  25
ATOM     25  C   UNL     1       4.471 -13.534   0.752  1.00  0.00    -0.000 C 
BRANCH  25  26
ATOM     26  C   UNL     1       5.573 -12.962   1.663  1.00  0.00    -0.000 C 
BRANCH  26  27
ATOM     27  C   UNL     1       6.982 -12.939   1.043  1.00  0.00    -0.000 C 
BRANCH  27  28
ATOM     28  C   UNL     1       7.048 -13.656  -0.317  1.00  0.00    -0.000 C 
BRANCH  28  29
ATOM     29  C   UNL     1       8.100 -14.775  -0.341  1.00  0.00    -0.003 C 
ATOM     30  C   UNL     1       9.375 -14.402   0.418  1.00  0.00     0.004 C 
ENDBRANCH  28  29
ENDBRANCH  27  28
ENDBRANCH  26  27
ENDBRANCH  25  26
ENDBRANCH  24  25
ENDBRANCH  23  24
ENDBRANCH  22  23
ENDBRANCH  21  22
ENDBRANCH  20  21
ENDBRANCH  19  20
ENDBRANCH  18  19
ENDBRANCH  17  18
ENDBRANCH   1  17
TORSDOF 26
ENDMDL
MODEL 4
REMARK VINA RESULT:    -4.608      1.232      2.282
REMARK INTER + INTRA:         -15.955
REMARK INTER:                 -11.744
REMARK INTRA:                  -4.211
REMARK UNBOUND:                -4.342
REMARK SMILES CCCCCCCCCCCCCCCCCCCCCCCCCCCC(=O)[O-]
REMARK SMILES IDX 15 1 16 2 17 3 18 4 19 5 20 6 21 7 22 8 23 9 24 10 25 11
REMARK SMILES IDX 26 12 27 13 28 14 29 15 30 16 14 17 13 18 12 19 11 20 10 21
REMARK SMILES IDX 9 22 8 23 7 24 6 25 5 26 4 27 3 28 2 29 1 30
REMARK H PARENT
REMARK Flexibility Score: inf
ROOT
ATOM      1  C   UNL     1       5.466 -12.368   6.844  1.00  0.00     0.000 C 
ENDROOT
BRANCH   1   2
ATOM      2  C   UNL     1       5.108 -13.596   5.987  1.00  0.00     0.000 C 
BRANCH   2   3
ATOM      3  C   UNL     1       4.775 -13.230   4.530  1.00  0.00     0.000 C 
BRANCH   3   4
ATOM      4  C   UNL     1       3.340 -13.563   4.083  1.00  0.00     0.000 C 
BRANCH   4   5
ATOM      5  C   UNL     1       2.380 -12.369   4.223  1.00  0.00     0.000 C 
BRANCH   5   6
ATOM      6  C   UNL     1       2.055 -11.708   2.873  1.00  0.00     0.000 C 
BRANCH   6   7
ATOM      7  C   UNL     1       3.040 -10.580   2.511  1.00  0.00     0.000 C 
BRANCH   7   8
ATOM      8  C   UNL     1       3.855 -10.891   1.246  1.00  0.00     0.000 C 
BRANCH   8   9
ATOM      9  C   UNL     1       3.446 -12.218   0.589  1.00  0.00     0.000 C 
BRANCH   9  10
ATOM     10  C   UNL     1       4.674 -12.972   0.066  1.00  0.00     0.000 C 
BRANCH  10  11
ATOM     11  C   UNL     1       5.827 -12.920   1.078  1.00  0.00     0.000 C 
BRANCH  11  12
ATOM     12  C   UNL     1       7.182 -12.606   0.420  1.00  0.00     0.006 C 
BRANCH  12  13
ATOM     13  C   UNL     1       8.276 -13.650   0.694  1.00  0.00     0.053 C 
BRANCH  13  14
ATOM     14  C   UNL     1       8.054 -14.914  -0.078  1.00  0.00     0.041 C 
ATOM     15  O   UNL     1       8.348 -16.028   0.432  1.00  0.00    -0.550 OA
ATOM     16  O   UNL     1       7.526 -14.864  -1.363  1.00  0.00    -0.550 OA
ENDBRANCH  13  14
ENDBRANCH  12  13
ENDBRANCH  11  12
ENDBRANCH  10  11
ENDBRANCH   9  10
ENDBRANCH   8   9
ENDBRANCH   7   8
ENDBRANCH   6   7
ENDBRANCH   5   6
ENDBRANCH   4   5
ENDBRANCH   3   4
ENDBRANCH   2   3
ENDBRANCH   1   2
BRANCH   1  17
ATOM     17  C   UNL     1       4.314 -11.351   6.931  1.00  0.00     0.000 C 
BRANCH  17  18
ATOM     18  C   UNL     1       4.741  -9.934   6.518  1.00  0.00     0.000 C 
BRANCH  18  19
ATOM     19  C   UNL     1       3.643  -8.912   6.836  1.00  0.00     0.000 C 
BRANCH  19  20
ATOM     20  C   UNL     1       2.775  -8.638   5.602  1.00  0.00     0.000 C 
BRANCH  20  21
ATOM     21  C   UNL     1       1.287  -8.849   5.918  1.00  0.00     0.000 C 
BRANCH  21  22
ATOM     22  C   UNL     1       1.039  -9.255   7.380  1.00  0.00    -0.000 C 
BRANCH  22  23
ATOM     23  C   UNL     1      -0.060  -8.450   8.102  1.00  0.00    -0.000 C 
BRANCH  23  24
ATOM     24  C   UNL     1       0.400  -7.812   9.432  1.00  0.00    -0.000 C 
BRANCH  24  25
ATOM     25  C   UNL     1       0.176  -6.289   9.459  1.00  0.00    -0.000 C 
BRANCH  25  26
ATOM     26  C   UNL     1      -0.367  -5.738   8.127  1.00  0.00    -0.000 C 
BRANCH  26  27
ATOM     27  C   UNL     1       0.487  -4.629   7.488  1.00  0.00    -0.000 C 
BRANCH  27  28
ATOM     28  C   UNL     1       1.534  -5.174   6.501  1.00  0.00    -0.000 C 
BRANCH  28  29
ATOM     29  C   UNL     1       2.967  -4.766   6.878  1.00  0.00    -0.003 C 
ATOM     30  C   UNL     1       3.522  -5.581   8.048  1.00  0.00     0.004 C 
ENDBRANCH  28  29
ENDBRANCH  27  28
ENDBRANCH  26  27
ENDBRANCH  25  26
ENDBRANCH  24  25
ENDBRANCH  23  24
ENDBRANCH  22  23
ENDBRANCH  21  22
ENDBRANCH  20  21
ENDBRANCH  19  20
ENDBRANCH  18  19
ENDBRANCH  17  18
ENDBRANCH   1  17
TORSDOF 26
ENDMDL
MODEL 5
REMARK VINA RESULT:    -4.514      5.380      9.759
REMARK INTER + INTRA:         -15.718
REMARK INTER:                 -11.568
REMARK INTRA:                  -4.151
REMARK UNBOUND:                -4.342
REMARK SMILES CCCCCCCCCCCCCCCCCCCCCCCCCCCC(=O)[O-]
REMARK SMILES IDX 15 1 16 2 17 3 18 4 19 5 20 6 21 7 22 8 23 9 24 10 25 11
REMARK SMILES IDX 26 12 27 13 28 14 29 15 30 16 14 17 13 18 12 19 11 20 10 21
REMARK SMILES IDX 9 22 8 23 7 24 6 25 5 26 4 27 3 28 2 29 1 30
REMARK H PARENT
REMARK Flexibility Score: inf
ROOT
ATOM      1  C   UNL     1       3.519  -6.210   7.726  1.00  0.00     0.000 C 
ENDROOT
BRANCH   1   2
ATOM      2  C   UNL     1       3.024  -5.136   6.742  1.00  0.00     0.000 C 
BRANCH   2   3
ATOM      3  C   UNL     1       1.577  -4.691   7.024  1.00  0.00     0.000 C 
BRANCH   3   4
ATOM      4  C   UNL     1       0.538  -5.142   5.981  1.00  0.00     0.000 C 
BRANCH   4   5
ATOM      5  C   UNL     1      -0.633  -5.920   6.606  1.00  0.00     0.000 C 
BRANCH   5   6
ATOM      6  C   UNL     1      -0.553  -7.431   6.333  1.00  0.00     0.000 C 
BRANCH   6   7
ATOM      7  C   UNL     1      -0.217  -8.245   7.597  1.00  0.00     0.000 C 
BRANCH   7   8
ATOM      8  C   UNL     1      -0.541  -7.486   8.892  1.00  0.00     0.000 C 
BRANCH   8   9
ATOM      9  C   UNL     1       0.652  -7.421   9.856  1.00  0.00     0.000 C 
BRANCH   9  10
ATOM     10  C   UNL     1       0.796  -6.018  10.457  1.00  0.00     0.000 C 
BRANCH  10  11
ATOM     11  C   UNL     1       2.195  -5.812  11.054  1.00  0.00     0.000 C 
BRANCH  11  12
ATOM     12  C   UNL     1       2.270  -6.199  12.542  1.00  0.00     0.006 C 
BRANCH  12  13
ATOM     13  C   UNL     1       3.390  -5.497  13.323  1.00  0.00     0.053 C 
BRANCH  13  14
ATOM     14  C   UNL     1       2.909  -4.249  13.999  1.00  0.00     0.041 C 
ATOM     15  O   UNL     1       3.320  -3.955  15.153  1.00  0.00    -0.550 OA
ATOM     16  O   UNL     1       2.005  -3.412  13.356  1.00  0.00    -0.550 OA
ENDBRANCH  13  14
ENDBRANCH  12  13
ENDBRANCH  11  12
ENDBRANCH  10  11
ENDBRANCH   9  10
ENDBRANCH   8   9
ENDBRANCH   7   8
ENDBRANCH   6   7
ENDBRANCH   5   6
ENDBRANCH   4   5
ENDBRANCH   3   4
ENDBRANCH   2   3
ENDBRANCH   1   2
BRANCH   1  17
ATOM     17  C   UNL     1       3.293  -7.641   7.206  1.00  0.00     0.000 C 
BRANCH  17  18
ATOM     18  C   UNL     1       4.334  -8.062   6.158  1.00  0.00     0.000 C 
BRANCH  18  19
ATOM     19  C   UNL     1       3.689  -8.887   5.037  1.00  0.00     0.000 C 
BRANCH  19  20
ATOM     20  C   UNL     1       2.550  -9.756   5.581  1.00  0.00     0.000 C 
BRANCH  20  21
ATOM     21  C   UNL     1       1.643 -10.250   4.446  1.00  0.00     0.000 C 
BRANCH  21  22
ATOM     22  C   UNL     1       2.020 -11.655   3.950  1.00  0.00    -0.000 C 
BRANCH  22  23
ATOM     23  C   UNL     1       3.102 -11.690   2.853  1.00  0.00    -0.000 C 
BRANCH  23  24
ATOM     24  C   UNL     1       3.669 -13.100   2.574  1.00  0.00    -0.000 C 
BRANCH  24  25
ATOM     25  C   UNL     1       4.885 -13.427   3.461  1.00  0.00    -0.000 C 
BRANCH  25  26
ATOM     26  C   UNL     1       4.522 -14.291   4.683  1.00  0.00    -0.000 C 
BRANCH  26  27
ATOM     27  C   UNL     1       4.854 -13.658   6.046  1.00  0.00    -0.000 C 
BRANCH  27  28
ATOM     28  C   UNL     1       5.301 -12.190   5.932  1.00  0.00    -0.000 C 
BRANCH  28  29
ATOM     29  C   UNL     1       5.418 -11.503   7.301  1.00  0.00    -0.003 C 
ATOM     30  C   UNL     1       6.868 -11.207   7.690  1.00  0.00     0.004 C 
ENDBRANCH  28  29
ENDBRANCH  27  28
ENDBRANCH  26  27
ENDBRANCH  25  26
ENDBRANCH  24  25
ENDBRANCH  23  24
ENDBRANCH  22  23
ENDBRANCH  21  22
ENDBRANCH  20  21
ENDBRANCH  19  20
ENDBRANCH  18  19
ENDBRANCH  17  18
ENDBRANCH   1  17
TORSDOF 26
ENDMDL
MODEL 6
REMARK VINA RESULT:    -4.480      3.969      8.003
REMARK INTER + INTRA:         -15.632
REMARK INTER:                 -11.198
REMARK INTRA:                  -4.434
REMARK UNBOUND:                -4.342
REMARK SMILES CCCCCCCCCCCCCCCCCCCCCCCCCCCC(=O)[O-]
REMARK SMILES IDX 15 1 16 2 17 3 18 4 19 5 20 6 21 7 22 8 23 9 24 10 25 11
REMARK SMILES IDX 26 12 27 13 28 14 29 15 30 16 14 17 13 18 12 19 11 20 10 21
REMARK SMILES IDX 9 22 8 23 7 24 6 25 5 26 4 27 3 28 2 29 1 30
REMARK H PARENT
REMARK Flexibility Score: inf
ROOT
ATOM      1  C   UNL     1       5.960 -12.326   6.735  1.00  0.00     0.000 C 
ENDROOT
BRANCH   1   2
ATOM      2  C   UNL     1       5.626 -10.922   7.267  1.00  0.00     0.000 C 
BRANCH   2   3
ATOM      3  C   UNL     1       4.220 -10.447   6.857  1.00  0.00     0.000 C 
BRANCH   3   4
ATOM      4  C   UNL     1       4.188  -9.357   5.771  1.00  0.00     0.000 C 
BRANCH   4   5
ATOM      5  C   UNL     1       3.349  -9.762   4.546  1.00  0.00     0.000 C 
BRANCH   5   6
ATOM      6  C   UNL     1       2.073  -8.917   4.395  1.00  0.00     0.000 C 
BRANCH   6   7
ATOM      7  C   UNL     1       0.802  -9.682   4.810  1.00  0.00     0.000 C 
BRANCH   7   8
ATOM      8  C   UNL     1       0.379  -9.385   6.257  1.00  0.00     0.000 C 
BRANCH   8   9
ATOM      9  C   UNL     1       0.442  -7.889   6.597  1.00  0.00     0.000 C 
BRANCH   9  10
ATOM     10  C   UNL     1       1.149  -7.661   7.938  1.00  0.00     0.000 C 
BRANCH  10  11
ATOM     11  C   UNL     1       2.575  -7.133   7.729  1.00  0.00     0.000 C 
BRANCH  11  12
ATOM     12  C   UNL     1       2.683  -5.613   7.942  1.00  0.00     0.006 C 
BRANCH  12  13
ATOM     13  C   UNL     1       2.652  -4.788   6.645  1.00  0.00     0.053 C 
BRANCH  13  14
ATOM     14  C   UNL     1       1.405  -3.966   6.531  1.00  0.00     0.041 C 
ATOM     15  O   UNL     1       0.405  -4.229   7.249  1.00  0.00    -0.550 OA
ATOM     16  O   UNL     1       1.346  -2.911   5.628  1.00  0.00    -0.550 OA
ENDBRANCH  13  14
ENDBRANCH  12  13
ENDBRANCH  11  12
ENDBRANCH  10  11
ENDBRANCH   9  10
ENDBRANCH   8   9
ENDBRANCH   7   8
ENDBRANCH   6   7
ENDBRANCH   5   6
ENDBRANCH   4   5
ENDBRANCH   3   4
ENDBRANCH   2   3
ENDBRANCH   1   2
BRANCH   1  17
ATOM     17  C   UNL     1       4.719 -13.075   6.218  1.00  0.00     0.000 C 
BRANCH  17  18
ATOM     18  C   UNL     1       4.685 -13.179   4.686  1.00  0.00     0.000 C 
BRANCH  18  19
ATOM     19  C   UNL     1       4.202 -14.564   4.236  1.00  0.00     0.000 C 
BRANCH  19  20
ATOM     20  C   UNL     1       2.849 -14.467   3.521  1.00  0.00     0.000 C 
BRANCH  20  21
ATOM     21  C   UNL     1       2.205 -13.092   3.744  1.00  0.00     0.000 C 
BRANCH  21  22
ATOM     22  C   UNL     1       0.780 -13.001   3.175  1.00  0.00    -0.000 C 
BRANCH  22  23
ATOM     23  C   UNL     1       0.699 -12.668   1.672  1.00  0.00    -0.000 C 
BRANCH  23  24
ATOM     24  C   UNL     1       0.498 -11.166   1.371  1.00  0.00    -0.000 C 
BRANCH  24  25
ATOM     25  C   UNL     1       1.806 -10.475   0.946  1.00  0.00    -0.000 C 
BRANCH  25  26
ATOM     26  C   UNL     1       2.874 -11.464   0.445  1.00  0.00    -0.000 C 
BRANCH  26  27
ATOM     27  C   UNL     1       4.230 -11.375   1.166  1.00  0.00    -0.000 C 
BRANCH  27  28
ATOM     28  C   UNL     1       5.106 -12.621   0.948  1.00  0.00    -0.000 C 
BRANCH  28  29
ATOM     29  C   UNL     1       6.399 -12.304   0.181  1.00  0.00    -0.003 C 
ATOM     30  C   UNL     1       7.617 -13.033   0.752  1.00  0.00     0.004 C 
ENDBRANCH  28  29
ENDBRANCH  27  28
ENDBRANCH  26  27
ENDBRANCH  25  26
ENDBRANCH  24  25
ENDBRANCH  23  24
ENDBRANCH  22  23
ENDBRANCH  21  22
ENDBRANCH  20  21
ENDBRANCH  19  20
ENDBRANCH  18  19
ENDBRANCH  17  18
ENDBRANCH   1  17
TORSDOF 26
ENDMDL
MODEL 7
REMARK VINA RESULT:    -4.479      1.145      3.889
REMARK INTER + INTRA:         -15.630
REMARK INTER:                 -11.174
REMARK INTRA:                  -4.456
REMARK UNBOUND:                -4.342
REMARK SMILES CCCCCCCCCCCCCCCCCCCCCCCCCCCC(=O)[O-]
REMARK SMILES IDX 15 1 16 2 17 3 18 4 19 5 20 6 21 7 22 8 23 9 24 10 25 11
REMARK SMILES IDX 26 12 27 13 28 14 29 15 30 16 14 17 13 18 12 19 11 20 10 21
REMARK SMILES IDX 9 22 8 23 7 24 6 25 5 26 4 27 3 28 2 29 1 30
REMARK H PARENT
REMARK Flexibility Score: inf
ROOT
ATOM      1  C   UNL     1       4.166  -8.916   5.518  1.00  0.00     0.000 C 
ENDROOT
BRANCH   1   2
ATOM      2  C   UNL     1       3.927  -9.607   6.872  1.00  0.00     0.000 C 
BRANCH   2   3
ATOM      3  C   UNL     1       3.833 -11.139   6.752  1.00  0.00     0.000 C 
BRANCH   3   4
ATOM      4  C   UNL     1       5.161 -11.894   6.944  1.00  0.00     0.000 C 
BRANCH   4   5
ATOM      5  C   UNL     1       5.127 -13.317   6.358  1.00  0.00     0.000 C 
BRANCH   5   6
ATOM      6  C   UNL     1       5.102 -13.324   4.821  1.00  0.00     0.000 C 
BRANCH   6   7
ATOM      7  C   UNL     1       3.864 -14.042   4.250  1.00  0.00     0.000 C 
BRANCH   7   8
ATOM      8  C   UNL     1       3.014 -13.130   3.352  1.00  0.00     0.000 C 
BRANCH   8   9
ATOM      9  C   UNL     1       3.677 -11.769   3.093  1.00  0.00     0.000 C 
BRANCH   9  10
ATOM     10  C   UNL     1       3.858 -11.525   1.590  1.00  0.00     0.000 C 
BRANCH  10  11
ATOM     11  C   UNL     1       4.555 -12.716   0.916  1.00  0.00     0.000 C 
BRANCH  11  12
ATOM     12  C   UNL     1       6.085 -12.562   0.872  1.00  0.00     0.006 C 
BRANCH  12  13
ATOM     13  C   UNL     1       6.759 -13.274  -0.311  1.00  0.00     0.053 C 
BRANCH  13  14
ATOM     14  C   UNL     1       7.801 -14.252   0.139  1.00  0.00     0.041 C 
ATOM     15  O   UNL     1       7.569 -15.489   0.095  1.00  0.00    -0.550 OA
ATOM     16  O   UNL     1       9.027 -13.798   0.611  1.00  0.00    -0.550 OA
ENDBRANCH  13  14
ENDBRANCH  12  13
ENDBRANCH  11  12
ENDBRANCH  10  11
ENDBRANCH   9  10
ENDBRANCH   8   9
ENDBRANCH   7   8
ENDBRANCH   6   7
ENDBRANCH   5   6
ENDBRANCH   4   5
ENDBRANCH   3   4
ENDBRANCH   2   3
ENDBRANCH   1   2
BRANCH   1  17
ATOM     17  C   UNL     1       3.787  -7.425   5.539  1.00  0.00     0.000 C 
BRANCH  17  18
ATOM     18  C   UNL     1       3.617  -6.876   6.964  1.00  0.00     0.000 C 
BRANCH  18  19
ATOM     19  C   UNL     1       3.138  -5.419   6.942  1.00  0.00     0.000 C 
BRANCH  19  20
ATOM     20  C   UNL     1       1.645  -5.338   6.602  1.00  0.00     0.000 C 
BRANCH  20  21
ATOM     21  C   UNL     1       0.838  -4.799   7.791  1.00  0.00     0.000 C 
BRANCH  21  22
ATOM     22  C   UNL     1      -0.383  -5.670   8.128  1.00  0.00    -0.000 C 
BRANCH  22  23
ATOM     23  C   UNL     1      -0.216  -6.577   9.363  1.00  0.00    -0.000 C 
BRANCH  23  24
ATOM     24  C   UNL     1       0.700  -7.798   9.127  1.00  0.00    -0.000 C 
BRANCH  24  25
ATOM     25  C   UNL     1       0.009  -8.896   8.298  1.00  0.00    -0.000 C 
BRANCH  25  26
ATOM     26  C   UNL     1       0.562  -9.005   6.865  1.00  0.00    -0.000 C 
BRANCH  26  27
ATOM     27  C   UNL     1      -0.424  -8.595   5.756  1.00  0.00    -0.000 C 
BRANCH  27  28
ATOM     28  C   UNL     1       0.281  -8.116   4.475  1.00  0.00    -0.000 C 
BRANCH  28  29
ATOM     29  C   UNL     1       1.021  -9.252   3.752  1.00  0.00    -0.003 C 
ATOM     30  C   UNL     1       0.142 -10.485   3.537  1.00  0.00     0.004 C 
ENDBRANCH  28  29
ENDBRANCH  27  28
ENDBRANCH  26  27
ENDBRANCH  25  26
ENDBRANCH  24  25
ENDBRANCH  23  24
ENDBRANCH  22  23
ENDBRANCH  21  22
ENDBRANCH  20  21
ENDBRANCH  19  20
ENDBRANCH  18  19
ENDBRANCH  17  18
ENDBRANCH   1  17
TORSDOF 26
ENDMDL
MODEL 8
REMARK VINA RESULT:    -4.453      1.406      2.889
REMARK INTER + INTRA:         -15.563
REMARK INTER:                 -11.944
REMARK INTRA:                  -3.618
REMARK UNBOUND:                -4.342
REMARK SMILES CCCCCCCCCCCCCCCCCCCCCCCCCCCC(=O)[O-]
REMARK SMILES IDX 15 1 16 2 17 3 18 4 19 5 20 6 21 7 22 8 23 9 24 10 25 11
REMARK SMILES IDX 26 12 27 13 28 14 29 15 30 16 14 17 13 18 12 19 11 20 10 21
REMARK SMILES IDX 9 22 8 23 7 24 6 25 5 26 4 27 3 28 2 29 1 30
REMARK H PARENT
REMARK Flexibility Score: inf
ROOT
ATOM      1  C   UNL     1       4.904 -13.779   5.017  1.00  0.00     0.000 C 
ENDROOT
BRANCH   1   2
ATOM      2  C   UNL     1       3.583 -13.522   4.273  1.00  0.00     0.000 C 
BRANCH   2   3
ATOM      3  C   UNL     1       3.439 -12.064   3.800  1.00  0.00     0.000 C 
BRANCH   3   4
ATOM      4  C   UNL     1       1.991 -11.566   3.643  1.00  0.00     0.000 C 
BRANCH   4   5
ATOM      5  C   UNL     1       1.459 -11.727   2.207  1.00  0.00     0.000 C 
BRANCH   5   6
ATOM      6  C   UNL     1       2.132 -10.765   1.215  1.00  0.00     0.000 C 
BRANCH   6   7
ATOM      7  C   UNL     1       3.010 -11.496   0.181  1.00  0.00     0.000 C 
BRANCH   7   8
ATOM      8  C   UNL     1       2.897 -13.025   0.288  1.00  0.00     0.000 C 
BRANCH   8   9
ATOM      9  C   UNL     1       4.248 -13.700   0.569  1.00  0.00     0.000 C 
BRANCH   9  10
ATOM     10  C   UNL     1       5.385 -12.672   0.569  1.00  0.00     0.000 C 
BRANCH  10  11
ATOM     11  C   UNL     1       6.588 -13.179   1.378  1.00  0.00     0.000 C 
BRANCH  11  12
ATOM     12  C   UNL     1       7.919 -13.029   0.621  1.00  0.00     0.006 C 
BRANCH  12  13
ATOM     13  C   UNL     1       8.774 -14.305   0.584  1.00  0.00     0.053 C 
BRANCH  13  14
ATOM     14  C   UNL     1       8.420 -15.187  -0.575  1.00  0.00     0.041 C 
ATOM     15  O   UNL     1       7.342 -15.838  -0.569  1.00  0.00    -0.550 OA
ATOM     16  O   UNL     1       9.282 -15.292  -1.660  1.00  0.00    -0.550 OA
ENDBRANCH  13  14
ENDBRANCH  12  13
ENDBRANCH  11  12
ENDBRANCH  10  11
ENDBRANCH   9  10
ENDBRANCH   8   9
ENDBRANCH   7   8
ENDBRANCH   6   7
ENDBRANCH   5   6
ENDBRANCH   4   5
ENDBRANCH   3   4
ENDBRANCH   2   3
ENDBRANCH   1   2
BRANCH   1  17
ATOM     17  C   UNL     1       4.871 -13.280   6.473  1.00  0.00     0.000 C 
BRANCH  17  18
ATOM     18  C   UNL     1       5.948 -12.224   6.763  1.00  0.00     0.000 C 
BRANCH  18  19
ATOM     19  C   UNL     1       5.331 -10.826   6.894  1.00  0.00     0.000 C 
BRANCH  19  20
ATOM     20  C   UNL     1       3.822 -10.914   7.146  1.00  0.00     0.000 C 
BRANCH  20  21
ATOM     21  C   UNL     1       3.102  -9.665   6.620  1.00  0.00     0.000 C 
BRANCH  21  22
ATOM     22  C   UNL     1       3.959  -8.850   5.638  1.00  0.00    -0.000 C 
BRANCH  22  23
ATOM     23  C   UNL     1       3.927  -7.325   5.855  1.00  0.00    -0.000 C 
BRANCH  23  24
ATOM     24  C   UNL     1       3.866  -6.903   7.340  1.00  0.00    -0.000 C 
BRANCH  24  25
ATOM     25  C   UNL     1       3.233  -5.512   7.528  1.00  0.00    -0.000 C 
BRANCH  25  26
ATOM     26  C   UNL     1       1.708  -5.569   7.735  1.00  0.00    -0.000 C 
BRANCH  26  27
ATOM     27  C   UNL     1       1.156  -6.955   8.116  1.00  0.00    -0.000 C 
BRANCH  27  28
ATOM     28  C   UNL     1       0.826  -7.075   9.614  1.00  0.00    -0.000 C 
BRANCH  28  29
ATOM     29  C   UNL     1       1.399  -5.912  10.438  1.00  0.00    -0.003 C 
ATOM     30  C   UNL     1       0.329  -5.185  11.255  1.00  0.00     0.004 C 
ENDBRANCH  28  29
ENDBRANCH  27  28
ENDBRANCH  26  27
ENDBRANCH  25  26
ENDBRANCH  24  25
ENDBRANCH  23  24
ENDBRANCH  22  23
ENDBRANCH  21  22
ENDBRANCH  20  21
ENDBRANCH  19  20
ENDBRANCH  18  19
ENDBRANCH  17  18
ENDBRANCH   1  17
TORSDOF 26
ENDMDL
MODEL 9
REMARK VINA RESULT:    -4.429      2.291      4.671
REMARK INTER + INTRA:         -15.503
REMARK INTER:                 -11.010
REMARK INTRA:                  -4.492
REMARK UNBOUND:                -4.342
REMARK SMILES CCCCCCCCCCCCCCCCCCCCCCCCCCCC(=O)[O-]
REMARK SMILES IDX 15 1 16 2 17 3 18 4 19 5 20 6 21 7 22 8 23 9 24 10 25 11
REMARK SMILES IDX 26 12 27 13 28 14 29 15 30 16 14 17 13 18 12 19 11 20 10 21
REMARK SMILES IDX 9 22 8 23 7 24 6 25 5 26 4 27 3 28 2 29 1 30
REMARK H PARENT
REMARK Flexibility Score: inf
ROOT
ATOM      1  C   UNL     1       6.033 -12.377   6.891  1.00  0.00     0.000 C 
ENDROOT
BRANCH   1   2
ATOM      2  C   UNL     1       4.850 -13.257   6.450  1.00  0.00     0.000 C 
BRANCH   2   3
ATOM      3  C   UNL     1       4.888 -13.599   4.949  1.00  0.00     0.000 C 
BRANCH   3   4
ATOM      4  C   UNL     1       3.669 -14.378   4.424  1.00  0.00     0.000 C 
BRANCH   4   5
ATOM      5  C   UNL     1       3.389 -14.111   2.934  1.00  0.00     0.000 C 
BRANCH   5   6
ATOM      6  C   UNL     1       4.333 -13.056   2.334  1.00  0.00     0.000 C 
BRANCH   6   7
ATOM      7  C   UNL     1       5.021 -13.541   1.043  1.00  0.00     0.000 C 
BRANCH   7   8
ATOM      8  C   UNL     1       5.592 -12.384   0.209  1.00  0.00     0.000 C 
BRANCH   8   9
ATOM      9  C   UNL     1       7.127 -12.395   0.153  1.00  0.00     0.000 C 
BRANCH   9  10
ATOM     10  C   UNL     1       7.699 -13.521   1.022  1.00  0.00     0.000 C 
BRANCH  10  11
ATOM     11  C   UNL     1       8.610 -14.445   0.200  1.00  0.00     0.000 C 
BRANCH  11  12
ATOM     12  C   UNL     1       7.951 -14.919  -1.107  1.00  0.00     0.006 C 
BRANCH  12  13
ATOM     13  C   UNL     1       6.985 -16.102  -0.937  1.00  0.00     0.053 C 
BRANCH  13  14
ATOM     14  C   UNL     1       7.705 -17.415  -0.891  1.00  0.00     0.041 C 
ATOM     15  O   UNL     1       8.840 -17.534  -1.425  1.00  0.00    -0.550 OA
ATOM     16  O   UNL     1       7.122 -18.508  -0.262  1.00  0.00    -0.550 OA
ENDBRANCH  13  14
ENDBRANCH  12  13
ENDBRANCH  11  12
ENDBRANCH  10  11
ENDBRANCH   9  10
ENDBRANCH   8   9
ENDBRANCH   7   8
ENDBRANCH   6   7
ENDBRANCH   5   6
ENDBRANCH   4   5
ENDBRANCH   3   4
ENDBRANCH   2   3
ENDBRANCH   1   2
BRANCH   1  17
ATOM     17  C   UNL     1       5.598 -10.956   7.290  1.00  0.00     0.000 C 
BRANCH  17  18
ATOM     18  C   UNL     1       4.155 -10.637   6.870  1.00  0.00     0.000 C 
BRANCH  18  19
ATOM     19  C   UNL     1       4.123  -9.579   5.760  1.00  0.00     0.000 C 
BRANCH  19  20
ATOM     20  C   UNL     1       3.410 -10.114   4.513  1.00  0.00     0.000 C 
BRANCH  20  21
ATOM     21  C   UNL     1       2.041 -10.707   4.874  1.00  0.00     0.000 C 
BRANCH  21  22
ATOM     22  C   UNL     1       1.314 -11.311   3.661  1.00  0.00    -0.000 C 
BRANCH  22  23
ATOM     23  C   UNL     1       0.076 -10.525   3.186  1.00  0.00    -0.000 C 
BRANCH  23  24
ATOM     24  C   UNL     1       0.405  -9.144   2.576  1.00  0.00    -0.000 C 
BRANCH  24  25
ATOM     25  C   UNL     1       1.422  -9.241   1.425  1.00  0.00    -0.000 C 
BRANCH  25  26
ATOM     26  C   UNL     1       0.758  -9.247   0.035  1.00  0.00    -0.000 C 
BRANCH  26  27
ATOM     27  C   UNL     1       0.934 -10.552  -0.762  1.00  0.00    -0.000 C 
BRANCH  27  28
ATOM     28  C   UNL     1       2.003 -11.481  -0.162  1.00  0.00    -0.000 C 
BRANCH  28  29
ATOM     29  C   UNL     1       1.529 -12.939  -0.069  1.00  0.00    -0.003 C 
ATOM     30  C   UNL     1       0.107 -13.063   0.479  1.00  0.00     0.004 C 
ENDBRANCH  28  29
ENDBRANCH  27  28
ENDBRANCH  26  27
ENDBRANCH  25  26
ENDBRANCH  24  25
ENDBRANCH  23  24
ENDBRANCH  22  23
ENDBRANCH  21  22
ENDBRANCH  20  21
ENDBRANCH  19  20
ENDBRANCH  18  19
ENDBRANCH  17  18
ENDBRANCH   1  17
TORSDOF 26
ENDMDL
