MODEL 1
REMARK VINA RESULT:    -4.370      0.000      0.000
REMARK INTER + INTRA:          -4.370
REMARK INTER:                  -4.370
REMARK INTRA:                   0.000
REMARK UNBOUND:                 0.000
REMARK SMILES Cc1cccc2ccccc12
REMARK SMILES IDX 1 1 2 2 3 3 4 4 5 5 6 6 7 7 8 8 9 9 10 10 11 11
REMARK H PARENT
REMARK Flexibility Score: inf
ROOT
ATOM      1  C   UNL     1      -4.971  -9.551  41.749  1.00  0.00     0.045 C 
ATOM      2  C   UNL     1      -3.572 -10.048  41.487  1.00  0.00    -0.043 A 
ATOM      3  C   UNL     1      -3.094 -11.145  42.224  1.00  0.00     0.004 A 
ATOM      4  C   UNL     1      -1.806 -11.639  42.014  1.00  0.00     0.001 A 
ATOM      5  C   UNL     1      -0.972 -11.048  41.067  1.00  0.00     0.009 A 
ATOM      6  C   UNL     1      -1.419  -9.952  40.316  1.00  0.00    -0.018 A 
ATOM      7  C   UNL     1      -0.573  -9.362  39.364  1.00  0.00     0.009 A 
ATOM      8  C   UNL     1      -1.013  -8.271  38.613  1.00  0.00     0.001 A 
ATOM      9  C   UNL     1      -2.296  -7.760  38.805  1.00  0.00     0.001 A 
ATOM     10  C   UNL     1      -3.151  -8.335  39.748  1.00  0.00     0.009 A 
ATOM     11  C   UNL     1      -2.729  -9.439  40.519  1.00  0.00    -0.015 A 
ENDROOT
TORSDOF 0
ENDMDL
MODEL 2
REMARK VINA RESULT:    -4.242      0.789      2.560
REMARK INTER + INTRA:          -4.242
REMARK INTER:                  -4.242
REMARK INTRA:                   0.000
REMARK UNBOUND:                 0.000
REMARK SMILES Cc1cccc2ccccc12
REMARK SMILES IDX 1 1 2 2 3 3 4 4 5 5 6 6 7 7 8 8 9 9 10 10 11 11
REMARK H PARENT
REMARK Flexibility Score: inf
ROOT
ATOM      1  C   UNL     1      -1.202 -11.565  42.249  1.00  0.00     0.045 C 
ATOM      2  C   UNL     1      -2.374 -10.747  41.770  1.00  0.00    -0.043 A 
ATOM      3  C   UNL     1      -3.630 -10.948  42.367  1.00  0.00     0.004 A 
ATOM      4  C   UNL     1      -4.742 -10.213  41.956  1.00  0.00     0.001 A 
ATOM      5  C   UNL     1      -4.622  -9.265  40.942  1.00  0.00     0.009 A 
ATOM      6  C   UNL     1      -3.383  -9.040  40.327  1.00  0.00    -0.018 A 
ATOM      7  C   UNL     1      -3.269  -8.083  39.306  1.00  0.00     0.009 A 
ATOM      8  C   UNL     1      -2.039  -7.854  38.690  1.00  0.00     0.001 A 
ATOM      9  C   UNL     1      -0.913  -8.576  39.085  1.00  0.00     0.001 A 
ATOM     10  C   UNL     1      -1.008  -9.533  40.098  1.00  0.00     0.009 A 
ATOM     11  C   UNL     1      -2.242  -9.781  40.737  1.00  0.00    -0.015 A 
ENDROOT
TORSDOF 0
ENDMDL
MODEL 3
REMARK VINA RESULT:    -4.147      1.159      3.757
REMARK INTER + INTRA:          -4.147
REMARK INTER:                  -4.147
REMARK INTRA:                   0.000
REMARK UNBOUND:                 0.000
REMARK SMILES Cc1cccc2ccccc12
REMARK SMILES IDX 1 1 2 2 3 3 4 4 5 5 6 6 7 7 8 8 9 9 10 10 11 11
REMARK H PARENT
REMARK Flexibility Score: inf
ROOT
ATOM      1  C   UNL     1      -3.727  -6.977  37.527  1.00  0.00     0.045 C 
ATOM      2  C   UNL     1      -2.958  -7.773  38.551  1.00  0.00    -0.043 A 
ATOM      3  C   UNL     1      -1.558  -7.833  38.450  1.00  0.00     0.004 A 
ATOM      4  C   UNL     1      -0.807  -8.557  39.376  1.00  0.00     0.001 A 
ATOM      5  C   UNL     1      -1.437  -9.235  40.417  1.00  0.00     0.009 A 
ATOM      6  C   UNL     1      -2.832  -9.194  40.545  1.00  0.00    -0.018 A 
ATOM      7  C   UNL     1      -3.461  -9.879  41.597  1.00  0.00     0.009 A 
ATOM      8  C   UNL     1      -4.849  -9.842  41.730  1.00  0.00     0.001 A 
ATOM      9  C   UNL     1      -5.621  -9.125  40.817  1.00  0.00     0.001 A 
ATOM     10  C   UNL     1      -5.012  -8.438  39.764  1.00  0.00     0.009 A 
ATOM     11  C   UNL     1      -3.610  -8.460  39.610  1.00  0.00    -0.015 A 
ENDROOT
TORSDOF 0
ENDMDL
MODEL 4
REMARK VINA RESULT:    -4.064      1.071      3.714
REMARK INTER + INTRA:          -4.064
REMARK INTER:                  -4.064
REMARK INTRA:                   0.000
REMARK UNBOUND:                 0.000
REMARK SMILES Cc1cccc2ccccc12
REMARK SMILES IDX 1 1 2 2 3 3 4 4 5 5 6 6 7 7 8 8 9 9 10 10 11 11
REMARK H PARENT
REMARK Flexibility Score: inf
ROOT
ATOM      1  C   UNL     1      -1.048 -11.970  42.526  1.00  0.00     0.045 C 
ATOM      2  C   UNL     1      -1.587 -11.047  41.463  1.00  0.00    -0.043 A 
ATOM      3  C   UNL     1      -0.772 -10.730  40.363  1.00  0.00     0.004 A 
ATOM      4  C   UNL     1      -1.230  -9.881  39.356  1.00  0.00     0.001 A 
ATOM      5  C   UNL     1      -2.509  -9.331  39.428  1.00  0.00     0.009 A 
ATOM      6  C   UNL     1      -3.346  -9.627  40.511  1.00  0.00    -0.018 A 
ATOM      7  C   UNL     1      -4.633  -9.070  40.577  1.00  0.00     0.009 A 
ATOM      8  C   UNL     1      -5.472  -9.362  41.653  1.00  0.00     0.001 A 
ATOM      9  C   UNL     1      -5.036 -10.209  42.671  1.00  0.00     0.001 A 
ATOM     10  C   UNL     1      -3.758 -10.771  42.622  1.00  0.00     0.009 A 
ATOM     11  C   UNL     1      -2.892 -10.492  41.544  1.00  0.00    -0.015 A 
ENDROOT
TORSDOF 0
ENDMDL
MODEL 5
REMARK VINA RESULT:    -4.059      0.842      3.442
REMARK INTER + INTRA:          -4.059
REMARK INTER:                  -4.059
REMARK INTRA:                   0.000
REMARK UNBOUND:                 0.000
REMARK SMILES Cc1cccc2ccccc12
REMARK SMILES IDX 1 1 2 2 3 3 4 4 5 5 6 6 7 7 8 8 9 9 10 10 11 11
REMARK H PARENT
REMARK Flexibility Score: inf
ROOT
ATOM      1  C   UNL     1      -5.137  -8.102  39.271  1.00  0.00     0.045 C 
ATOM      2  C   UNL     1      -3.680  -8.441  39.450  1.00  0.00    -0.043 A 
ATOM      3  C   UNL     1      -2.729  -7.797  38.641  1.00  0.00     0.004 A 
ATOM      4  C   UNL     1      -1.370  -8.079  38.773  1.00  0.00     0.001 A 
ATOM      5  C   UNL     1      -0.933  -9.010  39.713  1.00  0.00     0.009 A 
ATOM      6  C   UNL     1      -1.856  -9.670  40.536  1.00  0.00    -0.018 A 
ATOM      7  C   UNL     1      -1.409 -10.607  41.481  1.00  0.00     0.009 A 
ATOM      8  C   UNL     1      -2.322 -11.267  42.303  1.00  0.00     0.001 A 
ATOM      9  C   UNL     1      -3.686 -11.001  42.190  1.00  0.00     0.001 A 
ATOM     10  C   UNL     1      -4.149 -10.072  41.255  1.00  0.00     0.009 A 
ATOM     11  C   UNL     1      -3.244  -9.391  40.412  1.00  0.00    -0.015 A 
ENDROOT
TORSDOF 0
ENDMDL
MODEL 6
REMARK VINA RESULT:    -4.043      1.539      3.354
REMARK INTER + INTRA:          -4.043
REMARK INTER:                  -4.043
REMARK INTRA:                   0.000
REMARK UNBOUND:                 0.000
REMARK SMILES Cc1cccc2ccccc12
REMARK SMILES IDX 1 1 2 2 3 3 4 4 5 5 6 6 7 7 8 8 9 9 10 10 11 11
REMARK H PARENT
REMARK Flexibility Score: inf
ROOT
ATOM      1  C   UNL     1      -0.544  -8.595  39.533  1.00  0.00     0.045 C 
ATOM      2  C   UNL     1      -1.935  -8.879  40.038  1.00  0.00    -0.043 A 
ATOM      3  C   UNL     1      -2.090  -9.666  41.192  1.00  0.00     0.004 A 
ATOM      4  C   UNL     1      -3.358  -9.954  41.695  1.00  0.00     0.001 A 
ATOM      5  C   UNL     1      -4.496  -9.463  41.058  1.00  0.00     0.009 A 
ATOM      6  C   UNL     1      -4.375  -8.674  39.906  1.00  0.00    -0.018 A 
ATOM      7  C   UNL     1      -5.526  -8.182  39.269  1.00  0.00     0.009 A 
ATOM      8  C   UNL     1      -5.413  -7.397  38.122  1.00  0.00     0.001 A 
ATOM      9  C   UNL     1      -4.155  -7.095  37.600  1.00  0.00     0.001 A 
ATOM     10  C   UNL     1      -3.000  -7.577  38.221  1.00  0.00     0.009 A 
ATOM     11  C   UNL     1      -3.089  -8.373  39.383  1.00  0.00    -0.015 A 
ENDROOT
TORSDOF 0
ENDMDL
MODEL 7
REMARK VINA RESULT:    -4.037      1.189      1.678
REMARK INTER + INTRA:          -4.037
REMARK INTER:                  -4.037
REMARK INTRA:                   0.000
REMARK UNBOUND:                 0.000
REMARK SMILES Cc1cccc2ccccc12
REMARK SMILES IDX 1 1 2 2 3 3 4 4 5 5 6 6 7 7 8 8 9 9 10 10 11 11
REMARK H PARENT
REMARK Flexibility Score: inf
ROOT
ATOM      1  C   UNL     1      -5.984  -8.447  39.969  1.00  0.00     0.045 C 
ATOM      2  C   UNL     1      -4.577  -8.857  40.317  1.00  0.00    -0.043 A 
ATOM      3  C   UNL     1      -4.366  -9.658  41.453  1.00  0.00     0.004 A 
ATOM      4  C   UNL     1      -3.081 -10.063  41.813  1.00  0.00     0.001 A 
ATOM      5  C   UNL     1      -1.982  -9.675  41.049  1.00  0.00     0.009 A 
ATOM      6  C   UNL     1      -2.158  -8.876  39.911  1.00  0.00    -0.018 A 
ATOM      7  C   UNL     1      -1.046  -8.489  39.146  1.00  0.00     0.009 A 
ATOM      8  C   UNL     1      -1.215  -7.694  38.012  1.00  0.00     0.001 A 
ATOM      9  C   UNL     1      -2.491  -7.278  37.632  1.00  0.00     0.001 A 
ATOM     10  C   UNL     1      -3.608  -7.653  38.382  1.00  0.00     0.009 A 
ATOM     11  C   UNL     1      -3.462  -8.458  39.533  1.00  0.00    -0.015 A 
ENDROOT
TORSDOF 0
ENDMDL
MODEL 8
REMARK VINA RESULT:    -4.028      1.495      4.609
REMARK INTER + INTRA:          -4.028
REMARK INTER:                  -4.028
REMARK INTRA:                   0.000
REMARK UNBOUND:                 0.000
REMARK SMILES Cc1cccc2ccccc12
REMARK SMILES IDX 1 1 2 2 3 3 4 4 5 5 6 6 7 7 8 8 9 9 10 10 11 11
REMARK H PARENT
REMARK Flexibility Score: inf
ROOT
ATOM      1  C   UNL     1      -0.640  -8.515  39.576  1.00  0.00     0.045 C 
ATOM      2  C   UNL     1      -2.046  -8.205  39.129  1.00  0.00    -0.043 A 
ATOM      3  C   UNL     1      -2.234  -7.451  37.959  1.00  0.00     0.004 A 
ATOM      4  C   UNL     1      -3.516  -7.141  37.507  1.00  0.00     0.001 A 
ATOM      5  C   UNL     1      -4.635  -7.576  38.215  1.00  0.00     0.009 A 
ATOM      6  C   UNL     1      -4.482  -8.330  39.386  1.00  0.00    -0.018 A 
ATOM      7  C   UNL     1      -5.613  -8.766  40.094  1.00  0.00     0.009 A 
ATOM      8  C   UNL     1      -5.467  -9.517  41.260  1.00  0.00     0.001 A 
ATOM      9  C   UNL     1      -4.195  -9.839  41.731  1.00  0.00     0.001 A 
ATOM     10  C   UNL     1      -3.058  -9.414  41.039  1.00  0.00     0.009 A 
ATOM     11  C   UNL     1      -3.181  -8.654  39.857  1.00  0.00    -0.015 A 
ENDROOT
TORSDOF 0
ENDMDL
MODEL 9
REMARK VINA RESULT:    -3.900      1.039      3.264
REMARK INTER + INTRA:          -3.900
REMARK INTER:                  -3.900
REMARK INTRA:                   0.000
REMARK UNBOUND:                 0.000
REMARK SMILES Cc1cccc2ccccc12
REMARK SMILES IDX 1 1 2 2 3 3 4 4 5 5 6 6 7 7 8 8 9 9 10 10 11 11
REMARK H PARENT
REMARK Flexibility Score: inf
ROOT
ATOM      1  C   UNL     1      -5.823 -10.134  42.796  1.00  0.00     0.045 C 
ATOM      2  C   UNL     1      -4.979  -9.684  41.631  1.00  0.00    -0.043 A 
ATOM      3  C   UNL     1      -5.530  -8.782  40.704  1.00  0.00     0.004 A 
ATOM      4  C   UNL     1      -4.786  -8.338  39.612  1.00  0.00     0.001 A 
ATOM      5  C   UNL     1      -3.480  -8.785  39.422  1.00  0.00     0.009 A 
ATOM      6  C   UNL     1      -2.902  -9.684  40.328  1.00  0.00    -0.018 A 
ATOM      7  C   UNL     1      -1.585 -10.130  40.132  1.00  0.00     0.009 A 
ATOM      8  C   UNL     1      -1.004 -11.024  41.030  1.00  0.00     0.001 A 
ATOM      9  C   UNL     1      -1.728 -11.482  42.131  1.00  0.00     0.001 A 
ATOM     10  C   UNL     1      -3.039 -11.049  42.342  1.00  0.00     0.009 A 
ATOM     11  C   UNL     1      -3.648 -10.144  41.447  1.00  0.00    -0.015 A 
ENDROOT
TORSDOF 0
ENDMDL
