MODEL 1
REMARK VINA RESULT:    -5.519      0.000      0.000
REMARK INTER + INTRA:          -6.138
REMARK INTER:                  -6.003
REMARK INTRA:                  -0.135
REMARK UNBOUND:                -0.135
REMARK SMILES CC1=CC[C@@](O)(C(C)C)CC1
REMARK SMILES IDX 1 1 2 2 3 3 4 4 5 5 10 6 11 7 7 8 8 9 9 10 6 11
REMARK H PARENT 6 12
REMARK Flexibility Score: inf
ROOT
ATOM      1  C   UNL     1      -5.185  21.614  47.654  1.00  0.00     0.039 C 
ATOM      2  C   UNL     1      -4.127  20.558  47.485  1.00  0.00    -0.077 C 
ATOM      3  C   UNL     1      -3.046  20.805  46.732  1.00  0.00    -0.025 C 
ATOM      4  C   UNL     1      -2.047  19.708  46.485  1.00  0.00     0.062 C 
ATOM      5  C   UNL     1      -2.786  18.394  46.122  1.00  0.00     0.071 C 
ATOM      6  C   UNL     1      -3.802  18.039  47.276  1.00  0.00     0.040 C 
ATOM      7  C   UNL     1      -4.247  19.221  48.173  1.00  0.00     0.033 C 
ENDROOT
BRANCH   5   8
ATOM      8  C   UNL     1      -1.751  17.224  45.915  1.00  0.00     0.015 C 
ATOM      9  C   UNL     1      -1.760  16.198  47.068  1.00  0.00     0.010 C 
ATOM     10  C   UNL     1      -1.951  16.473  44.584  1.00  0.00     0.010 C 
ENDBRANCH   5   8
BRANCH   5  11
ATOM     11  O   UNL     1      -3.486  18.636  44.919  1.00  0.00    -0.389 OA
ATOM     12  H   UNL     1      -4.066  17.856  44.722  1.00  0.00     0.211 HD
ENDBRANCH   5  11
TORSDOF 2
ENDMDL
MODEL 2
REMARK VINA RESULT:    -5.239      0.995      1.151
REMARK INTER + INTRA:          -5.833
REMARK INTER:                  -5.733
REMARK INTRA:                  -0.100
REMARK UNBOUND:                -0.135
REMARK SMILES CC1=CC[C@@](O)(C(C)C)CC1
REMARK SMILES IDX 1 1 2 2 3 3 4 4 5 5 10 6 11 7 7 8 8 9 9 10 6 11
REMARK H PARENT 6 12
REMARK Flexibility Score: inf
ROOT
ATOM      1  C   UNL     1      -5.256  21.865  47.612  1.00  0.00     0.039 C 
ATOM      2  C   UNL     1      -4.125  20.874  47.599  1.00  0.00    -0.077 C 
ATOM      3  C   UNL     1      -3.486  20.599  46.452  1.00  0.00    -0.025 C 
ATOM      4  C   UNL     1      -2.427  19.532  46.430  1.00  0.00     0.062 C 
ATOM      5  C   UNL     1      -2.926  18.278  47.195  1.00  0.00     0.071 C 
ATOM      6  C   UNL     1      -3.333  18.696  48.660  1.00  0.00     0.040 C 
ATOM      7  C   UNL     1      -3.672  20.193  48.867  1.00  0.00     0.033 C 
ENDROOT
BRANCH   5   8
ATOM      8  C   UNL     1      -1.804  17.173  47.224  1.00  0.00     0.015 C 
ATOM      9  C   UNL     1      -2.215  15.915  48.018  1.00  0.00     0.010 C 
ATOM     10  C   UNL     1      -1.346  16.742  45.817  1.00  0.00     0.010 C 
ENDBRANCH   5   8
BRANCH   5  11
ATOM     11  O   UNL     1      -4.057  17.797  46.498  1.00  0.00    -0.389 OA
ATOM     12  H   UNL     1      -4.515  18.561  46.062  1.00  0.00     0.211 HD
ENDBRANCH   5  11
TORSDOF 2
ENDMDL
MODEL 3
REMARK VINA RESULT:    -5.069      5.808      7.904
REMARK INTER + INTRA:          -5.649
REMARK INTER:                  -5.463
REMARK INTRA:                  -0.186
REMARK UNBOUND:                -0.135
REMARK SMILES CC1=CC[C@@](O)(C(C)C)CC1
REMARK SMILES IDX 1 1 2 2 3 3 4 4 5 5 10 6 11 7 7 8 8 9 9 10 6 11
REMARK H PARENT 6 12
REMARK Flexibility Score: inf
ROOT
ATOM      1  C   UNL     1      -3.599  26.367  53.532  1.00  0.00     0.039 C 
ATOM      2  C   UNL     1      -3.797  25.872  52.126  1.00  0.00    -0.077 C 
ATOM      3  C   UNL     1      -4.175  26.723  51.161  1.00  0.00    -0.025 C 
ATOM      4  C   UNL     1      -4.470  26.199  49.783  1.00  0.00     0.062 C 
ATOM      5  C   UNL     1      -5.345  24.921  49.881  1.00  0.00     0.071 C 
ATOM      6  C   UNL     1      -4.608  23.861  50.787  1.00  0.00     0.040 C 
ATOM      7  C   UNL     1      -3.553  24.427  51.768  1.00  0.00     0.033 C 
ENDROOT
BRANCH   5   8
ATOM      8  C   UNL     1      -5.616  24.332  48.445  1.00  0.00     0.015 C 
ATOM      9  C   UNL     1      -4.950  25.153  47.320  1.00  0.00     0.010 C 
ATOM     10  C   UNL     1      -5.180  22.860  48.306  1.00  0.00     0.010 C 
ENDBRANCH   5   8
BRANCH   5  11
ATOM     11  O   UNL     1      -6.565  25.306  50.481  1.00  0.00    -0.389 OA
ATOM     12  H   UNL     1      -7.025  25.954  49.888  1.00  0.00     0.211 HD
ENDBRANCH   5  11
TORSDOF 2
ENDMDL
MODEL 4
REMARK VINA RESULT:    -5.053      1.549      4.557
REMARK INTER + INTRA:          -5.631
REMARK INTER:                  -5.480
REMARK INTRA:                  -0.150
REMARK UNBOUND:                -0.135
REMARK SMILES CC1=CC[C@@](O)(C(C)C)CC1
REMARK SMILES IDX 1 1 2 2 3 3 4 4 5 5 10 6 11 7 7 8 8 9 9 10 6 11
REMARK H PARENT 6 12
REMARK Flexibility Score: inf
ROOT
ATOM      1  C   UNL     1      -1.480  16.246  46.992  1.00  0.00     0.039 C 
ATOM      2  C   UNL     1      -1.917  17.546  47.609  1.00  0.00    -0.077 C 
ATOM      3  C   UNL     1      -2.722  17.543  48.681  1.00  0.00    -0.025 C 
ATOM      4  C   UNL     1      -3.237  18.846  49.227  1.00  0.00     0.062 C 
ATOM      5  C   UNL     1      -3.732  19.746  48.064  1.00  0.00     0.071 C 
ATOM      6  C   UNL     1      -2.557  19.944  47.030  1.00  0.00     0.040 C 
ATOM      7  C   UNL     1      -1.444  18.867  47.056  1.00  0.00     0.033 C 
ENDROOT
BRANCH   5   8
ATOM      8  C   UNL     1      -4.223  21.136  48.619  1.00  0.00     0.015 C 
ATOM      9  C   UNL     1      -3.065  22.115  48.906  1.00  0.00     0.010 C 
ATOM     10  C   UNL     1      -5.239  21.830  47.691  1.00  0.00     0.010 C 
ENDBRANCH   5   8
BRANCH   5  11
ATOM     11  O   UNL     1      -4.807  19.065  47.450  1.00  0.00    -0.389 OA
ATOM     12  H   UNL     1      -4.798  19.262  46.478  1.00  0.00     0.211 HD
ENDBRANCH   5  11
TORSDOF 2
ENDMDL
MODEL 5
REMARK VINA RESULT:    -5.026      1.141      4.301
REMARK INTER + INTRA:          -5.601
REMARK INTER:                  -5.484
REMARK INTRA:                  -0.118
REMARK UNBOUND:                -0.135
REMARK SMILES CC1=CC[C@@](O)(C(C)C)CC1
REMARK SMILES IDX 1 1 2 2 3 3 4 4 5 5 10 6 11 7 7 8 8 9 9 10 6 11
REMARK H PARENT 6 12
REMARK Flexibility Score: inf
ROOT
ATOM      1  C   UNL     1      -1.373  16.275  44.380  1.00  0.00     0.039 C 
ATOM      2  C   UNL     1      -1.949  17.001  45.565  1.00  0.00    -0.077 C 
ATOM      3  C   UNL     1      -3.276  17.023  45.758  1.00  0.00    -0.025 C 
ATOM      4  C   UNL     1      -3.848  17.837  46.886  1.00  0.00     0.062 C 
ATOM      5  C   UNL     1      -3.178  19.235  46.920  1.00  0.00     0.071 C 
ATOM      6  C   UNL     1      -1.615  19.055  47.036  1.00  0.00     0.040 C 
ATOM      7  C   UNL     1      -1.055  17.690  46.566  1.00  0.00     0.033 C 
ENDROOT
BRANCH   5   8
ATOM      8  C   UNL     1      -3.731  20.078  48.131  1.00  0.00     0.015 C 
ATOM      9  C   UNL     1      -2.623  20.826  48.902  1.00  0.00     0.010 C 
ATOM     10  C   UNL     1      -4.814  21.092  47.715  1.00  0.00     0.010 C 
ENDBRANCH   5   8
BRANCH   5  11
ATOM     11  O   UNL     1      -3.502  19.874  45.702  1.00  0.00    -0.389 OA
ATOM     12  H   UNL     1      -4.484  19.831  45.568  1.00  0.00     0.211 HD
ENDBRANCH   5  11
TORSDOF 2
ENDMDL
MODEL 6
REMARK VINA RESULT:    -5.010      1.829      4.504
REMARK INTER + INTRA:          -5.585
REMARK INTER:                  -5.423
REMARK INTRA:                  -0.162
REMARK UNBOUND:                -0.135
REMARK SMILES CC1=CC[C@@](O)(C(C)C)CC1
REMARK SMILES IDX 1 1 2 2 3 3 4 4 5 5 10 6 11 7 7 8 8 9 9 10 6 11
REMARK H PARENT 6 12
REMARK Flexibility Score: inf
ROOT
ATOM      1  C   UNL     1      -1.475  16.702  47.003  1.00  0.00     0.039 C 
ATOM      2  C   UNL     1      -2.329  17.936  47.108  1.00  0.00    -0.077 C 
ATOM      3  C   UNL     1      -1.774  19.149  46.979  1.00  0.00    -0.025 C 
ATOM      4  C   UNL     1      -2.616  20.377  47.189  1.00  0.00     0.062 C 
ATOM      5  C   UNL     1      -3.485  20.208  48.463  1.00  0.00     0.071 C 
ATOM      6  C   UNL     1      -4.350  18.896  48.327  1.00  0.00     0.040 C 
ATOM      7  C   UNL     1      -3.817  17.834  47.333  1.00  0.00     0.033 C 
ENDROOT
BRANCH   5   8
ATOM      8  C   UNL     1      -4.413  21.466  48.663  1.00  0.00     0.015 C 
ATOM      9  C   UNL     1      -3.654  22.696  49.204  1.00  0.00     0.010 C 
ATOM     10  C   UNL     1      -5.161  21.873  47.379  1.00  0.00     0.010 C 
ENDBRANCH   5   8
BRANCH   5  11
ATOM     11  O   UNL     1      -2.595  20.089  49.554  1.00  0.00    -0.389 OA
ATOM     12  H   UNL     1      -3.088  20.275  50.394  1.00  0.00     0.211 HD
ENDBRANCH   5  11
TORSDOF 2
ENDMDL
MODEL 7
REMARK VINA RESULT:    -4.880      1.613      4.617
REMARK INTER + INTRA:          -5.442
REMARK INTER:                  -5.294
REMARK INTRA:                  -0.148
REMARK UNBOUND:                -0.135
REMARK SMILES CC1=CC[C@@](O)(C(C)C)CC1
REMARK SMILES IDX 1 1 2 2 3 3 4 4 5 5 10 6 11 7 7 8 8 9 9 10 6 11
REMARK H PARENT 6 12
REMARK Flexibility Score: inf
ROOT
ATOM      1  C   UNL     1      -2.957  17.161  45.489  1.00  0.00     0.039 C 
ATOM      2  C   UNL     1      -2.964  18.235  46.543  1.00  0.00    -0.077 C 
ATOM      3  C   UNL     1      -3.676  18.068  47.666  1.00  0.00    -0.025 C 
ATOM      4  C   UNL     1      -3.759  19.189  48.665  1.00  0.00     0.062 C 
ATOM      5  C   UNL     1      -4.033  20.529  47.932  1.00  0.00     0.071 C 
ATOM      6  C   UNL     1      -2.909  20.764  46.851  1.00  0.00     0.040 C 
ATOM      7  C   UNL     1      -2.158  19.498  46.371  1.00  0.00     0.033 C 
ENDROOT
BRANCH   5   8
ATOM      8  C   UNL     1      -4.069  21.719  48.964  1.00  0.00     0.015 C 
ATOM      9  C   UNL     1      -2.666  22.265  49.305  1.00  0.00     0.010 C 
ATOM     10  C   UNL     1      -4.955  22.891  48.501  1.00  0.00     0.010 C 
ENDBRANCH   5   8
BRANCH   5  11
ATOM     11  O   UNL     1      -5.291  20.400  47.302  1.00  0.00    -0.389 OA
ATOM     12  H   UNL     1      -5.899  19.893  47.900  1.00  0.00     0.211 HD
ENDBRANCH   5  11
TORSDOF 2
ENDMDL
MODEL 8
REMARK VINA RESULT:    -4.752      1.997      2.699
REMARK INTER + INTRA:          -5.304
REMARK INTER:                  -5.141
REMARK INTRA:                  -0.162
REMARK UNBOUND:                -0.135
REMARK SMILES CC1=CC[C@@](O)(C(C)C)CC1
REMARK SMILES IDX 1 1 2 2 3 3 4 4 5 5 10 6 11 7 7 8 8 9 9 10 6 11
REMARK H PARENT 6 12
REMARK Flexibility Score: inf
ROOT
ATOM      1  C   UNL     1      -4.652  22.026  47.846  1.00  0.00     0.039 C 
ATOM      2  C   UNL     1      -4.047  20.655  47.708  1.00  0.00    -0.077 C 
ATOM      3  C   UNL     1      -4.745  19.573  48.080  1.00  0.00    -0.025 C 
ATOM      4  C   UNL     1      -4.093  18.218  48.035  1.00  0.00     0.062 C 
ATOM      5  C   UNL     1      -2.670  18.298  48.647  1.00  0.00     0.071 C 
ATOM      6  C   UNL     1      -1.839  19.395  47.876  1.00  0.00     0.040 C 
ATOM      7  C   UNL     1      -2.667  20.470  47.129  1.00  0.00     0.033 C 
ENDROOT
BRANCH   5   8
ATOM      8  C   UNL     1      -1.956  16.896  48.555  1.00  0.00     0.015 C 
ATOM      9  C   UNL     1      -2.497  15.875  49.579  1.00  0.00     0.010 C 
ATOM     10  C   UNL     1      -2.033  16.272  47.148  1.00  0.00     0.010 C 
ENDBRANCH   5   8
BRANCH   5  11
ATOM     11  O   UNL     1      -2.825  18.671  50.000  1.00  0.00    -0.389 OA
ATOM     12  H   UNL     1      -2.883  19.660  50.056  1.00  0.00     0.211 HD
ENDBRANCH   5  11
TORSDOF 2
ENDMDL
MODEL 9
REMARK VINA RESULT:    -4.650      3.064      6.184
REMARK INTER + INTRA:          -5.192
REMARK INTER:                  -5.007
REMARK INTRA:                  -0.185
REMARK UNBOUND:                -0.135
REMARK SMILES CC1=CC[C@@](O)(C(C)C)CC1
REMARK SMILES IDX 1 1 2 2 3 3 4 4 5 5 10 6 11 7 7 8 8 9 9 10 6 11
REMARK H PARENT 6 12
REMARK Flexibility Score: inf
ROOT
ATOM      1  C   UNL     1      -3.256  19.818  46.580  1.00  0.00     0.039 C 
ATOM      2  C   UNL     1      -3.822  20.809  47.560  1.00  0.00    -0.077 C 
ATOM      3  C   UNL     1      -4.896  21.540  47.230  1.00  0.00    -0.025 C 
ATOM      4  C   UNL     1      -5.391  22.600  48.174  1.00  0.00     0.062 C 
ATOM      5  C   UNL     1      -4.195  23.433  48.705  1.00  0.00     0.071 C 
ATOM      6  C   UNL     1      -3.150  22.463  49.379  1.00  0.00     0.040 C 
ATOM      7  C   UNL     1      -3.215  20.982  48.930  1.00  0.00     0.033 C 
ENDROOT
BRANCH   5   8
ATOM      8  C   UNL     1      -4.696  24.513  49.738  1.00  0.00     0.015 C 
ATOM      9  C   UNL     1      -6.178  24.897  49.539  1.00  0.00     0.010 C 
ATOM     10  C   UNL     1      -4.489  24.085  51.204  1.00  0.00     0.010 C 
ENDBRANCH   5   8
BRANCH   5  11
ATOM     11  O   UNL     1      -3.612  24.071  47.587  1.00  0.00    -0.389 OA
ATOM     12  H   UNL     1      -2.989  24.774  47.907  1.00  0.00     0.211 HD
ENDBRANCH   5  11
TORSDOF 2
ENDMDL
