MODEL 1
REMARK VINA RESULT:    -3.858      0.000      0.000
REMARK INTER + INTRA:          -4.930
REMARK INTER:                  -4.872
REMARK INTRA:                  -0.058
REMARK UNBOUND:                -0.058
REMARK SMILES CCCCCCO
REMARK SMILES IDX 4 1 3 2 2 3 1 4 5 5 6 6 7 7
REMARK H PARENT 7 8
REMARK Flexibility Score: inf
ROOT
ATOM      1  C   UNL     1       6.748   3.775  -1.924  1.00  0.00     0.002 C 
ENDROOT
BRANCH   1   2
ATOM      2  C   UNL     1       6.643   4.585  -3.227  1.00  0.00    -0.000 C 
BRANCH   2   3
ATOM      3  C   UNL     1       7.349   5.947  -3.131  1.00  0.00    -0.003 C 
ATOM      4  C   UNL     1       7.823   6.467  -4.488  1.00  0.00     0.004 C 
ENDBRANCH   2   3
ENDBRANCH   1   2
BRANCH   1   5
ATOM      5  C   UNL     1       6.282   4.572  -0.696  1.00  0.00     0.028 C 
BRANCH   5   6
ATOM      6  C   UNL     1       6.476   3.808   0.620  1.00  0.00     0.156 C 
BRANCH   6   7
ATOM      7  O   UNL     1       6.821   4.696   1.647  1.00  0.00    -0.396 OA
ATOM      8  H   UNL     1       7.705   4.403   1.992  1.00  0.00     0.210 HD
ENDBRANCH   6   7
ENDBRANCH   5   6
ENDBRANCH   1   5
TORSDOF 5
ENDMDL
MODEL 2
REMARK VINA RESULT:    -3.765      1.515      1.866
REMARK INTER + INTRA:          -4.814
REMARK INTER:                  -4.695
REMARK INTRA:                  -0.119
REMARK UNBOUND:                -0.058
REMARK SMILES CCCCCCO
REMARK SMILES IDX 4 1 3 2 2 3 1 4 5 5 6 6 7 7
REMARK H PARENT 7 8
REMARK Flexibility Score: inf
ROOT
ATOM      1  C   UNL     1       6.889   4.330  -1.636  1.00  0.00     0.002 C 
ENDROOT
BRANCH   1   2
ATOM      2  C   UNL     1       6.978   5.806  -2.060  1.00  0.00    -0.000 C 
BRANCH   2   3
ATOM      3  C   UNL     1       6.456   6.762  -0.975  1.00  0.00    -0.003 C 
ATOM      4  C   UNL     1       6.457   8.223  -1.422  1.00  0.00     0.004 C 
ENDBRANCH   2   3
ENDBRANCH   1   2
BRANCH   1   5
ATOM      5  C   UNL     1       5.889   4.106  -0.491  1.00  0.00     0.028 C 
BRANCH   5   6
ATOM      6  C   UNL     1       6.545   3.525   0.768  1.00  0.00     0.156 C 
BRANCH   6   7
ATOM      7  O   UNL     1       6.868   4.555   1.662  1.00  0.00    -0.396 OA
ATOM      8  H   UNL     1       7.590   4.206   2.248  1.00  0.00     0.210 HD
ENDBRANCH   6   7
ENDBRANCH   5   6
ENDBRANCH   1   5
TORSDOF 5
ENDMDL
MODEL 3
REMARK VINA RESULT:    -3.732      0.857      1.106
REMARK INTER + INTRA:          -4.772
REMARK INTER:                  -4.715
REMARK INTRA:                  -0.057
REMARK UNBOUND:                -0.058
REMARK SMILES CCCCCCO
REMARK SMILES IDX 4 1 3 2 2 3 1 4 5 5 6 6 7 7
REMARK H PARENT 7 8
REMARK Flexibility Score: inf
ROOT
ATOM      1  C   UNL     1       6.630   4.456  -2.454  1.00  0.00     0.002 C 
ENDROOT
BRANCH   1   2
ATOM      2  C   UNL     1       7.180   5.878  -2.660  1.00  0.00    -0.000 C 
BRANCH   2   3
ATOM      3  C   UNL     1       7.499   6.177  -4.134  1.00  0.00    -0.003 C 
ATOM      4  C   UNL     1       8.838   6.890  -4.318  1.00  0.00     0.004 C 
ENDBRANCH   2   3
ENDBRANCH   1   2
BRANCH   1   5
ATOM      5  C   UNL     1       6.571   4.057  -0.971  1.00  0.00     0.028 C 
BRANCH   5   6
ATOM      6  C   UNL     1       6.790   5.245  -0.026  1.00  0.00     0.156 C 
BRANCH   6   7
ATOM      7  O   UNL     1       7.040   4.788   1.275  1.00  0.00    -0.396 OA
ATOM      8  H   UNL     1       6.160   4.740   1.733  1.00  0.00     0.210 HD
ENDBRANCH   6   7
ENDBRANCH   5   6
ENDBRANCH   1   5
TORSDOF 5
ENDMDL
MODEL 4
REMARK VINA RESULT:    -3.714      2.558      4.377
REMARK INTER + INTRA:          -4.749
REMARK INTER:                  -4.660
REMARK INTRA:                  -0.089
REMARK UNBOUND:                -0.058
REMARK SMILES CCCCCCO
REMARK SMILES IDX 4 1 3 2 2 3 1 4 5 5 6 6 7 7
REMARK H PARENT 7 8
REMARK Flexibility Score: inf
ROOT
ATOM      1  C   UNL     1       6.579   4.196  -1.880  1.00  0.00     0.002 C 
ENDROOT
BRANCH   1   2
ATOM      2  C   UNL     1       6.520   5.315  -0.825  1.00  0.00    -0.000 C 
BRANCH   2   3
ATOM      3  C   UNL     1       6.897   4.819   0.580  1.00  0.00    -0.003 C 
ATOM      4  C   UNL     1       6.369   3.416   0.876  1.00  0.00     0.004 C 
ENDBRANCH   2   3
ENDBRANCH   1   2
BRANCH   1   5
ATOM      5  C   UNL     1       6.713   4.742  -3.310  1.00  0.00     0.028 C 
BRANCH   5   6
ATOM      6  C   UNL     1       7.455   6.082  -3.369  1.00  0.00     0.156 C 
BRANCH   6   7
ATOM      7  O   UNL     1       7.185   6.731  -4.581  1.00  0.00    -0.396 OA
ATOM      8  H   UNL     1       6.244   6.515  -4.815  1.00  0.00     0.210 HD
ENDBRANCH   6   7
ENDBRANCH   5   6
ENDBRANCH   1   5
TORSDOF 5
ENDMDL
MODEL 5
REMARK VINA RESULT:    -3.594      2.400      4.303
REMARK INTER + INTRA:          -4.597
REMARK INTER:                  -4.519
REMARK INTRA:                  -0.078
REMARK UNBOUND:                -0.058
REMARK SMILES CCCCCCO
REMARK SMILES IDX 4 1 3 2 2 3 1 4 5 5 6 6 7 7
REMARK H PARENT 7 8
REMARK Flexibility Score: inf
ROOT
ATOM      1  C   UNL     1       6.662   4.655  -3.081  1.00  0.00     0.002 C 
ENDROOT
BRANCH   1   2
ATOM      2  C   UNL     1       6.660   3.820  -1.788  1.00  0.00    -0.000 C 
BRANCH   2   3
ATOM      3  C   UNL     1       6.547   4.692  -0.526  1.00  0.00    -0.003 C 
ATOM      4  C   UNL     1       6.538   3.871   0.763  1.00  0.00     0.004 C 
ENDBRANCH   2   3
ENDBRANCH   1   2
BRANCH   1   5
ATOM      5  C   UNL     1       7.240   6.063  -2.871  1.00  0.00     0.028 C 
BRANCH   5   6
ATOM      6  C   UNL     1       8.031   6.568  -4.084  1.00  0.00     0.156 C 
BRANCH   6   7
ATOM      7  O   UNL     1       9.338   6.901  -3.702  1.00  0.00    -0.396 OA
ATOM      8  H   UNL     1       9.854   6.052  -3.684  1.00  0.00     0.210 HD
ENDBRANCH   6   7
ENDBRANCH   5   6
ENDBRANCH   1   5
TORSDOF 5
ENDMDL
MODEL 6
REMARK VINA RESULT:    -3.523      2.675      4.338
REMARK INTER + INTRA:          -4.508
REMARK INTER:                  -4.400
REMARK INTRA:                  -0.108
REMARK UNBOUND:                -0.058
REMARK SMILES CCCCCCO
REMARK SMILES IDX 4 1 3 2 2 3 1 4 5 5 6 6 7 7
REMARK H PARENT 7 8
REMARK Flexibility Score: inf
ROOT
ATOM      1  C   UNL     1       6.594   6.559  -0.595  1.00  0.00     0.002 C 
ENDROOT
BRANCH   1   2
ATOM      2  C   UNL     1       6.598   5.275  -1.443  1.00  0.00    -0.000 C 
BRANCH   2   3
ATOM      3  C   UNL     1       6.502   4.003  -0.585  1.00  0.00    -0.003 C 
ATOM      4  C   UNL     1       6.782   4.263   0.895  1.00  0.00     0.004 C 
ENDBRANCH   2   3
ENDBRANCH   1   2
BRANCH   1   5
ATOM      5  C   UNL     1       6.629   7.833  -1.454  1.00  0.00     0.028 C 
BRANCH   5   6
ATOM      6  C   UNL     1       7.281   7.608  -2.824  1.00  0.00     0.156 C 
BRANCH   6   7
ATOM      7  O   UNL     1       8.607   8.063  -2.808  1.00  0.00    -0.396 OA
ATOM      8  H   UNL     1       8.773   8.421  -1.897  1.00  0.00     0.210 HD
ENDBRANCH   6   7
ENDBRANCH   5   6
ENDBRANCH   1   5
TORSDOF 5
ENDMDL
MODEL 7
REMARK VINA RESULT:    -3.390      4.863      6.507
REMARK INTER + INTRA:          -4.339
REMARK INTER:                  -4.251
REMARK INTRA:                  -0.088
REMARK UNBOUND:                -0.058
REMARK SMILES CCCCCCO
REMARK SMILES IDX 4 1 3 2 2 3 1 4 5 5 6 6 7 7
REMARK H PARENT 7 8
REMARK Flexibility Score: inf
ROOT
ATOM      1  C   UNL     1       8.884   5.792  -6.613  1.00  0.00     0.002 C 
ENDROOT
BRANCH   1   2
ATOM      2  C   UNL     1      10.025   6.595  -5.965  1.00  0.00    -0.000 C 
BRANCH   2   3
ATOM      3  C   UNL     1       9.684   7.055  -4.538  1.00  0.00    -0.003 C 
ATOM      4  C   UNL     1       8.239   6.750  -4.146  1.00  0.00     0.004 C 
ENDBRANCH   2   3
ENDBRANCH   1   2
BRANCH   1   5
ATOM      5  C   UNL     1       9.194   5.397  -8.066  1.00  0.00     0.028 C 
BRANCH   5   6
ATOM      6  C   UNL     1       8.735   3.974  -8.406  1.00  0.00     0.156 C 
BRANCH   6   7
ATOM      7  O   UNL     1       8.479   3.255  -7.230  1.00  0.00    -0.396 OA
ATOM      8  H   UNL     1       9.156   2.531  -7.186  1.00  0.00     0.210 HD
ENDBRANCH   6   7
ENDBRANCH   5   6
ENDBRANCH   1   5
TORSDOF 5
ENDMDL
MODEL 8
REMARK VINA RESULT:    -3.277      7.375      8.894
REMARK INTER + INTRA:          -4.197
REMARK INTER:                  -4.144
REMARK INTRA:                  -0.053
REMARK UNBOUND:                -0.058
REMARK SMILES CCCCCCO
REMARK SMILES IDX 4 1 3 2 2 3 1 4 5 5 6 6 7 7
REMARK H PARENT 7 8
REMARK Flexibility Score: inf
ROOT
ATOM      1  C   UNL     1       9.028   2.414  -9.282  1.00  0.00     0.002 C 
ENDROOT
BRANCH   1   2
ATOM      2  C   UNL     1       8.868   3.907  -8.942  1.00  0.00    -0.000 C 
BRANCH   2   3
ATOM      3  C   UNL     1       8.848   4.166  -7.427  1.00  0.00    -0.003 C 
ATOM      4  C   UNL     1       9.059   5.638  -7.075  1.00  0.00     0.004 C 
ENDBRANCH   2   3
ENDBRANCH   1   2
BRANCH   1   5
ATOM      5  C   UNL     1       9.704   2.190 -10.643  1.00  0.00     0.028 C 
BRANCH   5   6
ATOM      6  C   UNL     1      10.731   1.051 -10.617  1.00  0.00     0.156 C 
BRANCH   6   7
ATOM      7  O   UNL     1      10.974   0.651  -9.296  1.00  0.00    -0.396 OA
ATOM      8  H   UNL     1      10.578  -0.254  -9.196  1.00  0.00     0.210 HD
ENDBRANCH   6   7
ENDBRANCH   5   6
ENDBRANCH   1   5
TORSDOF 5
ENDMDL
MODEL 9
REMARK VINA RESULT:    -3.225      7.863      9.042
REMARK INTER + INTRA:          -4.132
REMARK INTER:                  -4.042
REMARK INTRA:                  -0.090
REMARK UNBOUND:                -0.058
REMARK SMILES CCCCCCO
REMARK SMILES IDX 4 1 3 2 2 3 1 4 5 5 6 6 7 7
REMARK H PARENT 7 8
REMARK Flexibility Score: inf
ROOT
ATOM      1  C   UNL     1       9.927   1.527 -10.112  1.00  0.00     0.002 C 
ENDROOT
BRANCH   1   2
ATOM      2  C   UNL     1       9.347   2.926  -9.843  1.00  0.00    -0.000 C 
BRANCH   2   3
ATOM      3  C   UNL     1       8.436   2.957  -8.605  1.00  0.00    -0.003 C 
ATOM      4  C   UNL     1       8.869   3.999  -7.575  1.00  0.00     0.004 C 
ENDBRANCH   2   3
ENDBRANCH   1   2
BRANCH   1   5
ATOM      5  C   UNL     1       8.936   0.403  -9.768  1.00  0.00     0.028 C 
BRANCH   5   6
ATOM      6  C   UNL     1       9.631  -0.931  -9.465  1.00  0.00     0.156 C 
BRANCH   6   7
ATOM      7  O   UNL     1       9.373  -1.320  -8.144  1.00  0.00    -0.396 OA
ATOM      8  H   UNL     1       9.707  -2.250  -8.051  1.00  0.00     0.210 HD
ENDBRANCH   6   7
ENDBRANCH   5   6
ENDBRANCH   1   5
TORSDOF 5
ENDMDL
