MODEL 1
REMARK VINA RESULT:    -6.132      0.000      0.000
REMARK INTER + INTRA:          -9.911
REMARK INTER:                  -8.820
REMARK INTRA:                  -1.091
REMARK UNBOUND:                -1.091
REMARK SMILES O=c1cc(-c2ccc(O)c(O)c2)oc2cc(O[C@@H]3O[C@H](CO)[C@@H](O)[C@H](O)[C@@H]3O)cc(O)c12
REMARK SMILES IDX 17 1 16 2 4 3 3 4 13 5 2 6 14 7 1 8 32 9 15 10 30 11 29 12
REMARK SMILES IDX 5 13 6 14 7 15 8 16 12 17 10 18 9 19 11 21 31 23 18 25 27 26
REMARK SMILES IDX 19 27 25 28 20 29 23 30 28 31 26 33 21 35 22 36 24 38
REMARK H PARENT 9 20 11 22 31 24 28 32 26 34 22 37 24 39
REMARK Flexibility Score: inf
ROOT
ATOM      1  O   UNL     1      -8.364 -23.763 -22.527  1.00  0.00    -0.462 OA
ENDROOT
BRANCH   1   2
ATOM      2  C   UNL     1      -7.772 -23.505 -21.279  1.00  0.00     0.130 A 
ATOM      3  C   UNL     1      -7.719 -20.652 -17.457  1.00  0.00     0.138 A 
ATOM      4  C   UNL     1      -6.696 -21.392 -16.839  1.00  0.00     0.100 A 
ATOM      5  O   UNL     1      -8.175 -21.033 -18.648  1.00  0.00    -0.456 OA
ATOM      6  C   UNL     1      -6.167 -22.506 -17.491  1.00  0.00     0.197 A 
ATOM      7  C   UNL     1      -7.702 -22.087 -19.307  1.00  0.00     0.146 A 
ATOM      8  O   UNL     1      -5.250 -23.165 -16.928  1.00  0.00    -0.289 OA
ATOM      9  C   UNL     1      -6.666 -22.875 -18.756  1.00  0.00     0.107 A 
ATOM     10  C   UNL     1      -8.242 -22.408 -20.554  1.00  0.00     0.094 A 
ATOM     11  C   UNL     1      -6.187 -23.988 -19.484  1.00  0.00     0.134 A 
ATOM     12  C   UNL     1      -6.739 -24.293 -20.736  1.00  0.00     0.093 A 
BRANCH   3  13
ATOM     13  C   UNL     1      -8.322 -19.459 -16.811  1.00  0.00     0.021 A 
ATOM     14  C   UNL     1      -8.770 -19.545 -15.482  1.00  0.00     0.016 A 
ATOM     15  C   UNL     1      -9.347 -18.440 -14.853  1.00  0.00     0.051 A 
ATOM     16  C   UNL     1      -9.498 -17.232 -15.542  1.00  0.00     0.157 A 
ATOM     17  C   UNL     1      -8.488 -18.244 -17.506  1.00  0.00     0.062 A 
ATOM     18  C   UNL     1      -9.069 -17.135 -16.876  1.00  0.00     0.158 A 
BRANCH  16  19
ATOM     19  O   UNL     1     -10.077 -16.146 -14.888  1.00  0.00    -0.504 OA
ATOM     20  H   UNL     1     -10.133 -15.229 -15.314  1.00  0.00     0.293 HD
ENDBRANCH  16  19
BRANCH  18  21
ATOM     21  O   UNL     1      -9.227 -15.937 -17.573  1.00  0.00    -0.504 OA
ATOM     22  H   UNL     1      -9.631 -15.912 -18.501  1.00  0.00     0.293 HD
ENDBRANCH  18  21
ENDBRANCH   3  13
BRANCH  11  23
ATOM     23  O   UNL     1      -5.167 -24.792 -18.972  1.00  0.00    -0.507 OA
ATOM     24  H   UNL     1      -5.270 -25.290 -18.095  1.00  0.00     0.293 HD
ENDBRANCH  11  23
ENDBRANCH   1   2
BRANCH   1  25
ATOM     25  C   UNL     1      -8.969 -24.986 -22.961  1.00  0.00     0.339 C 
ATOM     26  C   UNL     1     -10.496 -24.858 -23.158  1.00  0.00     0.214 C 
ATOM     27  O   UNL     1      -8.331 -25.456 -24.141  1.00  0.00    -0.332 OA
ATOM     28  C   UNL     1     -10.837 -23.942 -24.348  1.00  0.00     0.180 C 
ATOM     29  C   UNL     1      -8.565 -24.655 -25.297  1.00  0.00     0.179 C 
ATOM     30  C   UNL     1     -10.068 -24.414 -25.594  1.00  0.00     0.177 C 
BRANCH  26  31
ATOM     31  O   UNL     1     -11.155 -24.462 -21.981  1.00  0.00    -0.384 OA
ATOM     32  H   UNL     1     -11.330 -23.488 -22.034  1.00  0.00     0.211 HD
ENDBRANCH  26  31
BRANCH  28  33
ATOM     33  O   UNL     1     -10.511 -22.602 -24.069  1.00  0.00    -0.387 OA
ATOM     34  H   UNL     1      -9.769 -22.344 -24.676  1.00  0.00     0.211 HD
ENDBRANCH  28  33
BRANCH  29  35
ATOM     35  C   UNL     1      -7.710 -23.372 -25.327  1.00  0.00     0.191 C 
BRANCH  35  36
ATOM     36  O   UNL     1      -8.272 -22.448 -26.218  1.00  0.00    -0.394 OA
ATOM     37  H   UNL     1      -7.722 -22.489 -27.042  1.00  0.00     0.210 HD
ENDBRANCH  35  36
ENDBRANCH  29  35
BRANCH  30  38
ATOM     38  O   UNL     1     -10.630 -25.612 -26.067  1.00  0.00    -0.387 OA
ATOM     39  H   UNL     1     -11.452 -25.778 -25.535  1.00  0.00     0.211 HD
ENDBRANCH  30  38
ENDBRANCH   1  25
TORSDOF 11
ENDMDL
MODEL 2
REMARK VINA RESULT:    -6.105      0.763      2.092
REMARK INTER + INTRA:          -9.873
REMARK INTER:                  -8.741
REMARK INTRA:                  -1.132
REMARK UNBOUND:                -1.091
REMARK SMILES O=c1cc(-c2ccc(O)c(O)c2)oc2cc(O[C@@H]3O[C@H](CO)[C@@H](O)[C@H](O)[C@@H]3O)cc(O)c12
REMARK SMILES IDX 17 1 16 2 4 3 3 4 13 5 2 6 14 7 1 8 32 9 15 10 30 11 29 12
REMARK SMILES IDX 5 13 6 14 7 15 8 16 12 17 10 18 9 19 11 21 31 23 18 25 27 26
REMARK SMILES IDX 19 27 25 28 20 29 23 30 28 31 26 33 21 35 22 36 24 38
REMARK H PARENT 9 20 11 22 31 24 28 32 26 34 22 37 24 39
REMARK Flexibility Score: inf
ROOT
ATOM      1  O   UNL     1      -8.316 -24.018 -22.156  1.00  0.00    -0.462 OA
ENDROOT
BRANCH   1   2
ATOM      2  C   UNL     1      -7.668 -23.635 -20.969  1.00  0.00     0.130 A 
ATOM      3  C   UNL     1      -7.604 -20.551 -17.331  1.00  0.00     0.138 A 
ATOM      4  C   UNL     1      -6.485 -21.167 -16.745  1.00  0.00     0.100 A 
ATOM      5  O   UNL     1      -8.103 -21.042 -18.463  1.00  0.00    -0.456 OA
ATOM      6  C   UNL     1      -5.908 -22.274 -17.367  1.00  0.00     0.197 A 
ATOM      7  C   UNL     1      -7.588 -22.095 -19.092  1.00  0.00     0.146 A 
ATOM      8  O   UNL     1      -4.905 -22.822 -16.833  1.00  0.00    -0.289 OA
ATOM      9  C   UNL     1      -6.456 -22.761 -18.570  1.00  0.00     0.107 A 
ATOM     10  C   UNL     1      -8.180 -22.535 -20.278  1.00  0.00     0.094 A 
ATOM     11  C   UNL     1      -5.934 -23.876 -19.265  1.00  0.00     0.134 A 
ATOM     12  C   UNL     1      -6.540 -24.303 -20.456  1.00  0.00     0.093 A 
BRANCH   3  13
ATOM     13  C   UNL     1      -8.261 -19.371 -16.714  1.00  0.00     0.021 A 
ATOM     14  C   UNL     1      -8.743 -19.458 -15.397  1.00  0.00     0.016 A 
ATOM     15  C   UNL     1      -9.371 -18.365 -14.796  1.00  0.00     0.051 A 
ATOM     16  C   UNL     1      -9.540 -17.170 -15.501  1.00  0.00     0.157 A 
ATOM     17  C   UNL     1      -8.445 -18.169 -17.426  1.00  0.00     0.062 A 
ATOM     18  C   UNL     1      -9.078 -17.072 -16.824  1.00  0.00     0.158 A 
BRANCH  16  19
ATOM     19  O   UNL     1     -10.170 -16.096 -14.875  1.00  0.00    -0.504 OA
ATOM     20  H   UNL     1      -9.840 -15.717 -13.996  1.00  0.00     0.293 HD
ENDBRANCH  16  19
BRANCH  18  21
ATOM     21  O   UNL     1      -9.254 -15.887 -17.538  1.00  0.00    -0.504 OA
ATOM     22  H   UNL     1      -9.123 -14.981 -17.103  1.00  0.00     0.293 HD
ENDBRANCH  18  21
ENDBRANCH   3  13
BRANCH  11  23
ATOM     23  O   UNL     1      -4.820 -24.562 -18.780  1.00  0.00    -0.507 OA
ATOM     24  H   UNL     1      -4.429 -24.367 -17.865  1.00  0.00     0.293 HD
ENDBRANCH  11  23
ENDBRANCH   1   2
BRANCH   1  25
ATOM     25  C   UNL     1      -8.394 -23.274 -23.377  1.00  0.00     0.339 C 
ATOM     26  C   UNL     1      -7.570 -23.914 -24.518  1.00  0.00     0.214 C 
ATOM     27  O   UNL     1      -9.752 -23.093 -23.756  1.00  0.00    -0.332 OA
ATOM     28  C   UNL     1      -8.179 -25.254 -24.969  1.00  0.00     0.180 C 
ATOM     29  C   UNL     1     -10.413 -24.288 -24.165  1.00  0.00     0.179 C 
ATOM     30  C   UNL     1      -9.671 -25.057 -25.289  1.00  0.00     0.177 C 
BRANCH  26  31
ATOM     31  O   UNL     1      -6.209 -24.037 -24.189  1.00  0.00    -0.384 OA
ATOM     32  H   UNL     1      -6.136 -24.212 -23.217  1.00  0.00     0.211 HD
ENDBRANCH  26  31
BRANCH  28  33
ATOM     33  O   UNL     1      -8.033 -26.240 -23.976  1.00  0.00    -0.387 OA
ATOM     34  H   UNL     1      -8.515 -25.922 -23.169  1.00  0.00     0.211 HD
ENDBRANCH  28  33
BRANCH  29  35
ATOM     35  C   UNL     1     -10.845 -25.177 -22.982  1.00  0.00     0.191 C 
BRANCH  35  36
ATOM     36  O   UNL     1     -11.263 -24.374 -21.913  1.00  0.00    -0.394 OA
ATOM     37  H   UNL     1     -11.234 -23.438 -22.242  1.00  0.00     0.210 HD
ENDBRANCH  35  36
ENDBRANCH  29  35
BRANCH  30  38
ATOM     38  O   UNL     1      -9.803 -24.337 -26.489  1.00  0.00    -0.387 OA
ATOM     39  H   UNL     1     -10.210 -24.952 -27.154  1.00  0.00     0.211 HD
ENDBRANCH  30  38
ENDBRANCH   1  25
TORSDOF 11
ENDMDL
MODEL 3
REMARK VINA RESULT:    -6.052      1.986      2.993
REMARK INTER + INTRA:          -9.797
REMARK INTER:                  -8.722
REMARK INTRA:                  -1.074
REMARK UNBOUND:                -1.091
REMARK SMILES O=c1cc(-c2ccc(O)c(O)c2)oc2cc(O[C@@H]3O[C@H](CO)[C@@H](O)[C@H](O)[C@@H]3O)cc(O)c12
REMARK SMILES IDX 17 1 16 2 4 3 3 4 13 5 2 6 14 7 1 8 32 9 15 10 30 11 29 12
REMARK SMILES IDX 5 13 6 14 7 15 8 16 12 17 10 18 9 19 11 21 31 23 18 25 27 26
REMARK SMILES IDX 19 27 25 28 20 29 23 30 28 31 26 33 21 35 22 36 24 38
REMARK H PARENT 9 20 11 22 31 24 28 32 26 34 22 37 24 39
REMARK Flexibility Score: inf
ROOT
ATOM      1  O   UNL     1      -8.004 -22.124 -24.542  1.00  0.00    -0.462 OA
ENDROOT
BRANCH   1   2
ATOM      2  C   UNL     1      -7.665 -22.416 -23.209  1.00  0.00     0.130 A 
ATOM      3  C   UNL     1      -7.777 -20.895 -18.690  1.00  0.00     0.138 A 
ATOM      4  C   UNL     1      -7.135 -22.051 -18.217  1.00  0.00     0.100 A 
ATOM      5  O   UNL     1      -8.031 -20.772 -19.990  1.00  0.00    -0.456 OA
ATOM      6  C   UNL     1      -6.763 -23.047 -19.121  1.00  0.00     0.197 A 
ATOM      7  C   UNL     1      -7.696 -21.693 -20.890  1.00  0.00     0.146 A 
ATOM      8  O   UNL     1      -6.189 -24.082 -18.687  1.00  0.00    -0.289 OA
ATOM      9  C   UNL     1      -7.038 -22.880 -20.493  1.00  0.00     0.107 A 
ATOM     10  C   UNL     1      -8.002 -21.474 -22.234  1.00  0.00     0.094 A 
ATOM     11  C   UNL     1      -6.696 -23.837 -21.475  1.00  0.00     0.134 A 
ATOM     12  C   UNL     1      -7.009 -23.599 -22.821  1.00  0.00     0.093 A 
BRANCH   3  13
ATOM     13  C   UNL     1      -8.198 -19.803 -17.775  1.00  0.00     0.021 A 
ATOM     14  C   UNL     1      -8.197 -18.476 -18.237  1.00  0.00     0.016 A 
ATOM     15  C   UNL     1      -8.581 -17.430 -17.396  1.00  0.00     0.051 A 
ATOM     16  C   UNL     1      -8.962 -17.687 -16.076  1.00  0.00     0.157 A 
ATOM     17  C   UNL     1      -8.569 -20.056 -16.440  1.00  0.00     0.062 A 
ATOM     18  C   UNL     1      -8.953 -19.006 -15.594  1.00  0.00     0.158 A 
BRANCH  16  19
ATOM     19  O   UNL     1      -9.341 -16.623 -15.259  1.00  0.00    -0.504 OA
ATOM     20  H   UNL     1     -10.243 -16.172 -15.347  1.00  0.00     0.293 HD
ENDBRANCH  16  19
BRANCH  18  21
ATOM     21  O   UNL     1      -9.320 -19.269 -14.274  1.00  0.00    -0.504 OA
ATOM     22  H   UNL     1      -9.682 -18.542 -13.668  1.00  0.00     0.293 HD
ENDBRANCH  18  21
ENDBRANCH   3  13
BRANCH  11  23
ATOM     23  O   UNL     1      -6.049 -25.022 -21.122  1.00  0.00    -0.507 OA
ATOM     24  H   UNL     1      -6.196 -25.463 -20.221  1.00  0.00     0.293 HD
ENDBRANCH  11  23
ENDBRANCH   1   2
BRANCH   1  25
ATOM     25  C   UNL     1      -7.773 -22.944 -25.692  1.00  0.00     0.339 C 
ATOM     26  C   UNL     1      -9.013 -23.046 -26.609  1.00  0.00     0.214 C 
ATOM     27  O   UNL     1      -6.637 -22.477 -26.407  1.00  0.00    -0.332 OA
ATOM     28  C   UNL     1      -9.327 -21.700 -27.286  1.00  0.00     0.180 C 
ATOM     29  C   UNL     1      -6.821 -21.217 -27.049  1.00  0.00     0.179 C 
ATOM     30  C   UNL     1      -8.061 -21.167 -27.978  1.00  0.00     0.177 C 
BRANCH  26  31
ATOM     31  O   UNL     1     -10.131 -23.573 -25.938  1.00  0.00    -0.384 OA
ATOM     32  H   UNL     1     -10.368 -22.961 -25.196  1.00  0.00     0.211 HD
ENDBRANCH  26  31
BRANCH  28  33
ATOM     33  O   UNL     1      -9.789 -20.755 -26.351  1.00  0.00    -0.387 OA
ATOM     34  H   UNL     1      -9.344 -19.892 -26.556  1.00  0.00     0.211 HD
ENDBRANCH  28  33
BRANCH  29  35
ATOM     35  C   UNL     1      -6.721 -20.023 -26.078  1.00  0.00     0.191 C 
BRANCH  35  36
ATOM     36  O   UNL     1      -7.397 -18.919 -26.614  1.00  0.00    -0.394 OA
ATOM     37  H   UNL     1      -7.140 -18.875 -27.571  1.00  0.00     0.210 HD
ENDBRANCH  35  36
ENDBRANCH  29  35
BRANCH  30  38
ATOM     38  O   UNL     1      -7.794 -21.936 -29.125  1.00  0.00    -0.387 OA
ATOM     39  H   UNL     1      -6.811 -21.922 -29.262  1.00  0.00     0.211 HD
ENDBRANCH  30  38
ENDBRANCH   1  25
TORSDOF 11
ENDMDL
MODEL 4
REMARK VINA RESULT:    -5.883      1.850      3.315
REMARK INTER + INTRA:          -9.554
REMARK INTER:                  -8.495
REMARK INTRA:                  -1.059
REMARK UNBOUND:                -1.091
REMARK SMILES O=c1cc(-c2ccc(O)c(O)c2)oc2cc(O[C@@H]3O[C@H](CO)[C@@H](O)[C@H](O)[C@@H]3O)cc(O)c12
REMARK SMILES IDX 17 1 16 2 4 3 3 4 13 5 2 6 14 7 1 8 32 9 15 10 30 11 29 12
REMARK SMILES IDX 5 13 6 14 7 15 8 16 12 17 10 18 9 19 11 21 31 23 18 25 27 26
REMARK SMILES IDX 19 27 25 28 20 29 23 30 28 31 26 33 21 35 22 36 24 38
REMARK H PARENT 9 20 11 22 31 24 28 32 26 34 22 37 24 39
REMARK Flexibility Score: inf
ROOT
ATOM      1  O   UNL     1      -8.356 -22.350 -24.399  1.00  0.00    -0.462 OA
ENDROOT
BRANCH   1   2
ATOM      2  C   UNL     1      -7.920 -22.570 -23.081  1.00  0.00     0.130 A 
ATOM      3  C   UNL     1      -7.815 -20.862 -18.628  1.00  0.00     0.138 A 
ATOM      4  C   UNL     1      -7.092 -21.968 -18.153  1.00  0.00     0.100 A 
ATOM      5  O   UNL     1      -8.157 -20.806 -19.913  1.00  0.00    -0.456 OA
ATOM      6  C   UNL     1      -6.733 -22.984 -19.038  1.00  0.00     0.197 A 
ATOM      7  C   UNL     1      -7.838 -21.750 -20.795  1.00  0.00     0.146 A 
ATOM      8  O   UNL     1      -6.085 -23.974 -18.602  1.00  0.00    -0.289 OA
ATOM      9  C   UNL     1      -7.101 -22.888 -20.395  1.00  0.00     0.107 A 
ATOM     10  C   UNL     1      -8.238 -21.602 -22.125  1.00  0.00     0.094 A 
ATOM     11  C   UNL     1      -6.778 -23.872 -21.357  1.00  0.00     0.134 A 
ATOM     12  C   UNL     1      -7.186 -23.706 -22.689  1.00  0.00     0.093 A 
BRANCH   3  13
ATOM     13  C   UNL     1      -8.227 -19.751 -17.733  1.00  0.00     0.021 A 
ATOM     14  C   UNL     1      -8.211 -18.432 -18.216  1.00  0.00     0.016 A 
ATOM     15  C   UNL     1      -8.587 -17.368 -17.393  1.00  0.00     0.051 A 
ATOM     16  C   UNL     1      -8.974 -17.599 -16.070  1.00  0.00     0.157 A 
ATOM     17  C   UNL     1      -8.605 -19.979 -16.395  1.00  0.00     0.062 A 
ATOM     18  C   UNL     1      -8.980 -18.911 -15.567  1.00  0.00     0.158 A 
BRANCH  16  19
ATOM     19  O   UNL     1      -9.344 -16.519 -15.272  1.00  0.00    -0.504 OA
ATOM     20  H   UNL     1      -9.716 -16.641 -14.338  1.00  0.00     0.293 HD
ENDBRANCH  16  19
BRANCH  18  21
ATOM     21  O   UNL     1      -9.353 -19.148 -14.244  1.00  0.00    -0.504 OA
ATOM     22  H   UNL     1     -10.326 -19.233 -13.973  1.00  0.00     0.293 HD
ENDBRANCH  18  21
ENDBRANCH   3  13
BRANCH  11  23
ATOM     23  O   UNL     1      -6.056 -25.011 -21.000  1.00  0.00    -0.507 OA
ATOM     24  H   UNL     1      -6.195 -25.474 -20.109  1.00  0.00     0.293 HD
ENDBRANCH  11  23
ENDBRANCH   1   2
BRANCH   1  25
ATOM     25  C   UNL     1      -8.317 -21.118 -25.128  1.00  0.00     0.339 C 
ATOM     26  C   UNL     1      -6.952 -20.874 -25.810  1.00  0.00     0.214 C 
ATOM     27  O   UNL     1      -9.382 -21.072 -26.069  1.00  0.00    -0.332 OA
ATOM     28  C   UNL     1      -6.701 -21.880 -26.948  1.00  0.00     0.180 C 
ATOM     29  C   UNL     1      -9.254 -21.991 -27.150  1.00  0.00     0.179 C 
ATOM     30  C   UNL     1      -7.905 -21.879 -27.906  1.00  0.00     0.177 C 
BRANCH  26  31
ATOM     31  O   UNL     1      -5.891 -20.846 -24.887  1.00  0.00    -0.384 OA
ATOM     32  H   UNL     1      -5.360 -21.676 -24.997  1.00  0.00     0.211 HD
ENDBRANCH  26  31
BRANCH  28  33
ATOM     33  O   UNL     1      -6.496 -23.178 -26.445  1.00  0.00    -0.387 OA
ATOM     34  H   UNL     1      -5.543 -23.408 -26.598  1.00  0.00     0.211 HD
ENDBRANCH  28  33
BRANCH  29  35
ATOM     35  C   UNL     1      -9.635 -23.435 -26.766  1.00  0.00     0.191 C 
BRANCH  35  36
ATOM     36  O   UNL     1     -10.753 -23.422 -25.922  1.00  0.00    -0.394 OA
ATOM     37  H   UNL     1     -10.455 -23.818 -25.062  1.00  0.00     0.210 HD
ENDBRANCH  35  36
ENDBRANCH  29  35
BRANCH  30  38
ATOM     38  O   UNL     1      -7.907 -20.690 -28.657  1.00  0.00    -0.387 OA
ATOM     39  H   UNL     1      -8.223 -19.967 -28.054  1.00  0.00     0.211 HD
ENDBRANCH  30  38
ENDBRANCH   1  25
TORSDOF 11
ENDMDL
MODEL 5
REMARK VINA RESULT:    -5.842      2.582      3.512
REMARK INTER + INTRA:          -9.495
REMARK INTER:                  -8.386
REMARK INTRA:                  -1.108
REMARK UNBOUND:                -1.091
REMARK SMILES O=c1cc(-c2ccc(O)c(O)c2)oc2cc(O[C@@H]3O[C@H](CO)[C@@H](O)[C@H](O)[C@@H]3O)cc(O)c12
REMARK SMILES IDX 17 1 16 2 4 3 3 4 13 5 2 6 14 7 1 8 32 9 15 10 30 11 29 12
REMARK SMILES IDX 5 13 6 14 7 15 8 16 12 17 10 18 9 19 11 21 31 23 18 25 27 26
REMARK SMILES IDX 19 27 25 28 20 29 23 30 28 31 26 33 21 35 22 36 24 38
REMARK H PARENT 9 20 11 22 31 24 28 32 26 34 22 37 24 39
REMARK Flexibility Score: inf
ROOT
ATOM      1  O   UNL     1      -8.649 -21.150 -24.991  1.00  0.00    -0.462 OA
ENDROOT
BRANCH   1   2
ATOM      2  C   UNL     1      -7.984 -21.466 -23.794  1.00  0.00     0.130 A 
ATOM      3  C   UNL     1      -7.573 -20.499 -19.141  1.00  0.00     0.138 A 
ATOM      4  C   UNL     1      -6.570 -21.467 -18.963  1.00  0.00     0.100 A 
ATOM      5  O   UNL     1      -8.107 -20.324 -20.347  1.00  0.00    -0.456 OA
ATOM      6  C   UNL     1      -6.143 -22.220 -20.057  1.00  0.00     0.197 A 
ATOM      7  C   UNL     1      -7.733 -21.017 -21.419  1.00  0.00     0.146 A 
ATOM      8  O   UNL     1      -5.243 -23.088 -19.887  1.00  0.00    -0.289 OA
ATOM      9  C   UNL     1      -6.723 -22.002 -21.322  1.00  0.00     0.107 A 
ATOM     10  C   UNL     1      -8.350 -20.761 -22.645  1.00  0.00     0.094 A 
ATOM     11  C   UNL     1      -6.349 -22.719 -22.481  1.00  0.00     0.134 A 
ATOM     12  C   UNL     1      -6.978 -22.447 -23.705  1.00  0.00     0.093 A 
BRANCH   3  13
ATOM     13  C   UNL     1      -8.069 -19.669 -18.014  1.00  0.00     0.021 A 
ATOM     14  C   UNL     1      -8.161 -18.276 -18.171  1.00  0.00     0.016 A 
ATOM     15  C   UNL     1      -8.618 -17.471 -17.125  1.00  0.00     0.051 A 
ATOM     16  C   UNL     1      -8.980 -18.040 -15.901  1.00  0.00     0.157 A 
ATOM     17  C   UNL     1      -8.422 -20.237 -16.774  1.00  0.00     0.062 A 
ATOM     18  C   UNL     1      -8.879 -19.430 -15.723  1.00  0.00     0.158 A 
BRANCH  16  19
ATOM     19  O   UNL     1      -9.433 -17.212 -14.875  1.00  0.00    -0.504 OA
ATOM     20  H   UNL     1      -9.419 -16.203 -14.952  1.00  0.00     0.293 HD
ENDBRANCH  16  19
BRANCH  18  21
ATOM     21  O   UNL     1      -9.227 -20.003 -14.500  1.00  0.00    -0.504 OA
ATOM     22  H   UNL     1      -9.583 -20.950 -14.439  1.00  0.00     0.293 HD
ENDBRANCH  18  21
ENDBRANCH   3  13
BRANCH  11  23
ATOM     23  O   UNL     1      -5.358 -23.701 -22.425  1.00  0.00    -0.507 OA
ATOM     24  H   UNL     1      -4.882 -23.929 -21.560  1.00  0.00     0.293 HD
ENDBRANCH  11  23
ENDBRANCH   1   2
BRANCH   1  25
ATOM     25  C   UNL     1     -10.052 -21.262 -25.256  1.00  0.00     0.339 C 
ATOM     26  C   UNL     1     -10.654 -19.962 -25.836  1.00  0.00     0.214 C 
ATOM     27  O   UNL     1     -10.303 -22.374 -26.106  1.00  0.00    -0.332 OA
ATOM     28  C   UNL     1     -10.125 -19.678 -27.253  1.00  0.00     0.180 C 
ATOM     29  C   UNL     1      -9.823 -22.217 -27.439  1.00  0.00     0.179 C 
ATOM     30  C   UNL     1     -10.324 -20.924 -28.133  1.00  0.00     0.177 C 
BRANCH  26  31
ATOM     31  O   UNL     1     -10.479 -18.863 -24.977  1.00  0.00    -0.384 OA
ATOM     32  H   UNL     1      -9.965 -19.164 -24.185  1.00  0.00     0.211 HD
ENDBRANCH  26  31
BRANCH  28  33
ATOM     33  O   UNL     1      -8.763 -19.329 -27.228  1.00  0.00    -0.387 OA
ATOM     34  H   UNL     1      -8.709 -18.339 -27.281  1.00  0.00     0.211 HD
ENDBRANCH  28  33
BRANCH  29  35
ATOM     35  C   UNL     1      -8.302 -22.443 -27.565  1.00  0.00     0.191 C 
BRANCH  35  36
ATOM     36  O   UNL     1      -7.837 -21.877 -28.759  1.00  0.00    -0.394 OA
ATOM     37  H   UNL     1      -7.764 -22.623 -29.409  1.00  0.00     0.210 HD
ENDBRANCH  35  36
ENDBRANCH  29  35
BRANCH  30  38
ATOM     38  O   UNL     1     -11.690 -21.075 -28.432  1.00  0.00    -0.387 OA
ATOM     39  H   UNL     1     -11.788 -21.935 -28.919  1.00  0.00     0.211 HD
ENDBRANCH  30  38
ENDBRANCH   1  25
TORSDOF 11
ENDMDL
MODEL 6
REMARK VINA RESULT:    -5.720      1.305      2.713
REMARK INTER + INTRA:          -9.319
REMARK INTER:                  -8.236
REMARK INTRA:                  -1.083
REMARK UNBOUND:                -1.091
REMARK SMILES O=c1cc(-c2ccc(O)c(O)c2)oc2cc(O[C@@H]3O[C@H](CO)[C@@H](O)[C@H](O)[C@@H]3O)cc(O)c12
REMARK SMILES IDX 17 1 16 2 4 3 3 4 13 5 2 6 14 7 1 8 32 9 15 10 30 11 29 12
REMARK SMILES IDX 5 13 6 14 7 15 8 16 12 17 10 18 9 19 11 21 31 23 18 25 27 26
REMARK SMILES IDX 19 27 25 28 20 29 23 30 28 31 26 33 21 35 22 36 24 38
REMARK H PARENT 9 20 11 22 31 24 28 32 26 34 22 37 24 39
REMARK Flexibility Score: inf
ROOT
ATOM      1  O   UNL     1      -8.690 -23.585 -23.717  1.00  0.00    -0.462 OA
ENDROOT
BRANCH   1   2
ATOM      2  C   UNL     1      -8.082 -23.568 -22.449  1.00  0.00     0.130 A 
ATOM      3  C   UNL     1      -7.649 -21.226 -18.317  1.00  0.00     0.138 A 
ATOM      4  C   UNL     1      -6.758 -22.179 -17.797  1.00  0.00     0.100 A 
ATOM      5  O   UNL     1      -8.142 -21.390 -19.542  1.00  0.00    -0.456 OA
ATOM      6  C   UNL     1      -6.394 -23.275 -18.578  1.00  0.00     0.197 A 
ATOM      7  C   UNL     1      -7.825 -22.419 -20.324  1.00  0.00     0.146 A 
ATOM      8  O   UNL     1      -5.594 -24.127 -18.102  1.00  0.00    -0.289 OA
ATOM      9  C   UNL     1      -6.926 -23.413 -19.875  1.00  0.00     0.107 A 
ATOM     10  C   UNL     1      -8.391 -22.505 -21.598  1.00  0.00     0.094 A 
ATOM     11  C   UNL     1      -6.611 -24.492 -20.732  1.00  0.00     0.134 A 
ATOM     12  C   UNL     1      -7.187 -24.561 -22.009  1.00  0.00     0.093 A 
BRANCH   3  13
ATOM     13  C   UNL     1      -8.074 -20.039 -17.531  1.00  0.00     0.021 A 
ATOM     14  C   UNL     1      -8.014 -18.764 -18.119  1.00  0.00     0.016 A 
ATOM     15  C   UNL     1      -8.401 -17.631 -17.400  1.00  0.00     0.051 A 
ATOM     16  C   UNL     1      -8.843 -17.748 -16.079  1.00  0.00     0.157 A 
ATOM     17  C   UNL     1      -8.507 -20.151 -16.195  1.00  0.00     0.062 A 
ATOM     18  C   UNL     1      -8.893 -19.013 -15.472  1.00  0.00     0.158 A 
BRANCH  16  19
ATOM     19  O   UNL     1      -9.223 -16.599 -15.387  1.00  0.00    -0.504 OA
ATOM     20  H   UNL     1      -8.591 -16.111 -14.765  1.00  0.00     0.293 HD
ENDBRANCH  16  19
BRANCH  18  21
ATOM     21  O   UNL     1      -9.322 -19.136 -14.150  1.00  0.00    -0.504 OA
ATOM     22  H   UNL     1      -9.802 -19.965 -13.822  1.00  0.00     0.293 HD
ENDBRANCH  18  21
ENDBRANCH   3  13
BRANCH  11  23
ATOM     23  O   UNL     1      -5.730 -25.495 -20.324  1.00  0.00    -0.507 OA
ATOM     24  H   UNL     1      -6.022 -26.463 -20.249  1.00  0.00     0.293 HD
ENDBRANCH  11  23
ENDBRANCH   1   2
BRANCH   1  25
ATOM     25  C   UNL     1      -9.147 -22.456 -24.471  1.00  0.00     0.339 C 
ATOM     26  C   UNL     1      -8.913 -22.622 -25.990  1.00  0.00     0.214 C 
ATOM     27  O   UNL     1     -10.514 -22.195 -24.183  1.00  0.00    -0.332 OA
ATOM     28  C   UNL     1      -9.802 -23.731 -26.580  1.00  0.00     0.180 C 
ATOM     29  C   UNL     1     -11.419 -23.184 -24.667  1.00  0.00     0.179 C 
ATOM     30  C   UNL     1     -11.267 -23.478 -26.182  1.00  0.00     0.177 C 
BRANCH  26  31
ATOM     31  O   UNL     1      -7.555 -22.812 -26.303  1.00  0.00    -0.384 OA
ATOM     32  H   UNL     1      -7.223 -21.998 -26.761  1.00  0.00     0.211 HD
ENDBRANCH  26  31
BRANCH  28  33
ATOM     33  O   UNL     1      -9.400 -25.001 -26.129  1.00  0.00    -0.387 OA
ATOM     34  H   UNL     1      -8.681 -25.317 -26.735  1.00  0.00     0.211 HD
ENDBRANCH  28  33
BRANCH  29  35
ATOM     35  C   UNL     1     -11.458 -24.451 -23.788  1.00  0.00     0.191 C 
BRANCH  35  36
ATOM     36  O   UNL     1     -11.526 -24.087 -22.436  1.00  0.00    -0.394 OA
ATOM     37  H   UNL     1     -11.593 -23.097 -22.419  1.00  0.00     0.210 HD
ENDBRANCH  35  36
ENDBRANCH  29  35
BRANCH  30  38
ATOM     38  O   UNL     1     -11.768 -22.382 -26.905  1.00  0.00    -0.387 OA
ATOM     39  H   UNL     1     -11.962 -21.664 -26.248  1.00  0.00     0.211 HD
ENDBRANCH  30  38
ENDBRANCH   1  25
TORSDOF 11
ENDMDL
MODEL 7
REMARK VINA RESULT:    -5.654      2.888      9.136
REMARK INTER + INTRA:          -9.225
REMARK INTER:                  -8.404
REMARK INTRA:                  -0.821
REMARK UNBOUND:                -1.091
REMARK SMILES O=c1cc(-c2ccc(O)c(O)c2)oc2cc(O[C@@H]3O[C@H](CO)[C@@H](O)[C@H](O)[C@@H]3O)cc(O)c12
REMARK SMILES IDX 17 1 16 2 4 3 3 4 13 5 2 6 14 7 1 8 32 9 15 10 30 11 29 12
REMARK SMILES IDX 5 13 6 14 7 15 8 16 12 17 10 18 9 19 11 21 31 23 18 25 27 26
REMARK SMILES IDX 19 27 25 28 20 29 23 30 28 31 26 33 21 35 22 36 24 38
REMARK H PARENT 9 20 11 22 31 24 28 32 26 34 22 37 24 39
REMARK Flexibility Score: inf
ROOT
ATOM      1  O   UNL     1      -7.281 -20.593 -18.459  1.00  0.00    -0.462 OA
ENDROOT
BRANCH   1   2
ATOM      2  C   UNL     1      -6.757 -21.898 -18.457  1.00  0.00     0.130 A 
ATOM      3  C   UNL     1      -5.746 -25.742 -21.093  1.00  0.00     0.138 A 
ATOM      4  C   UNL     1      -5.234 -26.444 -19.989  1.00  0.00     0.100 A 
ATOM      5  O   UNL     1      -6.204 -24.504 -20.927  1.00  0.00    -0.456 OA
ATOM      6  C   UNL     1      -5.227 -25.835 -18.733  1.00  0.00     0.197 A 
ATOM      7  C   UNL     1      -6.218 -23.883 -19.751  1.00  0.00     0.146 A 
ATOM      8  O   UNL     1      -4.764 -26.473 -17.748  1.00  0.00    -0.289 OA
ATOM      9  C   UNL     1      -5.730 -24.527 -18.591  1.00  0.00     0.107 A 
ATOM     10  C   UNL     1      -6.723 -22.583 -19.674  1.00  0.00     0.094 A 
ATOM     11  C   UNL     1      -5.761 -23.838 -17.357  1.00  0.00     0.134 A 
ATOM     12  C   UNL     1      -6.273 -22.534 -17.298  1.00  0.00     0.093 A 
BRANCH   3  13
ATOM     13  C   UNL     1      -5.777 -26.338 -22.453  1.00  0.00     0.021 A 
ATOM     14  C   UNL     1      -6.901 -26.132 -23.271  1.00  0.00     0.016 A 
ATOM     15  C   UNL     1      -6.959 -26.686 -24.552  1.00  0.00     0.051 A 
ATOM     16  C   UNL     1      -5.904 -27.465 -25.035  1.00  0.00     0.157 A 
ATOM     17  C   UNL     1      -4.721 -27.134 -22.938  1.00  0.00     0.062 A 
ATOM     18  C   UNL     1      -4.780 -27.693 -24.223  1.00  0.00     0.158 A 
BRANCH  16  19
ATOM     19  O   UNL     1      -5.989 -28.004 -26.317  1.00  0.00    -0.504 OA
ATOM     20  H   UNL     1      -5.732 -27.476 -27.141  1.00  0.00     0.293 HD
ENDBRANCH  16  19
BRANCH  18  21
ATOM     21  O   UNL     1      -3.728 -28.478 -24.694  1.00  0.00    -0.504 OA
ATOM     22  H   UNL     1      -3.339 -29.232 -24.140  1.00  0.00     0.293 HD
ENDBRANCH  18  21
ENDBRANCH   3  13
BRANCH  11  23
ATOM     23  O   UNL     1      -5.285 -24.439 -16.191  1.00  0.00    -0.507 OA
ATOM     24  H   UNL     1      -5.570 -24.121 -15.272  1.00  0.00     0.293 HD
ENDBRANCH  11  23
ENDBRANCH   1   2
BRANCH   1  25
ATOM     25  C   UNL     1      -6.576 -19.378 -18.180  1.00  0.00     0.339 C 
ATOM     26  C   UNL     1      -7.115 -18.178 -18.992  1.00  0.00     0.214 C 
ATOM     27  O   UNL     1      -6.595 -19.111 -16.784  1.00  0.00    -0.332 OA
ATOM     28  C   UNL     1      -8.534 -17.786 -18.545  1.00  0.00     0.180 C 
ATOM     29  C   UNL     1      -7.878 -18.764 -16.268  1.00  0.00     0.179 C 
ATOM     30  C   UNL     1      -8.554 -17.588 -17.019  1.00  0.00     0.177 C 
BRANCH  26  31
ATOM     31  O   UNL     1      -7.039 -18.395 -20.379  1.00  0.00    -0.384 OA
ATOM     32  H   UNL     1      -7.036 -17.514 -20.833  1.00  0.00     0.211 HD
ENDBRANCH  26  31
BRANCH  28  33
ATOM     33  O   UNL     1      -9.473 -18.769 -18.907  1.00  0.00    -0.387 OA
ATOM     34  H   UNL     1      -9.004 -19.430 -19.482  1.00  0.00     0.211 HD
ENDBRANCH  28  33
BRANCH  29  35
ATOM     35  C   UNL     1      -8.798 -19.984 -16.063  1.00  0.00     0.191 C 
BRANCH  35  36
ATOM     36  O   UNL     1      -9.226 -20.037 -14.730  1.00  0.00    -0.394 OA
ATOM     37  H   UNL     1      -9.063 -19.134 -14.351  1.00  0.00     0.210 HD
ENDBRANCH  35  36
ENDBRANCH  29  35
BRANCH  30  38
ATOM     38  O   UNL     1      -7.881 -16.398 -16.691  1.00  0.00    -0.387 OA
ATOM     39  H   UNL     1      -6.941 -16.643 -16.485  1.00  0.00     0.211 HD
ENDBRANCH  30  38
ENDBRANCH   1  25
TORSDOF 11
ENDMDL
MODEL 8
REMARK VINA RESULT:    -5.554      2.019      2.704
REMARK INTER + INTRA:          -9.081
REMARK INTER:                  -8.022
REMARK INTRA:                  -1.059
REMARK UNBOUND:                -1.091
REMARK SMILES O=c1cc(-c2ccc(O)c(O)c2)oc2cc(O[C@@H]3O[C@H](CO)[C@@H](O)[C@H](O)[C@@H]3O)cc(O)c12
REMARK SMILES IDX 17 1 16 2 4 3 3 4 13 5 2 6 14 7 1 8 32 9 15 10 30 11 29 12
REMARK SMILES IDX 5 13 6 14 7 15 8 16 12 17 10 18 9 19 11 21 31 23 18 25 27 26
REMARK SMILES IDX 19 27 25 28 20 29 23 30 28 31 26 33 21 35 22 36 24 38
REMARK H PARENT 9 20 11 22 31 24 28 32 26 34 22 37 24 39
REMARK Flexibility Score: inf
ROOT
ATOM      1  O   UNL     1      -9.568 -25.259 -22.422  1.00  0.00    -0.462 OA
ENDROOT
BRANCH   1   2
ATOM      2  C   UNL     1      -8.520 -24.491 -21.885  1.00  0.00     0.130 A 
ATOM      3  C   UNL     1      -7.348 -20.985 -18.870  1.00  0.00     0.138 A 
ATOM      4  C   UNL     1      -5.981 -21.094 -19.174  1.00  0.00     0.100 A 
ATOM      5  O   UNL     1      -8.218 -21.796 -19.468  1.00  0.00    -0.456 OA
ATOM      6  C   UNL     1      -5.560 -22.042 -20.107  1.00  0.00     0.197 A 
ATOM      7  C   UNL     1      -7.865 -22.714 -20.363  1.00  0.00     0.146 A 
ATOM      8  O   UNL     1      -4.330 -22.133 -20.372  1.00  0.00    -0.289 OA
ATOM      9  C   UNL     1      -6.509 -22.877 -20.729  1.00  0.00     0.107 A 
ATOM     10  C   UNL     1      -8.851 -23.517 -20.939  1.00  0.00     0.094 A 
ATOM     11  C   UNL     1      -6.168 -23.862 -21.684  1.00  0.00     0.134 A 
ATOM     12  C   UNL     1      -7.172 -24.658 -22.254  1.00  0.00     0.093 A 
BRANCH   3  13
ATOM     13  C   UNL     1      -7.855 -19.997 -17.884  1.00  0.00     0.021 A 
ATOM     14  C   UNL     1      -7.880 -18.633 -18.224  1.00  0.00     0.016 A 
ATOM     15  C   UNL     1      -8.346 -17.683 -17.313  1.00  0.00     0.051 A 
ATOM     16  C   UNL     1      -8.784 -18.072 -16.044  1.00  0.00     0.157 A 
ATOM     17  C   UNL     1      -8.285 -20.384 -16.600  1.00  0.00     0.062 A 
ATOM     18  C   UNL     1      -8.750 -19.430 -15.684  1.00  0.00     0.158 A 
BRANCH  16  19
ATOM     19  O   UNL     1      -9.244 -17.101 -15.157  1.00  0.00    -0.504 OA
ATOM     20  H   UNL     1     -10.217 -17.038 -14.885  1.00  0.00     0.293 HD
ENDBRANCH  16  19
BRANCH  18  21
ATOM     21  O   UNL     1      -9.175 -19.825 -14.415  1.00  0.00    -0.504 OA
ATOM     22  H   UNL     1     -10.037 -20.339 -14.280  1.00  0.00     0.293 HD
ENDBRANCH  18  21
ENDBRANCH   3  13
BRANCH  11  23
ATOM     23  O   UNL     1      -4.841 -24.055 -22.068  1.00  0.00    -0.507 OA
ATOM     24  H   UNL     1      -4.160 -24.472 -21.444  1.00  0.00     0.293 HD
ENDBRANCH  11  23
ENDBRANCH   1   2
BRANCH   1  25
ATOM     25  C   UNL     1      -9.813 -26.654 -22.211  1.00  0.00     0.339 C 
ATOM     26  C   UNL     1     -11.266 -26.944 -21.773  1.00  0.00     0.214 C 
ATOM     27  O   UNL     1      -9.465 -27.393 -23.374  1.00  0.00    -0.332 OA
ATOM     28  C   UNL     1     -12.266 -26.653 -22.906  1.00  0.00     0.180 C 
ATOM     29  C   UNL     1     -10.320 -27.170 -24.493  1.00  0.00     0.179 C 
ATOM     30  C   UNL     1     -11.823 -27.391 -24.181  1.00  0.00     0.177 C 
BRANCH  26  31
ATOM     31  O   UNL     1     -11.608 -26.276 -20.583  1.00  0.00    -0.384 OA
ATOM     32  H   UNL     1     -10.780 -25.910 -20.181  1.00  0.00     0.211 HD
ENDBRANCH  26  31
BRANCH  28  33
ATOM     33  O   UNL     1     -12.357 -25.273 -23.164  1.00  0.00    -0.387 OA
ATOM     34  H   UNL     1     -13.261 -24.977 -22.881  1.00  0.00     0.211 HD
ENDBRANCH  28  33
BRANCH  29  35
ATOM     35  C   UNL     1     -10.024 -25.846 -25.226  1.00  0.00     0.191 C 
BRANCH  35  36
ATOM     36  O   UNL     1     -11.109 -25.505 -26.045  1.00  0.00    -0.394 OA
ATOM     37  H   UNL     1     -11.064 -26.110 -26.830  1.00  0.00     0.210 HD
ENDBRANCH  35  36
ENDBRANCH  29  35
BRANCH  30  38
ATOM     38  O   UNL     1     -12.052 -28.770 -24.030  1.00  0.00    -0.387 OA
ATOM     39  H   UNL     1     -12.470 -29.089 -24.872  1.00  0.00     0.211 HD
ENDBRANCH  30  38
ENDBRANCH   1  25
TORSDOF 11
ENDMDL
MODEL 9
REMARK VINA RESULT:    -5.420      3.363      4.697
REMARK INTER + INTRA:          -8.887
REMARK INTER:                  -7.753
REMARK INTRA:                  -1.134
REMARK UNBOUND:                -1.091
REMARK SMILES O=c1cc(-c2ccc(O)c(O)c2)oc2cc(O[C@@H]3O[C@H](CO)[C@@H](O)[C@H](O)[C@@H]3O)cc(O)c12
REMARK SMILES IDX 17 1 16 2 4 3 3 4 13 5 2 6 14 7 1 8 32 9 15 10 30 11 29 12
REMARK SMILES IDX 5 13 6 14 7 15 8 16 12 17 10 18 9 19 11 21 31 23 18 25 27 26
REMARK SMILES IDX 19 27 25 28 20 29 23 30 28 31 26 33 21 35 22 36 24 38
REMARK H PARENT 9 20 11 22 31 24 28 32 26 34 22 37 24 39
REMARK Flexibility Score: inf
ROOT
ATOM      1  O   UNL     1      -8.969 -20.079 -25.361  1.00  0.00    -0.462 OA
ENDROOT
BRANCH   1   2
ATOM      2  C   UNL     1      -8.357 -19.238 -24.415  1.00  0.00     0.130 A 
ATOM      3  C   UNL     1      -7.810 -18.263 -19.778  1.00  0.00     0.138 A 
ATOM      4  C   UNL     1      -6.948 -17.185 -20.041  1.00  0.00     0.100 A 
ATOM      5  O   UNL     1      -8.307 -18.967 -20.793  1.00  0.00    -0.456 OA
ATOM      6  C   UNL     1      -6.638 -16.862 -21.362  1.00  0.00     0.197 A 
ATOM      7  C   UNL     1      -8.040 -18.697 -22.068  1.00  0.00     0.146 A 
ATOM      8  O   UNL     1      -5.863 -15.893 -21.589  1.00  0.00    -0.289 OA
ATOM      9  C   UNL     1      -7.190 -17.621 -22.413  1.00  0.00     0.107 A 
ATOM     10  C   UNL     1      -8.611 -19.490 -23.065  1.00  0.00     0.094 A 
ATOM     11  C   UNL     1      -6.928 -17.362 -23.778  1.00  0.00     0.134 A 
ATOM     12  C   UNL     1      -7.512 -18.168 -24.766  1.00  0.00     0.093 A 
BRANCH   3  13
ATOM     13  C   UNL     1      -8.175 -18.655 -18.393  1.00  0.00     0.021 A 
ATOM     14  C   UNL     1      -8.237 -20.017 -18.054  1.00  0.00     0.016 A 
ATOM     15  C   UNL     1      -8.584 -20.412 -16.761  1.00  0.00     0.051 A 
ATOM     16  C   UNL     1      -8.886 -19.458 -15.786  1.00  0.00     0.157 A 
ATOM     17  C   UNL     1      -8.493 -17.696 -17.411  1.00  0.00     0.062 A 
ATOM     18  C   UNL     1      -8.844 -18.092 -16.113  1.00  0.00     0.158 A 
BRANCH  16  19
ATOM     19  O   UNL     1      -9.229 -19.882 -14.503  1.00  0.00    -0.504 OA
ATOM     20  H   UNL     1      -9.887 -19.374 -13.925  1.00  0.00     0.293 HD
ENDBRANCH  16  19
BRANCH  18  21
ATOM     21  O   UNL     1      -9.156 -17.134 -15.148  1.00  0.00    -0.504 OA
ATOM     22  H   UNL     1      -8.452 -16.509 -14.774  1.00  0.00     0.293 HD
ENDBRANCH  18  21
ENDBRANCH   3  13
BRANCH  11  23
ATOM     23  O   UNL     1      -6.092 -16.311 -24.158  1.00  0.00    -0.507 OA
ATOM     24  H   UNL     1      -6.279 -15.354 -23.882  1.00  0.00     0.293 HD
ENDBRANCH  11  23
ENDBRANCH   1   2
BRANCH   1  25
ATOM     25  C   UNL     1      -9.765 -21.241 -25.098  1.00  0.00     0.339 C 
ATOM     26  C   UNL     1     -10.982 -21.355 -26.043  1.00  0.00     0.214 C 
ATOM     27  O   UNL     1      -8.957 -22.409 -25.149  1.00  0.00    -0.332 OA
ATOM     28  C   UNL     1     -10.547 -21.638 -27.492  1.00  0.00     0.180 C 
ATOM     29  C   UNL     1      -8.480 -22.740 -26.450  1.00  0.00     0.179 C 
ATOM     30  C   UNL     1      -9.602 -22.851 -27.515  1.00  0.00     0.177 C 
BRANCH  26  31
ATOM     31  O   UNL     1     -11.833 -20.238 -25.956  1.00  0.00    -0.384 OA
ATOM     32  H   UNL     1     -12.291 -20.262 -25.078  1.00  0.00     0.211 HD
ENDBRANCH  26  31
BRANCH  28  33
ATOM     33  O   UNL     1      -9.900 -20.523 -28.057  1.00  0.00    -0.387 OA
ATOM     34  H   UNL     1     -10.497 -20.159 -28.762  1.00  0.00     0.211 HD
ENDBRANCH  28  33
BRANCH  29  35
ATOM     35  C   UNL     1      -7.284 -21.874 -26.895  1.00  0.00     0.191 C 
BRANCH  35  36
ATOM     36  O   UNL     1      -6.373 -21.746 -25.838  1.00  0.00    -0.394 OA
ATOM     37  H   UNL     1      -6.715 -22.322 -25.106  1.00  0.00     0.210 HD
ENDBRANCH  35  36
ENDBRANCH  29  35
BRANCH  30  38
ATOM     38  O   UNL     1     -10.338 -24.024 -27.271  1.00  0.00    -0.387 OA
ATOM     39  H   UNL     1      -9.686 -24.731 -27.024  1.00  0.00     0.211 HD
ENDBRANCH  30  38
ENDBRANCH   1  25
TORSDOF 11
ENDMDL
