MODEL 1
REMARK VINA RESULT:    13.209      0.000      0.000
REMARK INTER + INTRA:          15.260
REMARK INTER:                  15.526
REMARK INTRA:                  -0.266
REMARK UNBOUND:                -0.266
REMARK SMILES O=c1cc(-c2ccc(O)c(O)c2)oc2cc(O)cc(O)c12
REMARK SMILES IDX 4 1 3 2 2 3 1 4 21 5 19 6 18 7 16 8 15 9 14 10 13 11 5 12
REMARK SMILES IDX 6 13 7 14 8 15 12 16 10 17 9 18 11 20 20 22 17 24
REMARK H PARENT 9 19 11 21 20 23 17 25
REMARK Flexibility Score: inf
ROOT
ATOM      1  C   UNL     1     -42.254  44.701  12.045  1.00  0.00     0.138 A 
ATOM      2  C   UNL     1     -41.092  44.124  11.514  1.00  0.00     0.100 A 
ATOM      3  C   UNL     1     -41.081  42.766  11.194  1.00  0.00     0.197 A 
ATOM      4  O   UNL     1     -40.006  42.262  10.778  1.00  0.00    -0.289 OA
ATOM      5  C   UNL     1     -42.252  41.990  11.375  1.00  0.00     0.107 A 
ATOM      6  C   UNL     1     -42.369  40.607  11.043  1.00  0.00     0.134 A 
ATOM      7  C   UNL     1     -43.540  39.916  11.377  1.00  0.00     0.093 A 
ATOM      8  C   UNL     1     -44.620  40.572  11.973  1.00  0.00     0.123 A 
ATOM      9  C   UNL     1     -44.535  41.934  12.251  1.00  0.00     0.094 A 
ATOM     10  C   UNL     1     -43.367  42.644  11.962  1.00  0.00     0.146 A 
ATOM     11  O   UNL     1     -43.322  43.939  12.257  1.00  0.00    -0.456 OA
ENDROOT
BRANCH   1  12
ATOM     12  C   UNL     1     -42.321  46.140  12.404  1.00  0.00     0.021 A 
ATOM     13  C   UNL     1     -42.527  46.510  13.743  1.00  0.00     0.016 A 
ATOM     14  C   UNL     1     -42.602  47.858  14.105  1.00  0.00     0.051 A 
ATOM     15  C   UNL     1     -42.482  48.858  13.137  1.00  0.00     0.157 A 
ATOM     16  C   UNL     1     -42.214  47.152  11.428  1.00  0.00     0.062 A 
ATOM     17  C   UNL     1     -42.290  48.504  11.791  1.00  0.00     0.158 A 
BRANCH  15  18
ATOM     18  O   UNL     1     -42.559  50.194  13.528  1.00  0.00    -0.504 OA
ATOM     19  H   UNL     1     -43.439  50.694  13.567  1.00  0.00     0.293 HD
ENDBRANCH  15  18
BRANCH  17  20
ATOM     20  O   UNL     1     -42.181  49.498  10.819  1.00  0.00    -0.504 OA
ATOM     21  H   UNL     1     -41.773  50.402  11.028  1.00  0.00     0.293 HD
ENDBRANCH  17  20
ENDBRANCH   1  12
BRANCH   6  22
ATOM     22  O   UNL     1     -41.384  39.879  10.372  1.00  0.00    -0.507 OA
ATOM     23  H   UNL     1     -40.840  39.132  10.778  1.00  0.00     0.293 HD
ENDBRANCH   6  22
BRANCH   8  24
ATOM     24  O   UNL     1     -45.787  39.879  12.286  1.00  0.00    -0.508 OA
ATOM     25  H   UNL     1     -46.563  40.331  12.757  1.00  0.00     0.293 HD
ENDBRANCH   8  24
TORSDOF 5
ENDMDL
MODEL 2
REMARK VINA RESULT:    14.450      1.068      1.685
REMARK INTER + INTRA:          16.718
REMARK INTER:                  16.983
REMARK INTRA:                  -0.265
REMARK UNBOUND:                -0.266
REMARK SMILES O=c1cc(-c2ccc(O)c(O)c2)oc2cc(O)cc(O)c12
REMARK SMILES IDX 4 1 3 2 2 3 1 4 21 5 19 6 18 7 16 8 15 9 14 10 13 11 5 12
REMARK SMILES IDX 6 13 7 14 8 15 12 16 10 17 9 18 11 20 20 22 17 24
REMARK H PARENT 9 19 11 21 20 23 17 25
REMARK Flexibility Score: inf
ROOT
ATOM      1  C   UNL     1     -42.014  44.841  12.041  1.00  0.00     0.138 A 
ATOM      2  C   UNL     1     -40.782  44.272  12.388  1.00  0.00     0.100 A 
ATOM      3  C   UNL     1     -40.650  42.883  12.424  1.00  0.00     0.197 A 
ATOM      4  O   UNL     1     -39.550  42.401  12.800  1.00  0.00    -0.289 OA
ATOM      5  C   UNL     1     -41.749  42.062  12.078  1.00  0.00     0.107 A 
ATOM      6  C   UNL     1     -41.717  40.635  12.038  1.00  0.00     0.134 A 
ATOM      7  C   UNL     1     -42.900  39.926  11.795  1.00  0.00     0.093 A 
ATOM      8  C   UNL     1     -44.099  40.592  11.529  1.00  0.00     0.123 A 
ATOM      9  C   UNL     1     -44.128  41.985  11.512  1.00  0.00     0.094 A 
ATOM     10  C   UNL     1     -42.972  42.721  11.785  1.00  0.00     0.146 A 
ATOM     11  O   UNL     1     -43.047  44.047  11.773  1.00  0.00    -0.456 OA
ENDROOT
BRANCH   1  12
ATOM     12  C   UNL     1     -42.211  46.312  11.987  1.00  0.00     0.021 A 
ATOM     13  C   UNL     1     -42.431  46.935  10.747  1.00  0.00     0.016 A 
ATOM     14  C   UNL     1     -42.611  48.319  10.669  1.00  0.00     0.051 A 
ATOM     15  C   UNL     1     -42.567  49.104  11.824  1.00  0.00     0.157 A 
ATOM     16  C   UNL     1     -42.154  47.109  13.147  1.00  0.00     0.062 A 
ATOM     17  C   UNL     1     -42.335  48.498  13.070  1.00  0.00     0.158 A 
BRANCH  15  18
ATOM     18  O   UNL     1     -42.752  50.482  11.715  1.00  0.00    -0.504 OA
ATOM     19  H   UNL     1     -42.975  50.927  10.833  1.00  0.00     0.293 HD
ENDBRANCH  15  18
BRANCH  17  20
ATOM     20  O   UNL     1     -42.278  49.278  14.224  1.00  0.00    -0.504 OA
ATOM     21  H   UNL     1     -41.678  49.030  15.002  1.00  0.00     0.293 HD
ENDBRANCH  17  20
ENDBRANCH   1  12
BRANCH   6  22
ATOM     22  O   UNL     1     -40.557  39.875  12.206  1.00  0.00    -0.507 OA
ATOM     23  H   UNL     1     -39.683  40.043  11.730  1.00  0.00     0.293 HD
ENDBRANCH   6  22
BRANCH   8  24
ATOM     24  O   UNL     1     -45.267  39.878  11.272  1.00  0.00    -0.508 OA
ATOM     25  H   UNL     1     -46.042  39.876  11.926  1.00  0.00     0.293 HD
ENDBRANCH   8  24
TORSDOF 5
ENDMDL
