MODEL 1
REMARK VINA RESULT:    -7.145      0.000      0.000
REMARK INTER + INTRA:          -7.467
REMARK INTER:                  -7.772
REMARK INTRA:                   0.305
REMARK UNBOUND:                 0.305
REMARK SMILES C[C@H]1[C@H](C)CC[C@]2(C(=O)[O-])CC[C@@]3(C)C(=CC[C@@H]4[C@]5(C)CC[C@H](O)C(C)(C)[C@@H]5CC[C@@]43C)[C@@H]12
REMARK SMILES IDX 7 1 6 2 11 3 33 4 5 5 12 6 15 7 2 8 3 9 13 10 16 11 1 12
REMARK SMILES IDX 4 13 14 14 31 15 17 16 18 17 30 18 32 19 19 20 29 21 28 22
REMARK SMILES IDX 21 23 20 24 25 25 22 26 23 27 26 28 27 29 8 30 9 31 10 32
REMARK SMILES IDX 24 33
REMARK H PARENT 24 34
REMARK Flexibility Score: inf
ROOT
ATOM      1  C   UNL     1     -53.504 -65.521  -0.857  1.00  0.00     0.017 C 
ATOM      2  C   UNL     1     -53.977 -67.002  -0.753  1.00  0.00     0.014 C 
ATOM      3  C   UNL     1     -52.665 -65.351  -2.173  1.00  0.00     0.014 C 
ATOM      4  C   UNL     1     -52.635 -65.221   0.416  1.00  0.00     0.030 C 
ATOM      5  C   UNL     1     -54.753 -67.299   0.542  1.00  0.00     0.004 C 
ATOM      6  C   UNL     1     -51.190 -64.974  -1.947  1.00  0.00     0.013 C 
ATOM      7  C   UNL     1     -51.817 -63.924   0.270  1.00  0.00    -0.063 C 
ATOM      8  C   UNL     1     -53.387 -65.491   1.769  1.00  0.00    -0.003 C 
ATOM      9  C   UNL     1     -53.961 -66.940   1.818  1.00  0.00    -0.011 C 
ATOM     10  C   UNL     1     -51.002 -63.704  -1.028  1.00  0.00    -0.006 C 
ATOM     11  C   UNL     1     -51.549 -63.141   1.335  1.00  0.00    -0.027 C 
ATOM     12  C   UNL     1     -54.490 -64.468   2.125  1.00  0.00     0.008 C 
ATOM     13  C   UNL     1     -52.873 -67.989   2.118  1.00  0.00     0.008 C 
ATOM     14  C   UNL     1     -51.577 -62.497  -1.823  1.00  0.00     0.017 C 
ATOM     15  C   UNL     1     -49.457 -63.438  -0.631  1.00  0.00    -0.020 C 
ATOM     16  C   UNL     1     -50.663 -61.949   1.212  1.00  0.00     0.032 C 
ATOM     17  C   UNL     1     -49.314 -62.287   0.503  1.00  0.00     0.006 C 
ATOM     18  C   UNL     1     -48.579 -63.166  -1.895  1.00  0.00     0.008 C 
ATOM     19  C   UNL     1     -48.869 -64.758  -0.016  1.00  0.00     0.012 C 
ATOM     20  C   UNL     1     -48.390 -60.972   0.265  1.00  0.00    -0.025 C 
ATOM     21  C   UNL     1     -48.255 -61.713  -2.154  1.00  0.00     0.005 C 
ATOM     22  C   UNL     1     -47.431 -61.128  -0.982  1.00  0.00     0.003 C 
ATOM     23  C   UNL     1     -49.250 -59.673   0.078  1.00  0.00     0.010 C 
ATOM     24  C   UNL     1     -47.554 -60.801   1.577  1.00  0.00     0.012 C 
ATOM     25  C   UNL     1     -46.620 -59.815  -1.403  1.00  0.00    -0.006 C 
ATOM     26  C   UNL     1     -48.456 -58.406  -0.279  1.00  0.00     0.033 C 
ATOM     27  C   UNL     1     -47.576 -58.587  -1.524  1.00  0.00     0.120 C 
ATOM     28  C   UNL     1     -45.884 -60.006  -2.767  1.00  0.00     0.014 C 
ATOM     29  C   UNL     1     -45.476 -59.505  -0.384  1.00  0.00     0.014 C 
ENDROOT
BRANCH   1  30
ATOM     30  C   UNL     1     -54.715 -64.601  -0.970  1.00  0.00     0.048 C 
ATOM     31  O   UNL     1     -54.573 -63.350  -1.015  1.00  0.00    -0.550 OA
ATOM     32  O   UNL     1     -55.991 -65.130  -1.142  1.00  0.00    -0.550 OA
ENDBRANCH   1  30
BRANCH  27  33
ATOM     33  O   UNL     1     -48.403 -58.712  -2.656  1.00  0.00    -0.393 OA
ATOM     34  H   UNL     1     -49.343 -58.635  -2.340  1.00  0.00     0.210 HD
ENDBRANCH  27  33
TORSDOF 2
ENDMDL
MODEL 2
REMARK VINA RESULT:    -6.856      1.476      7.854
REMARK INTER + INTRA:          -7.152
REMARK INTER:                  -7.469
REMARK INTRA:                   0.317
REMARK UNBOUND:                 0.305
REMARK SMILES C[C@H]1[C@H](C)CC[C@]2(C(=O)[O-])CC[C@@]3(C)C(=CC[C@@H]4[C@]5(C)CC[C@H](O)C(C)(C)[C@@H]5CC[C@@]43C)[C@@H]12
REMARK SMILES IDX 7 1 6 2 11 3 33 4 5 5 12 6 15 7 2 8 3 9 13 10 16 11 1 12
REMARK SMILES IDX 4 13 14 14 31 15 17 16 18 17 30 18 32 19 19 20 29 21 28 22
REMARK SMILES IDX 21 23 20 24 25 25 22 26 23 27 26 28 27 29 8 30 9 31 10 32
REMARK SMILES IDX 24 33
REMARK H PARENT 24 34
REMARK Flexibility Score: inf
ROOT
ATOM      1  C   UNL     1     -48.308 -60.383  -1.303  1.00  0.00     0.017 C 
ATOM      2  C   UNL     1     -47.164 -59.446  -0.814  1.00  0.00     0.014 C 
ATOM      3  C   UNL     1     -49.686 -59.689  -1.014  1.00  0.00     0.014 C 
ATOM      4  C   UNL     1     -48.172 -61.734  -0.512  1.00  0.00     0.030 C 
ATOM      5  C   UNL     1     -45.764 -60.060  -0.985  1.00  0.00     0.004 C 
ATOM      6  C   UNL     1     -50.581 -60.437  -0.010  1.00  0.00     0.013 C 
ATOM      7  C   UNL     1     -49.435 -62.608  -0.632  1.00  0.00    -0.063 C 
ATOM      8  C   UNL     1     -46.765 -62.414  -0.668  1.00  0.00    -0.003 C 
ATOM      9  C   UNL     1     -45.615 -61.431  -0.289  1.00  0.00    -0.011 C 
ATOM     10  C   UNL     1     -50.816 -61.952  -0.387  1.00  0.00    -0.006 C 
ATOM     11  C   UNL     1     -49.356 -63.953  -0.638  1.00  0.00    -0.027 C 
ATOM     12  C   UNL     1     -46.489 -63.049  -2.050  1.00  0.00     0.008 C 
ATOM     13  C   UNL     1     -45.462 -61.272   1.236  1.00  0.00     0.008 C 
ATOM     14  C   UNL     1     -51.650 -61.953  -1.700  1.00  0.00     0.017 C 
ATOM     15  C   UNL     1     -51.583 -62.778   0.773  1.00  0.00    -0.020 C 
ATOM     16  C   UNL     1     -50.585 -64.798  -0.639  1.00  0.00     0.032 C 
ATOM     17  C   UNL     1     -51.594 -64.373   0.473  1.00  0.00     0.006 C 
ATOM     18  C   UNL     1     -53.007 -62.195   1.046  1.00  0.00     0.008 C 
ATOM     19  C   UNL     1     -50.805 -62.575   2.123  1.00  0.00     0.012 C 
ATOM     20  C   UNL     1     -52.982 -65.213   0.407  1.00  0.00    -0.025 C 
ATOM     21  C   UNL     1     -54.148 -62.964   0.421  1.00  0.00     0.005 C 
ATOM     22  C   UNL     1     -54.206 -64.400   0.992  1.00  0.00     0.003 C 
ATOM     23  C   UNL     1     -53.331 -65.663  -1.054  1.00  0.00     0.010 C 
ATOM     24  C   UNL     1     -52.733 -66.506   1.254  1.00  0.00     0.012 C 
ATOM     25  C   UNL     1     -55.644 -65.075   0.799  1.00  0.00    -0.006 C 
ATOM     26  C   UNL     1     -54.694 -66.354  -1.221  1.00  0.00     0.033 C 
ATOM     27  C   UNL     1     -55.859 -65.509  -0.684  1.00  0.00     0.120 C 
ATOM     28  C   UNL     1     -56.795 -64.100   1.202  1.00  0.00     0.014 C 
ATOM     29  C   UNL     1     -55.825 -66.304   1.749  1.00  0.00     0.014 C 
ENDROOT
BRANCH   1  30
ATOM     30  C   UNL     1     -48.205 -60.575  -2.813  1.00  0.00     0.048 C 
ATOM     31  O   UNL     1     -49.080 -61.228  -3.441  1.00  0.00    -0.550 OA
ATOM     32  O   UNL     1     -47.207 -59.934  -3.540  1.00  0.00    -0.550 OA
ENDBRANCH   1  30
BRANCH  27  33
ATOM     33  O   UNL     1     -56.027 -64.383  -1.511  1.00  0.00    -0.393 OA
ATOM     34  H   UNL     1     -55.989 -63.582  -0.925  1.00  0.00     0.210 HD
ENDBRANCH  27  33
TORSDOF 2
ENDMDL
MODEL 3
REMARK VINA RESULT:    -6.732      4.718     11.484
REMARK INTER + INTRA:          -7.017
REMARK INTER:                  -7.357
REMARK INTRA:                   0.340
REMARK UNBOUND:                 0.305
REMARK SMILES C[C@H]1[C@H](C)CC[C@]2(C(=O)[O-])CC[C@@]3(C)C(=CC[C@@H]4[C@]5(C)CC[C@H](O)C(C)(C)[C@@H]5CC[C@@]43C)[C@@H]12
REMARK SMILES IDX 7 1 6 2 11 3 33 4 5 5 12 6 15 7 2 8 3 9 13 10 16 11 1 12
REMARK SMILES IDX 4 13 14 14 31 15 17 16 18 17 30 18 32 19 19 20 29 21 28 22
REMARK SMILES IDX 21 23 20 24 25 25 22 26 23 27 26 28 27 29 8 30 9 31 10 32
REMARK SMILES IDX 24 33
REMARK H PARENT 24 34
REMARK Flexibility Score: inf
ROOT
ATOM      1  C   UNL     1     -40.413 -56.797   0.824  1.00  0.00     0.017 C 
ATOM      2  C   UNL     1     -39.075 -56.831   1.620  1.00  0.00     0.014 C 
ATOM      3  C   UNL     1     -41.572 -56.394   1.803  1.00  0.00     0.014 C 
ATOM      4  C   UNL     1     -40.639 -58.235   0.234  1.00  0.00     0.030 C 
ATOM      5  C   UNL     1     -37.876 -57.285   0.770  1.00  0.00     0.004 C 
ATOM      6  C   UNL     1     -42.643 -57.481   2.008  1.00  0.00     0.013 C 
ATOM      7  C   UNL     1     -42.081 -58.438  -0.268  1.00  0.00    -0.063 C 
ATOM      8  C   UNL     1     -39.450 -58.741  -0.660  1.00  0.00    -0.003 C 
ATOM      9  C   UNL     1     -38.093 -58.662   0.104  1.00  0.00    -0.011 C 
ATOM     10  C   UNL     1     -43.252 -58.023   0.656  1.00  0.00    -0.006 C 
ATOM     11  C   UNL     1     -42.349 -59.230  -1.326  1.00  0.00    -0.027 C 
ATOM     12  C   UNL     1     -39.325 -58.056  -2.040  1.00  0.00     0.008 C 
ATOM     13  C   UNL     1     -37.927 -59.809   1.120  1.00  0.00     0.008 C 
ATOM     14  C   UNL     1     -44.039 -56.840   0.023  1.00  0.00     0.017 C 
ATOM     15  C   UNL     1     -44.222 -59.300   0.869  1.00  0.00    -0.020 C 
ATOM     16  C   UNL     1     -43.753 -59.516  -1.739  1.00  0.00     0.032 C 
ATOM     17  C   UNL     1     -44.635 -59.987  -0.541  1.00  0.00     0.006 C 
ATOM     18  C   UNL     1     -45.454 -58.941   1.762  1.00  0.00     0.008 C 
ATOM     19  C   UNL     1     -43.438 -60.385   1.691  1.00  0.00     0.012 C 
ATOM     20  C   UNL     1     -46.192 -60.193  -0.959  1.00  0.00    -0.025 C 
ATOM     21  C   UNL     1     -46.744 -58.702   1.013  1.00  0.00     0.005 C 
ATOM     22  C   UNL     1     -47.175 -59.982   0.261  1.00  0.00     0.003 C 
ATOM     23  C   UNL     1     -46.622 -59.233  -2.123  1.00  0.00     0.010 C 
ATOM     24  C   UNL     1     -46.294 -61.660  -1.493  1.00  0.00     0.012 C 
ATOM     25  C   UNL     1     -48.735 -59.982  -0.097  1.00  0.00    -0.006 C 
ATOM     26  C   UNL     1     -48.114 -59.276  -2.491  1.00  0.00     0.033 C 
ATOM     27  C   UNL     1     -49.031 -59.018  -1.287  1.00  0.00     0.120 C 
ATOM     28  C   UNL     1     -49.605 -59.545   1.124  1.00  0.00     0.014 C 
ATOM     29  C   UNL     1     -49.238 -61.423  -0.436  1.00  0.00     0.014 C 
ENDROOT
BRANCH   1  30
ATOM     30  C   UNL     1     -40.340 -55.724  -0.257  1.00  0.00     0.048 C 
ATOM     31  O   UNL     1     -41.365 -55.400  -0.915  1.00  0.00    -0.550 OA
ATOM     32  O   UNL     1     -39.168 -55.002  -0.458  1.00  0.00    -0.550 OA
ENDBRANCH   1  30
BRANCH  27  33
ATOM     33  O   UNL     1     -48.894 -57.677  -0.886  1.00  0.00    -0.393 OA
ATOM     34  H   UNL     1     -47.940 -57.541  -0.644  1.00  0.00     0.210 HD
ENDBRANCH  27  33
TORSDOF 2
ENDMDL
MODEL 4
REMARK VINA RESULT:    -6.549      1.783      3.089
REMARK INTER + INTRA:          -6.818
REMARK INTER:                  -7.126
REMARK INTRA:                   0.308
REMARK UNBOUND:                 0.305
REMARK SMILES C[C@H]1[C@H](C)CC[C@]2(C(=O)[O-])CC[C@@]3(C)C(=CC[C@@H]4[C@]5(C)CC[C@H](O)C(C)(C)[C@@H]5CC[C@@]43C)[C@@H]12
REMARK SMILES IDX 7 1 6 2 11 3 33 4 5 5 12 6 15 7 2 8 3 9 13 10 16 11 1 12
REMARK SMILES IDX 4 13 14 14 31 15 17 16 18 17 30 18 32 19 19 20 29 21 28 22
REMARK SMILES IDX 21 23 20 24 25 25 22 26 23 27 26 28 27 29 8 30 9 31 10 32
REMARK SMILES IDX 24 33
REMARK H PARENT 24 34
REMARK Flexibility Score: inf
ROOT
ATOM      1  C   UNL     1     -53.377 -65.955   1.086  1.00  0.00     0.017 C 
ATOM      2  C   UNL     1     -54.462 -66.373   2.123  1.00  0.00     0.014 C 
ATOM      3  C   UNL     1     -51.971 -65.988   1.786  1.00  0.00     0.014 C 
ATOM      4  C   UNL     1     -53.736 -64.506   0.596  1.00  0.00     0.030 C 
ATOM      5  C   UNL     1     -55.892 -66.308   1.561  1.00  0.00     0.004 C 
ATOM      6  C   UNL     1     -51.272 -64.620   1.880  1.00  0.00     0.013 C 
ATOM      7  C   UNL     1     -52.567 -63.837  -0.150  1.00  0.00    -0.063 C 
ATOM      8  C   UNL     1     -55.183 -64.388  -0.005  1.00  0.00    -0.003 C 
ATOM      9  C   UNL     1     -56.257 -64.918   0.994  1.00  0.00    -0.011 C 
ATOM     10  C   UNL     1     -51.158 -63.877   0.492  1.00  0.00    -0.006 C 
ATOM     11  C   UNL     1     -52.785 -62.976  -1.164  1.00  0.00    -0.027 C 
ATOM     12  C   UNL     1     -55.376 -65.042  -1.392  1.00  0.00     0.008 C 
ATOM     13  C   UNL     1     -56.553 -63.911   2.122  1.00  0.00     0.008 C 
ATOM     14  C   UNL     1     -50.195 -64.728  -0.384  1.00  0.00     0.017 C 
ATOM     15  C   UNL     1     -50.610 -62.362   0.632  1.00  0.00    -0.020 C 
ATOM     16  C   UNL     1     -51.658 -62.243  -1.809  1.00  0.00     0.032 C 
ATOM     17  C   UNL     1     -50.734 -61.543  -0.764  1.00  0.00     0.006 C 
ATOM     18  C   UNL     1     -49.169 -62.327   1.237  1.00  0.00     0.008 C 
ATOM     19  C   UNL     1     -51.501 -61.607   1.682  1.00  0.00     0.012 C 
ATOM     20  C   UNL     1     -49.442 -60.837  -1.450  1.00  0.00    -0.025 C 
ATOM     21  C   UNL     1     -48.055 -62.120   0.237  1.00  0.00     0.005 C 
ATOM     22  C   UNL     1     -48.209 -60.750  -0.464  1.00  0.00     0.003 C 
ATOM     23  C   UNL     1     -48.990 -61.577  -2.757  1.00  0.00     0.010 C 
ATOM     24  C   UNL     1     -49.914 -59.402  -1.859  1.00  0.00     0.012 C 
ATOM     25  C   UNL     1     -46.838 -60.240  -1.111  1.00  0.00    -0.006 C 
ATOM     26  C   UNL     1     -47.697 -61.048  -3.397  1.00  0.00     0.033 C 
ATOM     27  C   UNL     1     -46.514 -61.027  -2.419  1.00  0.00     0.120 C 
ATOM     28  C   UNL     1     -45.639 -60.405  -0.123  1.00  0.00     0.014 C 
ATOM     29  C   UNL     1     -46.889 -58.705  -1.407  1.00  0.00     0.014 C 
ENDROOT
BRANCH   1  30
ATOM     30  C   UNL     1     -53.338 -66.967  -0.054  1.00  0.00     0.048 C 
ATOM     31  O   UNL     1     -52.535 -66.826  -1.015  1.00  0.00    -0.550 OA
ATOM     32  O   UNL     1     -54.107 -68.125   0.003  1.00  0.00    -0.550 OA
ENDBRANCH   1  30
BRANCH  27  33
ATOM     33  O   UNL     1     -46.141 -62.351  -2.121  1.00  0.00    -0.393 OA
ATOM     34  H   UNL     1     -45.150 -62.367  -2.054  1.00  0.00     0.210 HD
ENDBRANCH  27  33
TORSDOF 2
ENDMDL
MODEL 5
REMARK VINA RESULT:    -6.390      1.942      3.399
REMARK INTER + INTRA:          -6.645
REMARK INTER:                  -7.086
REMARK INTRA:                   0.442
REMARK UNBOUND:                 0.305
REMARK SMILES C[C@H]1[C@H](C)CC[C@]2(C(=O)[O-])CC[C@@]3(C)C(=CC[C@@H]4[C@]5(C)CC[C@H](O)C(C)(C)[C@@H]5CC[C@@]43C)[C@@H]12
REMARK SMILES IDX 7 1 6 2 11 3 33 4 5 5 12 6 15 7 2 8 3 9 13 10 16 11 1 12
REMARK SMILES IDX 4 13 14 14 31 15 17 16 18 17 30 18 32 19 19 20 29 21 28 22
REMARK SMILES IDX 21 23 20 24 25 25 22 26 23 27 26 28 27 29 8 30 9 31 10 32
REMARK SMILES IDX 24 33
REMARK H PARENT 24 34
REMARK Flexibility Score: inf
ROOT
ATOM      1  C   UNL     1     -51.967 -65.917   0.962  1.00  0.00     0.017 C 
ATOM      2  C   UNL     1     -53.078 -66.691   1.731  1.00  0.00     0.014 C 
ATOM      3  C   UNL     1     -50.875 -65.450   1.990  1.00  0.00     0.014 C 
ATOM      4  C   UNL     1     -52.654 -64.690   0.263  1.00  0.00     0.030 C 
ATOM      5  C   UNL     1     -54.241 -67.136   0.826  1.00  0.00     0.004 C 
ATOM      6  C   UNL     1     -50.736 -63.923   2.125  1.00  0.00     0.013 C 
ATOM      7  C   UNL     1     -51.629 -63.650  -0.228  1.00  0.00    -0.063 C 
ATOM      8  C   UNL     1     -53.839 -65.091  -0.688  1.00  0.00    -0.003 C 
ATOM      9  C   UNL     1     -54.892 -65.966   0.057  1.00  0.00    -0.011 C 
ATOM     10  C   UNL     1     -50.517 -63.189   0.745  1.00  0.00    -0.006 C 
ATOM     11  C   UNL     1     -51.849 -62.922  -1.341  1.00  0.00    -0.027 C 
ATOM     12  C   UNL     1     -53.420 -65.771  -2.011  1.00  0.00     0.008 C 
ATOM     13  C   UNL     1     -55.803 -65.129   0.975  1.00  0.00     0.008 C 
ATOM     14  C   UNL     1     -49.125 -63.644   0.221  1.00  0.00     0.017 C 
ATOM     15  C   UNL     1     -50.576 -61.578   0.872  1.00  0.00    -0.020 C 
ATOM     16  C   UNL     1     -50.911 -61.838  -1.752  1.00  0.00     0.032 C 
ATOM     17  C   UNL     1     -50.595 -60.857  -0.581  1.00  0.00     0.006 C 
ATOM     18  C   UNL     1     -49.450 -61.035   1.812  1.00  0.00     0.008 C 
ATOM     19  C   UNL     1     -51.916 -61.186   1.592  1.00  0.00     0.012 C 
ATOM     20  C   UNL     1     -49.488 -59.739  -0.988  1.00  0.00    -0.025 C 
ATOM     21  C   UNL     1     -48.250 -60.448   1.106  1.00  0.00     0.005 C 
ATOM     22  C   UNL     1     -48.668 -59.222   0.262  1.00  0.00     0.003 C 
ATOM     23  C   UNL     1     -48.479 -60.273  -2.064  1.00  0.00     0.010 C 
ATOM     24  C   UNL     1     -50.294 -58.564  -1.635  1.00  0.00     0.012 C 
ATOM     25  C   UNL     1     -47.434 -58.260  -0.068  1.00  0.00    -0.006 C 
ATOM     26  C   UNL     1     -47.323 -59.320  -2.410  1.00  0.00     0.033 C 
ATOM     27  C   UNL     1     -46.525 -58.882  -1.174  1.00  0.00     0.120 C 
ATOM     28  C   UNL     1     -46.560 -57.989   1.198  1.00  0.00     0.014 C 
ATOM     29  C   UNL     1     -47.923 -56.842  -0.512  1.00  0.00     0.014 C 
ENDROOT
BRANCH   1  30
ATOM     30  C   UNL     1     -51.283 -66.850  -0.032  1.00  0.00     0.048 C 
ATOM     31  O   UNL     1     -51.601 -68.068  -0.097  1.00  0.00    -0.550 OA
ATOM     32  O   UNL     1     -50.380 -66.350  -0.965  1.00  0.00    -0.550 OA
ENDBRANCH   1  30
BRANCH  27  33
ATOM     33  O   UNL     1     -45.817 -59.989  -0.669  1.00  0.00    -0.393 OA
ATOM     34  H   UNL     1     -46.458 -60.523  -0.129  1.00  0.00     0.210 HD
ENDBRANCH  27  33
TORSDOF 2
ENDMDL
MODEL 6
REMARK VINA RESULT:    -6.151      4.338      7.708
REMARK INTER + INTRA:          -6.385
REMARK INTER:                  -6.704
REMARK INTRA:                   0.319
REMARK UNBOUND:                 0.305
REMARK SMILES C[C@H]1[C@H](C)CC[C@]2(C(=O)[O-])CC[C@@]3(C)C(=CC[C@@H]4[C@]5(C)CC[C@H](O)C(C)(C)[C@@H]5CC[C@@]43C)[C@@H]12
REMARK SMILES IDX 7 1 6 2 11 3 33 4 5 5 12 6 15 7 2 8 3 9 13 10 16 11 1 12
REMARK SMILES IDX 4 13 14 14 31 15 17 16 18 17 30 18 32 19 19 20 29 21 28 22
REMARK SMILES IDX 21 23 20 24 25 25 22 26 23 27 26 28 27 29 8 30 9 31 10 32
REMARK SMILES IDX 24 33
REMARK H PARENT 24 34
REMARK Flexibility Score: inf
ROOT
ATOM      1  C   UNL     1     -47.765 -60.915  -1.334  1.00  0.00     0.017 C 
ATOM      2  C   UNL     1     -48.961 -61.815  -0.902  1.00  0.00     0.014 C 
ATOM      3  C   UNL     1     -46.460 -61.788  -1.357  1.00  0.00     0.014 C 
ATOM      4  C   UNL     1     -47.656 -59.753  -0.283  1.00  0.00     0.030 C 
ATOM      5  C   UNL     1     -50.285 -61.042  -0.778  1.00  0.00     0.004 C 
ATOM      6  C   UNL     1     -45.386 -61.358  -0.341  1.00  0.00     0.013 C 
ATOM      7  C   UNL     1     -46.314 -59.003  -0.383  1.00  0.00    -0.063 C 
ATOM      8  C   UNL     1     -48.978 -58.918  -0.130  1.00  0.00    -0.003 C 
ATOM      9  C   UNL     1     -50.196 -59.839   0.187  1.00  0.00    -0.011 C 
ATOM     10  C   UNL     1     -45.006 -59.829  -0.440  1.00  0.00    -0.006 C 
ATOM     11  C   UNL     1     -46.228 -57.684  -0.115  1.00  0.00    -0.027 C 
ATOM     12  C   UNL     1     -49.310 -57.985  -1.317  1.00  0.00     0.008 C 
ATOM     13  C   UNL     1     -50.216 -60.296   1.658  1.00  0.00     0.008 C 
ATOM     14  C   UNL     1     -44.313 -59.637  -1.819  1.00  0.00     0.017 C 
ATOM     15  C   UNL     1     -44.033 -59.343   0.757  1.00  0.00    -0.020 C 
ATOM     16  C   UNL     1     -44.911 -56.985  -0.100  1.00  0.00     0.032 C 
ATOM     17  C   UNL     1     -43.857 -57.730   0.776  1.00  0.00     0.006 C 
ATOM     18  C   UNL     1     -42.671 -60.109   0.735  1.00  0.00     0.008 C 
ATOM     19  C   UNL     1     -44.692 -59.744   2.125  1.00  0.00     0.012 C 
ATOM     20  C   UNL     1     -42.390 -57.037   0.707  1.00  0.00    -0.025 C 
ATOM     21  C   UNL     1     -41.512 -59.344   0.138  1.00  0.00     0.005 C 
ATOM     22  C   UNL     1     -41.222 -58.072   0.968  1.00  0.00     0.003 C 
ATOM     23  C   UNL     1     -42.135 -56.329  -0.669  1.00  0.00     0.010 C 
ATOM     24  C   UNL     1     -42.394 -55.931   1.815  1.00  0.00     0.012 C 
ATOM     25  C   UNL     1     -39.739 -57.518   0.737  1.00  0.00    -0.006 C 
ATOM     26  C   UNL     1     -40.721 -55.758  -0.862  1.00  0.00     0.033 C 
ATOM     27  C   UNL     1     -39.621 -56.808  -0.647  1.00  0.00     0.120 C 
ATOM     28  C   UNL     1     -38.681 -58.665   0.798  1.00  0.00     0.014 C 
ATOM     29  C   UNL     1     -39.317 -56.538   1.880  1.00  0.00     0.014 C 
ENDROOT
BRANCH   1  30
ATOM     30  C   UNL     1     -47.993 -60.404  -2.752  1.00  0.00     0.048 C 
ATOM     31  O   UNL     1     -47.249 -59.514  -3.244  1.00  0.00    -0.550 OA
ATOM     32  O   UNL     1     -48.952 -60.993  -3.570  1.00  0.00    -0.550 OA
ENDBRANCH   1  30
BRANCH  27  33
ATOM     33  O   UNL     1     -39.674 -57.748  -1.693  1.00  0.00    -0.393 OA
ATOM     34  H   UNL     1     -39.886 -57.247  -2.525  1.00  0.00     0.210 HD
ENDBRANCH  27  33
TORSDOF 2
ENDMDL
MODEL 7
REMARK VINA RESULT:    -6.012      2.783      5.585
REMARK INTER + INTRA:          -6.234
REMARK INTER:                  -6.542
REMARK INTRA:                   0.308
REMARK UNBOUND:                 0.305
REMARK SMILES C[C@H]1[C@H](C)CC[C@]2(C(=O)[O-])CC[C@@]3(C)C(=CC[C@@H]4[C@]5(C)CC[C@H](O)C(C)(C)[C@@H]5CC[C@@]43C)[C@@H]12
REMARK SMILES IDX 7 1 6 2 11 3 33 4 5 5 12 6 15 7 2 8 3 9 13 10 16 11 1 12
REMARK SMILES IDX 4 13 14 14 31 15 17 16 18 17 30 18 32 19 19 20 29 21 28 22
REMARK SMILES IDX 21 23 20 24 25 25 22 26 23 27 26 28 27 29 8 30 9 31 10 32
REMARK SMILES IDX 24 33
REMARK H PARENT 24 34
REMARK Flexibility Score: inf
ROOT
ATOM      1  C   UNL     1     -50.478 -62.143   0.707  1.00  0.00     0.017 C 
ATOM      2  C   UNL     1     -51.995 -62.315   0.397  1.00  0.00     0.014 C 
ATOM      3  C   UNL     1     -50.284 -60.848   1.573  1.00  0.00     0.014 C 
ATOM      4  C   UNL     1     -49.734 -62.024  -0.671  1.00  0.00     0.030 C 
ATOM      5  C   UNL     1     -52.294 -63.521  -0.510  1.00  0.00     0.004 C 
ATOM      6  C   UNL     1     -49.458 -59.742   0.893  1.00  0.00     0.013 C 
ATOM      7  C   UNL     1     -48.295 -61.497  -0.512  1.00  0.00    -0.063 C 
ATOM      8  C   UNL     1     -49.991 -63.241  -1.631  1.00  0.00    -0.003 C 
ATOM      9  C   UNL     1     -51.517 -63.482  -1.844  1.00  0.00    -0.011 C 
ATOM     10  C   UNL     1     -48.058 -60.241   0.362  1.00  0.00    -0.006 C 
ATOM     11  C   UNL     1     -47.307 -61.900  -1.336  1.00  0.00    -0.027 C 
ATOM     12  C   UNL     1     -49.294 -64.559  -1.225  1.00  0.00     0.008 C 
ATOM     13  C   UNL     1     -52.137 -62.469  -2.826  1.00  0.00     0.008 C 
ATOM     14  C   UNL     1     -47.219 -60.613   1.617  1.00  0.00     0.017 C 
ATOM     15  C   UNL     1     -47.289 -59.130  -0.526  1.00  0.00    -0.020 C 
ATOM     16  C   UNL     1     -45.943 -61.304  -1.254  1.00  0.00     0.032 C 
ATOM     17  C   UNL     1     -45.979 -59.744  -1.261  1.00  0.00     0.006 C 
ATOM     18  C   UNL     1     -46.978 -57.844   0.307  1.00  0.00     0.008 C 
ATOM     19  C   UNL     1     -48.260 -58.643  -1.661  1.00  0.00     0.012 C 
ATOM     20  C   UNL     1     -44.507 -59.087  -1.058  1.00  0.00    -0.025 C 
ATOM     21  C   UNL     1     -45.556 -57.727   0.803  1.00  0.00     0.005 C 
ATOM     22  C   UNL     1     -44.574 -57.656  -0.389  1.00  0.00     0.003 C 
ATOM     23  C   UNL     1     -43.567 -60.001  -0.197  1.00  0.00     0.010 C 
ATOM     24  C   UNL     1     -43.888 -58.990  -2.492  1.00  0.00     0.012 C 
ATOM     25  C   UNL     1     -43.166 -57.014   0.018  1.00  0.00    -0.006 C 
ATOM     26  C   UNL     1     -42.197 -59.393   0.148  1.00  0.00     0.033 C 
ATOM     27  C   UNL     1     -42.311 -58.027   0.840  1.00  0.00     0.120 C 
ATOM     28  C   UNL     1     -43.350 -55.716   0.868  1.00  0.00     0.014 C 
ATOM     29  C   UNL     1     -42.373 -56.542  -1.244  1.00  0.00     0.014 C 
ENDROOT
BRANCH   1  30
ATOM     30  C   UNL     1     -49.986 -63.323   1.539  1.00  0.00     0.048 C 
ATOM     31  O   UNL     1     -48.774 -63.419   1.868  1.00  0.00    -0.550 OA
ATOM     32  O   UNL     1     -50.887 -64.253   2.047  1.00  0.00    -0.550 OA
ENDBRANCH   1  30
BRANCH  27  33
ATOM     33  O   UNL     1     -42.854 -58.208   2.125  1.00  0.00    -0.393 OA
ATOM     34  H   UNL     1     -43.668 -58.769   2.021  1.00  0.00     0.210 HD
ENDBRANCH  27  33
TORSDOF 2
ENDMDL
MODEL 8
REMARK VINA RESULT:    -5.988      5.073      8.782
REMARK INTER + INTRA:          -6.208
REMARK INTER:                  -6.516
REMARK INTRA:                   0.308
REMARK UNBOUND:                 0.305
REMARK SMILES C[C@H]1[C@H](C)CC[C@]2(C(=O)[O-])CC[C@@]3(C)C(=CC[C@@H]4[C@]5(C)CC[C@H](O)C(C)(C)[C@@H]5CC[C@@]43C)[C@@H]12
REMARK SMILES IDX 7 1 6 2 11 3 33 4 5 5 12 6 15 7 2 8 3 9 13 10 16 11 1 12
REMARK SMILES IDX 4 13 14 14 31 15 17 16 18 17 30 18 32 19 19 20 29 21 28 22
REMARK SMILES IDX 21 23 20 24 25 25 22 26 23 27 26 28 27 29 8 30 9 31 10 32
REMARK SMILES IDX 24 33
REMARK H PARENT 24 34
REMARK Flexibility Score: inf
ROOT
ATOM      1  C   UNL     1     -47.604 -59.964   0.812  1.00  0.00     0.017 C 
ATOM      2  C   UNL     1     -49.070 -59.457   0.948  1.00  0.00     0.014 C 
ATOM      3  C   UNL     1     -46.819 -59.596   2.121  1.00  0.00     0.014 C 
ATOM      4  C   UNL     1     -46.982 -59.256  -0.445  1.00  0.00     0.030 C 
ATOM      5  C   UNL     1     -49.915 -59.704  -0.313  1.00  0.00     0.004 C 
ATOM      6  C   UNL     1     -45.656 -58.610   1.913  1.00  0.00     0.013 C 
ATOM      7  C   UNL     1     -45.448 -59.388  -0.488  1.00  0.00    -0.063 C 
ATOM      8  C   UNL     1     -47.798 -59.491  -1.767  1.00  0.00    -0.003 C 
ATOM      9  C   UNL     1     -49.294 -59.090  -1.588  1.00  0.00    -0.011 C 
ATOM     10  C   UNL     1     -44.640 -59.065   0.793  1.00  0.00    -0.006 C 
ATOM     11  C   UNL     1     -44.785 -59.472  -1.659  1.00  0.00    -0.027 C 
ATOM     12  C   UNL     1     -47.694 -60.914  -2.360  1.00  0.00     0.008 C 
ATOM     13  C   UNL     1     -49.500 -57.564  -1.634  1.00  0.00     0.008 C 
ATOM     14  C   UNL     1     -43.946 -60.351   1.326  1.00  0.00     0.017 C 
ATOM     15  C   UNL     1     -43.541 -57.931   0.441  1.00  0.00    -0.020 C 
ATOM     16  C   UNL     1     -43.295 -59.485  -1.702  1.00  0.00     0.032 C 
ATOM     17  C   UNL     1     -42.670 -58.321  -0.871  1.00  0.00     0.006 C 
ATOM     18  C   UNL     1     -42.658 -57.584   1.683  1.00  0.00     0.008 C 
ATOM     19  C   UNL     1     -44.297 -56.596   0.105  1.00  0.00     0.012 C 
ATOM     20  C   UNL     1     -41.048 -58.393  -0.821  1.00  0.00    -0.025 C 
ATOM     21  C   UNL     1     -41.286 -58.218   1.695  1.00  0.00     0.005 C 
ATOM     22  C   UNL     1     -40.456 -57.728   0.485  1.00  0.00     0.003 C 
ATOM     23  C   UNL     1     -40.520 -59.867  -0.917  1.00  0.00     0.010 C 
ATOM     24  C   UNL     1     -40.553 -57.629  -2.094  1.00  0.00     0.012 C 
ATOM     25  C   UNL     1     -38.883 -57.916   0.709  1.00  0.00    -0.006 C 
ATOM     26  C   UNL     1     -39.001 -60.033  -0.749  1.00  0.00     0.033 C 
ATOM     27  C   UNL     1     -38.477 -59.415   0.555  1.00  0.00     0.120 C 
ATOM     28  C   UNL     1     -38.441 -57.425   2.124  1.00  0.00     0.014 C 
ATOM     29  C   UNL     1     -38.060 -57.033  -0.285  1.00  0.00     0.014 C 
ENDROOT
BRANCH   1  30
ATOM     30  C   UNL     1     -47.595 -61.485   0.691  1.00  0.00     0.048 C 
ATOM     31  O   UNL     1     -46.510 -62.118   0.598  1.00  0.00    -0.550 OA
ATOM     32  O   UNL     1     -48.779 -62.208   0.798  1.00  0.00    -0.550 OA
ENDBRANCH   1  30
BRANCH  27  33
ATOM     33  O   UNL     1     -38.950 -60.172   1.643  1.00  0.00    -0.393 OA
ATOM     34  H   UNL     1     -38.548 -59.784   2.465  1.00  0.00     0.210 HD
ENDBRANCH  27  33
TORSDOF 2
ENDMDL
MODEL 9
REMARK VINA RESULT:    -5.921      1.430      8.128
REMARK INTER + INTRA:          -6.135
REMARK INTER:                  -6.481
REMARK INTRA:                   0.347
REMARK UNBOUND:                 0.305
REMARK SMILES C[C@H]1[C@H](C)CC[C@]2(C(=O)[O-])CC[C@@]3(C)C(=CC[C@@H]4[C@]5(C)CC[C@H](O)C(C)(C)[C@@H]5CC[C@@]43C)[C@@H]12
REMARK SMILES IDX 7 1 6 2 11 3 33 4 5 5 12 6 15 7 2 8 3 9 13 10 16 11 1 12
REMARK SMILES IDX 4 13 14 14 31 15 17 16 18 17 30 18 32 19 19 20 29 21 28 22
REMARK SMILES IDX 21 23 20 24 25 25 22 26 23 27 26 28 27 29 8 30 9 31 10 32
REMARK SMILES IDX 24 33
REMARK H PARENT 24 34
REMARK Flexibility Score: inf
ROOT
ATOM      1  C   UNL     1     -47.470 -58.838   0.529  1.00  0.00     0.017 C 
ATOM      2  C   UNL     1     -46.306 -58.042   1.191  1.00  0.00     0.014 C 
ATOM      3  C   UNL     1     -48.570 -59.118   1.613  1.00  0.00     0.014 C 
ATOM      4  C   UNL     1     -46.861 -60.176  -0.025  1.00  0.00     0.030 C 
ATOM      5  C   UNL     1     -45.135 -57.772   0.230  1.00  0.00     0.004 C 
ATOM      6  C   UNL     1     -48.791 -60.608   1.930  1.00  0.00     0.013 C 
ATOM      7  C   UNL     1     -47.950 -61.206  -0.381  1.00  0.00    -0.063 C 
ATOM      8  C   UNL     1     -45.671 -59.957  -1.027  1.00  0.00    -0.003 C 
ATOM      9  C   UNL     1     -44.560 -59.060  -0.400  1.00  0.00    -0.011 C 
ATOM     10  C   UNL     1     -49.071 -61.486   0.649  1.00  0.00    -0.006 C 
ATOM     11  C   UNL     1     -47.786 -62.072  -1.402  1.00  0.00    -0.027 C 
ATOM     12  C   UNL     1     -46.071 -59.415  -2.418  1.00  0.00     0.008 C 
ATOM     13  C   UNL     1     -43.683 -59.833   0.604  1.00  0.00     0.008 C 
ATOM     14  C   UNL     1     -50.443 -61.019   0.086  1.00  0.00     0.017 C 
ATOM     15  C   UNL     1     -49.098 -63.072   0.967  1.00  0.00    -0.020 C 
ATOM     16  C   UNL     1     -48.788 -63.143  -1.673  1.00  0.00     0.032 C 
ATOM     17  C   UNL     1     -49.140 -63.960  -0.391  1.00  0.00     0.006 C 
ATOM     18  C   UNL     1     -50.238 -63.436   1.973  1.00  0.00     0.008 C 
ATOM     19  C   UNL     1     -47.771 -63.450   1.716  1.00  0.00     0.012 C 
ATOM     20  C   UNL     1     -50.312 -65.053  -0.653  1.00  0.00    -0.025 C 
ATOM     21  C   UNL     1     -51.479 -64.033   1.351  1.00  0.00     0.005 C 
ATOM     22  C   UNL     1     -51.141 -65.373   0.656  1.00  0.00     0.003 C 
ATOM     23  C   UNL     1     -51.306 -64.595  -1.777  1.00  0.00     0.010 C 
ATOM     24  C   UNL     1     -49.582 -66.340  -1.163  1.00  0.00     0.012 C 
ATOM     25  C   UNL     1     -52.431 -66.296   0.452  1.00  0.00    -0.006 C 
ATOM     26  C   UNL     1     -52.517 -65.515  -1.997  1.00  0.00     0.033 C 
ATOM     27  C   UNL     1     -53.321 -65.759  -0.711  1.00  0.00     0.120 C 
ATOM     28  C   UNL     1     -53.299 -66.366   1.749  1.00  0.00     0.014 C 
ATOM     29  C   UNL     1     -52.026 -67.781   0.176  1.00  0.00     0.014 C 
ENDROOT
BRANCH   1  30
ATOM     30  C   UNL     1     -48.116 -57.991  -0.564  1.00  0.00     0.048 C 
ATOM     31  O   UNL     1     -48.882 -58.514  -1.416  1.00  0.00    -0.550 OA
ATOM     32  O   UNL     1     -47.963 -56.608  -0.568  1.00  0.00    -0.550 OA
ENDBRANCH   1  30
BRANCH  27  33
ATOM     33  O   UNL     1     -53.959 -64.562  -0.336  1.00  0.00    -0.393 OA
ATOM     34  H   UNL     1     -54.932 -64.688  -0.496  1.00  0.00     0.210 HD
ENDBRANCH  27  33
TORSDOF 2
ENDMDL
