MODEL 1
REMARK VINA RESULT:    -4.746      0.000      0.000
REMARK INTER + INTRA:         -16.761
REMARK INTER:                 -11.960
REMARK INTRA:                  -4.801
REMARK UNBOUND:                -4.801
REMARK SMILES CCCCCCCCCCCCCCCCCCCCCCCCCCCC(=O)[O-]
REMARK SMILES IDX 15 1 16 2 17 3 18 4 19 5 20 6 21 7 22 8 23 9 24 10 25 11
REMARK SMILES IDX 26 12 27 13 28 14 29 15 30 16 14 17 13 18 12 19 11 20 10 21
REMARK SMILES IDX 9 22 8 23 7 24 6 25 5 26 4 27 3 28 2 29 1 30
REMARK H PARENT
REMARK Flexibility Score: inf
ROOT
ATOM      1  C   UNL     1     -20.967  18.848 -25.198  1.00  0.00     0.000 C 
ENDROOT
BRANCH   1   2
ATOM      2  C   UNL     1     -22.352  18.190 -25.312  1.00  0.00     0.000 C 
BRANCH   2   3
ATOM      3  C   UNL     1     -23.390  18.847 -24.377  1.00  0.00     0.000 C 
BRANCH   3   4
ATOM      4  C   UNL     1     -22.841  20.049 -23.588  1.00  0.00     0.000 C 
BRANCH   4   5
ATOM      5  C   UNL     1     -22.909  19.844 -22.065  1.00  0.00     0.000 C 
BRANCH   5   6
ATOM      6  C   UNL     1     -24.339  19.962 -21.514  1.00  0.00     0.000 C 
BRANCH   6   7
ATOM      7  C   UNL     1     -24.779  21.423 -21.309  1.00  0.00     0.000 C 
BRANCH   7   8
ATOM      8  C   UNL     1     -23.689  22.276 -20.639  1.00  0.00     0.000 C 
BRANCH   8   9
ATOM      9  C   UNL     1     -23.215  23.433 -21.536  1.00  0.00     0.000 C 
BRANCH   9  10
ATOM     10  C   UNL     1     -24.209  23.753 -22.665  1.00  0.00     0.000 C 
BRANCH  10  11
ATOM     11  C   UNL     1     -23.560  23.726 -24.057  1.00  0.00     0.000 C 
BRANCH  11  12
ATOM     12  C   UNL     1     -22.048  23.472 -23.950  1.00  0.00     0.006 C 
BRANCH  12  13
ATOM     13  C   UNL     1     -21.402  23.209 -25.316  1.00  0.00     0.053 C 
BRANCH  13  14
ATOM     14  C   UNL     1     -21.128  24.481 -26.060  1.00  0.00     0.041 C 
ATOM     15  O   UNL     1     -21.253  24.522 -27.313  1.00  0.00    -0.550 OA
ATOM     16  O   UNL     1     -20.722  25.618 -25.371  1.00  0.00    -0.550 OA
ENDBRANCH  13  14
ENDBRANCH  12  13
ENDBRANCH  11  12
ENDBRANCH  10  11
ENDBRANCH   9  10
ENDBRANCH   8   9
ENDBRANCH   7   8
ENDBRANCH   6   7
ENDBRANCH   5   6
ENDBRANCH   4   5
ENDBRANCH   3   4
ENDBRANCH   2   3
ENDBRANCH   1   2
BRANCH   1  17
ATOM     17  C   UNL     1     -19.940  17.870 -24.616  1.00  0.00     0.000 C 
BRANCH  17  18
ATOM     18  C   UNL     1     -20.631  16.622 -24.043  1.00  0.00     0.000 C 
BRANCH  18  19
ATOM     19  C   UNL     1     -20.258  16.373 -22.570  1.00  0.00     0.000 C 
BRANCH  19  20
ATOM     20  C   UNL     1     -21.440  16.549 -21.598  1.00  0.00     0.000 C 
BRANCH  20  21
ATOM     21  C   UNL     1     -22.761  16.027 -22.191  1.00  0.00     0.000 C 
BRANCH  21  22
ATOM     22  C   UNL     1     -23.972  16.318 -21.290  1.00  0.00    -0.000 C 
BRANCH  22  23
ATOM     23  C   UNL     1     -24.764  15.048 -20.933  1.00  0.00    -0.000 C 
BRANCH  23  24
ATOM     24  C   UNL     1     -24.424  14.515 -19.523  1.00  0.00    -0.000 C 
BRANCH  24  25
ATOM     25  C   UNL     1     -23.436  13.333 -19.529  1.00  0.00    -0.000 C 
BRANCH  25  26
ATOM     26  C   UNL     1     -23.396  12.527 -20.841  1.00  0.00    -0.000 C 
BRANCH  26  27
ATOM     27  C   UNL     1     -22.022  12.481 -21.540  1.00  0.00    -0.000 C 
BRANCH  27  28
ATOM     28  C   UNL     1     -20.850  13.046 -20.715  1.00  0.00    -0.000 C 
BRANCH  28  29
ATOM     29  C   UNL     1     -19.489  12.849 -21.398  1.00  0.00    -0.003 C 
ATOM     30  C   UNL     1     -19.656  12.608 -22.896  1.00  0.00     0.004 C 
ENDBRANCH  28  29
ENDBRANCH  27  28
ENDBRANCH  26  27
ENDBRANCH  25  26
ENDBRANCH  24  25
ENDBRANCH  23  24
ENDBRANCH  22  23
ENDBRANCH  21  22
ENDBRANCH  20  21
ENDBRANCH  19  20
ENDBRANCH  18  19
ENDBRANCH  17  18
ENDBRANCH   1  17
TORSDOF 26
ENDMDL
MODEL 2
REMARK VINA RESULT:    -4.682      1.502      3.467
REMARK INTER + INTRA:         -16.600
REMARK INTER:                 -12.689
REMARK INTRA:                  -3.911
REMARK UNBOUND:                -4.801
REMARK SMILES CCCCCCCCCCCCCCCCCCCCCCCCCCCC(=O)[O-]
REMARK SMILES IDX 15 1 16 2 17 3 18 4 19 5 20 6 21 7 22 8 23 9 24 10 25 11
REMARK SMILES IDX 26 12 27 13 28 14 29 15 30 16 14 17 13 18 12 19 11 20 10 21
REMARK SMILES IDX 9 22 8 23 7 24 6 25 5 26 4 27 3 28 2 29 1 30
REMARK H PARENT
REMARK Flexibility Score: inf
ROOT
ATOM      1  C   UNL     1     -21.001  18.755 -25.889  1.00  0.00     0.000 C 
ENDROOT
BRANCH   1   2
ATOM      2  C   UNL     1     -21.659  20.142 -25.965  1.00  0.00     0.000 C 
BRANCH   2   3
ATOM      3  C   UNL     1     -22.436  20.494 -24.678  1.00  0.00     0.000 C 
BRANCH   3   4
ATOM      4  C   UNL     1     -22.935  21.949 -24.634  1.00  0.00     0.000 C 
BRANCH   4   5
ATOM      5  C   UNL     1     -23.153  22.461 -23.200  1.00  0.00     0.000 C 
BRANCH   5   6
ATOM      6  C   UNL     1     -24.609  22.877 -22.934  1.00  0.00     0.000 C 
BRANCH   6   7
ATOM      7  C   UNL     1     -24.718  24.119 -22.031  1.00  0.00     0.000 C 
BRANCH   7   8
ATOM      8  C   UNL     1     -24.872  25.420 -22.837  1.00  0.00     0.000 C 
BRANCH   8   9
ATOM      9  C   UNL     1     -23.555  26.210 -22.934  1.00  0.00     0.000 C 
BRANCH   9  10
ATOM     10  C   UNL     1     -22.809  25.960 -24.255  1.00  0.00     0.000 C 
BRANCH  10  11
ATOM     11  C   UNL     1     -23.754  25.826 -25.457  1.00  0.00     0.000 C 
BRANCH  11  12
ATOM     12  C   UNL     1     -23.010  25.258 -26.676  1.00  0.00     0.006 C 
BRANCH  12  13
ATOM     13  C   UNL     1     -21.692  25.995 -26.951  1.00  0.00     0.053 C 
BRANCH  13  14
ATOM     14  C   UNL     1     -20.544  25.045 -27.114  1.00  0.00     0.041 C 
ATOM     15  O   UNL     1     -19.419  25.471 -27.492  1.00  0.00    -0.550 OA
ATOM     16  O   UNL     1     -20.718  23.690 -26.862  1.00  0.00    -0.550 OA
ENDBRANCH  13  14
ENDBRANCH  12  13
ENDBRANCH  11  12
ENDBRANCH  10  11
ENDBRANCH   9  10
ENDBRANCH   8   9
ENDBRANCH   7   8
ENDBRANCH   6   7
ENDBRANCH   5   6
ENDBRANCH   4   5
ENDBRANCH   3   4
ENDBRANCH   2   3
ENDBRANCH   1   2
BRANCH   1  17
ATOM     17  C   UNL     1     -22.059  17.650 -25.781  1.00  0.00     0.000 C 
BRANCH  17  18
ATOM     18  C   UNL     1     -21.773  16.727 -24.587  1.00  0.00     0.000 C 
BRANCH  18  19
ATOM     19  C   UNL     1     -20.490  17.127 -23.835  1.00  0.00     0.000 C 
BRANCH  19  20
ATOM     20  C   UNL     1     -20.310  16.396 -22.491  1.00  0.00     0.000 C 
BRANCH  20  21
ATOM     21  C   UNL     1     -20.811  14.942 -22.551  1.00  0.00     0.000 C 
BRANCH  21  22
ATOM     22  C   UNL     1     -20.428  14.130 -21.303  1.00  0.00    -0.000 C 
BRANCH  22  23
ATOM     23  C   UNL     1     -21.602  13.958 -20.324  1.00  0.00    -0.000 C 
BRANCH  23  24
ATOM     24  C   UNL     1     -22.976  14.049 -21.026  1.00  0.00    -0.000 C 
BRANCH  24  25
ATOM     25  C   UNL     1     -24.099  14.591 -20.122  1.00  0.00    -0.000 C 
BRANCH  25  26
ATOM     26  C   UNL     1     -24.619  15.990 -20.502  1.00  0.00    -0.000 C 
BRANCH  26  27
ATOM     27  C   UNL     1     -23.956  16.620 -21.745  1.00  0.00    -0.000 C 
BRANCH  27  28
ATOM     28  C   UNL     1     -24.709  17.820 -22.349  1.00  0.00    -0.000 C 
BRANCH  28  29
ATOM     29  C   UNL     1     -24.244  19.166 -21.777  1.00  0.00    -0.003 C 
ATOM     30  C   UNL     1     -22.750  19.143 -21.461  1.00  0.00     0.004 C 
ENDBRANCH  28  29
ENDBRANCH  27  28
ENDBRANCH  26  27
ENDBRANCH  25  26
ENDBRANCH  24  25
ENDBRANCH  23  24
ENDBRANCH  22  23
ENDBRANCH  21  22
ENDBRANCH  20  21
ENDBRANCH  19  20
ENDBRANCH  18  19
ENDBRANCH  17  18
ENDBRANCH   1  17
TORSDOF 26
ENDMDL
MODEL 3
REMARK VINA RESULT:    -4.600      1.779      4.437
REMARK INTER + INTRA:         -16.393
REMARK INTER:                 -12.401
REMARK INTRA:                  -3.993
REMARK UNBOUND:                -4.801
REMARK SMILES CCCCCCCCCCCCCCCCCCCCCCCCCCCC(=O)[O-]
REMARK SMILES IDX 15 1 16 2 17 3 18 4 19 5 20 6 21 7 22 8 23 9 24 10 25 11
REMARK SMILES IDX 26 12 27 13 28 14 29 15 30 16 14 17 13 18 12 19 11 20 10 21
REMARK SMILES IDX 9 22 8 23 7 24 6 25 5 26 4 27 3 28 2 29 1 30
REMARK H PARENT
REMARK Flexibility Score: inf
ROOT
ATOM      1  C   UNL     1     -22.677  21.292 -24.191  1.00  0.00     0.000 C 
ENDROOT
BRANCH   1   2
ATOM      2  C   UNL     1     -23.577  22.539 -24.214  1.00  0.00     0.000 C 
BRANCH   2   3
ATOM      3  C   UNL     1     -24.261  22.792 -22.853  1.00  0.00     0.000 C 
BRANCH   3   4
ATOM      4  C   UNL     1     -23.284  22.817 -21.664  1.00  0.00     0.000 C 
BRANCH   4   5
ATOM      5  C   UNL     1     -23.180  24.203 -21.005  1.00  0.00     0.000 C 
BRANCH   5   6
ATOM      6  C   UNL     1     -22.012  25.035 -21.558  1.00  0.00     0.000 C 
BRANCH   6   7
ATOM      7  C   UNL     1     -22.402  25.857 -22.801  1.00  0.00     0.000 C 
BRANCH   7   8
ATOM      8  C   UNL     1     -21.356  25.756 -23.923  1.00  0.00     0.000 C 
BRANCH   8   9
ATOM      9  C   UNL     1     -20.350  24.617 -23.688  1.00  0.00     0.000 C 
BRANCH   9  10
ATOM     10  C   UNL     1     -19.854  23.984 -24.999  1.00  0.00     0.000 C 
BRANCH  10  11
ATOM     11  C   UNL     1     -20.426  24.671 -26.247  1.00  0.00     0.000 C 
BRANCH  11  12
ATOM     12  C   UNL     1     -19.573  24.353 -27.485  1.00  0.00     0.006 C 
BRANCH  12  13
ATOM     13  C   UNL     1     -19.001  25.617 -28.140  1.00  0.00     0.053 C 
BRANCH  13  14
ATOM     14  C   UNL     1     -20.000  26.734 -28.168  1.00  0.00     0.041 C 
ATOM     15  O   UNL     1     -21.048  26.630 -28.859  1.00  0.00    -0.550 OA
ATOM     16  O   UNL     1     -19.768  27.895 -27.440  1.00  0.00    -0.550 OA
ENDBRANCH  13  14
ENDBRANCH  12  13
ENDBRANCH  11  12
ENDBRANCH  10  11
ENDBRANCH   9  10
ENDBRANCH   8   9
ENDBRANCH   7   8
ENDBRANCH   6   7
ENDBRANCH   5   6
ENDBRANCH   4   5
ENDBRANCH   3   4
ENDBRANCH   2   3
ENDBRANCH   1   2
BRANCH   1  17
ATOM     17  C   UNL     1     -21.765  21.251 -25.422  1.00  0.00     0.000 C 
BRANCH  17  18
ATOM     18  C   UNL     1     -21.362  19.807 -25.760  1.00  0.00     0.000 C 
BRANCH  18  19
ATOM     19  C   UNL     1     -22.231  18.771 -25.025  1.00  0.00     0.000 C 
BRANCH  19  20
ATOM     20  C   UNL     1     -22.141  17.355 -25.624  1.00  0.00     0.000 C 
BRANCH  20  21
ATOM     21  C   UNL     1     -21.621  16.326 -24.604  1.00  0.00     0.000 C 
BRANCH  21  22
ATOM     22  C   UNL     1     -20.692  16.952 -23.551  1.00  0.00    -0.000 C 
BRANCH  22  23
ATOM     23  C   UNL     1     -20.328  15.971 -22.423  1.00  0.00    -0.000 C 
BRANCH  23  24
ATOM     24  C   UNL     1     -21.410  15.908 -21.321  1.00  0.00    -0.000 C 
BRANCH  24  25
ATOM     25  C   UNL     1     -22.301  14.654 -21.398  1.00  0.00    -0.000 C 
BRANCH  25  26
ATOM     26  C   UNL     1     -23.764  14.870 -20.967  1.00  0.00    -0.000 C 
BRANCH  26  27
ATOM     27  C   UNL     1     -24.212  16.345 -20.887  1.00  0.00    -0.000 C 
BRANCH  27  28
ATOM     28  C   UNL     1     -24.607  16.981 -22.232  1.00  0.00    -0.000 C 
BRANCH  28  29
ATOM     29  C   UNL     1     -24.523  18.514 -22.215  1.00  0.00    -0.003 C 
ATOM     30  C   UNL     1     -23.253  18.987 -21.512  1.00  0.00     0.004 C 
ENDBRANCH  28  29
ENDBRANCH  27  28
ENDBRANCH  26  27
ENDBRANCH  25  26
ENDBRANCH  24  25
ENDBRANCH  23  24
ENDBRANCH  22  23
ENDBRANCH  21  22
ENDBRANCH  20  21
ENDBRANCH  19  20
ENDBRANCH  18  19
ENDBRANCH  17  18
ENDBRANCH   1  17
TORSDOF 26
ENDMDL
MODEL 4
REMARK VINA RESULT:    -4.555      1.018      2.053
REMARK INTER + INTRA:         -16.279
REMARK INTER:                 -12.040
REMARK INTRA:                  -4.239
REMARK UNBOUND:                -4.801
REMARK SMILES CCCCCCCCCCCCCCCCCCCCCCCCCCCC(=O)[O-]
REMARK SMILES IDX 15 1 16 2 17 3 18 4 19 5 20 6 21 7 22 8 23 9 24 10 25 11
REMARK SMILES IDX 26 12 27 13 28 14 29 15 30 16 14 17 13 18 12 19 11 20 10 21
REMARK SMILES IDX 9 22 8 23 7 24 6 25 5 26 4 27 3 28 2 29 1 30
REMARK H PARENT
REMARK Flexibility Score: inf
ROOT
ATOM      1  C   UNL     1     -20.746  16.901 -24.239  1.00  0.00     0.000 C 
ENDROOT
BRANCH   1   2
ATOM      2  C   UNL     1     -20.233  18.208 -24.865  1.00  0.00     0.000 C 
BRANCH   2   3
ATOM      3  C   UNL     1     -21.363  19.020 -25.534  1.00  0.00     0.000 C 
BRANCH   3   4
ATOM      4  C   UNL     1     -21.952  20.120 -24.633  1.00  0.00     0.000 C 
BRANCH   4   5
ATOM      5  C   UNL     1     -23.073  19.603 -23.715  1.00  0.00     0.000 C 
BRANCH   5   6
ATOM      6  C   UNL     1     -22.952  20.130 -22.276  1.00  0.00     0.000 C 
BRANCH   6   7
ATOM      7  C   UNL     1     -24.316  20.486 -21.656  1.00  0.00     0.000 C 
BRANCH   7   8
ATOM      8  C   UNL     1     -24.540  22.005 -21.562  1.00  0.00     0.000 C 
BRANCH   8   9
ATOM      9  C   UNL     1     -23.275  22.758 -21.116  1.00  0.00     0.000 C 
BRANCH   9  10
ATOM     10  C   UNL     1     -22.879  23.879 -22.091  1.00  0.00     0.000 C 
BRANCH  10  11
ATOM     11  C   UNL     1     -23.569  23.754 -23.457  1.00  0.00     0.000 C 
BRANCH  11  12
ATOM     12  C   UNL     1     -22.532  23.658 -24.587  1.00  0.00     0.006 C 
BRANCH  12  13
ATOM     13  C   UNL     1     -21.171  24.240 -24.182  1.00  0.00     0.053 C 
BRANCH  13  14
ATOM     14  C   UNL     1     -21.018  25.665 -24.624  1.00  0.00     0.041 C 
ATOM     15  O   UNL     1     -20.618  26.540 -23.811  1.00  0.00    -0.550 OA
ATOM     16  O   UNL     1     -21.328  26.026 -25.930  1.00  0.00    -0.550 OA
ENDBRANCH  13  14
ENDBRANCH  12  13
ENDBRANCH  11  12
ENDBRANCH  10  11
ENDBRANCH   9  10
ENDBRANCH   8   9
ENDBRANCH   7   8
ENDBRANCH   6   7
ENDBRANCH   5   6
ENDBRANCH   4   5
ENDBRANCH   3   4
ENDBRANCH   2   3
ENDBRANCH   1   2
BRANCH   1  17
ATOM     17  C   UNL     1     -20.218  16.732 -22.810  1.00  0.00     0.000 C 
BRANCH  17  18
ATOM     18  C   UNL     1     -21.369  16.734 -21.793  1.00  0.00     0.000 C 
BRANCH  18  19
ATOM     19  C   UNL     1     -22.674  16.174 -22.388  1.00  0.00     0.000 C 
BRANCH  19  20
ATOM     20  C   UNL     1     -23.938  16.617 -21.628  1.00  0.00     0.000 C 
BRANCH  20  21
ATOM     21  C   UNL     1     -24.804  15.421 -21.195  1.00  0.00     0.000 C 
BRANCH  21  22
ATOM     22  C   UNL     1     -24.781  15.190 -19.675  1.00  0.00    -0.000 C 
BRANCH  22  23
ATOM     23  C   UNL     1     -24.353  13.761 -19.299  1.00  0.00    -0.000 C 
BRANCH  23  24
ATOM     24  C   UNL     1     -23.223  13.223 -20.206  1.00  0.00    -0.000 C 
BRANCH  24  25
ATOM     25  C   UNL     1     -21.815  13.678 -19.777  1.00  0.00    -0.000 C 
BRANCH  25  26
ATOM     26  C   UNL     1     -20.657  12.859 -20.378  1.00  0.00    -0.000 C 
BRANCH  26  27
ATOM     27  C   UNL     1     -20.893  12.348 -21.815  1.00  0.00    -0.000 C 
BRANCH  27  28
ATOM     28  C   UNL     1     -20.055  13.048 -22.901  1.00  0.00    -0.000 C 
BRANCH  28  29
ATOM     29  C   UNL     1     -20.153  12.357 -24.269  1.00  0.00    -0.003 C 
ATOM     30  C   UNL     1     -20.270  13.381 -25.395  1.00  0.00     0.004 C 
ENDBRANCH  28  29
ENDBRANCH  27  28
ENDBRANCH  26  27
ENDBRANCH  25  26
ENDBRANCH  24  25
ENDBRANCH  23  24
ENDBRANCH  22  23
ENDBRANCH  21  22
ENDBRANCH  20  21
ENDBRANCH  19  20
ENDBRANCH  18  19
ENDBRANCH  17  18
ENDBRANCH   1  17
TORSDOF 26
ENDMDL
MODEL 5
REMARK VINA RESULT:    -4.500      1.740      3.399
REMARK INTER + INTRA:         -16.141
REMARK INTER:                 -12.088
REMARK INTRA:                  -4.053
REMARK UNBOUND:                -4.801
REMARK SMILES CCCCCCCCCCCCCCCCCCCCCCCCCCCC(=O)[O-]
REMARK SMILES IDX 15 1 16 2 17 3 18 4 19 5 20 6 21 7 22 8 23 9 24 10 25 11
REMARK SMILES IDX 26 12 27 13 28 14 29 15 30 16 14 17 13 18 12 19 11 20 10 21
REMARK SMILES IDX 9 22 8 23 7 24 6 25 5 26 4 27 3 28 2 29 1 30
REMARK H PARENT
REMARK Flexibility Score: inf
ROOT
ATOM      1  C   UNL     1     -20.016  18.020 -24.530  1.00  0.00     0.000 C 
ENDROOT
BRANCH   1   2
ATOM      2  C   UNL     1     -21.203  18.619 -25.302  1.00  0.00     0.000 C 
BRANCH   2   3
ATOM      3  C   UNL     1     -22.385  17.633 -25.416  1.00  0.00     0.000 C 
BRANCH   3   4
ATOM      4  C   UNL     1     -23.633  18.067 -24.627  1.00  0.00     0.000 C 
BRANCH   4   5
ATOM      5  C   UNL     1     -23.840  17.250 -23.340  1.00  0.00     0.000 C 
BRANCH   5   6
ATOM      6  C   UNL     1     -24.042  18.137 -22.101  1.00  0.00     0.000 C 
BRANCH   6   7
ATOM      7  C   UNL     1     -22.725  18.750 -21.588  1.00  0.00     0.000 C 
BRANCH   7   8
ATOM      8  C   UNL     1     -22.868  20.241 -21.240  1.00  0.00     0.000 C 
BRANCH   8   9
ATOM      9  C   UNL     1     -23.653  21.020 -22.309  1.00  0.00     0.000 C 
BRANCH   9  10
ATOM     10  C   UNL     1     -23.289  22.514 -22.339  1.00  0.00     0.000 C 
BRANCH  10  11
ATOM     11  C   UNL     1     -23.447  23.139 -23.733  1.00  0.00     0.000 C 
BRANCH  11  12
ATOM     12  C   UNL     1     -22.935  22.181 -24.821  1.00  0.00     0.006 C 
BRANCH  12  13
ATOM     13  C   UNL     1     -21.412  22.253 -24.993  1.00  0.00     0.053 C 
BRANCH  13  14
ATOM     14  C   UNL     1     -20.956  23.630 -25.370  1.00  0.00     0.041 C 
ATOM     15  O   UNL     1     -20.024  24.186 -24.729  1.00  0.00    -0.550 OA
ATOM     16  O   UNL     1     -21.567  24.304 -26.421  1.00  0.00    -0.550 OA
ENDBRANCH  13  14
ENDBRANCH  12  13
ENDBRANCH  11  12
ENDBRANCH  10  11
ENDBRANCH   9  10
ENDBRANCH   8   9
ENDBRANCH   7   8
ENDBRANCH   6   7
ENDBRANCH   5   6
ENDBRANCH   4   5
ENDBRANCH   3   4
ENDBRANCH   2   3
ENDBRANCH   1   2
BRANCH   1  17
ATOM     17  C   UNL     1     -20.308  16.575 -24.108  1.00  0.00     0.000 C 
BRANCH  17  18
ATOM     18  C   UNL     1     -20.224  16.420 -22.581  1.00  0.00     0.000 C 
BRANCH  18  19
ATOM     19  C   UNL     1     -20.586  14.997 -22.119  1.00  0.00     0.000 C 
BRANCH  19  20
ATOM     20  C   UNL     1     -21.608  14.965 -20.966  1.00  0.00     0.000 C 
BRANCH  20  21
ATOM     21  C   UNL     1     -21.538  13.652 -20.167  1.00  0.00     0.000 C 
BRANCH  21  22
ATOM     22  C   UNL     1     -20.524  12.654 -20.751  1.00  0.00    -0.000 C 
BRANCH  22  23
ATOM     23  C   UNL     1     -21.170  11.652 -21.722  1.00  0.00    -0.000 C 
BRANCH  23  24
ATOM     24  C   UNL     1     -20.124  10.856 -22.535  1.00  0.00    -0.000 C 
BRANCH  24  25
ATOM     25  C   UNL     1     -18.898  11.691 -22.952  1.00  0.00    -0.000 C 
BRANCH  25  26
ATOM     26  C   UNL     1     -18.802  11.994 -24.459  1.00  0.00    -0.000 C 
BRANCH  26  27
ATOM     27  C   UNL     1     -19.879  12.957 -25.003  1.00  0.00    -0.000 C 
BRANCH  27  28
ATOM     28  C   UNL     1     -20.627  12.460 -26.253  1.00  0.00    -0.000 C 
BRANCH  28  29
ATOM     29  C   UNL     1     -20.731  10.930 -26.319  1.00  0.00    -0.003 C 
ATOM     30  C   UNL     1     -22.041  10.441 -25.707  1.00  0.00     0.004 C 
ENDBRANCH  28  29
ENDBRANCH  27  28
ENDBRANCH  26  27
ENDBRANCH  25  26
ENDBRANCH  24  25
ENDBRANCH  23  24
ENDBRANCH  22  23
ENDBRANCH  21  22
ENDBRANCH  20  21
ENDBRANCH  19  20
ENDBRANCH  18  19
ENDBRANCH  17  18
ENDBRANCH   1  17
TORSDOF 26
ENDMDL
MODEL 6
REMARK VINA RESULT:    -4.499      3.545      9.025
REMARK INTER + INTRA:         -16.139
REMARK INTER:                 -12.054
REMARK INTRA:                  -4.084
REMARK UNBOUND:                -4.801
REMARK SMILES CCCCCCCCCCCCCCCCCCCCCCCCCCCC(=O)[O-]
REMARK SMILES IDX 15 1 16 2 17 3 18 4 19 5 20 6 21 7 22 8 23 9 24 10 25 11
REMARK SMILES IDX 26 12 27 13 28 14 29 15 30 16 14 17 13 18 12 19 11 20 10 21
REMARK SMILES IDX 9 22 8 23 7 24 6 25 5 26 4 27 3 28 2 29 1 30
REMARK H PARENT
REMARK Flexibility Score: inf
ROOT
ATOM      1  C   UNL     1     -20.636  18.636 -25.095  1.00  0.00     0.000 C 
ENDROOT
BRANCH   1   2
ATOM      2  C   UNL     1     -21.102  17.237 -25.531  1.00  0.00     0.000 C 
BRANCH   2   3
ATOM      3  C   UNL     1     -21.032  16.212 -24.378  1.00  0.00     0.000 C 
BRANCH   3   4
ATOM      4  C   UNL     1     -20.347  16.751 -23.110  1.00  0.00     0.000 C 
BRANCH   4   5
ATOM      5  C   UNL     1     -21.297  16.823 -21.903  1.00  0.00     0.000 C 
BRANCH   5   6
ATOM      6  C   UNL     1     -22.715  16.330 -22.235  1.00  0.00     0.000 C 
BRANCH   6   7
ATOM      7  C   UNL     1     -23.776  16.868 -21.258  1.00  0.00     0.000 C 
BRANCH   7   8
ATOM      8  C   UNL     1     -24.500  15.744 -20.499  1.00  0.00     0.000 C 
BRANCH   8   9
ATOM      9  C   UNL     1     -23.896  14.358 -20.787  1.00  0.00     0.000 C 
BRANCH   9  10
ATOM     10  C   UNL     1     -23.197  13.750 -19.560  1.00  0.00     0.000 C 
BRANCH  10  11
ATOM     11  C   UNL     1     -21.721  13.415 -19.820  1.00  0.00     0.000 C 
BRANCH  11  12
ATOM     12  C   UNL     1     -21.527  12.876 -21.247  1.00  0.00     0.006 C 
BRANCH  12  13
ATOM     13  C   UNL     1     -20.172  13.280 -21.844  1.00  0.00     0.053 C 
BRANCH  13  14
ATOM     14  C   UNL     1     -19.823  12.458 -23.048  1.00  0.00     0.041 C 
ATOM     15  O   UNL     1     -19.835  12.979 -24.195  1.00  0.00    -0.550 OA
ATOM     16  O   UNL     1     -19.498  11.115 -22.904  1.00  0.00    -0.550 OA
ENDBRANCH  13  14
ENDBRANCH  12  13
ENDBRANCH  11  12
ENDBRANCH  10  11
ENDBRANCH   9  10
ENDBRANCH   8   9
ENDBRANCH   7   8
ENDBRANCH   6   7
ENDBRANCH   5   6
ENDBRANCH   4   5
ENDBRANCH   3   4
ENDBRANCH   2   3
ENDBRANCH   1   2
BRANCH   1  17
ATOM     17  C   UNL     1     -21.386  19.729 -25.866  1.00  0.00     0.000 C 
BRANCH  17  18
ATOM     18  C   UNL     1     -22.427  20.419 -24.972  1.00  0.00     0.000 C 
BRANCH  18  19
ATOM     19  C   UNL     1     -22.452  19.833 -23.548  1.00  0.00     0.000 C 
BRANCH  19  20
ATOM     20  C   UNL     1     -23.578  20.406 -22.666  1.00  0.00     0.000 C 
BRANCH  20  21
ATOM     21  C   UNL     1     -23.148  20.544 -21.195  1.00  0.00     0.000 C 
BRANCH  21  22
ATOM     22  C   UNL     1     -23.916  21.650 -20.453  1.00  0.00    -0.000 C 
BRANCH  22  23
ATOM     23  C   UNL     1     -23.101  22.948 -20.315  1.00  0.00    -0.000 C 
BRANCH  23  24
ATOM     24  C   UNL     1     -23.594  24.060 -21.268  1.00  0.00    -0.000 C 
BRANCH  24  25
ATOM     25  C   UNL     1     -22.517  24.558 -22.250  1.00  0.00    -0.000 C 
BRANCH  25  26
ATOM     26  C   UNL     1     -22.440  23.779 -23.577  1.00  0.00    -0.000 C 
BRANCH  26  27
ATOM     27  C   UNL     1     -23.649  23.966 -24.517  1.00  0.00    -0.000 C 
BRANCH  27  28
ATOM     28  C   UNL     1     -23.516  25.121 -25.528  1.00  0.00    -0.000 C 
BRANCH  28  29
ATOM     29  C   UNL     1     -22.172  25.115 -26.269  1.00  0.00    -0.003 C 
ATOM     30  C   UNL     1     -21.340  26.343 -25.907  1.00  0.00     0.004 C 
ENDBRANCH  28  29
ENDBRANCH  27  28
ENDBRANCH  26  27
ENDBRANCH  25  26
ENDBRANCH  24  25
ENDBRANCH  23  24
ENDBRANCH  22  23
ENDBRANCH  21  22
ENDBRANCH  20  21
ENDBRANCH  19  20
ENDBRANCH  18  19
ENDBRANCH  17  18
ENDBRANCH   1  17
TORSDOF 26
ENDMDL
MODEL 7
REMARK VINA RESULT:    -4.467      3.762      9.398
REMARK INTER + INTRA:         -16.057
REMARK INTER:                 -11.978
REMARK INTRA:                  -4.079
REMARK UNBOUND:                -4.801
REMARK SMILES CCCCCCCCCCCCCCCCCCCCCCCCCCCC(=O)[O-]
REMARK SMILES IDX 15 1 16 2 17 3 18 4 19 5 20 6 21 7 22 8 23 9 24 10 25 11
REMARK SMILES IDX 26 12 27 13 28 14 29 15 30 16 14 17 13 18 12 19 11 20 10 21
REMARK SMILES IDX 9 22 8 23 7 24 6 25 5 26 4 27 3 28 2 29 1 30
REMARK H PARENT
REMARK Flexibility Score: inf
ROOT
ATOM      1  C   UNL     1     -23.238  21.075 -21.083  1.00  0.00     0.000 C 
ENDROOT
BRANCH   1   2
ATOM      2  C   UNL     1     -23.208  19.550 -21.277  1.00  0.00     0.000 C 
BRANCH   2   3
ATOM      3  C   UNL     1     -23.292  19.147 -22.765  1.00  0.00     0.000 C 
BRANCH   3   4
ATOM      4  C   UNL     1     -22.794  20.237 -23.731  1.00  0.00     0.000 C 
BRANCH   4   5
ATOM      5  C   UNL     1     -22.540  19.705 -25.151  1.00  0.00     0.000 C 
BRANCH   5   6
ATOM      6  C   UNL     1     -21.046  19.672 -25.513  1.00  0.00     0.000 C 
BRANCH   6   7
ATOM      7  C   UNL     1     -20.360  18.360 -25.090  1.00  0.00     0.000 C 
BRANCH   7   8
ATOM      8  C   UNL     1     -21.313  17.155 -25.146  1.00  0.00     0.000 C 
BRANCH   8   9
ATOM      9  C   UNL     1     -20.908  16.040 -24.165  1.00  0.00     0.000 C 
BRANCH   9  10
ATOM     10  C   UNL     1     -20.322  16.589 -22.854  1.00  0.00     0.000 C 
BRANCH  10  11
ATOM     11  C   UNL     1     -21.271  16.418 -21.659  1.00  0.00     0.000 C 
BRANCH  11  12
ATOM     12  C   UNL     1     -22.528  15.635 -22.068  1.00  0.00     0.006 C 
BRANCH  12  13
ATOM     13  C   UNL     1     -23.694  15.852 -21.094  1.00  0.00     0.053 C 
BRANCH  13  14
ATOM     14  C   UNL     1     -24.079  14.586 -20.390  1.00  0.00     0.041 C 
ATOM     15  O   UNL     1     -23.705  13.471 -20.842  1.00  0.00    -0.550 OA
ATOM     16  O   UNL     1     -24.861  14.637 -19.243  1.00  0.00    -0.550 OA
ENDBRANCH  13  14
ENDBRANCH  12  13
ENDBRANCH  11  12
ENDBRANCH  10  11
ENDBRANCH   9  10
ENDBRANCH   8   9
ENDBRANCH   7   8
ENDBRANCH   6   7
ENDBRANCH   5   6
ENDBRANCH   4   5
ENDBRANCH   3   4
ENDBRANCH   2   3
ENDBRANCH   1   2
BRANCH   1  17
ATOM     17  C   UNL     1     -24.641  21.552 -20.691  1.00  0.00     0.000 C 
BRANCH  17  18
ATOM     18  C   UNL     1     -24.574  22.608 -19.578  1.00  0.00     0.000 C 
BRANCH  18  19
ATOM     19  C   UNL     1     -23.186  23.268 -19.483  1.00  0.00     0.000 C 
BRANCH  19  20
ATOM     20  C   UNL     1     -23.231  24.807 -19.519  1.00  0.00     0.000 C 
BRANCH  20  21
ATOM     21  C   UNL     1     -24.297  25.332 -20.496  1.00  0.00     0.000 C 
BRANCH  21  22
ATOM     22  C   UNL     1     -23.687  26.044 -21.715  1.00  0.00    -0.000 C 
BRANCH  22  23
ATOM     23  C   UNL     1     -24.291  25.565 -23.046  1.00  0.00    -0.000 C 
BRANCH  23  24
ATOM     24  C   UNL     1     -23.908  24.105 -23.378  1.00  0.00    -0.000 C 
BRANCH  24  25
ATOM     25  C   UNL     1     -22.412  23.797 -23.182  1.00  0.00    -0.000 C 
BRANCH  25  26
ATOM     26  C   UNL     1     -21.488  24.337 -24.290  1.00  0.00    -0.000 C 
BRANCH  26  27
ATOM     27  C   UNL     1     -21.174  23.340 -25.425  1.00  0.00    -0.000 C 
BRANCH  27  28
ATOM     28  C   UNL     1     -20.915  23.978 -26.802  1.00  0.00    -0.000 C 
BRANCH  28  29
ATOM     29  C   UNL     1     -21.840  25.169 -27.091  1.00  0.00    -0.003 C 
ATOM     30  C   UNL     1     -21.034  26.421 -27.431  1.00  0.00     0.004 C 
ENDBRANCH  28  29
ENDBRANCH  27  28
ENDBRANCH  26  27
ENDBRANCH  25  26
ENDBRANCH  24  25
ENDBRANCH  23  24
ENDBRANCH  22  23
ENDBRANCH  21  22
ENDBRANCH  20  21
ENDBRANCH  19  20
ENDBRANCH  18  19
ENDBRANCH  17  18
ENDBRANCH   1  17
TORSDOF 26
ENDMDL
MODEL 8
REMARK VINA RESULT:    -4.461      3.911      9.114
REMARK INTER + INTRA:         -16.042
REMARK INTER:                 -11.816
REMARK INTRA:                  -4.226
REMARK UNBOUND:                -4.801
REMARK SMILES CCCCCCCCCCCCCCCCCCCCCCCCCCCC(=O)[O-]
REMARK SMILES IDX 15 1 16 2 17 3 18 4 19 5 20 6 21 7 22 8 23 9 24 10 25 11
REMARK SMILES IDX 26 12 27 13 28 14 29 15 30 16 14 17 13 18 12 19 11 20 10 21
REMARK SMILES IDX 9 22 8 23 7 24 6 25 5 26 4 27 3 28 2 29 1 30
REMARK H PARENT
REMARK Flexibility Score: inf
ROOT
ATOM      1  C   UNL     1     -20.111  18.050 -24.621  1.00  0.00     0.000 C 
ENDROOT
BRANCH   1   2
ATOM      2  C   UNL     1     -20.964  16.895 -24.071  1.00  0.00     0.000 C 
BRANCH   2   3
ATOM      3  C   UNL     1     -20.599  16.539 -22.614  1.00  0.00     0.000 C 
BRANCH   3   4
ATOM      4  C   UNL     1     -21.773  16.682 -21.629  1.00  0.00     0.000 C 
BRANCH   4   5
ATOM      5  C   UNL     1     -23.136  16.389 -22.278  1.00  0.00     0.000 C 
BRANCH   5   6
ATOM      6  C   UNL     1     -24.306  16.542 -21.293  1.00  0.00     0.000 C 
BRANCH   6   7
ATOM      7  C   UNL     1     -24.917  15.190 -20.880  1.00  0.00     0.000 C 
BRANCH   7   8
ATOM      8  C   UNL     1     -24.800  14.929 -19.369  1.00  0.00     0.000 C 
BRANCH   8   9
ATOM      9  C   UNL     1     -23.983  13.665 -19.053  1.00  0.00     0.000 C 
BRANCH   9  10
ATOM     10  C   UNL     1     -23.231  13.123 -20.279  1.00  0.00     0.000 C 
BRANCH  10  11
ATOM     11  C   UNL     1     -21.717  13.369 -20.207  1.00  0.00     0.000 C 
BRANCH  11  12
ATOM     12  C   UNL     1     -21.027  12.913 -21.503  1.00  0.00     0.006 C 
BRANCH  12  13
ATOM     13  C   UNL     1     -19.528  13.237 -21.512  1.00  0.00     0.053 C 
BRANCH  13  14
ATOM     14  C   UNL     1     -18.693  12.030 -21.206  1.00  0.00     0.041 C 
ATOM     15  O   UNL     1     -17.437  12.090 -21.292  1.00  0.00    -0.550 OA
ATOM     16  O   UNL     1     -19.301  10.836 -20.839  1.00  0.00    -0.550 OA
ENDBRANCH  13  14
ENDBRANCH  12  13
ENDBRANCH  11  12
ENDBRANCH  10  11
ENDBRANCH   9  10
ENDBRANCH   8   9
ENDBRANCH   7   8
ENDBRANCH   6   7
ENDBRANCH   5   6
ENDBRANCH   4   5
ENDBRANCH   3   4
ENDBRANCH   2   3
ENDBRANCH   1   2
BRANCH   1  17
ATOM     17  C   UNL     1     -20.997  19.175 -25.169  1.00  0.00     0.000 C 
BRANCH  17  18
ATOM     18  C   UNL     1     -22.446  19.023 -24.680  1.00  0.00     0.000 C 
BRANCH  18  19
ATOM     19  C   UNL     1     -22.931  20.258 -23.900  1.00  0.00     0.000 C 
BRANCH  19  20
ATOM     20  C   UNL     1     -22.875  20.082 -22.371  1.00  0.00     0.000 C 
BRANCH  20  21
ATOM     21  C   UNL     1     -24.267  20.197 -21.724  1.00  0.00     0.000 C 
BRANCH  21  22
ATOM     22  C   UNL     1     -24.491  21.552 -21.034  1.00  0.00    -0.000 C 
BRANCH  22  23
ATOM     23  C   UNL     1     -23.330  22.535 -21.264  1.00  0.00    -0.000 C 
BRANCH  23  24
ATOM     24  C   UNL     1     -23.776  23.814 -22.008  1.00  0.00    -0.000 C 
BRANCH  24  25
ATOM     25  C   UNL     1     -25.001  23.606 -22.919  1.00  0.00    -0.000 C 
BRANCH  25  26
ATOM     26  C   UNL     1     -24.674  23.414 -24.412  1.00  0.00    -0.000 C 
BRANCH  26  27
ATOM     27  C   UNL     1     -24.409  24.716 -25.197  1.00  0.00    -0.000 C 
BRANCH  27  28
ATOM     28  C   UNL     1     -22.933  24.976 -25.549  1.00  0.00    -0.000 C 
BRANCH  28  29
ATOM     29  C   UNL     1     -22.033  23.759 -25.291  1.00  0.00    -0.003 C 
ATOM     30  C   UNL     1     -20.857  24.126 -24.389  1.00  0.00     0.004 C 
ENDBRANCH  28  29
ENDBRANCH  27  28
ENDBRANCH  26  27
ENDBRANCH  25  26
ENDBRANCH  24  25
ENDBRANCH  23  24
ENDBRANCH  22  23
ENDBRANCH  21  22
ENDBRANCH  20  21
ENDBRANCH  19  20
ENDBRANCH  18  19
ENDBRANCH  17  18
ENDBRANCH   1  17
TORSDOF 26
ENDMDL
MODEL 9
REMARK VINA RESULT:    -4.417      3.587      8.963
REMARK INTER + INTRA:         -15.932
REMARK INTER:                 -12.125
REMARK INTRA:                  -3.807
REMARK UNBOUND:                -4.801
REMARK SMILES CCCCCCCCCCCCCCCCCCCCCCCCCCCC(=O)[O-]
REMARK SMILES IDX 15 1 16 2 17 3 18 4 19 5 20 6 21 7 22 8 23 9 24 10 25 11
REMARK SMILES IDX 26 12 27 13 28 14 29 15 30 16 14 17 13 18 12 19 11 20 10 21
REMARK SMILES IDX 9 22 8 23 7 24 6 25 5 26 4 27 3 28 2 29 1 30
REMARK H PARENT
REMARK Flexibility Score: inf
ROOT
ATOM      1  C   UNL     1     -21.751  17.069 -21.749  1.00  0.00     0.000 C 
ENDROOT
BRANCH   1   2
ATOM      2  C   UNL     1     -22.983  16.421 -22.400  1.00  0.00     0.000 C 
BRANCH   2   3
ATOM      3  C   UNL     1     -24.298  16.834 -21.704  1.00  0.00     0.000 C 
BRANCH   3   4
ATOM      4  C   UNL     1     -24.652  15.967 -20.483  1.00  0.00     0.000 C 
BRANCH   4   5
ATOM      5  C   UNL     1     -24.793  14.475 -20.830  1.00  0.00     0.000 C 
BRANCH   5   6
ATOM      6  C   UNL     1     -24.021  13.566 -19.860  1.00  0.00     0.000 C 
BRANCH   6   7
ATOM      7  C   UNL     1     -22.726  13.004 -20.475  1.00  0.00     0.000 C 
BRANCH   7   8
ATOM      8  C   UNL     1     -21.472  13.744 -19.981  1.00  0.00     0.000 C 
BRANCH   8   9
ATOM      9  C   UNL     1     -20.245  13.477 -20.869  1.00  0.00     0.000 C 
BRANCH   9  10
ATOM     10  C   UNL     1     -20.300  12.104 -21.560  1.00  0.00     0.000 C 
BRANCH  10  11
ATOM     11  C   UNL     1     -19.560  12.082 -22.905  1.00  0.00     0.000 C 
BRANCH  11  12
ATOM     12  C   UNL     1     -20.299  12.936 -23.948  1.00  0.00     0.006 C 
BRANCH  12  13
ATOM     13  C   UNL     1     -19.814  12.660 -25.378  1.00  0.00     0.053 C 
BRANCH  13  14
ATOM     14  C   UNL     1     -20.790  11.823 -26.148  1.00  0.00     0.041 C 
ATOM     15  O   UNL     1     -20.870  11.934 -27.400  1.00  0.00    -0.550 OA
ATOM     16  O   UNL     1     -21.620  10.929 -25.482  1.00  0.00    -0.550 OA
ENDBRANCH  13  14
ENDBRANCH  12  13
ENDBRANCH  11  12
ENDBRANCH  10  11
ENDBRANCH   9  10
ENDBRANCH   8   9
ENDBRANCH   7   8
ENDBRANCH   6   7
ENDBRANCH   5   6
ENDBRANCH   4   5
ENDBRANCH   3   4
ENDBRANCH   2   3
ENDBRANCH   1   2
BRANCH   1  17
ATOM     17  C   UNL     1     -20.464  16.645 -22.466  1.00  0.00     0.000 C 
BRANCH  17  18
ATOM     18  C   UNL     1     -20.653  16.658 -23.991  1.00  0.00     0.000 C 
BRANCH  18  19
ATOM     19  C   UNL     1     -20.083  17.933 -24.639  1.00  0.00     0.000 C 
BRANCH  19  20
ATOM     20  C   UNL     1     -21.053  18.609 -25.626  1.00  0.00     0.000 C 
BRANCH  20  21
ATOM     21  C   UNL     1     -22.380  19.005 -24.954  1.00  0.00     0.000 C 
BRANCH  21  22
ATOM     22  C   UNL     1     -22.413  20.482 -24.530  1.00  0.00    -0.000 C 
BRANCH  22  23
ATOM     23  C   UNL     1     -21.480  21.364 -25.378  1.00  0.00    -0.000 C 
BRANCH  23  24
ATOM     24  C   UNL     1     -21.577  22.860 -25.002  1.00  0.00    -0.000 C 
BRANCH  24  25
ATOM     25  C   UNL     1     -22.696  23.175 -23.992  1.00  0.00    -0.000 C 
BRANCH  25  26
ATOM     26  C   UNL     1     -22.357  24.276 -22.971  1.00  0.00    -0.000 C 
BRANCH  26  27
ATOM     27  C   UNL     1     -23.001  24.100 -21.579  1.00  0.00    -0.000 C 
BRANCH  27  28
ATOM     28  C   UNL     1     -23.873  22.840 -21.418  1.00  0.00    -0.000 C 
BRANCH  28  29
ATOM     29  C   UNL     1     -23.215  21.768 -20.538  1.00  0.00    -0.003 C 
ATOM     30  C   UNL     1     -23.302  20.391 -21.191  1.00  0.00     0.004 C 
ENDBRANCH  28  29
ENDBRANCH  27  28
ENDBRANCH  26  27
ENDBRANCH  25  26
ENDBRANCH  24  25
ENDBRANCH  23  24
ENDBRANCH  22  23
ENDBRANCH  21  22
ENDBRANCH  20  21
ENDBRANCH  19  20
ENDBRANCH  18  19
ENDBRANCH  17  18
ENDBRANCH   1  17
TORSDOF 26
ENDMDL
