MODEL 1
REMARK VINA RESULT:    -5.232      0.000      0.000
REMARK INTER + INTRA:          -5.976
REMARK INTER:                  -5.844
REMARK INTRA:                  -0.133
REMARK UNBOUND:                -0.133
REMARK SMILES COc1cc2ccc(=O)oc2cc1OC
REMARK SMILES IDX 3 1 13 2 12 3 11 4 5 5 4 6 6 7 7 8 8 9 9 10 10 11 2 12 1 13
REMARK SMILES IDX 14 14 15 15
REMARK H PARENT
REMARK Flexibility Score: inf
ROOT
ATOM      1  C   UNL     1      -2.503  -2.545  -2.440  1.00  0.00     0.161 A 
ATOM      2  C   UNL     1      -3.018  -1.292  -2.813  1.00  0.00     0.164 A 
ATOM      3  C   UNL     1      -4.153  -0.778  -2.155  1.00  0.00     0.098 A 
ATOM      4  C   UNL     1      -4.769  -1.506  -1.134  1.00  0.00     0.142 A 
ATOM      5  C   UNL     1      -4.253  -2.764  -0.759  1.00  0.00     0.022 A 
ATOM      6  C   UNL     1      -3.125  -3.279  -1.410  1.00  0.00     0.062 A 
ATOM      7  C   UNL     1      -4.892  -3.468   0.266  1.00  0.00     0.019 A 
ATOM      8  C   UNL     1      -6.012  -2.912   0.884  1.00  0.00     0.094 A 
ATOM      9  C   UNL     1      -6.469  -1.659   0.459  1.00  0.00     0.336 A 
ATOM     10  O   UNL     1      -7.478  -1.141   1.004  1.00  0.00    -0.246 OA
ATOM     11  O   UNL     1      -5.841  -1.011  -0.519  1.00  0.00    -0.423 OA
ENDROOT
BRANCH   1  12
ATOM     12  O   UNL     1      -1.371  -3.027  -3.117  1.00  0.00    -0.493 OA
ATOM     13  C   UNL     1      -1.331  -4.237  -3.865  1.00  0.00     0.278 C 
ENDBRANCH   1  12
BRANCH   2  14
ATOM     14  O   UNL     1      -2.373  -0.589  -3.843  1.00  0.00    -0.493 OA
ATOM     15  C   UNL     1      -1.491   0.511  -3.639  1.00  0.00     0.278 C 
ENDBRANCH   2  14
TORSDOF 2
ENDMDL
MODEL 2
REMARK VINA RESULT:    -5.097     11.139     11.750
REMARK INTER + INTRA:          -5.826
REMARK INTER:                  -5.724
REMARK INTRA:                  -0.102
REMARK UNBOUND:                -0.133
REMARK SMILES COc1cc2ccc(=O)oc2cc1OC
REMARK SMILES IDX 3 1 13 2 12 3 11 4 5 5 4 6 6 7 7 8 8 9 9 10 10 11 2 12 1 13
REMARK SMILES IDX 14 14 15 15
REMARK H PARENT
REMARK Flexibility Score: inf
ROOT
ATOM      1  C   UNL     1       1.768  -5.745   7.732  1.00  0.00     0.161 A 
ATOM      2  C   UNL     1       2.658  -5.438   6.688  1.00  0.00     0.164 A 
ATOM      3  C   UNL     1       3.045  -4.101   6.470  1.00  0.00     0.098 A 
ATOM      4  C   UNL     1       2.550  -3.080   7.284  1.00  0.00     0.142 A 
ATOM      5  C   UNL     1       1.657  -3.386   8.330  1.00  0.00     0.022 A 
ATOM      6  C   UNL     1       1.269  -4.714   8.552  1.00  0.00     0.062 A 
ATOM      7  C   UNL     1       1.179  -2.341   9.127  1.00  0.00     0.019 A 
ATOM      8  C   UNL     1       1.595  -1.036   8.867  1.00  0.00     0.094 A 
ATOM      9  C   UNL     1       2.483  -0.806   7.810  1.00  0.00     0.336 A 
ATOM     10  O   UNL     1       2.871   0.365   7.559  1.00  0.00    -0.246 OA
ATOM     11  O   UNL     1       2.922  -1.819   7.068  1.00  0.00    -0.423 OA
ENDROOT
BRANCH   1  12
ATOM     12  O   UNL     1       1.404  -7.088   7.921  1.00  0.00    -0.493 OA
ATOM     13  C   UNL     1       0.313  -7.523   8.726  1.00  0.00     0.278 C 
ENDBRANCH   1  12
BRANCH   2  14
ATOM     14  O   UNL     1       3.135  -6.491   5.891  1.00  0.00    -0.493 OA
ATOM     15  C   UNL     1       4.232  -6.385   4.988  1.00  0.00     0.278 C 
ENDBRANCH   2  14
TORSDOF 2
ENDMDL
MODEL 3
REMARK VINA RESULT:    -5.041     11.128     12.120
REMARK INTER + INTRA:          -5.763
REMARK INTER:                  -5.790
REMARK INTRA:                   0.026
REMARK UNBOUND:                -0.133
REMARK SMILES COc1cc2ccc(=O)oc2cc1OC
REMARK SMILES IDX 3 1 13 2 12 3 11 4 5 5 4 6 6 7 7 8 8 9 9 10 10 11 2 12 1 13
REMARK SMILES IDX 14 14 15 15
REMARK H PARENT
REMARK Flexibility Score: inf
ROOT
ATOM      1  C   UNL     1      -1.812   3.214   8.774  1.00  0.00     0.161 A 
ATOM      2  C   UNL     1      -0.908   3.831   7.893  1.00  0.00     0.164 A 
ATOM      3  C   UNL     1       0.210   3.114   7.423  1.00  0.00     0.098 A 
ATOM      4  C   UNL     1       0.425   1.795   7.828  1.00  0.00     0.142 A 
ATOM      5  C   UNL     1      -0.481   1.175   8.712  1.00  0.00     0.022 A 
ATOM      6  C   UNL     1      -1.594   1.883   9.181  1.00  0.00     0.062 A 
ATOM      7  C   UNL     1      -0.238  -0.147   9.098  1.00  0.00     0.019 A 
ATOM      8  C   UNL     1       0.885  -0.810   8.603  1.00  0.00     0.094 A 
ATOM      9  C   UNL     1       1.741  -0.132   7.729  1.00  0.00     0.336 A 
ATOM     10  O   UNL     1       2.760  -0.712   7.271  1.00  0.00    -0.246 OA
ATOM     11  O   UNL     1       1.485   1.126   7.378  1.00  0.00    -0.423 OA
ENDROOT
BRANCH   1  12
ATOM     12  O   UNL     1      -2.916   3.958   9.222  1.00  0.00    -0.493 OA
ATOM     13  C   UNL     1      -2.975   4.646  10.467  1.00  0.00     0.278 C 
ENDBRANCH   1  12
BRANCH   2  14
ATOM     14  O   UNL     1      -1.157   5.158   7.508  1.00  0.00    -0.493 OA
ATOM     15  C   UNL     1      -2.173   5.555   6.592  1.00  0.00     0.278 C 
ENDBRANCH   2  14
TORSDOF 2
ENDMDL
MODEL 4
REMARK VINA RESULT:    -4.932     11.655     12.471
REMARK INTER + INTRA:          -5.642
REMARK INTER:                  -5.536
REMARK INTRA:                  -0.105
REMARK UNBOUND:                -0.133
REMARK SMILES COc1cc2ccc(=O)oc2cc1OC
REMARK SMILES IDX 3 1 13 2 12 3 11 4 5 5 4 6 6 7 7 8 8 9 9 10 10 11 2 12 1 13
REMARK SMILES IDX 14 14 15 15
REMARK H PARENT
REMARK Flexibility Score: inf
ROOT
ATOM      1  C   UNL     1       0.640   5.111   8.107  1.00  0.00     0.161 A 
ATOM      2  C   UNL     1      -0.525   4.718   7.427  1.00  0.00     0.164 A 
ATOM      3  C   UNL     1      -0.919   3.365   7.440  1.00  0.00     0.098 A 
ATOM      4  C   UNL     1      -0.158   2.413   8.125  1.00  0.00     0.142 A 
ATOM      5  C   UNL     1       1.011   2.807   8.807  1.00  0.00     0.022 A 
ATOM      6  C   UNL     1       1.406   4.151   8.797  1.00  0.00     0.062 A 
ATOM      7  C   UNL     1       1.750   1.831   9.482  1.00  0.00     0.019 A 
ATOM      8  C   UNL     1       1.315   0.506   9.463  1.00  0.00     0.094 A 
ATOM      9  C   UNL     1       0.145   0.188   8.765  1.00  0.00     0.336 A 
ATOM     10  O   UNL     1      -0.265  -1.001   8.735  1.00  0.00    -0.246 OA
ATOM     11  O   UNL     1      -0.539   1.137   8.131  1.00  0.00    -0.423 OA
ENDROOT
BRANCH   1  12
ATOM     12  O   UNL     1       1.003   6.468   8.074  1.00  0.00    -0.493 OA
ATOM     13  C   UNL     1       2.233   6.987   8.568  1.00  0.00     0.278 C 
ENDBRANCH   1  12
BRANCH   2  14
ATOM     14  O   UNL     1      -1.264   5.701   6.751  1.00  0.00    -0.493 OA
ATOM     15  C   UNL     1      -2.685   5.721   6.659  1.00  0.00     0.278 C 
ENDBRANCH   2  14
TORSDOF 2
ENDMDL
MODEL 5
REMARK VINA RESULT:    -4.869     11.222     11.792
REMARK INTER + INTRA:          -5.571
REMARK INTER:                  -5.411
REMARK INTRA:                  -0.160
REMARK UNBOUND:                -0.133
REMARK SMILES COc1cc2ccc(=O)oc2cc1OC
REMARK SMILES IDX 3 1 13 2 12 3 11 4 5 5 4 6 6 7 7 8 8 9 9 10 10 11 2 12 1 13
REMARK SMILES IDX 14 14 15 15
REMARK H PARENT
REMARK Flexibility Score: inf
ROOT
ATOM      1  C   UNL     1       0.447  -0.953   8.858  1.00  0.00     0.161 A 
ATOM      2  C   UNL     1       1.554  -0.549   8.092  1.00  0.00     0.164 A 
ATOM      3  C   UNL     1       1.604   0.761   7.573  1.00  0.00     0.098 A 
ATOM      4  C   UNL     1       0.561   1.658   7.816  1.00  0.00     0.142 A 
ATOM      5  C   UNL     1      -0.550   1.253   8.584  1.00  0.00     0.022 A 
ATOM      6  C   UNL     1      -0.604  -0.047   9.102  1.00  0.00     0.062 A 
ATOM      7  C   UNL     1      -1.577   2.174   8.809  1.00  0.00     0.019 A 
ATOM      8  C   UNL     1      -1.476   3.458   8.272  1.00  0.00     0.094 A 
ATOM      9  C   UNL     1      -0.344   3.790   7.519  1.00  0.00     0.336 A 
ATOM     10  O   UNL     1      -0.234   4.942   7.026  1.00  0.00    -0.246 OA
ATOM     11  O   UNL     1       0.619   2.893   7.321  1.00  0.00    -0.423 OA
ENDROOT
BRANCH   1  12
ATOM     12  O   UNL     1       0.430  -2.265   9.360  1.00  0.00    -0.493 OA
ATOM     13  C   UNL     1       0.833  -2.631  10.675  1.00  0.00     0.278 C 
ENDBRANCH   1  12
BRANCH   2  14
ATOM     14  O   UNL     1       2.583  -1.477   7.869  1.00  0.00    -0.493 OA
ATOM     15  C   UNL     1       3.855  -1.439   8.508  1.00  0.00     0.278 C 
ENDBRANCH   2  14
TORSDOF 2
ENDMDL
MODEL 6
REMARK VINA RESULT:    -4.845      1.614      2.966
REMARK INTER + INTRA:          -5.544
REMARK INTER:                  -5.416
REMARK INTRA:                  -0.128
REMARK UNBOUND:                -0.133
REMARK SMILES COc1cc2ccc(=O)oc2cc1OC
REMARK SMILES IDX 3 1 13 2 12 3 11 4 5 5 4 6 6 7 7 8 8 9 9 10 10 11 2 12 1 13
REMARK SMILES IDX 14 14 15 15
REMARK H PARENT
REMARK Flexibility Score: inf
ROOT
ATOM      1  C   UNL     1      -3.208  -1.576  -2.437  1.00  0.00     0.161 A 
ATOM      2  C   UNL     1      -2.507  -2.786  -2.300  1.00  0.00     0.164 A 
ATOM      3  C   UNL     1      -2.927  -3.733  -1.344  1.00  0.00     0.098 A 
ATOM      4  C   UNL     1      -4.035  -3.475  -0.533  1.00  0.00     0.142 A 
ATOM      5  C   UNL     1      -4.738  -2.260  -0.669  1.00  0.00     0.022 A 
ATOM      6  C   UNL     1      -4.324  -1.317  -1.618  1.00  0.00     0.062 A 
ATOM      7  C   UNL     1      -5.842  -2.032   0.158  1.00  0.00     0.019 A 
ATOM      8  C   UNL     1      -6.214  -3.003   1.087  1.00  0.00     0.094 A 
ATOM      9  C   UNL     1      -5.469  -4.185   1.167  1.00  0.00     0.336 A 
ATOM     10  O   UNL     1      -5.789  -5.073   1.999  1.00  0.00    -0.246 OA
ATOM     11  O   UNL     1      -4.423  -4.376   0.368  1.00  0.00    -0.423 OA
ENDROOT
BRANCH   1  12
ATOM     12  O   UNL     1      -2.762  -0.656  -3.400  1.00  0.00    -0.493 OA
ATOM     13  C   UNL     1      -2.160   0.599  -3.100  1.00  0.00     0.278 C 
ENDBRANCH   1  12
BRANCH   2  14
ATOM     14  O   UNL     1      -1.399  -3.011  -3.133  1.00  0.00    -0.493 OA
ATOM     15  C   UNL     1      -1.195  -4.193  -3.901  1.00  0.00     0.278 C 
ENDBRANCH   2  14
TORSDOF 2
ENDMDL
MODEL 7
REMARK VINA RESULT:    -4.832      4.605      7.656
REMARK INTER + INTRA:          -5.530
REMARK INTER:                  -5.393
REMARK INTRA:                  -0.137
REMARK UNBOUND:                -0.133
REMARK SMILES COc1cc2ccc(=O)oc2cc1OC
REMARK SMILES IDX 3 1 13 2 12 3 11 4 5 5 4 6 6 7 7 8 8 9 9 10 10 11 2 12 1 13
REMARK SMILES IDX 14 14 15 15
REMARK H PARENT
REMARK Flexibility Score: inf
ROOT
ATOM      1  C   UNL     1      -0.220   5.232  -3.458  1.00  0.00     0.161 A 
ATOM      2  C   UNL     1       0.796   4.634  -2.694  1.00  0.00     0.164 A 
ATOM      3  C   UNL     1       0.712   3.266  -2.365  1.00  0.00     0.098 A 
ATOM      4  C   UNL     1      -0.376   2.502  -2.795  1.00  0.00     0.142 A 
ATOM      5  C   UNL     1      -1.397   3.101  -3.560  1.00  0.00     0.022 A 
ATOM      6  C   UNL     1      -1.317   4.460  -3.890  1.00  0.00     0.062 A 
ATOM      7  C   UNL     1      -2.472   2.309  -3.975  1.00  0.00     0.019 A 
ATOM      8  C   UNL     1      -2.506   0.960  -3.622  1.00  0.00     0.094 A 
ATOM      9  C   UNL     1      -1.458   0.434  -2.859  1.00  0.00     0.336 A 
ATOM     10  O   UNL     1      -1.469  -0.781  -2.530  1.00  0.00    -0.246 OA
ATOM     11  O   UNL     1      -0.446   1.210  -2.479  1.00  0.00    -0.423 OA
ENDROOT
BRANCH   1  12
ATOM     12  O   UNL     1      -0.103   6.597  -3.767  1.00  0.00    -0.493 OA
ATOM     13  C   UNL     1       0.171   7.109  -5.067  1.00  0.00     0.278 C 
ENDBRANCH   1  12
BRANCH   2  14
ATOM     14  O   UNL     1       1.874   5.433  -2.281  1.00  0.00    -0.493 OA
ATOM     15  C   UNL     1       2.037   5.949  -0.963  1.00  0.00     0.278 C 
ENDBRANCH   2  14
TORSDOF 2
ENDMDL
MODEL 8
REMARK VINA RESULT:    -4.819      2.312      5.745
REMARK INTER + INTRA:          -5.515
REMARK INTER:                  -5.379
REMARK INTRA:                  -0.136
REMARK UNBOUND:                -0.133
REMARK SMILES COc1cc2ccc(=O)oc2cc1OC
REMARK SMILES IDX 3 1 13 2 12 3 11 4 5 5 4 6 6 7 7 8 8 9 9 10 10 11 2 12 1 13
REMARK SMILES IDX 14 14 15 15
REMARK H PARENT
REMARK Flexibility Score: inf
ROOT
ATOM      1  C   UNL     1      -6.014  -4.312   2.028  1.00  0.00     0.161 A 
ATOM      2  C   UNL     1      -6.761  -3.126   2.133  1.00  0.00     0.164 A 
ATOM      3  C   UNL     1      -6.505  -2.059   1.249  1.00  0.00     0.098 A 
ATOM      4  C   UNL     1      -5.514  -2.173   0.270  1.00  0.00     0.142 A 
ATOM      5  C   UNL     1      -4.765  -3.362   0.165  1.00  0.00     0.022 A 
ATOM      6  C   UNL     1      -5.015  -4.426   1.041  1.00  0.00     0.062 A 
ATOM      7  C   UNL     1      -3.781  -3.445  -0.825  1.00  0.00     0.019 A 
ATOM      8  C   UNL     1      -3.569  -2.359  -1.673  1.00  0.00     0.094 A 
ATOM      9  C   UNL     1      -4.351  -1.210  -1.510  1.00  0.00     0.336 A 
ATOM     10  O   UNL     1      -4.175  -0.219  -2.265  1.00  0.00    -0.246 OA
ATOM     11  O   UNL     1      -5.281  -1.158  -0.560  1.00  0.00    -0.423 OA
ENDROOT
BRANCH   1  12
ATOM     12  O   UNL     1      -6.296  -5.356   2.925  1.00  0.00    -0.493 OA
ATOM     13  C   UNL     1      -7.043  -6.522   2.597  1.00  0.00     0.278 C 
ENDBRANCH   1  12
BRANCH   2  14
ATOM     14  O   UNL     1      -7.748  -3.048   3.128  1.00  0.00    -0.493 OA
ATOM     15  C   UNL     1      -7.698  -2.166   4.245  1.00  0.00     0.278 C 
ENDBRANCH   2  14
TORSDOF 2
ENDMDL
MODEL 9
REMARK VINA RESULT:    -4.800      1.807      2.665
REMARK INTER + INTRA:          -5.494
REMARK INTER:                  -5.374
REMARK INTRA:                  -0.120
REMARK UNBOUND:                -0.133
REMARK SMILES COc1cc2ccc(=O)oc2cc1OC
REMARK SMILES IDX 3 1 13 2 12 3 11 4 5 5 4 6 6 7 7 8 8 9 9 10 10 11 2 12 1 13
REMARK SMILES IDX 14 14 15 15
REMARK H PARENT
REMARK Flexibility Score: inf
ROOT
ATOM      1  C   UNL     1      -4.268  -3.388  -0.398  1.00  0.00     0.161 A 
ATOM      2  C   UNL     1      -4.650  -2.275  -1.167  1.00  0.00     0.164 A 
ATOM      3  C   UNL     1      -5.767  -1.508  -0.780  1.00  0.00     0.098 A 
ATOM      4  C   UNL     1      -6.495  -1.846   0.363  1.00  0.00     0.142 A 
ATOM      5  C   UNL     1      -6.113  -2.962   1.135  1.00  0.00     0.022 A 
ATOM      6  C   UNL     1      -5.004  -3.727   0.755  1.00  0.00     0.062 A 
ATOM      7  C   UNL     1      -6.863  -3.274   2.273  1.00  0.00     0.019 A 
ATOM      8  C   UNL     1      -7.959  -2.480   2.610  1.00  0.00     0.094 A 
ATOM      9  C   UNL     1      -8.280  -1.388   1.797  1.00  0.00     0.336 A 
ATOM     10  O   UNL     1      -9.265  -0.660   2.084  1.00  0.00    -0.246 OA
ATOM     11  O   UNL     1      -7.549  -1.114   0.720  1.00  0.00    -0.423 OA
ENDROOT
BRANCH   1  12
ATOM     12  O   UNL     1      -3.150  -4.130  -0.812  1.00  0.00    -0.493 OA
ATOM     13  C   UNL     1      -2.958  -5.516  -0.550  1.00  0.00     0.278 C 
ENDBRANCH   1  12
BRANCH   2  14
ATOM     14  O   UNL     1      -3.894  -1.966  -2.309  1.00  0.00    -0.493 OA
ATOM     15  C   UNL     1      -3.028  -0.841  -2.422  1.00  0.00     0.278 C 
ENDBRANCH   2  14
TORSDOF 2
ENDMDL
