MODEL 1
REMARK VINA RESULT:    -3.684      0.000      0.000
REMARK INTER + INTRA:          -8.249
REMARK INTER:                  -6.484
REMARK INTRA:                  -1.765
REMARK UNBOUND:                -1.765
REMARK SMILES CCCCCCCCCCCCCCC(=O)[O-]
REMARK SMILES IDX 9 1 10 2 11 3 12 4 13 5 14 6 15 7 16 8 17 9 8 10 7 11 6 12
REMARK SMILES IDX 5 13 4 14 3 15 2 16 1 17
REMARK H PARENT
REMARK Flexibility Score: inf
ROOT
ATOM      1  C   UNL     1     121.702 113.754 111.546  1.00  0.00     0.000 C 
ENDROOT
BRANCH   1   2
ATOM      2  C   UNL     1     122.216 113.743 110.096  1.00  0.00     0.000 C 
BRANCH   2   3
ATOM      3  C   UNL     1     121.185 113.172 109.108  1.00  0.00     0.000 C 
BRANCH   3   4
ATOM      4  C   UNL     1     121.794 112.869 107.728  1.00  0.00     0.000 C 
BRANCH   4   5
ATOM      5  C   UNL     1     120.762 112.976 106.593  1.00  0.00     0.006 C 
BRANCH   5   6
ATOM      6  C   UNL     1     121.221 113.905 105.461  1.00  0.00     0.053 C 
BRANCH   6   7
ATOM      7  C   UNL     1     120.813 115.316 105.746  1.00  0.00     0.041 C 
ATOM      8  O   UNL     1     119.594 115.630 105.769  1.00  0.00    -0.550 OA
ATOM      9  O   UNL     1     121.780 116.294 105.938  1.00  0.00    -0.550 OA
ENDBRANCH   6   7
ENDBRANCH   5   6
ENDBRANCH   4   5
ENDBRANCH   3   4
ENDBRANCH   2   3
ENDBRANCH   1   2
BRANCH   1  10
ATOM     10  C   UNL     1     120.266 113.221 111.667  1.00  0.00     0.000 C 
BRANCH  10  11
ATOM     11  C   UNL     1     120.112 112.179 112.790  1.00  0.00    -0.000 C 
BRANCH  11  12
ATOM     12  C   UNL     1     120.253 110.737 112.279  1.00  0.00    -0.000 C 
BRANCH  12  13
ATOM     13  C   UNL     1     119.049 110.292 111.429  1.00  0.00    -0.000 C 
BRANCH  13  14
ATOM     14  C   UNL     1     119.427 110.032 109.962  1.00  0.00    -0.000 C 
BRANCH  14  15
ATOM     15  C   UNL     1     120.862 109.499 109.808  1.00  0.00    -0.000 C 
BRANCH  15  16
ATOM     16  C   UNL     1     121.238 109.236 108.342  1.00  0.00    -0.003 C 
ATOM     17  C   UNL     1     120.049 109.382 107.393  1.00  0.00     0.004 C 
ENDBRANCH  15  16
ENDBRANCH  14  15
ENDBRANCH  13  14
ENDBRANCH  12  13
ENDBRANCH  11  12
ENDBRANCH  10  11
ENDBRANCH   1  10
TORSDOF 13
ENDMDL
MODEL 2
REMARK VINA RESULT:    -3.670      2.913      4.921
REMARK INTER + INTRA:          -8.224
REMARK INTER:                  -6.411
REMARK INTRA:                  -1.813
REMARK UNBOUND:                -1.765
REMARK SMILES CCCCCCCCCCCCCCC(=O)[O-]
REMARK SMILES IDX 9 1 10 2 11 3 12 4 13 5 14 6 15 7 16 8 17 9 8 10 7 11 6 12
REMARK SMILES IDX 5 13 4 14 3 15 2 16 1 17
REMARK H PARENT
REMARK Flexibility Score: inf
ROOT
ATOM      1  C   UNL     1     120.461 110.420 112.413  1.00  0.00     0.000 C 
ENDROOT
BRANCH   1   2
ATOM      2  C   UNL     1     119.168 110.337 111.583  1.00  0.00     0.000 C 
BRANCH   2   3
ATOM      3  C   UNL     1     119.426 109.916 110.127  1.00  0.00     0.000 C 
BRANCH   3   4
ATOM      4  C   UNL     1     120.820 109.295 109.931  1.00  0.00     0.000 C 
BRANCH   4   5
ATOM      5  C   UNL     1     121.255 109.279 108.456  1.00  0.00     0.006 C 
BRANCH   5   6
ATOM      6  C   UNL     1     120.067 109.198 107.489  1.00  0.00     0.053 C 
BRANCH   6   7
ATOM      7  C   UNL     1     120.290 108.117 106.479  1.00  0.00     0.041 C 
ATOM      8  O   UNL     1     119.317 107.447 106.043  1.00  0.00    -0.550 OA
ATOM      9  O   UNL     1     121.578 107.815 106.056  1.00  0.00    -0.550 OA
ENDBRANCH   6   7
ENDBRANCH   5   6
ENDBRANCH   4   5
ENDBRANCH   3   4
ENDBRANCH   2   3
ENDBRANCH   1   2
BRANCH   1  10
ATOM     10  C   UNL     1     120.591 111.750 113.171  1.00  0.00     0.000 C 
BRANCH  10  11
ATOM     11  C   UNL     1     120.528 112.974 112.238  1.00  0.00    -0.000 C 
BRANCH  11  12
ATOM     12  C   UNL     1     121.792 113.121 111.375  1.00  0.00    -0.000 C 
BRANCH  12  13
ATOM     13  C   UNL     1     121.483 113.096 109.867  1.00  0.00    -0.000 C 
BRANCH  13  14
ATOM     14  C   UNL     1     122.656 112.555 109.034  1.00  0.00    -0.000 C 
BRANCH  14  15
ATOM     15  C   UNL     1     122.534 112.912 107.543  1.00  0.00    -0.000 C 
BRANCH  15  16
ATOM     16  C   UNL     1     121.077 112.913 107.055  1.00  0.00    -0.003 C 
ATOM     17  C   UNL     1     120.891 113.696 105.757  1.00  0.00     0.004 C 
ENDBRANCH  15  16
ENDBRANCH  14  15
ENDBRANCH  13  14
ENDBRANCH  12  13
ENDBRANCH  11  12
ENDBRANCH  10  11
ENDBRANCH   1  10
TORSDOF 13
ENDMDL
MODEL 3
REMARK VINA RESULT:    -3.654      1.266      3.021
REMARK INTER + INTRA:          -8.196
REMARK INTER:                  -6.269
REMARK INTRA:                  -1.926
REMARK UNBOUND:                -1.765
REMARK SMILES CCCCCCCCCCCCCCC(=O)[O-]
REMARK SMILES IDX 9 1 10 2 11 3 12 4 13 5 14 6 15 7 16 8 17 9 8 10 7 11 6 12
REMARK SMILES IDX 5 13 4 14 3 15 2 16 1 17
REMARK H PARENT
REMARK Flexibility Score: inf
ROOT
ATOM      1  C   UNL     1     120.352 109.482 109.654  1.00  0.00     0.000 C 
ENDROOT
BRANCH   1   2
ATOM      2  C   UNL     1     120.290 109.540 108.118  1.00  0.00     0.000 C 
BRANCH   2   3
ATOM      3  C   UNL     1     119.967 110.949 107.593  1.00  0.00     0.000 C 
BRANCH   3   4
ATOM      4  C   UNL     1     121.204 111.666 107.025  1.00  0.00     0.000 C 
BRANCH   4   5
ATOM      5  C   UNL     1     121.058 113.196 107.042  1.00  0.00     0.006 C 
BRANCH   5   6
ATOM      6  C   UNL     1     120.972 113.799 105.633  1.00  0.00     0.053 C 
BRANCH   6   7
ATOM      7  C   UNL     1     120.683 115.265 105.710  1.00  0.00     0.041 C 
ATOM      8  O   UNL     1     119.493 115.676 105.711  1.00  0.00    -0.550 OA
ATOM      9  O   UNL     1     121.727 116.179 105.733  1.00  0.00    -0.550 OA
ENDBRANCH   6   7
ENDBRANCH   5   6
ENDBRANCH   4   5
ENDBRANCH   3   4
ENDBRANCH   2   3
ENDBRANCH   1   2
BRANCH   1  10
ATOM     10  C   UNL     1     119.220 110.279 110.321  1.00  0.00     0.000 C 
BRANCH  10  11
ATOM     11  C   UNL     1     119.461 110.508 111.825  1.00  0.00    -0.000 C 
BRANCH  11  12
ATOM     12  C   UNL     1     119.884 111.952 112.139  1.00  0.00    -0.000 C 
BRANCH  12  13
ATOM     13  C   UNL     1     120.198 112.764 110.870  1.00  0.00    -0.000 C 
BRANCH  13  14
ATOM     14  C   UNL     1     121.679 113.163 110.778  1.00  0.00    -0.000 C 
BRANCH  14  15
ATOM     15  C   UNL     1     122.558 112.410 111.791  1.00  0.00    -0.000 C 
BRANCH  15  16
ATOM     16  C   UNL     1     123.356 111.269 111.144  1.00  0.00    -0.003 C 
ATOM     17  C   UNL     1     123.610 111.496 109.655  1.00  0.00     0.004 C 
ENDBRANCH  15  16
ENDBRANCH  14  15
ENDBRANCH  13  14
ENDBRANCH  12  13
ENDBRANCH  11  12
ENDBRANCH  10  11
ENDBRANCH   1  10
TORSDOF 13
ENDMDL
MODEL 4
REMARK VINA RESULT:    -3.640      4.135      6.581
REMARK INTER + INTRA:          -8.171
REMARK INTER:                  -7.548
REMARK INTRA:                  -0.623
REMARK UNBOUND:                -1.765
REMARK SMILES CCCCCCCCCCCCCCC(=O)[O-]
REMARK SMILES IDX 9 1 10 2 11 3 12 4 13 5 14 6 15 7 16 8 17 9 8 10 7 11 6 12
REMARK SMILES IDX 5 13 4 14 3 15 2 16 1 17
REMARK H PARENT
REMARK Flexibility Score: inf
ROOT
ATOM      1  C   UNL     1     119.995 111.481 112.286  1.00  0.00     0.000 C 
ENDROOT
BRANCH   1   2
ATOM      2  C   UNL     1     119.182 110.290 111.748  1.00  0.00     0.000 C 
BRANCH   2   3
ATOM      3  C   UNL     1     119.023 110.326 110.219  1.00  0.00     0.000 C 
BRANCH   3   4
ATOM      4  C   UNL     1     120.183 109.628 109.488  1.00  0.00     0.000 C 
BRANCH   4   5
ATOM      5  C   UNL     1     120.004 109.630 107.961  1.00  0.00     0.006 C 
BRANCH   5   6
ATOM      6  C   UNL     1     121.307 109.324 107.211  1.00  0.00     0.053 C 
BRANCH   6   7
ATOM      7  C   UNL     1     121.270 107.939 106.647  1.00  0.00     0.041 C 
ATOM      8  O   UNL     1     120.836 107.741 105.482  1.00  0.00    -0.550 OA
ATOM      9  O   UNL     1     121.671 106.861 107.425  1.00  0.00    -0.550 OA
ENDBRANCH   6   7
ENDBRANCH   5   6
ENDBRANCH   4   5
ENDBRANCH   3   4
ENDBRANCH   2   3
ENDBRANCH   1   2
BRANCH   1  10
ATOM     10  C   UNL     1     120.934 111.082 113.436  1.00  0.00     0.000 C 
BRANCH  10  11
ATOM     11  C   UNL     1     120.882 112.072 114.615  1.00  0.00    -0.000 C 
BRANCH  11  12
ATOM     12  C   UNL     1     121.293 111.423 115.945  1.00  0.00    -0.000 C 
BRANCH  12  13
ATOM     13  C   UNL     1     120.220 111.583 117.037  1.00  0.00    -0.000 C 
BRANCH  13  14
ATOM     14  C   UNL     1     119.710 113.028 117.154  1.00  0.00    -0.000 C 
BRANCH  14  15
ATOM     15  C   UNL     1     118.327 113.113 117.823  1.00  0.00    -0.000 C 
BRANCH  15  16
ATOM     16  C   UNL     1     117.374 114.066 117.087  1.00  0.00    -0.003 C 
ATOM     17  C   UNL     1     118.026 114.732 115.875  1.00  0.00     0.004 C 
ENDBRANCH  15  16
ENDBRANCH  14  15
ENDBRANCH  13  14
ENDBRANCH  12  13
ENDBRANCH  11  12
ENDBRANCH  10  11
ENDBRANCH   1  10
TORSDOF 13
ENDMDL
MODEL 5
REMARK VINA RESULT:    -3.606      5.763      8.233
REMARK INTER + INTRA:          -8.111
REMARK INTER:                  -6.805
REMARK INTRA:                  -1.306
REMARK UNBOUND:                -1.765
REMARK SMILES CCCCCCCCCCCCCCC(=O)[O-]
REMARK SMILES IDX 9 1 10 2 11 3 12 4 13 5 14 6 15 7 16 8 17 9 8 10 7 11 6 12
REMARK SMILES IDX 5 13 4 14 3 15 2 16 1 17
REMARK H PARENT
REMARK Flexibility Score: inf
ROOT
ATOM      1  C   UNL     1     118.896 115.166 114.826  1.00  0.00     0.000 C 
ENDROOT
BRANCH   1   2
ATOM      2  C   UNL     1     117.888 115.334 115.977  1.00  0.00     0.000 C 
BRANCH   2   3
ATOM      3  C   UNL     1     117.465 113.990 116.592  1.00  0.00     0.000 C 
BRANCH   3   4
ATOM      4  C   UNL     1     118.235 113.664 117.884  1.00  0.00     0.000 C 
BRANCH   4   5
ATOM      5  C   UNL     1     118.505 112.159 118.044  1.00  0.00     0.006 C 
BRANCH   5   6
ATOM      6  C   UNL     1     119.870 111.739 117.484  1.00  0.00     0.053 C 
BRANCH   6   7
ATOM      7  C   UNL     1     120.973 112.277 118.340  1.00  0.00     0.041 C 
ATOM      8  O   UNL     1     122.004 112.769 117.810  1.00  0.00    -0.550 OA
ATOM      9  O   UNL     1     120.885 112.191 119.723  1.00  0.00    -0.550 OA
ENDBRANCH   6   7
ENDBRANCH   5   6
ENDBRANCH   4   5
ENDBRANCH   3   4
ENDBRANCH   2   3
ENDBRANCH   1   2
BRANCH   1  10
ATOM     10  C   UNL     1     120.331 114.943 115.327  1.00  0.00     0.000 C 
BRANCH  10  11
ATOM     11  C   UNL     1     121.080 113.864 114.522  1.00  0.00    -0.000 C 
BRANCH  11  12
ATOM     12  C   UNL     1     120.150 112.738 114.042  1.00  0.00    -0.000 C 
BRANCH  12  13
ATOM     13  C   UNL     1     120.423 112.329 112.584  1.00  0.00    -0.000 C 
BRANCH  13  14
ATOM     14  C   UNL     1     120.435 110.804 112.392  1.00  0.00    -0.000 C 
BRANCH  14  15
ATOM     15  C   UNL     1     119.140 110.280 111.749  1.00  0.00    -0.000 C 
BRANCH  15  16
ATOM     16  C   UNL     1     119.206 110.274 110.214  1.00  0.00    -0.003 C 
ATOM     17  C   UNL     1     120.359 109.426 109.677  1.00  0.00     0.004 C 
ENDBRANCH  15  16
ENDBRANCH  14  15
ENDBRANCH  13  14
ENDBRANCH  12  13
ENDBRANCH  11  12
ENDBRANCH  10  11
ENDBRANCH   1  10
TORSDOF 13
ENDMDL
MODEL 6
REMARK VINA RESULT:    -3.590      2.631      5.287
REMARK INTER + INTRA:          -8.084
REMARK INTER:                  -6.997
REMARK INTRA:                  -1.087
REMARK UNBOUND:                -1.765
REMARK SMILES CCCCCCCCCCCCCCC(=O)[O-]
REMARK SMILES IDX 9 1 10 2 11 3 12 4 13 5 14 6 15 7 16 8 17 9 8 10 7 11 6 12
REMARK SMILES IDX 5 13 4 14 3 15 2 16 1 17
REMARK H PARENT
REMARK Flexibility Score: inf
ROOT
ATOM      1  C   UNL     1     119.005 110.363 111.758  1.00  0.00     0.000 C 
ENDROOT
BRANCH   1   2
ATOM      2  C   UNL     1     119.050 110.357 110.220  1.00  0.00     0.000 C 
BRANCH   2   3
ATOM      3  C   UNL     1     120.294 109.641 109.668  1.00  0.00     0.000 C 
BRANCH   3   4
ATOM      4  C   UNL     1     120.263 109.500 108.136  1.00  0.00     0.000 C 
BRANCH   4   5
ATOM      5  C   UNL     1     121.199 110.497 107.434  1.00  0.00     0.006 C 
BRANCH   5   6
ATOM      6  C   UNL     1     120.571 111.888 107.274  1.00  0.00     0.053 C 
BRANCH   6   7
ATOM      7  C   UNL     1     121.355 112.906 108.040  1.00  0.00     0.041 C 
ATOM      8  O   UNL     1     122.291 113.537 107.481  1.00  0.00    -0.550 OA
ATOM      9  O   UNL     1     121.085 113.124 109.384  1.00  0.00    -0.550 OA
ENDBRANCH   6   7
ENDBRANCH   5   6
ENDBRANCH   4   5
ENDBRANCH   3   4
ENDBRANCH   2   3
ENDBRANCH   1   2
BRANCH   1  10
ATOM     10  C   UNL     1     120.363 110.016 112.388  1.00  0.00     0.000 C 
BRANCH  10  11
ATOM     11  C   UNL     1     120.801 111.037 113.454  1.00  0.00    -0.000 C 
BRANCH  11  12
ATOM     12  C   UNL     1     120.511 112.487 113.034  1.00  0.00    -0.000 C 
BRANCH  12  13
ATOM     13  C   UNL     1     120.033 113.358 114.209  1.00  0.00    -0.000 C 
BRANCH  13  14
ATOM     14  C   UNL     1     120.542 112.848 115.566  1.00  0.00    -0.000 C 
BRANCH  14  15
ATOM     15  C   UNL     1     119.668 113.321 116.740  1.00  0.00    -0.000 C 
BRANCH  15  16
ATOM     16  C   UNL     1     119.309 112.179 117.704  1.00  0.00    -0.003 C 
ATOM     17  C   UNL     1     120.185 110.943 117.506  1.00  0.00     0.004 C 
ENDBRANCH  15  16
ENDBRANCH  14  15
ENDBRANCH  13  14
ENDBRANCH  12  13
ENDBRANCH  11  12
ENDBRANCH  10  11
ENDBRANCH   1  10
TORSDOF 13
ENDMDL
MODEL 7
REMARK VINA RESULT:    -3.562      5.506      7.667
REMARK INTER + INTRA:          -8.035
REMARK INTER:                  -7.076
REMARK INTRA:                  -0.959
REMARK UNBOUND:                -1.765
REMARK SMILES CCCCCCCCCCCCCCC(=O)[O-]
REMARK SMILES IDX 9 1 10 2 11 3 12 4 13 5 14 6 15 7 16 8 17 9 8 10 7 11 6 12
REMARK SMILES IDX 5 13 4 14 3 15 2 16 1 17
REMARK H PARENT
REMARK Flexibility Score: inf
ROOT
ATOM      1  C   UNL     1     121.154 111.115 113.248  1.00  0.00     0.000 C 
ENDROOT
BRANCH   1   2
ATOM      2  C   UNL     1     120.557 112.513 113.010  1.00  0.00     0.000 C 
BRANCH   2   3
ATOM      3  C   UNL     1     120.059 113.170 114.308  1.00  0.00     0.000 C 
BRANCH   3   4
ATOM      4  C   UNL     1     120.928 112.809 115.525  1.00  0.00     0.000 C 
BRANCH   4   5
ATOM      5  C   UNL     1     120.092 112.526 116.783  1.00  0.00     0.006 C 
BRANCH   5   6
ATOM      6  C   UNL     1     120.257 111.089 117.293  1.00  0.00     0.053 C 
BRANCH   6   7
ATOM      7  C   UNL     1     121.145 111.063 118.497  1.00  0.00     0.041 C 
ATOM      8  O   UNL     1     121.739 110.002 118.823  1.00  0.00    -0.550 OA
ATOM      9  O   UNL     1     121.279 112.197 119.287  1.00  0.00    -0.550 OA
ENDBRANCH   6   7
ENDBRANCH   5   6
ENDBRANCH   4   5
ENDBRANCH   3   4
ENDBRANCH   2   3
ENDBRANCH   1   2
BRANCH   1  10
ATOM     10  C   UNL     1     120.399 110.014 112.486  1.00  0.00     0.000 C 
BRANCH  10  11
ATOM     11  C   UNL     1     119.215 110.563 111.668  1.00  0.00    -0.000 C 
BRANCH  11  12
ATOM     12  C   UNL     1     119.261 110.120 110.198  1.00  0.00    -0.000 C 
BRANCH  12  13
ATOM     13  C   UNL     1     120.539 109.333 109.857  1.00  0.00    -0.000 C 
BRANCH  13  14
ATOM     14  C   UNL     1     121.053 109.628 108.439  1.00  0.00    -0.000 C 
BRANCH  14  15
ATOM     15  C   UNL     1     119.963 109.449 107.368  1.00  0.00    -0.000 C 
BRANCH  15  16
ATOM     16  C   UNL     1     120.209 108.221 106.478  1.00  0.00    -0.003 C 
ATOM     17  C   UNL     1     121.644 107.705 106.568  1.00  0.00     0.004 C 
ENDBRANCH  15  16
ENDBRANCH  14  15
ENDBRANCH  13  14
ENDBRANCH  12  13
ENDBRANCH  11  12
ENDBRANCH  10  11
ENDBRANCH   1  10
TORSDOF 13
ENDMDL
MODEL 8
REMARK VINA RESULT:    -3.561      5.086      7.678
REMARK INTER + INTRA:          -8.033
REMARK INTER:                  -7.505
REMARK INTRA:                  -0.528
REMARK UNBOUND:                -1.765
REMARK SMILES CCCCCCCCCCCCCCC(=O)[O-]
REMARK SMILES IDX 9 1 10 2 11 3 12 4 13 5 14 6 15 7 16 8 17 9 8 10 7 11 6 12
REMARK SMILES IDX 5 13 4 14 3 15 2 16 1 17
REMARK H PARENT
REMARK Flexibility Score: inf
ROOT
ATOM      1  C   UNL     1     120.820 110.311 113.196  1.00  0.00     0.000 C 
ENDROOT
BRANCH   1   2
ATOM      2  C   UNL     1     121.713 111.087 114.179  1.00  0.00     0.000 C 
BRANCH   2   3
ATOM      3  C   UNL     1     120.901 111.848 115.240  1.00  0.00     0.000 C 
BRANCH   3   4
ATOM      4  C   UNL     1     121.449 111.641 116.663  1.00  0.00     0.000 C 
BRANCH   4   5
ATOM      5  C   UNL     1     120.390 111.079 117.626  1.00  0.00     0.006 C 
BRANCH   5   6
ATOM      6  C   UNL     1     119.781 112.157 118.531  1.00  0.00     0.053 C 
BRANCH   6   7
ATOM      7  C   UNL     1     118.507 112.674 117.940  1.00  0.00     0.041 C 
ATOM      8  O   UNL     1     118.489 113.786 117.350  1.00  0.00    -0.550 OA
ATOM      9  O   UNL     1     117.330 111.952 118.084  1.00  0.00    -0.550 OA
ENDBRANCH   6   7
ENDBRANCH   5   6
ENDBRANCH   4   5
ENDBRANCH   3   4
ENDBRANCH   2   3
ENDBRANCH   1   2
BRANCH   1  10
ATOM     10  C   UNL     1     120.038 111.238 112.252  1.00  0.00     0.000 C 
BRANCH  10  11
ATOM     11  C   UNL     1     119.064 110.471 111.339  1.00  0.00    -0.000 C 
BRANCH  11  12
ATOM     12  C   UNL     1     119.317 110.744 109.848  1.00  0.00    -0.000 C 
BRANCH  12  13
ATOM     13  C   UNL     1     120.066 109.591 109.156  1.00  0.00    -0.000 C 
BRANCH  13  14
ATOM     14  C   UNL     1     120.174 109.786 107.636  1.00  0.00    -0.000 C 
BRANCH  14  15
ATOM     15  C   UNL     1     119.678 108.563 106.847  1.00  0.00    -0.000 C 
BRANCH  15  16
ATOM     16  C   UNL     1     120.816 107.831 106.119  1.00  0.00    -0.003 C 
ATOM     17  C   UNL     1     122.200 108.280 106.585  1.00  0.00     0.004 C 
ENDBRANCH  15  16
ENDBRANCH  14  15
ENDBRANCH  13  14
ENDBRANCH  12  13
ENDBRANCH  11  12
ENDBRANCH  10  11
ENDBRANCH   1  10
TORSDOF 13
ENDMDL
MODEL 9
REMARK VINA RESULT:    -3.546      4.374      6.651
REMARK INTER + INTRA:          -8.006
REMARK INTER:                  -6.116
REMARK INTRA:                  -1.891
REMARK UNBOUND:                -1.765
REMARK SMILES CCCCCCCCCCCCCCC(=O)[O-]
REMARK SMILES IDX 9 1 10 2 11 3 12 4 13 5 14 6 15 7 16 8 17 9 8 10 7 11 6 12
REMARK SMILES IDX 5 13 4 14 3 15 2 16 1 17
REMARK H PARENT
REMARK Flexibility Score: inf
ROOT
ATOM      1  C   UNL     1     119.316 110.028 109.904  1.00  0.00     0.000 C 
ENDROOT
BRANCH   1   2
ATOM      2  C   UNL     1     119.009 110.300 111.387  1.00  0.00     0.000 C 
BRANCH   2   3
ATOM      3  C   UNL     1     120.110 111.121 112.077  1.00  0.00     0.000 C 
BRANCH   3   4
ATOM      4  C   UNL     1     120.820 110.335 113.194  1.00  0.00     0.000 C 
BRANCH   4   5
ATOM      5  C   UNL     1     121.696 111.234 114.081  1.00  0.00     0.006 C 
BRANCH   5   6
ATOM      6  C   UNL     1     120.982 112.525 114.504  1.00  0.00     0.053 C 
BRANCH   6   7
ATOM      7  C   UNL     1     120.505 112.418 115.918  1.00  0.00     0.041 C 
ATOM      8  O   UNL     1     119.953 113.402 116.477  1.00  0.00    -0.550 OA
ATOM      9  O   UNL     1     120.714 111.247 116.636  1.00  0.00    -0.550 OA
ENDBRANCH   6   7
ENDBRANCH   5   6
ENDBRANCH   4   5
ENDBRANCH   3   4
ENDBRANCH   2   3
ENDBRANCH   1   2
BRANCH   1  10
ATOM     10  C   UNL     1     119.595 111.316 109.114  1.00  0.00     0.000 C 
BRANCH  10  11
ATOM     11  C   UNL     1     120.109 111.039 107.689  1.00  0.00    -0.000 C 
BRANCH  11  12
ATOM     12  C   UNL     1     120.057 109.547 107.325  1.00  0.00    -0.000 C 
BRANCH  12  13
ATOM     13  C   UNL     1     121.435 108.988 106.928  1.00  0.00    -0.000 C 
BRANCH  13  14
ATOM     14  C   UNL     1     122.577 109.589 107.764  1.00  0.00    -0.000 C 
BRANCH  14  15
ATOM     15  C   UNL     1     122.786 108.849 109.096  1.00  0.00    -0.000 C 
BRANCH  15  16
ATOM     16  C   UNL     1     123.103 109.804 110.256  1.00  0.00    -0.003 C 
ATOM     17  C   UNL     1     123.230 111.258 109.805  1.00  0.00     0.004 C 
ENDBRANCH  15  16
ENDBRANCH  14  15
ENDBRANCH  13  14
ENDBRANCH  12  13
ENDBRANCH  11  12
ENDBRANCH  10  11
ENDBRANCH   1  10
TORSDOF 13
ENDMDL
