MODEL 1
REMARK VINA RESULT:    -3.671      0.000      0.000
REMARK INTER + INTRA:          -5.258
REMARK INTER:                  -4.958
REMARK INTRA:                  -0.300
REMARK UNBOUND:                -0.300
REMARK SMILES C=C1CCC=C(C)CC[C@@H]2[C@@H]1CC2(C)C
REMARK SMILES IDX 11 1 12 2 13 3 10 4 14 5 15 6 9 7 8 8 6 9 7 10 5 11 2 13
REMARK SMILES IDX 1 14 3 15 4 16
REMARK H PARENT
REMARK Flexibility Score: 70.00
ROOT
ATOM      1  C   UNL     1     166.991 169.231 200.207  1.00  0.00     0.018 C 
ATOM      2  C   UNL     1     168.235 169.750 199.477  1.00  0.00     0.015 C 
ATOM      3  C   UNL     1     167.906 168.841 198.276  1.00  0.00    -0.031 C 
ATOM      4  C   UNL     1     166.740 168.215 199.086  1.00  0.00     0.002 C 
ATOM      5  C   UNL     1     167.510 169.659 197.028  1.00  0.00     0.011 C 
ATOM      6  C   UNL     1     169.023 167.837 197.943  1.00  0.00     0.011 C 
ENDROOT
BRANCH   4   7
ATOM      7  C   UNL     1     165.324 168.278 198.477  1.00  0.00     0.009 C 
BRANCH   7   8
ATOM      8  C   UNL     1     164.360 167.282 199.153  1.00  0.00     0.030 C 
BRANCH   8   9
ATOM      9  C   UNL     1     163.493 167.953 200.207  1.00  0.00    -0.077 C 
ATOM     10  C   UNL     1     162.210 168.604 199.751  1.00  0.00     0.039 C 
ATOM     11  C   UNL     1     163.801 168.028 201.523  1.00  0.00    -0.028 CG0
ATOM     12  G   UNL     1     165.040 167.490 202.200  1.00  0.00     0.000 G0
ENDBRANCH   8   9
ENDBRANCH   7   8
ENDBRANCH   4   7
BRANCH   1  13
ATOM     13  C   UNL     1     167.203 168.610 201.580  1.00  0.00    -0.074 C 
ATOM     14  C   UNL     1     168.345 167.984 201.917  1.00  0.00     0.008 C 
BRANCH  13  15
ATOM     15  C   UNL     1     166.044 168.603 202.549  1.00  0.00     0.035 C 
BRANCH  15  16
ATOM     16  C   UNL     1     165.039 167.488 202.216  1.00  0.00     0.032 CG0
ATOM     17  G   UNL     1     163.814 168.032 201.518  1.00  0.00     0.000 G0
ENDBRANCH  15  16
ENDBRANCH  13  15
ENDBRANCH   1  13
TORSDOF 0
ENDMDL
MODEL 2
REMARK VINA RESULT:    -3.646      4.277      6.124
REMARK INTER + INTRA:          -5.225
REMARK INTER:                  -5.286
REMARK INTRA:                   0.061
REMARK UNBOUND:                -0.300
REMARK SMILES C=C1CCC=C(C)CC[C@@H]2[C@@H]1CC2(C)C
REMARK SMILES IDX 11 1 12 2 13 3 10 4 14 5 15 6 9 7 8 8 6 9 7 10 5 11 2 13
REMARK SMILES IDX 1 14 3 15 4 16
REMARK H PARENT
REMARK Flexibility Score: 70.00
ROOT
ATOM      1  C   UNL     1     164.362 163.082 200.191  1.00  0.00     0.018 C 
ATOM      2  C   UNL     1     163.431 163.164 198.975  1.00  0.00     0.015 C 
ATOM      3  C   UNL     1     164.654 163.092 198.038  1.00  0.00    -0.031 C 
ATOM      4  C   UNL     1     165.589 163.164 199.275  1.00  0.00     0.002 C 
ATOM      5  C   UNL     1     164.686 161.775 197.234  1.00  0.00     0.011 C 
ATOM      6  C   UNL     1     164.785 164.310 197.106  1.00  0.00     0.011 C 
ENDROOT
BRANCH   4   7
ATOM      7  C   UNL     1     166.609 162.024 199.475  1.00  0.00     0.009 C 
BRANCH   7   8
ATOM      8  C   UNL     1     167.454 162.221 200.750  1.00  0.00     0.030 C 
BRANCH   8   9
ATOM      9  C   UNL     1     168.217 163.536 200.730  1.00  0.00    -0.077 C 
ATOM     10  C   UNL     1     169.553 163.562 200.028  1.00  0.00     0.039 C 
ATOM     11  C   UNL     1     167.796 164.681 201.317  1.00  0.00    -0.028 CG0
ATOM     12  G   UNL     1     166.522 164.884 202.105  1.00  0.00     0.000 G0
ENDBRANCH   8   9
ENDBRANCH   7   8
ENDBRANCH   4   7
BRANCH   1  13
ATOM     13  C   UNL     1     164.266 164.206 201.212  1.00  0.00    -0.074 C 
ATOM     14  C   UNL     1     163.218 164.331 202.047  1.00  0.00     0.008 C 
BRANCH  13  15
ATOM     15  C   UNL     1     165.334 165.274 201.202  1.00  0.00     0.035 C 
BRANCH  15  16
ATOM     16  C   UNL     1     166.515 164.897 202.111  1.00  0.00     0.032 CG0
ATOM     17  G   UNL     1     167.784 164.688 201.317  1.00  0.00     0.000 G0
ENDBRANCH  15  16
ENDBRANCH  13  15
ENDBRANCH   1  13
TORSDOF 0
ENDMDL
MODEL 3
REMARK VINA RESULT:    -3.633      3.727      4.400
REMARK INTER + INTRA:          -5.207
REMARK INTER:                  -4.883
REMARK INTRA:                  -0.324
REMARK UNBOUND:                -0.300
REMARK SMILES C=C1CCC=C(C)CC[C@@H]2[C@@H]1CC2(C)C
REMARK SMILES IDX 11 1 12 2 13 3 10 4 14 5 15 6 9 7 8 8 6 9 7 10 5 11 2 13
REMARK SMILES IDX 1 14 3 15 4 16
REMARK H PARENT
REMARK Flexibility Score: 70.00
ROOT
ATOM      1  C   UNL     1     168.481 165.170 200.774  1.00  0.00     0.018 C 
ATOM      2  C   UNL     1     169.547 166.211 200.411  1.00  0.00     0.015 C 
ATOM      3  C   UNL     1     168.495 167.007 199.613  1.00  0.00    -0.031 C 
ATOM      4  C   UNL     1     167.467 165.871 199.860  1.00  0.00     0.002 C 
ATOM      5  C   UNL     1     168.182 168.367 200.273  1.00  0.00     0.011 C 
ATOM      6  C   UNL     1     168.858 167.186 198.128  1.00  0.00     0.011 C 
ENDROOT
BRANCH   4   7
ATOM      7  C   UNL     1     166.138 166.238 200.551  1.00  0.00     0.009 C 
BRANCH   7   8
ATOM      8  C   UNL     1     164.988 165.302 200.129  1.00  0.00     0.030 C 
BRANCH   8   9
ATOM      9  C   UNL     1     164.737 164.208 201.155  1.00  0.00    -0.077 C 
ATOM     10  C   UNL     1     163.683 164.459 202.205  1.00  0.00     0.039 C 
ATOM     11  C   UNL     1     165.408 163.033 201.209  1.00  0.00    -0.028 CG0
ATOM     12  G   UNL     1     166.525 162.580 200.296  1.00  0.00     0.000 G0
ENDBRANCH   8   9
ENDBRANCH   7   8
ENDBRANCH   4   7
BRANCH   1  13
ATOM     13  C   UNL     1     168.769 163.724 200.397  1.00  0.00    -0.074 C 
ATOM     14  C   UNL     1     169.695 163.391 199.480  1.00  0.00     0.008 C 
BRANCH  13  15
ATOM     15  C   UNL     1     167.903 162.643 200.999  1.00  0.00     0.035 C 
BRANCH  15  16
ATOM     16  C   UNL     1     166.538 162.560 200.296  1.00  0.00     0.032 CG0
ATOM     17  G   UNL     1     165.417 163.021 201.198  1.00  0.00     0.000 G0
ENDBRANCH  15  16
ENDBRANCH  13  15
ENDBRANCH   1  13
TORSDOF 0
ENDMDL
MODEL 4
REMARK VINA RESULT:    -3.615      1.927      3.860
REMARK INTER + INTRA:          -5.183
REMARK INTER:                  -4.882
REMARK INTRA:                  -0.301
REMARK UNBOUND:                -0.300
REMARK SMILES C=C1CCC=C(C)CC[C@@H]2[C@@H]1CC2(C)C
REMARK SMILES IDX 11 1 12 2 13 3 10 4 14 5 15 6 9 7 8 8 6 9 7 10 5 11 2 13
REMARK SMILES IDX 1 14 3 15 4 16
REMARK H PARENT
REMARK Flexibility Score: 70.00
ROOT
ATOM      1  C   UNL     1     165.515 168.973 200.608  1.00  0.00     0.018 C 
ATOM      2  C   UNL     1     164.510 169.971 200.021  1.00  0.00     0.015 C 
ATOM      3  C   UNL     1     163.767 168.812 199.328  1.00  0.00    -0.031 C 
ATOM      4  C   UNL     1     164.876 167.835 199.802  1.00  0.00     0.002 C 
ATOM      5  C   UNL     1     162.361 168.591 199.926  1.00  0.00     0.011 C 
ATOM      6  C   UNL     1     163.697 168.955 197.798  1.00  0.00     0.011 C 
ENDROOT
BRANCH   4   7
ATOM      7  C   UNL     1     164.451 166.618 200.650  1.00  0.00     0.009 C 
BRANCH   7   8
ATOM      8  C   UNL     1     165.537 165.524 200.676  1.00  0.00     0.030 C 
BRANCH   8   9
ATOM      9  C   UNL     1     166.384 165.591 201.937  1.00  0.00    -0.077 C 
ATOM     10  C   UNL     1     165.884 164.859 203.158  1.00  0.00     0.039 C 
ATOM     11  C   UNL     1     167.545 166.279 202.050  1.00  0.00    -0.028 CG0
ATOM     12  G   UNL     1     168.216 167.113 200.983  1.00  0.00     0.000 G0
ENDBRANCH   8   9
ENDBRANCH   7   8
ENDBRANCH   4   7
BRANCH   1  13
ATOM     13  C   UNL     1     166.986 169.210 200.300  1.00  0.00    -0.074 C 
ATOM     14  C   UNL     1     167.394 169.827 199.176  1.00  0.00     0.008 C 
BRANCH  13  15
ATOM     15  C   UNL     1     168.016 168.629 201.239  1.00  0.00     0.035 C 
BRANCH  15  16
ATOM     16  C   UNL     1     168.221 167.127 200.989  1.00  0.00     0.032 CG0
ATOM     17  G   UNL     1     167.548 166.287 202.051  1.00  0.00     0.000 G0
ENDBRANCH  15  16
ENDBRANCH  13  15
ENDBRANCH   1  13
TORSDOF 0
ENDMDL
MODEL 5
REMARK VINA RESULT:    -3.603      4.037      5.475
REMARK INTER + INTRA:          -5.167
REMARK INTER:                  -4.886
REMARK INTRA:                  -0.281
REMARK UNBOUND:                -0.300
REMARK SMILES C=C1CCC=C(C)CC[C@@H]2[C@@H]1CC2(C)C
REMARK SMILES IDX 11 1 12 2 13 3 10 4 14 5 15 6 9 7 8 8 6 9 7 10 5 11 2 13
REMARK SMILES IDX 1 14 3 15 4 16
REMARK H PARENT
REMARK Flexibility Score: 70.00
ROOT
ATOM      1  C   UNL     1     165.582 162.861 199.797  1.00  0.00     0.018 C 
ATOM      2  C   UNL     1     166.793 161.930 199.935  1.00  0.00     0.015 C 
ATOM      3  C   UNL     1     167.737 163.139 199.775  1.00  0.00    -0.031 C 
ATOM      4  C   UNL     1     166.509 164.043 199.485  1.00  0.00     0.002 C 
ATOM      5  C   UNL     1     168.513 163.437 201.075  1.00  0.00     0.011 C 
ATOM      6  C   UNL     1     168.696 163.014 198.578  1.00  0.00     0.011 C 
ENDROOT
BRANCH   4   7
ATOM      7  C   UNL     1     166.291 165.275 200.388  1.00  0.00     0.009 C 
BRANCH   7   8
ATOM      8  C   UNL     1     165.610 166.432 199.631  1.00  0.00     0.030 C 
BRANCH   8   9
ATOM      9  C   UNL     1     164.114 166.486 199.897  1.00  0.00    -0.077 C 
ATOM     10  C   UNL     1     163.626 167.421 200.977  1.00  0.00     0.039 C 
ATOM     11  C   UNL     1     163.189 165.738 199.251  1.00  0.00    -0.028 CG0
ATOM     12  G   UNL     1     163.442 164.712 198.170  1.00  0.00     0.000 G0
ENDBRANCH   8   9
ENDBRANCH   7   8
ENDBRANCH   4   7
BRANCH   1  13
ATOM     13  C   UNL     1     164.584 162.539 198.694  1.00  0.00    -0.074 C 
ATOM     14  C   UNL     1     164.878 161.703 197.681  1.00  0.00     0.008 C 
BRANCH  13  15
ATOM     15  C   UNL     1     163.265 163.275 198.686  1.00  0.00     0.035 C 
BRANCH  15  16
ATOM     16  C   UNL     1     163.426 164.710 198.160  1.00  0.00     0.032 CG0
ATOM     17  G   UNL     1     163.193 165.732 199.250  1.00  0.00     0.000 G0
ENDBRANCH  15  16
ENDBRANCH  13  15
ENDBRANCH   1  13
TORSDOF 0
ENDMDL
MODEL 6
REMARK VINA RESULT:    -3.601      2.523      4.715
REMARK INTER + INTRA:          -5.164
REMARK INTER:                  -4.870
REMARK INTRA:                  -0.295
REMARK UNBOUND:                -0.300
REMARK SMILES C=C1CCC=C(C)CC[C@@H]2[C@@H]1CC2(C)C
REMARK SMILES IDX 11 1 12 2 13 3 10 4 14 5 15 6 9 7 8 8 6 9 7 10 5 11 2 13
REMARK SMILES IDX 1 14 3 15 4 16
REMARK H PARENT
REMARK Flexibility Score: 70.00
ROOT
ATOM      1  C   UNL     1     166.679 169.156 199.867  1.00  0.00     0.018 C 
ATOM      2  C   UNL     1     165.469 170.084 200.024  1.00  0.00     0.015 C 
ATOM      3  C   UNL     1     164.525 168.876 199.868  1.00  0.00    -0.031 C 
ATOM      4  C   UNL     1     165.750 167.975 199.559  1.00  0.00     0.002 C 
ATOM      5  C   UNL     1     163.763 168.568 201.174  1.00  0.00     0.011 C 
ATOM      6  C   UNL     1     163.553 169.006 198.682  1.00  0.00     0.011 C 
ENDROOT
BRANCH   4   7
ATOM      7  C   UNL     1     165.979 166.738 200.452  1.00  0.00     0.009 C 
BRANCH   7   8
ATOM      8  C   UNL     1     166.661 165.588 199.684  1.00  0.00     0.030 C 
BRANCH   8   9
ATOM      9  C   UNL     1     168.159 165.539 199.942  1.00  0.00    -0.077 C 
ATOM     10  C   UNL     1     168.655 164.603 201.017  1.00  0.00     0.039 C 
ATOM     11  C   UNL     1     169.078 166.292 199.293  1.00  0.00    -0.028 CG0
ATOM     12  G   UNL     1     168.816 167.320 198.216  1.00  0.00     0.000 G0
ENDBRANCH   8   9
ENDBRANCH   7   8
ENDBRANCH   4   7
BRANCH   1  13
ATOM     13  C   UNL     1     167.664 169.485 198.755  1.00  0.00    -0.074 C 
ATOM     14  C   UNL     1     167.356 170.319 197.745  1.00  0.00     0.008 C 
BRANCH  13  15
ATOM     15  C   UNL     1     168.988 168.758 198.734  1.00  0.00     0.035 C 
BRANCH  15  16
ATOM     16  C   UNL     1     168.833 167.323 198.206  1.00  0.00     0.032 CG0
ATOM     17  G   UNL     1     169.083 166.300 199.291  1.00  0.00     0.000 G0
ENDBRANCH  15  16
ENDBRANCH  13  15
ENDBRANCH   1  13
TORSDOF 0
ENDMDL
MODEL 7
REMARK VINA RESULT:    -3.536      2.155      4.916
REMARK INTER + INTRA:          -5.077
REMARK INTER:                  -4.771
REMARK INTRA:                  -0.305
REMARK UNBOUND:                -0.300
REMARK SMILES C=C1CCC=C(C)CC[C@@H]2[C@@H]1CC2(C)C
REMARK SMILES IDX 11 1 12 2 13 3 10 4 14 5 15 6 9 7 8 8 6 9 7 10 5 11 2 13
REMARK SMILES IDX 1 14 3 15 4 16
REMARK H PARENT
REMARK Flexibility Score: 70.00
ROOT
ATOM      1  C   UNL     1     163.680 166.442 200.889  1.00  0.00     0.018 C 
ATOM      2  C   UNL     1     162.620 165.339 200.778  1.00  0.00     0.015 C 
ATOM      3  C   UNL     1     163.532 164.565 199.805  1.00  0.00    -0.031 C 
ATOM      4  C   UNL     1     164.525 165.758 199.808  1.00  0.00     0.002 C 
ATOM      5  C   UNL     1     164.045 163.247 200.424  1.00  0.00     0.011 C 
ATOM      6  C   UNL     1     162.888 164.313 198.430  1.00  0.00     0.011 C 
ENDROOT
BRANCH   4   7
ATOM      7  C   UNL     1     165.984 165.480 200.224  1.00  0.00     0.009 C 
BRANCH   7   8
ATOM      8  C   UNL     1     166.940 166.600 199.765  1.00  0.00     0.030 C 
BRANCH   8   9
ATOM      9  C   UNL     1     167.235 167.591 200.880  1.00  0.00    -0.077 C 
ATOM     10  C   UNL     1     168.370 167.271 201.821  1.00  0.00     0.039 C 
ATOM     11  C   UNL     1     166.537 168.729 201.104  1.00  0.00    -0.028 CG0
ATOM     12  G   UNL     1     165.344 169.234 200.324  1.00  0.00     0.000 G0
ENDBRANCH   8   9
ENDBRANCH   7   8
ENDBRANCH   4   7
BRANCH   1  13
ATOM     13  C   UNL     1     163.243 167.858 200.540  1.00  0.00    -0.074 C 
ATOM     14  C   UNL     1     162.251 168.109 199.667  1.00  0.00     0.008 C 
BRANCH  13  15
ATOM     15  C   UNL     1     164.032 169.011 201.113  1.00  0.00     0.035 C 
BRANCH  15  16
ATOM     16  C   UNL     1     165.336 169.244 200.333  1.00  0.00     0.032 CG0
ATOM     17  G   UNL     1     166.537 168.715 201.083  1.00  0.00     0.000 G0
ENDBRANCH  15  16
ENDBRANCH  13  15
ENDBRANCH   1  13
TORSDOF 0
ENDMDL
MODEL 8
REMARK VINA RESULT:    -3.532      2.906      4.852
REMARK INTER + INTRA:          -5.072
REMARK INTER:                  -4.817
REMARK INTRA:                  -0.255
REMARK UNBOUND:                -0.300
REMARK SMILES C=C1CCC=C(C)CC[C@@H]2[C@@H]1CC2(C)C
REMARK SMILES IDX 11 1 12 2 13 3 10 4 14 5 15 6 9 7 8 8 6 9 7 10 5 11 2 13
REMARK SMILES IDX 1 14 3 15 4 16
REMARK H PARENT
REMARK Flexibility Score: 70.00
ROOT
ATOM      1  C   UNL     1     164.153 166.680 201.128  1.00  0.00     0.018 C 
ATOM      2  C   UNL     1     164.461 167.253 199.739  1.00  0.00     0.015 C 
ATOM      3  C   UNL     1     163.814 168.590 200.151  1.00  0.00    -0.031 C 
ATOM      4  C   UNL     1     163.374 167.949 201.494  1.00  0.00     0.002 C 
ATOM      5  C   UNL     1     164.854 169.727 200.244  1.00  0.00     0.011 C 
ATOM      6  C   UNL     1     162.630 169.000 199.257  1.00  0.00     0.011 C 
ENDROOT
BRANCH   4   7
ATOM      7  C   UNL     1     163.838 168.624 202.801  1.00  0.00     0.009 C 
BRANCH   7   8
ATOM      8  C   UNL     1     163.073 168.092 204.030  1.00  0.00     0.030 C 
BRANCH   8   9
ATOM      9  C   UNL     1     163.858 167.022 204.771  1.00  0.00    -0.077 C 
ATOM     10  C   UNL     1     164.890 167.477 205.774  1.00  0.00     0.039 C 
ATOM     11  C   UNL     1     163.714 165.689 204.580  1.00  0.00    -0.028 CG0
ATOM     12  G   UNL     1     162.781 165.005 203.608  1.00  0.00     0.000 G0
ENDBRANCH   8   9
ENDBRANCH   7   8
ENDBRANCH   4   7
BRANCH   1  13
ATOM     13  C   UNL     1     163.328 165.402 201.182  1.00  0.00    -0.074 C 
ATOM     14  C   UNL     1     162.377 165.121 200.272  1.00  0.00     0.008 C 
BRANCH  13  15
ATOM     15  C   UNL     1     163.515 164.479 202.363  1.00  0.00     0.035 C 
BRANCH  15  16
ATOM     16  C   UNL     1     162.768 164.995 203.603  1.00  0.00     0.032 CG0
ATOM     17  G   UNL     1     163.701 165.687 204.569  1.00  0.00     0.000 G0
ENDBRANCH  15  16
ENDBRANCH  13  15
ENDBRANCH   1  13
TORSDOF 0
ENDMDL
MODEL 9
REMARK VINA RESULT:    -3.481      3.783      5.954
REMARK INTER + INTRA:          -5.002
REMARK INTER:                  -4.691
REMARK INTRA:                  -0.311
REMARK UNBOUND:                -0.300
REMARK SMILES C=C1CCC=C(C)CC[C@@H]2[C@@H]1CC2(C)C
REMARK SMILES IDX 11 1 12 2 13 3 10 4 14 5 15 6 9 7 8 8 6 9 7 10 5 11 2 13
REMARK SMILES IDX 1 14 3 15 4 16
REMARK H PARENT
REMARK Flexibility Score: 70.00
ROOT
ATOM      1  C   UNL     1     163.780 163.529 198.780  1.00  0.00     0.018 C 
ATOM      2  C   UNL     1     164.122 162.244 199.543  1.00  0.00     0.015 C 
ATOM      3  C   UNL     1     165.042 163.049 200.482  1.00  0.00    -0.031 C 
ATOM      4  C   UNL     1     164.807 164.311 199.610  1.00  0.00     0.002 C 
ATOM      5  C   UNL     1     164.489 163.101 201.922  1.00  0.00     0.011 C 
ATOM      6  C   UNL     1     166.503 162.566 200.472  1.00  0.00     0.011 C 
ENDROOT
BRANCH   4   7
ATOM      7  C   UNL     1     164.241 165.569 200.299  1.00  0.00     0.009 C 
BRANCH   7   8
ATOM      8  C   UNL     1     164.683 166.865 199.591  1.00  0.00     0.030 C 
BRANCH   8   9
ATOM      9  C   UNL     1     163.607 167.402 198.661  1.00  0.00    -0.077 C 
ATOM     10  C   UNL     1     162.657 168.437 199.210  1.00  0.00     0.039 C 
ATOM     11  C   UNL     1     163.426 167.001 197.380  1.00  0.00    -0.028 CG0
ATOM     12  G   UNL     1     164.221 165.956 196.632  1.00  0.00     0.000 G0
ENDBRANCH   8   9
ENDBRANCH   7   8
ENDBRANCH   4   7
BRANCH   1  13
ATOM     13  C   UNL     1     164.048 163.537 197.282  1.00  0.00    -0.074 C 
ATOM     14  C   UNL     1     164.882 162.658 196.697  1.00  0.00     0.008 C 
BRANCH  13  15
ATOM     15  C   UNL     1     163.440 164.643 196.453  1.00  0.00     0.035 C 
BRANCH  15  16
ATOM     16  C   UNL     1     164.219 165.959 196.613  1.00  0.00     0.032 CG0
ATOM     17  G   UNL     1     163.424 166.988 197.384  1.00  0.00     0.000 G0
ENDBRANCH  15  16
ENDBRANCH  13  15
ENDBRANCH   1  13
TORSDOF 0
ENDMDL
