MODEL 1
REMARK VINA RESULT:    -4.574      0.000      0.000
REMARK INTER + INTRA:          -5.343
REMARK INTER:                  -5.242
REMARK INTRA:                  -0.101
REMARK UNBOUND:                -0.101
REMARK SMILES COc1cc(C(=O)[O-])ccc1O
REMARK SMILES IDX 5 1 9 2 4 3 10 4 3 5 11 6 6 7 7 8 8 9 2 10 1 11 12 12
REMARK H PARENT 12 13
REMARK Flexibility Score: inf
ROOT
ATOM      1  C   UNL     1      -0.944   8.428  -3.271  1.00  0.00     0.001 A 
ATOM      2  C   UNL     1      -2.070   8.949  -3.930  1.00  0.00     0.014 A 
ATOM      3  C   UNL     1      -0.260   7.342  -3.843  1.00  0.00     0.060 A 
ATOM      4  C   UNL     1      -2.502   8.394  -5.136  1.00  0.00     0.051 A 
ATOM      5  C   UNL     1      -0.691   6.777  -5.061  1.00  0.00     0.161 A 
ATOM      6  C   UNL     1      -1.821   7.314  -5.704  1.00  0.00     0.157 A 
ENDROOT
BRANCH   1   7
ATOM      7  C   UNL     1      -0.483   9.014  -1.993  1.00  0.00     0.072 C 
ATOM      8  O   UNL     1       0.742   9.022  -1.697  1.00  0.00    -0.545 OA
ATOM      9  O   UNL     1      -1.395   9.565  -1.099  1.00  0.00    -0.545 OA
ENDBRANCH   1   7
BRANCH   5  10
ATOM     10  O   UNL     1      -0.028   5.691  -5.655  1.00  0.00    -0.493 OA
ATOM     11  C   UNL     1       1.170   5.795  -6.419  1.00  0.00     0.278 C 
ENDBRANCH   5  10
BRANCH   6  12
ATOM     12  O   UNL     1      -2.283   6.787  -6.910  1.00  0.00    -0.504 OA
ATOM     13  H   UNL     1      -1.807   6.951  -7.788  1.00  0.00     0.293 HD
ENDBRANCH   6  12
TORSDOF 3
ENDMDL
MODEL 2
REMARK VINA RESULT:    -4.352      1.108      2.478
REMARK INTER + INTRA:          -5.089
REMARK INTER:                  -4.990
REMARK INTRA:                  -0.099
REMARK UNBOUND:                -0.101
REMARK SMILES COc1cc(C(=O)[O-])ccc1O
REMARK SMILES IDX 5 1 9 2 4 3 10 4 3 5 11 6 6 7 7 8 8 9 2 10 1 11 12 12
REMARK H PARENT 12 13
REMARK Flexibility Score: inf
ROOT
ATOM      1  C   UNL     1      -0.610   8.229  -3.240  1.00  0.00     0.001 A 
ATOM      2  C   UNL     1       0.555   7.448  -3.154  1.00  0.00     0.014 A 
ATOM      3  C   UNL     1      -1.433   8.106  -4.374  1.00  0.00     0.060 A 
ATOM      4  C   UNL     1       0.889   6.563  -4.182  1.00  0.00     0.051 A 
ATOM      5  C   UNL     1      -1.100   7.214  -5.413  1.00  0.00     0.161 A 
ATOM      6  C   UNL     1       0.071   6.441  -5.307  1.00  0.00     0.157 A 
ENDROOT
BRANCH   1   7
ATOM      7  C   UNL     1      -0.968   9.168  -2.154  1.00  0.00     0.072 C 
ATOM      8  O   UNL     1      -1.995   9.891  -2.245  1.00  0.00    -0.545 OA
ATOM      9  O   UNL     1      -0.176   9.264  -1.015  1.00  0.00    -0.545 OA
ENDBRANCH   1   7
BRANCH   5  10
ATOM     10  O   UNL     1      -1.903   7.070  -6.557  1.00  0.00    -0.493 OA
ATOM     11  C   UNL     1      -1.800   7.880  -7.724  1.00  0.00     0.278 C 
ENDBRANCH   5  10
BRANCH   6  12
ATOM     12  O   UNL     1       0.439   5.547  -6.312  1.00  0.00    -0.504 OA
ATOM     13  H   UNL     1      -0.215   4.883  -6.710  1.00  0.00     0.293 HD
ENDBRANCH   6  12
TORSDOF 3
ENDMDL
MODEL 3
REMARK VINA RESULT:    -4.310      1.652      4.414
REMARK INTER + INTRA:          -5.041
REMARK INTER:                  -4.959
REMARK INTRA:                  -0.082
REMARK UNBOUND:                -0.101
REMARK SMILES COc1cc(C(=O)[O-])ccc1O
REMARK SMILES IDX 5 1 9 2 4 3 10 4 3 5 11 6 6 7 7 8 8 9 2 10 1 11 12 12
REMARK H PARENT 12 13
REMARK Flexibility Score: inf
ROOT
ATOM      1  C   UNL     1       0.516   6.552  -5.469  1.00  0.00     0.001 A 
ATOM      2  C   UNL     1      -0.761   6.732  -6.027  1.00  0.00     0.014 A 
ATOM      3  C   UNL     1       0.801   7.123  -4.216  1.00  0.00     0.060 A 
ATOM      4  C   UNL     1      -1.732   7.468  -5.345  1.00  0.00     0.051 A 
ATOM      5  C   UNL     1      -0.176   7.867  -3.523  1.00  0.00     0.161 A 
ATOM      6  C   UNL     1      -1.448   8.035  -4.100  1.00  0.00     0.157 A 
ENDROOT
BRANCH   1   7
ATOM      7  C   UNL     1       1.547   5.773  -6.189  1.00  0.00     0.072 C 
ATOM      8  O   UNL     1       1.354   4.560  -6.471  1.00  0.00    -0.545 OA
ATOM      9  O   UNL     1       2.747   6.368  -6.565  1.00  0.00    -0.545 OA
ENDBRANCH   1   7
BRANCH   5  10
ATOM     10  O   UNL     1       0.080   8.448  -2.271  1.00  0.00    -0.493 OA
ATOM     11  C   UNL     1       0.590   9.764  -2.079  1.00  0.00     0.278 C 
ENDBRANCH   5  10
BRANCH   6  12
ATOM     12  O   UNL     1      -2.444   8.763  -3.450  1.00  0.00    -0.504 OA
ATOM     13  H   UNL     1      -3.408   8.452  -3.419  1.00  0.00     0.293 HD
ENDBRANCH   6  12
TORSDOF 3
ENDMDL
MODEL 4
REMARK VINA RESULT:    -4.308      1.717      4.568
REMARK INTER + INTRA:          -5.038
REMARK INTER:                  -4.945
REMARK INTRA:                  -0.094
REMARK UNBOUND:                -0.101
REMARK SMILES COc1cc(C(=O)[O-])ccc1O
REMARK SMILES IDX 5 1 9 2 4 3 10 4 3 5 11 6 6 7 7 8 8 9 2 10 1 11 12 12
REMARK H PARENT 12 13
REMARK Flexibility Score: inf
ROOT
ATOM      1  C   UNL     1       0.907   6.425  -5.506  1.00  0.00     0.001 A 
ATOM      2  C   UNL     1       1.173   6.626  -4.141  1.00  0.00     0.014 A 
ATOM      3  C   UNL     1      -0.253   6.990  -6.066  1.00  0.00     0.060 A 
ATOM      4  C   UNL     1       0.296   7.375  -3.354  1.00  0.00     0.051 A 
ATOM      5  C   UNL     1      -1.141   7.748  -5.276  1.00  0.00     0.161 A 
ATOM      6  C   UNL     1      -0.855   7.936  -3.911  1.00  0.00     0.157 A 
ENDROOT
BRANCH   1   7
ATOM      7  C   UNL     1       1.833   5.632  -6.344  1.00  0.00     0.072 C 
ATOM      8  O   UNL     1       2.874   6.156  -6.821  1.00  0.00    -0.545 OA
ATOM      9  O   UNL     1       1.567   4.294  -6.618  1.00  0.00    -0.545 OA
ENDBRANCH   1   7
BRANCH   5  10
ATOM     10  O   UNL     1      -2.306   8.323  -5.808  1.00  0.00    -0.493 OA
ATOM     11  C   UNL     1      -2.358   9.588  -6.461  1.00  0.00     0.278 C 
ENDBRANCH   5  10
BRANCH   6  12
ATOM     12  O   UNL     1      -1.706   8.678  -3.092  1.00  0.00    -0.504 OA
ATOM     13  H   UNL     1      -2.514   8.267  -2.640  1.00  0.00     0.293 HD
ENDBRANCH   6  12
TORSDOF 3
ENDMDL
MODEL 5
REMARK VINA RESULT:    -4.307      1.889      3.305
REMARK INTER + INTRA:          -5.038
REMARK INTER:                  -4.951
REMARK INTRA:                  -0.087
REMARK UNBOUND:                -0.101
REMARK SMILES COc1cc(C(=O)[O-])ccc1O
REMARK SMILES IDX 5 1 9 2 4 3 10 4 3 5 11 6 6 7 7 8 8 9 2 10 1 11 12 12
REMARK H PARENT 12 13
REMARK Flexibility Score: inf
ROOT
ATOM      1  C   UNL     1      -0.921   7.808  -4.691  1.00  0.00     0.001 A 
ATOM      2  C   UNL     1      -0.159   7.450  -3.567  1.00  0.00     0.014 A 
ATOM      3  C   UNL     1      -0.482   7.412  -5.967  1.00  0.00     0.060 A 
ATOM      4  C   UNL     1       1.018   6.713  -3.716  1.00  0.00     0.051 A 
ATOM      5  C   UNL     1       0.705   6.668  -6.124  1.00  0.00     0.161 A 
ATOM      6  C   UNL     1       1.453   6.320  -4.984  1.00  0.00     0.157 A 
ENDROOT
BRANCH   1   7
ATOM      7  C   UNL     1      -2.168   8.589  -4.538  1.00  0.00     0.072 C 
ATOM      8  O   UNL     1      -2.261   9.480  -3.653  1.00  0.00    -0.545 OA
ATOM      9  O   UNL     1      -3.257   8.349  -5.369  1.00  0.00    -0.545 OA
ENDBRANCH   1   7
BRANCH   5  10
ATOM     10  O   UNL     1       1.168   6.260  -7.386  1.00  0.00    -0.493 OA
ATOM     11  C   UNL     1       1.294   7.116  -8.516  1.00  0.00     0.278 C 
ENDBRANCH   5  10
BRANCH   6  12
ATOM     12  O   UNL     1       2.633   5.586  -5.092  1.00  0.00    -0.504 OA
ATOM     13  H   UNL     1       3.477   5.843  -4.594  1.00  0.00     0.293 HD
ENDBRANCH   6  12
TORSDOF 3
ENDMDL
MODEL 6
REMARK VINA RESULT:    -4.264      9.691     10.366
REMARK INTER + INTRA:          -4.989
REMARK INTER:                  -4.908
REMARK INTRA:                  -0.081
REMARK UNBOUND:                -0.101
REMARK SMILES COc1cc(C(=O)[O-])ccc1O
REMARK SMILES IDX 5 1 9 2 4 3 10 4 3 5 11 6 6 7 7 8 8 9 2 10 1 11 12 12
REMARK H PARENT 12 13
REMARK Flexibility Score: inf
ROOT
ATOM      1  C   UNL     1      -9.472   3.983   0.120  1.00  0.00     0.001 A 
ATOM      2  C   UNL     1      -9.565   2.736   0.760  1.00  0.00     0.014 A 
ATOM      3  C   UNL     1      -9.263   4.024  -1.269  1.00  0.00     0.060 A 
ATOM      4  C   UNL     1      -9.449   1.554   0.025  1.00  0.00     0.051 A 
ATOM      5  C   UNL     1      -9.146   2.834  -2.017  1.00  0.00     0.161 A 
ATOM      6  C   UNL     1      -9.241   1.596  -1.356  1.00  0.00     0.157 A 
ENDROOT
BRANCH   1   7
ATOM      7  C   UNL     1      -9.594   5.237   0.896  1.00  0.00     0.072 C 
ATOM      8  O   UNL     1      -9.902   6.317   0.324  1.00  0.00    -0.545 OA
ATOM      9  O   UNL     1      -9.372   5.243   2.269  1.00  0.00    -0.545 OA
ENDBRANCH   1   7
BRANCH   5  10
ATOM     10  O   UNL     1      -8.936   2.845  -3.406  1.00  0.00    -0.493 OA
ATOM     11  C   UNL     1      -9.285   3.923  -4.268  1.00  0.00     0.278 C 
ENDBRANCH   5  10
BRANCH   6  12
ATOM     12  O   UNL     1      -9.131   0.395  -2.056  1.00  0.00    -0.504 OA
ATOM     13  H   UNL     1      -9.677   0.202  -2.887  1.00  0.00     0.293 HD
ENDBRANCH   6  12
TORSDOF 3
ENDMDL
MODEL 7
REMARK VINA RESULT:    -4.246      1.925      2.416
REMARK INTER + INTRA:          -4.967
REMARK INTER:                  -4.882
REMARK INTRA:                  -0.085
REMARK UNBOUND:                -0.101
REMARK SMILES COc1cc(C(=O)[O-])ccc1O
REMARK SMILES IDX 5 1 9 2 4 3 10 4 3 5 11 6 6 7 7 8 8 9 2 10 1 11 12 12
REMARK H PARENT 12 13
REMARK Flexibility Score: inf
ROOT
ATOM      1  C   UNL     1      -0.292   7.384  -4.873  1.00  0.00     0.001 A 
ATOM      2  C   UNL     1      -1.694   7.408  -4.954  1.00  0.00     0.014 A 
ATOM      3  C   UNL     1       0.462   7.467  -6.057  1.00  0.00     0.060 A 
ATOM      4  C   UNL     1      -2.329   7.512  -6.194  1.00  0.00     0.051 A 
ATOM      5  C   UNL     1      -0.173   7.573  -7.311  1.00  0.00     0.161 A 
ATOM      6  C   UNL     1      -1.579   7.595  -7.370  1.00  0.00     0.157 A 
ENDROOT
BRANCH   1   7
ATOM      7  C   UNL     1       0.384   7.274  -3.562  1.00  0.00     0.072 C 
ATOM      8  O   UNL     1       1.142   6.300  -3.311  1.00  0.00    -0.545 OA
ATOM      9  O   UNL     1       0.193   8.246  -2.585  1.00  0.00    -0.545 OA
ENDBRANCH   1   7
BRANCH   5  10
ATOM     10  O   UNL     1       0.554   7.657  -8.510  1.00  0.00    -0.493 OA
ATOM     11  C   UNL     1       1.559   6.732  -8.912  1.00  0.00     0.278 C 
ENDBRANCH   5  10
BRANCH   6  12
ATOM     12  O   UNL     1      -2.249   7.697  -8.589  1.00  0.00    -0.504 OA
ATOM     13  H   UNL     1      -2.646   6.891  -9.055  1.00  0.00     0.293 HD
ENDBRANCH   6  12
TORSDOF 3
ENDMDL
MODEL 8
REMARK VINA RESULT:    -4.234      1.567      1.782
REMARK INTER + INTRA:          -4.954
REMARK INTER:                  -4.880
REMARK INTRA:                  -0.074
REMARK UNBOUND:                -0.101
REMARK SMILES COc1cc(C(=O)[O-])ccc1O
REMARK SMILES IDX 5 1 9 2 4 3 10 4 3 5 11 6 6 7 7 8 8 9 2 10 1 11 12 12
REMARK H PARENT 12 13
REMARK Flexibility Score: inf
ROOT
ATOM      1  C   UNL     1      -0.084   8.085  -4.133  1.00  0.00     0.001 A 
ATOM      2  C   UNL     1      -0.648   8.780  -5.215  1.00  0.00     0.014 A 
ATOM      3  C   UNL     1       0.642   6.907  -4.382  1.00  0.00     0.060 A 
ATOM      4  C   UNL     1      -0.489   8.306  -6.519  1.00  0.00     0.051 A 
ATOM      5  C   UNL     1       0.806   6.424  -5.696  1.00  0.00     0.161 A 
ATOM      6  C   UNL     1       0.233   7.136  -6.765  1.00  0.00     0.157 A 
ENDROOT
BRANCH   1   7
ATOM      7  C   UNL     1      -0.250   8.583  -2.750  1.00  0.00     0.072 C 
ATOM      8  O   UNL     1       0.690   8.489  -1.917  1.00  0.00    -0.545 OA
ATOM      9  O   UNL     1      -1.448   9.165  -2.348  1.00  0.00    -0.545 OA
ENDBRANCH   1   7
BRANCH   5  10
ATOM     10  O   UNL     1       1.526   5.250  -5.974  1.00  0.00    -0.493 OA
ATOM     11  C   UNL     1       2.909   5.211  -6.310  1.00  0.00     0.278 C 
ENDBRANCH   5  10
BRANCH   6  12
ATOM     12  O   UNL     1       0.370   6.694  -8.081  1.00  0.00    -0.504 OA
ATOM     13  H   UNL     1       0.018   7.226  -8.868  1.00  0.00     0.293 HD
ENDBRANCH   6  12
TORSDOF 3
ENDMDL
MODEL 9
REMARK VINA RESULT:    -4.158     11.733     13.425
REMARK INTER + INTRA:          -4.867
REMARK INTER:                  -4.786
REMARK INTRA:                  -0.081
REMARK UNBOUND:                -0.101
REMARK SMILES COc1cc(C(=O)[O-])ccc1O
REMARK SMILES IDX 5 1 9 2 4 3 10 4 3 5 11 6 6 7 7 8 8 9 2 10 1 11 12 12
REMARK H PARENT 12 13
REMARK Flexibility Score: inf
ROOT
ATOM      1  C   UNL     1      -1.969   4.844   7.885  1.00  0.00     0.001 A 
ATOM      2  C   UNL     1      -3.312   4.641   8.242  1.00  0.00     0.014 A 
ATOM      3  C   UNL     1      -1.060   3.779   8.009  1.00  0.00     0.060 A 
ATOM      4  C   UNL     1      -3.737   3.397   8.713  1.00  0.00     0.051 A 
ATOM      5  C   UNL     1      -1.484   2.521   8.483  1.00  0.00     0.161 A 
ATOM      6  C   UNL     1      -2.833   2.338   8.835  1.00  0.00     0.157 A 
ENDROOT
BRANCH   1   7
ATOM      7  C   UNL     1      -1.514   6.161   7.385  1.00  0.00     0.072 C 
ATOM      8  O   UNL     1      -2.178   6.778   6.511  1.00  0.00    -0.545 OA
ATOM      9  O   UNL     1      -0.347   6.737   7.875  1.00  0.00    -0.545 OA
ENDBRANCH   1   7
BRANCH   5  10
ATOM     10  O   UNL     1      -0.598   1.438   8.617  1.00  0.00    -0.493 OA
ATOM     11  C   UNL     1       0.745   1.545   9.078  1.00  0.00     0.278 C 
ENDBRANCH   5  10
BRANCH   6  12
ATOM     12  O   UNL     1      -3.296   1.111   9.310  1.00  0.00    -0.504 OA
ATOM     13  H   UNL     1      -4.051   1.042   9.981  1.00  0.00     0.293 HD
ENDBRANCH   6  12
TORSDOF 3
ENDMDL
