MODEL 1
REMARK VINA RESULT:    -4.417      0.000      0.000
REMARK INTER + INTRA:          -4.417
REMARK INTER:                  -4.417
REMARK INTRA:                   0.000
REMARK UNBOUND:                 0.000
REMARK SMILES CC1(C)O[C@]2(C)CC[C@H]1CC2
REMARK SMILES IDX 1 1 2 2 9 3 10 4 11 5 5 6 4 7 7 8 8 9 6 10 3 11
REMARK H PARENT
REMARK Flexibility Score: inf
ROOT
ATOM      1  C   UNL     1     108.227 106.886 104.119  1.00  0.00     0.042 C 
ATOM      2  C   UNL     1     107.208 106.287 103.127  1.00  0.00     0.066 C 
ATOM      3  C   UNL     1     105.825 106.024 103.839  1.00  0.00     0.021 C 
ATOM      4  C   UNL     1     104.862 105.377 102.815  1.00  0.00     0.009 C 
ATOM      5  C   UNL     1     105.557 104.156 102.165  1.00  0.00     0.035 C 
ATOM      6  C   UNL     1     106.950 103.932 102.820  1.00  0.00     0.066 C 
ATOM      7  O   UNL     1     107.768 105.079 102.588  1.00  0.00    -0.369 OA
ATOM      8  C   UNL     1     106.763 103.739 104.352  1.00  0.00     0.035 C 
ATOM      9  C   UNL     1     106.039 104.970 104.952  1.00  0.00     0.009 C 
ATOM     10  C   UNL     1     107.635 102.705 102.208  1.00  0.00     0.042 C 
ATOM     11  C   UNL     1     107.043 107.296 101.970  1.00  0.00     0.042 C 
ENDROOT
TORSDOF 0
ENDMDL
MODEL 2
REMARK VINA RESULT:    -4.410      1.763      3.617
REMARK INTER + INTRA:          -4.410
REMARK INTER:                  -4.410
REMARK INTRA:                   0.000
REMARK UNBOUND:                 0.000
REMARK SMILES CC1(C)O[C@]2(C)CC[C@H]1CC2
REMARK SMILES IDX 1 1 2 2 9 3 10 4 11 5 5 6 4 7 7 8 8 9 6 10 3 11
REMARK H PARENT
REMARK Flexibility Score: inf
ROOT
ATOM      1  C   UNL     1     107.729 105.696 102.061  1.00  0.00     0.042 C 
ATOM      2  C   UNL     1     107.071 106.611 103.116  1.00  0.00     0.066 C 
ATOM      3  C   UNL     1     105.923 105.844 103.881  1.00  0.00     0.021 C 
ATOM      4  C   UNL     1     105.266 106.821 104.885  1.00  0.00     0.009 C 
ATOM      5  C   UNL     1     104.867 108.120 104.145  1.00  0.00     0.035 C 
ATOM      6  C   UNL     1     105.173 107.976 102.625  1.00  0.00     0.066 C 
ATOM      7  O   UNL     1     106.576 107.780 102.446  1.00  0.00    -0.369 OA
ATOM      8  C   UNL     1     104.410 106.739 102.071  1.00  0.00     0.035 C 
ATOM      9  C   UNL     1     104.820 105.472 102.860  1.00  0.00     0.009 C 
ATOM     10  C   UNL     1     104.751 109.244 101.875  1.00  0.00     0.042 C 
ATOM     11  C   UNL     1     108.179 107.052 104.097  1.00  0.00     0.042 C 
ENDROOT
TORSDOF 0
ENDMDL
MODEL 3
REMARK VINA RESULT:    -4.365      2.009      4.028
REMARK INTER + INTRA:          -4.365
REMARK INTER:                  -4.365
REMARK INTRA:                   0.000
REMARK UNBOUND:                 0.000
REMARK SMILES CC1(C)O[C@]2(C)CC[C@H]1CC2
REMARK SMILES IDX 1 1 2 2 9 3 10 4 11 5 5 6 4 7 7 8 8 9 6 10 3 11
REMARK H PARENT
REMARK Flexibility Score: inf
ROOT
ATOM      1  C   UNL     1     103.747 105.120 104.098  1.00  0.00     0.042 C 
ATOM      2  C   UNL     1     104.811 105.715 103.151  1.00  0.00     0.066 C 
ATOM      3  C   UNL     1     106.164 105.971 103.921  1.00  0.00     0.021 C 
ATOM      4  C   UNL     1     107.173 106.613 102.940  1.00  0.00     0.009 C 
ATOM      5  C   UNL     1     106.513 107.837 102.260  1.00  0.00     0.035 C 
ATOM      6  C   UNL     1     105.094 108.068 102.856  1.00  0.00     0.066 C 
ATOM      7  O   UNL     1     104.281 106.925 102.589  1.00  0.00    -0.369 OA
ATOM      8  C   UNL     1     105.216 108.261 104.394  1.00  0.00     0.035 C 
ATOM      9  C   UNL     1     105.907 107.026 105.024  1.00  0.00     0.009 C 
ATOM     10  C   UNL     1     104.442 109.299 102.215  1.00  0.00     0.042 C 
ATOM     11  C   UNL     1     105.020 104.704 102.002  1.00  0.00     0.042 C 
ENDROOT
TORSDOF 0
ENDMDL
MODEL 4
REMARK VINA RESULT:    -4.364      1.660      2.854
REMARK INTER + INTRA:          -4.364
REMARK INTER:                  -4.364
REMARK INTRA:                   0.000
REMARK UNBOUND:                 0.000
REMARK SMILES CC1(C)O[C@]2(C)CC[C@H]1CC2
REMARK SMILES IDX 1 1 2 2 9 3 10 4 11 5 5 6 4 7 7 8 8 9 6 10 3 11
REMARK H PARENT
REMARK Flexibility Score: inf
ROOT
ATOM      1  C   UNL     1     106.899 103.741 104.050  1.00  0.00     0.042 C 
ATOM      2  C   UNL     1     106.289 104.811 103.119  1.00  0.00     0.066 C 
ATOM      3  C   UNL     1     106.028 106.152 103.908  1.00  0.00     0.021 C 
ATOM      4  C   UNL     1     105.371 107.168 102.942  1.00  0.00     0.009 C 
ATOM      5  C   UNL     1     104.147 106.505 102.264  1.00  0.00     0.035 C 
ATOM      6  C   UNL     1     103.931 105.077 102.845  1.00  0.00     0.066 C 
ATOM      7  O   UNL     1     105.079 104.277 102.560  1.00  0.00    -0.369 OA
ATOM      8  C   UNL     1     103.749 105.181 104.386  1.00  0.00     0.035 C 
ATOM      9  C   UNL     1     104.983 105.874 105.015  1.00  0.00     0.009 C 
ATOM     10  C   UNL     1     102.702 104.423 102.205  1.00  0.00     0.042 C 
ATOM     11  C   UNL     1     107.290 105.041 101.966  1.00  0.00     0.042 C 
ENDROOT
TORSDOF 0
ENDMDL
MODEL 5
REMARK VINA RESULT:    -4.361      1.854      3.081
REMARK INTER + INTRA:          -4.361
REMARK INTER:                  -4.361
REMARK INTRA:                   0.000
REMARK UNBOUND:                 0.000
REMARK SMILES CC1(C)O[C@]2(C)CC[C@H]1CC2
REMARK SMILES IDX 1 1 2 2 9 3 10 4 11 5 5 6 4 7 7 8 8 9 6 10 3 11
REMARK H PARENT
REMARK Flexibility Score: inf
ROOT
ATOM      1  C   UNL     1     106.202 107.855 102.092  1.00  0.00     0.042 C 
ATOM      2  C   UNL     1     105.312 107.155 103.142  1.00  0.00     0.066 C 
ATOM      3  C   UNL     1     106.105 105.996 103.861  1.00  0.00     0.021 C 
ATOM      4  C   UNL     1     105.153 105.299 104.862  1.00  0.00     0.009 C 
ATOM      5  C   UNL     1     103.847 104.904 104.130  1.00  0.00     0.035 C 
ATOM      6  C   UNL     1     103.963 105.255 102.618  1.00  0.00     0.066 C 
ATOM      7  O   UNL     1     104.139 106.665 102.476  1.00  0.00    -0.369 OA
ATOM      8  C   UNL     1     105.200 104.523 102.023  1.00  0.00     0.035 C 
ATOM      9  C   UNL     1     106.475 104.927 102.804  1.00  0.00     0.009 C 
ATOM     10  C   UNL     1     102.689 104.838 101.876  1.00  0.00     0.042 C 
ATOM     11  C   UNL     1     104.873 108.229 104.160  1.00  0.00     0.042 C 
ENDROOT
TORSDOF 0
ENDMDL
MODEL 6
REMARK VINA RESULT:    -4.350      1.187      2.806
REMARK INTER + INTRA:          -4.350
REMARK INTER:                  -4.350
REMARK INTRA:                   0.000
REMARK UNBOUND:                 0.000
REMARK SMILES CC1(C)O[C@]2(C)CC[C@H]1CC2
REMARK SMILES IDX 1 1 2 2 9 3 10 4 11 5 5 6 4 7 7 8 8 9 6 10 3 11
REMARK H PARENT
REMARK Flexibility Score: inf
ROOT
ATOM      1  C   UNL     1     104.155 106.190 102.031  1.00  0.00     0.042 C 
ATOM      2  C   UNL     1     104.890 105.350 103.097  1.00  0.00     0.066 C 
ATOM      3  C   UNL     1     106.039 106.193 103.776  1.00  0.00     0.021 C 
ATOM      4  C   UNL     1     106.773 105.288 104.794  1.00  0.00     0.009 C 
ATOM      5  C   UNL     1     107.191 103.971 104.096  1.00  0.00     0.035 C 
ATOM      6  C   UNL     1     106.817 104.033 102.586  1.00  0.00     0.066 C 
ATOM      7  O   UNL     1     105.401 104.169 102.459  1.00  0.00    -0.369 OA
ATOM      8  C   UNL     1     107.509 105.270 101.945  1.00  0.00     0.035 C 
ATOM      9  C   UNL     1     107.084 106.557 102.694  1.00  0.00     0.009 C 
ATOM     10  C   UNL     1     107.256 102.748 101.876  1.00  0.00     0.042 C 
ATOM     11  C   UNL     1     103.842 104.914 104.143  1.00  0.00     0.042 C 
ENDROOT
TORSDOF 0
ENDMDL
MODEL 7
REMARK VINA RESULT:    -4.345      1.479      2.809
REMARK INTER + INTRA:          -4.345
REMARK INTER:                  -4.345
REMARK INTRA:                   0.000
REMARK UNBOUND:                 0.000
REMARK SMILES CC1(C)O[C@]2(C)CC[C@H]1CC2
REMARK SMILES IDX 1 1 2 2 9 3 10 4 11 5 5 6 4 7 7 8 8 9 6 10 3 11
REMARK H PARENT
REMARK Flexibility Score: inf
ROOT
ATOM      1  C   UNL     1     105.430 108.251 102.355  1.00  0.00     0.042 C 
ATOM      2  C   UNL     1     105.822 107.128 103.339  1.00  0.00     0.066 C 
ATOM      3  C   UNL     1     107.300 107.329 103.854  1.00  0.00     0.021 C 
ATOM      4  C   UNL     1     107.655 106.151 104.793  1.00  0.00     0.009 C 
ATOM      5  C   UNL     1     107.340 104.816 104.075  1.00  0.00     0.035 C 
ATOM      6  C   UNL     1     106.859 105.099 102.622  1.00  0.00     0.066 C 
ATOM      7  O   UNL     1     105.657 105.870 102.668  1.00  0.00    -0.369 OA
ATOM      8  C   UNL     1     107.957 105.908 101.875  1.00  0.00     0.035 C 
ATOM      9  C   UNL     1     108.259 107.218 102.644  1.00  0.00     0.009 C 
ATOM     10  C   UNL     1     106.574 103.783 101.890  1.00  0.00     0.042 C 
ATOM     11  C   UNL     1     104.823 107.178 104.515  1.00  0.00     0.042 C 
ENDROOT
TORSDOF 0
ENDMDL
MODEL 8
REMARK VINA RESULT:    -4.331      1.241      2.976
REMARK INTER + INTRA:          -4.331
REMARK INTER:                  -4.331
REMARK INTRA:                   0.000
REMARK UNBOUND:                 0.000
REMARK SMILES CC1(C)O[C@]2(C)CC[C@H]1CC2
REMARK SMILES IDX 1 1 2 2 9 3 10 4 11 5 5 6 4 7 7 8 8 9 6 10 3 11
REMARK H PARENT
REMARK Flexibility Score: inf
ROOT
ATOM      1  C   UNL     1     104.234 105.656 104.855  1.00  0.00     0.042 C 
ATOM      2  C   UNL     1     105.103 105.127 103.694  1.00  0.00     0.066 C 
ATOM      3  C   UNL     1     106.146 104.064 104.217  1.00  0.00     0.021 C 
ATOM      4  C   UNL     1     107.021 103.608 103.025  1.00  0.00     0.009 C 
ATOM      5  C   UNL     1     107.593 104.855 102.309  1.00  0.00     0.035 C 
ATOM      6  C   UNL     1     107.175 106.143 103.077  1.00  0.00     0.066 C 
ATOM      7  O   UNL     1     105.751 106.249 103.075  1.00  0.00    -0.369 OA
ATOM      8  C   UNL     1     107.679 106.041 104.546  1.00  0.00     0.035 C 
ATOM      9  C   UNL     1     107.104 104.765 105.210  1.00  0.00     0.009 C 
ATOM     10  C   UNL     1     107.764 107.383 102.397  1.00  0.00     0.042 C 
ATOM     11  C   UNL     1     104.150 104.493 102.659  1.00  0.00     0.042 C 
ENDROOT
TORSDOF 0
ENDMDL
MODEL 9
REMARK VINA RESULT:    -4.321      2.116      3.785
REMARK INTER + INTRA:          -4.321
REMARK INTER:                  -4.321
REMARK INTRA:                   0.000
REMARK UNBOUND:                 0.000
REMARK SMILES CC1(C)O[C@]2(C)CC[C@H]1CC2
REMARK SMILES IDX 1 1 2 2 9 3 10 4 11 5 5 6 4 7 7 8 8 9 6 10 3 11
REMARK H PARENT
REMARK Flexibility Score: inf
ROOT
ATOM      1  C   UNL     1     103.751 105.691 101.956  1.00  0.00     0.042 C 
ATOM      2  C   UNL     1     104.759 106.023 103.077  1.00  0.00     0.066 C 
ATOM      3  C   UNL     1     104.495 107.468 103.653  1.00  0.00     0.021 C 
ATOM      4  C   UNL     1     105.563 107.767 104.733  1.00  0.00     0.009 C 
ATOM      5  C   UNL     1     106.969 107.494 104.146  1.00  0.00     0.035 C 
ATOM      6  C   UNL     1     106.847 107.100 102.645  1.00  0.00     0.066 C 
ATOM      7  O   UNL     1     106.083 105.899 102.536  1.00  0.00    -0.369 OA
ATOM      8  C   UNL     1     106.116 108.242 101.881  1.00  0.00     0.035 C 
ATOM      9  C   UNL     1     104.729 108.497 102.521  1.00  0.00     0.009 C 
ATOM     10  C   UNL     1     108.235 106.860 102.043  1.00  0.00     0.042 C 
ATOM     11  C   UNL     1     104.588 104.956 104.180  1.00  0.00     0.042 C 
ENDROOT
TORSDOF 0
ENDMDL
