MODEL 1
REMARK VINA RESULT:    -5.466      0.000      0.000
REMARK INTER + INTRA:         -10.460
REMARK INTER:                  -9.619
REMARK INTRA:                  -0.841
REMARK UNBOUND:                -0.841
REMARK SMILES CCCCCCCCCCCCCCC(=O)[O-]
REMARK SMILES IDX 9 1 10 2 11 3 12 4 13 5 14 6 15 7 16 8 17 9 8 10 7 11 6 12
REMARK SMILES IDX 5 13 4 14 3 15 2 16 1 17
REMARK H PARENT
REMARK Flexibility Score: inf
ROOT
ATOM      1  C   UNL     1     -16.758  -6.812  42.321  1.00  0.00     0.000 C 
ENDROOT
BRANCH   1   2
ATOM      2  C   UNL     1     -18.047  -7.626  42.110  1.00  0.00     0.000 C 
BRANCH   2   3
ATOM      3  C   UNL     1     -18.120  -8.901  42.978  1.00  0.00     0.000 C 
BRANCH   3   4
ATOM      4  C   UNL     1     -16.958  -8.986  43.982  1.00  0.00     0.000 C 
BRANCH   4   5
ATOM      5  C   UNL     1     -16.626 -10.432  44.382  1.00  0.00     0.006 C 
BRANCH   5   6
ATOM      6  C   UNL     1     -15.223 -10.571  44.986  1.00  0.00     0.053 C 
BRANCH   6   7
ATOM      7  C   UNL     1     -15.308 -10.715  46.473  1.00  0.00     0.041 C 
ATOM      8  O   UNL     1     -14.270 -10.946  47.148  1.00  0.00    -0.550 OA
ATOM      9  O   UNL     1     -16.540 -10.641  47.110  1.00  0.00    -0.550 OA
ENDBRANCH   6   7
ENDBRANCH   5   6
ENDBRANCH   4   5
ENDBRANCH   3   4
ENDBRANCH   2   3
ENDBRANCH   1   2
BRANCH   1  10
ATOM     10  C   UNL     1     -16.199  -6.228  41.013  1.00  0.00     0.000 C 
BRANCH  10  11
ATOM     11  C   UNL     1     -17.248  -6.173  39.891  1.00  0.00    -0.000 C 
BRANCH  11  12
ATOM     12  C   UNL     1     -16.614  -6.176  38.489  1.00  0.00    -0.000 C 
BRANCH  12  13
ATOM     13  C   UNL     1     -15.083  -6.041  38.536  1.00  0.00    -0.000 C 
BRANCH  13  14
ATOM     14  C   UNL     1     -14.416  -6.434  37.206  1.00  0.00    -0.000 C 
BRANCH  14  15
ATOM     15  C   UNL     1     -13.164  -7.308  37.400  1.00  0.00    -0.000 C 
BRANCH  15  16
ATOM     16  C   UNL     1     -12.610  -7.340  38.835  1.00  0.00    -0.003 C 
ATOM     17  C   UNL     1     -11.498  -8.371  39.024  1.00  0.00     0.004 C 
ENDBRANCH  15  16
ENDBRANCH  14  15
ENDBRANCH  13  14
ENDBRANCH  12  13
ENDBRANCH  11  12
ENDBRANCH  10  11
ENDBRANCH   1  10
TORSDOF 13
ENDMDL
MODEL 2
REMARK VINA RESULT:    -5.307      1.322      2.386
REMARK INTER + INTRA:         -10.181
REMARK INTER:                  -9.527
REMARK INTRA:                  -0.653
REMARK UNBOUND:                -0.841
REMARK SMILES CCCCCCCCCCCCCCC(=O)[O-]
REMARK SMILES IDX 9 1 10 2 11 3 12 4 13 5 14 6 15 7 16 8 17 9 8 10 7 11 6 12
REMARK SMILES IDX 5 13 4 14 3 15 2 16 1 17
REMARK H PARENT
REMARK Flexibility Score: inf
ROOT
ATOM      1  C   UNL     1     -16.984  -7.910  43.310  1.00  0.00     0.000 C 
ENDROOT
BRANCH   1   2
ATOM      2  C   UNL     1     -17.420  -9.355  43.609  1.00  0.00     0.000 C 
BRANCH   2   3
ATOM      3  C   UNL     1     -16.960  -9.864  44.993  1.00  0.00     0.000 C 
BRANCH   3   4
ATOM      4  C   UNL     1     -15.646 -10.660  44.910  1.00  0.00     0.000 C 
BRANCH   4   5
ATOM      5  C   UNL     1     -14.818 -10.570  46.201  1.00  0.00     0.006 C 
BRANCH   5   6
ATOM      6  C   UNL     1     -15.465 -11.319  47.372  1.00  0.00     0.053 C 
BRANCH   6   7
ATOM      7  C   UNL     1     -15.571 -10.427  48.568  1.00  0.00     0.041 C 
ATOM      8  O   UNL     1     -16.339  -9.429  48.549  1.00  0.00    -0.550 OA
ATOM      9  O   UNL     1     -14.787 -10.670  49.688  1.00  0.00    -0.550 OA
ENDBRANCH   6   7
ENDBRANCH   5   6
ENDBRANCH   4   5
ENDBRANCH   3   4
ENDBRANCH   2   3
ENDBRANCH   1   2
BRANCH   1  10
ATOM     10  C   UNL     1     -17.962  -7.170  42.383  1.00  0.00     0.000 C 
BRANCH  10  11
ATOM     11  C   UNL     1     -17.262  -6.513  41.183  1.00  0.00    -0.000 C 
BRANCH  11  12
ATOM     12  C   UNL     1     -17.771  -7.052  39.834  1.00  0.00    -0.000 C 
BRANCH  12  13
ATOM     13  C   UNL     1     -17.037  -6.429  38.637  1.00  0.00    -0.000 C 
BRANCH  13  14
ATOM     14  C   UNL     1     -15.924  -5.458  39.068  1.00  0.00    -0.000 C 
BRANCH  14  15
ATOM     15  C   UNL     1     -14.520  -5.933  38.653  1.00  0.00    -0.000 C 
BRANCH  15  16
ATOM     16  C   UNL     1     -14.462  -6.700  37.320  1.00  0.00    -0.003 C 
ATOM     17  C   UNL     1     -13.070  -7.243  37.002  1.00  0.00     0.004 C 
ENDBRANCH  15  16
ENDBRANCH  14  15
ENDBRANCH  13  14
ENDBRANCH  12  13
ENDBRANCH  11  12
ENDBRANCH  10  11
ENDBRANCH   1  10
TORSDOF 13
ENDMDL
MODEL 3
REMARK VINA RESULT:    -5.214      3.309      7.199
REMARK INTER + INTRA:         -10.018
REMARK INTER:                  -8.779
REMARK INTRA:                  -1.239
REMARK UNBOUND:                -0.841
REMARK SMILES CCCCCCCCCCCCCCC(=O)[O-]
REMARK SMILES IDX 9 1 10 2 11 3 12 4 13 5 14 6 15 7 16 8 17 9 8 10 7 11 6 12
REMARK SMILES IDX 5 13 4 14 3 15 2 16 1 17
REMARK H PARENT
REMARK Flexibility Score: inf
ROOT
ATOM      1  C   UNL     1     -17.428  -6.559  41.821  1.00  0.00     0.000 C 
ENDROOT
BRANCH   1   2
ATOM      2  C   UNL     1     -17.980  -7.601  40.833  1.00  0.00     0.000 C 
BRANCH   2   3
ATOM      3  C   UNL     1     -17.739  -7.234  39.352  1.00  0.00     0.000 C 
BRANCH   3   4
ATOM      4  C   UNL     1     -16.995  -5.895  39.200  1.00  0.00     0.000 C 
BRANCH   4   5
ATOM      5  C   UNL     1     -15.908  -5.943  38.115  1.00  0.00     0.006 C 
BRANCH   5   6
ATOM      6  C   UNL     1     -14.522  -6.276  38.680  1.00  0.00     0.053 C 
BRANCH   6   7
ATOM      7  C   UNL     1     -14.211  -5.397  39.850  1.00  0.00     0.041 C 
ATOM      8  O   UNL     1     -13.980  -5.904  40.980  1.00  0.00    -0.550 OA
ATOM      9  O   UNL     1     -14.223  -4.016  39.706  1.00  0.00    -0.550 OA
ENDBRANCH   6   7
ENDBRANCH   5   6
ENDBRANCH   4   5
ENDBRANCH   3   4
ENDBRANCH   2   3
ENDBRANCH   1   2
BRANCH   1  10
ATOM     10  C   UNL     1     -16.764  -7.197  43.053  1.00  0.00     0.000 C 
BRANCH  10  11
ATOM     11  C   UNL     1     -17.736  -7.363  44.232  1.00  0.00    -0.000 C 
BRANCH  11  12
ATOM     12  C   UNL     1     -17.729  -8.792  44.805  1.00  0.00    -0.000 C 
BRANCH  12  13
ATOM     13  C   UNL     1     -17.171  -9.822  43.810  1.00  0.00    -0.000 C 
BRANCH  13  14
ATOM     14  C   UNL     1     -16.316 -10.902  44.497  1.00  0.00    -0.000 C 
BRANCH  14  15
ATOM     15  C   UNL     1     -15.370 -10.325  45.566  1.00  0.00    -0.000 C 
BRANCH  15  16
ATOM     16  C   UNL     1     -15.464 -10.999  46.946  1.00  0.00    -0.003 C 
ATOM     17  C   UNL     1     -16.214 -10.153  47.974  1.00  0.00     0.004 C 
ENDBRANCH  15  16
ENDBRANCH  14  15
ENDBRANCH  13  14
ENDBRANCH  12  13
ENDBRANCH  11  12
ENDBRANCH  10  11
ENDBRANCH   1  10
TORSDOF 13
ENDMDL
MODEL 4
REMARK VINA RESULT:    -5.165      5.475      7.166
REMARK INTER + INTRA:          -9.931
REMARK INTER:                  -8.696
REMARK INTRA:                  -1.235
REMARK UNBOUND:                -0.841
REMARK SMILES CCCCCCCCCCCCCCC(=O)[O-]
REMARK SMILES IDX 9 1 10 2 11 3 12 4 13 5 14 6 15 7 16 8 17 9 8 10 7 11 6 12
REMARK SMILES IDX 5 13 4 14 3 15 2 16 1 17
REMARK H PARENT
REMARK Flexibility Score: inf
ROOT
ATOM      1  C   UNL     1     -11.941  -8.335  36.990  1.00  0.00     0.000 C 
ENDROOT
BRANCH   1   2
ATOM      2  C   UNL     1     -11.282  -9.148  38.118  1.00  0.00     0.000 C 
BRANCH   2   3
ATOM      3  C   UNL     1     -11.345  -8.452  39.496  1.00  0.00     0.000 C 
BRANCH   3   4
ATOM      4  C   UNL     1     -10.402  -9.108  40.520  1.00  0.00     0.000 C 
BRANCH   4   5
ATOM      5  C   UNL     1      -9.776 -10.411  39.999  1.00  0.00     0.006 C 
BRANCH   5   6
ATOM      6  C   UNL     1      -8.268 -10.489  40.265  1.00  0.00     0.053 C 
BRANCH   6   7
ATOM      7  C   UNL     1      -7.522 -10.698  38.985  1.00  0.00     0.041 C 
ATOM      8  O   UNL     1      -6.269 -10.820  38.993  1.00  0.00    -0.550 OA
ATOM      9  O   UNL     1      -8.206 -10.709  37.776  1.00  0.00    -0.550 OA
ENDBRANCH   6   7
ENDBRANCH   5   6
ENDBRANCH   4   5
ENDBRANCH   3   4
ENDBRANCH   2   3
ENDBRANCH   1   2
BRANCH   1  10
ATOM     10  C   UNL     1     -12.876  -7.233  37.516  1.00  0.00     0.000 C 
BRANCH  10  11
ATOM     11  C   UNL     1     -13.990  -6.875  36.520  1.00  0.00    -0.000 C 
BRANCH  11  12
ATOM     12  C   UNL     1     -14.946  -5.798  37.065  1.00  0.00    -0.000 C 
BRANCH  12  13
ATOM     13  C   UNL     1     -15.825  -6.319  38.213  1.00  0.00    -0.000 C 
BRANCH  13  14
ATOM     14  C   UNL     1     -15.865  -5.354  39.410  1.00  0.00    -0.000 C 
BRANCH  14  15
ATOM     15  C   UNL     1     -14.677  -4.375  39.429  1.00  0.00    -0.000 C 
BRANCH  15  16
ATOM     16  C   UNL     1     -13.649  -4.625  40.546  1.00  0.00    -0.003 C 
ATOM     17  C   UNL     1     -13.660  -6.065  41.058  1.00  0.00     0.004 C 
ENDBRANCH  15  16
ENDBRANCH  14  15
ENDBRANCH  13  14
ENDBRANCH  12  13
ENDBRANCH  11  12
ENDBRANCH  10  11
ENDBRANCH   1  10
TORSDOF 13
ENDMDL
MODEL 5
REMARK VINA RESULT:    -5.140      3.973      7.813
REMARK INTER + INTRA:          -9.887
REMARK INTER:                  -8.694
REMARK INTRA:                  -1.193
REMARK UNBOUND:                -0.841
REMARK SMILES CCCCCCCCCCCCCCC(=O)[O-]
REMARK SMILES IDX 9 1 10 2 11 3 12 4 13 5 14 6 15 7 16 8 17 9 8 10 7 11 6 12
REMARK SMILES IDX 5 13 4 14 3 15 2 16 1 17
REMARK H PARENT
REMARK Flexibility Score: inf
ROOT
ATOM      1  C   UNL     1     -17.651  -7.683  44.043  1.00  0.00     0.000 C 
ENDROOT
BRANCH   1   2
ATOM      2  C   UNL     1     -17.978  -7.361  42.575  1.00  0.00     0.000 C 
BRANCH   2   3
ATOM      3  C   UNL     1     -16.895  -6.512  41.874  1.00  0.00     0.000 C 
BRANCH   3   4
ATOM      4  C   UNL     1     -17.140  -6.395  40.359  1.00  0.00     0.000 C 
BRANCH   4   5
ATOM      5  C   UNL     1     -15.960  -5.747  39.618  1.00  0.00     0.006 C 
BRANCH   5   6
ATOM      6  C   UNL     1     -15.893  -6.156  38.142  1.00  0.00     0.053 C 
BRANCH   6   7
ATOM      7  C   UNL     1     -14.479  -6.437  37.742  1.00  0.00     0.041 C 
ATOM      8  O   UNL     1     -13.629  -6.769  38.609  1.00  0.00    -0.550 OA
ATOM      9  O   UNL     1     -14.087  -6.286  36.418  1.00  0.00    -0.550 OA
ENDBRANCH   6   7
ENDBRANCH   5   6
ENDBRANCH   4   5
ENDBRANCH   3   4
ENDBRANCH   2   3
ENDBRANCH   1   2
BRANCH   1  10
ATOM     10  C   UNL     1     -16.618  -6.718  44.650  1.00  0.00     0.000 C 
BRANCH  10  11
ATOM     11  C   UNL     1     -16.431  -6.923  46.162  1.00  0.00    -0.000 C 
BRANCH  11  12
ATOM     12  C   UNL     1     -17.443  -7.922  46.752  1.00  0.00    -0.000 C 
BRANCH  12  13
ATOM     13  C   UNL     1     -16.817  -8.830  47.823  1.00  0.00    -0.000 C 
BRANCH  13  14
ATOM     14  C   UNL     1     -16.682 -10.289  47.353  1.00  0.00    -0.000 C 
BRANCH  14  15
ATOM     15  C   UNL     1     -15.291 -10.605  46.774  1.00  0.00    -0.000 C 
BRANCH  15  16
ATOM     16  C   UNL     1     -15.173 -10.450  45.248  1.00  0.00    -0.003 C 
ATOM     17  C   UNL     1     -16.394 -10.978  44.497  1.00  0.00     0.004 C 
ENDBRANCH  15  16
ENDBRANCH  14  15
ENDBRANCH  13  14
ENDBRANCH  12  13
ENDBRANCH  11  12
ENDBRANCH  10  11
ENDBRANCH   1  10
TORSDOF 13
ENDMDL
MODEL 6
REMARK VINA RESULT:    -5.104      3.314      6.785
REMARK INTER + INTRA:          -9.823
REMARK INTER:                  -8.612
REMARK INTRA:                  -1.210
REMARK UNBOUND:                -0.841
REMARK SMILES CCCCCCCCCCCCCCC(=O)[O-]
REMARK SMILES IDX 9 1 10 2 11 3 12 4 13 5 14 6 15 7 16 8 17 9 8 10 7 11 6 12
REMARK SMILES IDX 5 13 4 14 3 15 2 16 1 17
REMARK H PARENT
REMARK Flexibility Score: inf
ROOT
ATOM      1  C   UNL     1     -17.071  -5.965  39.715  1.00  0.00     0.000 C 
ENDROOT
BRANCH   1   2
ATOM      2  C   UNL     1     -16.608  -6.232  38.272  1.00  0.00     0.000 C 
BRANCH   2   3
ATOM      3  C   UNL     1     -15.146  -5.811  38.007  1.00  0.00     0.000 C 
BRANCH   3   4
ATOM      4  C   UNL     1     -14.412  -5.414  39.300  1.00  0.00     0.000 C 
BRANCH   4   5
ATOM      5  C   UNL     1     -13.270  -6.380  39.652  1.00  0.00     0.006 C 
BRANCH   5   6
ATOM      6  C   UNL     1     -12.833  -7.239  38.459  1.00  0.00     0.053 C 
BRANCH   6   7
ATOM      7  C   UNL     1     -11.580  -7.989  38.787  1.00  0.00     0.041 C 
ATOM      8  O   UNL     1     -10.716  -8.199  37.896  1.00  0.00    -0.550 OA
ATOM      9  O   UNL     1     -11.389  -8.497  40.065  1.00  0.00    -0.550 OA
ENDBRANCH   6   7
ENDBRANCH   5   6
ENDBRANCH   4   5
ENDBRANCH   3   4
ENDBRANCH   2   3
ENDBRANCH   1   2
BRANCH   1  10
ATOM     10  C   UNL     1     -17.847  -7.146  40.321  1.00  0.00     0.000 C 
BRANCH  10  11
ATOM     11  C   UNL     1     -17.740  -7.204  41.853  1.00  0.00    -0.000 C 
BRANCH  11  12
ATOM     12  C   UNL     1     -16.384  -6.691  42.370  1.00  0.00    -0.000 C 
BRANCH  12  13
ATOM     13  C   UNL     1     -16.438  -6.273  43.848  1.00  0.00    -0.000 C 
BRANCH  13  14
ATOM     14  C   UNL     1     -16.659  -7.468  44.791  1.00  0.00    -0.000 C 
BRANCH  14  15
ATOM     15  C   UNL     1     -15.442  -8.408  44.860  1.00  0.00    -0.000 C 
BRANCH  15  16
ATOM     16  C   UNL     1     -15.770  -9.870  45.213  1.00  0.00    -0.003 C 
ATOM     17  C   UNL     1     -16.680 -10.543  44.187  1.00  0.00     0.004 C 
ENDBRANCH  15  16
ENDBRANCH  14  15
ENDBRANCH  13  14
ENDBRANCH  12  13
ENDBRANCH  11  12
ENDBRANCH  10  11
ENDBRANCH   1  10
TORSDOF 13
ENDMDL
MODEL 7
REMARK VINA RESULT:    -5.097      3.462      7.048
REMARK INTER + INTRA:          -9.812
REMARK INTER:                  -9.106
REMARK INTRA:                  -0.706
REMARK UNBOUND:                -0.841
REMARK SMILES CCCCCCCCCCCCCCC(=O)[O-]
REMARK SMILES IDX 9 1 10 2 11 3 12 4 13 5 14 6 15 7 16 8 17 9 8 10 7 11 6 12
REMARK SMILES IDX 5 13 4 14 3 15 2 16 1 17
REMARK H PARENT
REMARK Flexibility Score: inf
ROOT
ATOM      1  C   UNL     1     -15.853  -6.330  38.122  1.00  0.00     0.000 C 
ENDROOT
BRANCH   1   2
ATOM      2  C   UNL     1     -14.751  -5.854  37.160  1.00  0.00     0.000 C 
BRANCH   2   3
ATOM      3  C   UNL     1     -13.623  -6.888  36.955  1.00  0.00     0.000 C 
BRANCH   3   4
ATOM      4  C   UNL     1     -12.917  -7.246  38.274  1.00  0.00     0.000 C 
BRANCH   4   5
ATOM      5  C   UNL     1     -11.609  -8.021  38.053  1.00  0.00     0.006 C 
BRANCH   5   6
ATOM      6  C   UNL     1     -11.160  -8.791  39.301  1.00  0.00     0.053 C 
BRANCH   6   7
ATOM      7  C   UNL     1     -10.087  -9.774  38.950  1.00  0.00     0.041 C 
ATOM      8  O   UNL     1      -9.382 -10.293  39.855  1.00  0.00    -0.550 OA
ATOM      9  O   UNL     1      -9.833 -10.080  37.619  1.00  0.00    -0.550 OA
ENDBRANCH   6   7
ENDBRANCH   5   6
ENDBRANCH   4   5
ENDBRANCH   3   4
ENDBRANCH   2   3
ENDBRANCH   1   2
BRANCH   1  10
ATOM     10  C   UNL     1     -16.037  -5.396  39.329  1.00  0.00     0.000 C 
BRANCH  10  11
ATOM     11  C   UNL     1     -16.446  -6.147  40.606  1.00  0.00    -0.000 C 
BRANCH  11  12
ATOM     12  C   UNL     1     -15.372  -6.073  41.705  1.00  0.00    -0.000 C 
BRANCH  12  13
ATOM     13  C   UNL     1     -15.892  -6.551  43.070  1.00  0.00    -0.000 C 
BRANCH  13  14
ATOM     14  C   UNL     1     -17.151  -7.427  42.946  1.00  0.00    -0.000 C 
BRANCH  14  15
ATOM     15  C   UNL     1     -17.432  -8.253  44.215  1.00  0.00    -0.000 C 
BRANCH  15  16
ATOM     16  C   UNL     1     -17.074  -9.746  44.110  1.00  0.00    -0.003 C 
ATOM     17  C   UNL     1     -15.796 -10.109  44.865  1.00  0.00     0.004 C 
ENDBRANCH  15  16
ENDBRANCH  14  15
ENDBRANCH  13  14
ENDBRANCH  12  13
ENDBRANCH  11  12
ENDBRANCH  10  11
ENDBRANCH   1  10
TORSDOF 13
ENDMDL
MODEL 8
REMARK VINA RESULT:    -5.063      3.818      8.011
REMARK INTER + INTRA:          -9.751
REMARK INTER:                  -9.051
REMARK INTRA:                  -0.700
REMARK UNBOUND:                -0.841
REMARK SMILES CCCCCCCCCCCCCCC(=O)[O-]
REMARK SMILES IDX 9 1 10 2 11 3 12 4 13 5 14 6 15 7 16 8 17 9 8 10 7 11 6 12
REMARK SMILES IDX 5 13 4 14 3 15 2 16 1 17
REMARK H PARENT
REMARK Flexibility Score: inf
ROOT
ATOM      1  C   UNL     1     -17.166  -7.576  43.235  1.00  0.00     0.000 C 
ENDROOT
BRANCH   1   2
ATOM      2  C   UNL     1     -17.930  -7.802  41.919  1.00  0.00     0.000 C 
BRANCH   2   3
ATOM      3  C   UNL     1     -17.715  -6.678  40.881  1.00  0.00     0.000 C 
BRANCH   3   4
ATOM      4  C   UNL     1     -17.624  -7.224  39.445  1.00  0.00     0.000 C 
BRANCH   4   5
ATOM      5  C   UNL     1     -17.005  -6.215  38.467  1.00  0.00     0.006 C 
BRANCH   5   6
ATOM      6  C   UNL     1     -15.652  -5.678  38.948  1.00  0.00     0.053 C 
BRANCH   6   7
ATOM      7  C   UNL     1     -14.553  -6.151  38.050  1.00  0.00     0.041 C 
ATOM      8  O   UNL     1     -14.668  -6.052  36.800  1.00  0.00    -0.550 OA
ATOM      9  O   UNL     1     -13.420  -6.745  38.592  1.00  0.00    -0.550 OA
ENDBRANCH   6   7
ENDBRANCH   5   6
ENDBRANCH   4   5
ENDBRANCH   3   4
ENDBRANCH   2   3
ENDBRANCH   1   2
BRANCH   1  10
ATOM     10  C   UNL     1     -17.502  -8.625  44.308  1.00  0.00     0.000 C 
BRANCH  10  11
ATOM     11  C   UNL     1     -16.920 -10.010  43.987  1.00  0.00    -0.000 C 
BRANCH  11  12
ATOM     12  C   UNL     1     -16.183 -10.633  45.186  1.00  0.00    -0.000 C 
BRANCH  12  13
ATOM     13  C   UNL     1     -16.776 -10.192  46.534  1.00  0.00    -0.000 C 
BRANCH  13  14
ATOM     14  C   UNL     1     -15.921 -10.647  47.730  1.00  0.00    -0.000 C 
BRANCH  14  15
ATOM     15  C   UNL     1     -14.944 -11.781  47.371  1.00  0.00    -0.000 C 
BRANCH  15  16
ATOM     16  C   UNL     1     -13.457 -11.449  47.585  1.00  0.00    -0.003 C 
ATOM     17  C   UNL     1     -13.138  -9.970  47.372  1.00  0.00     0.004 C 
ENDBRANCH  15  16
ENDBRANCH  14  15
ENDBRANCH  13  14
ENDBRANCH  12  13
ENDBRANCH  11  12
ENDBRANCH  10  11
ENDBRANCH   1  10
TORSDOF 13
ENDMDL
MODEL 9
REMARK VINA RESULT:    -4.881      4.556      8.035
REMARK INTER + INTRA:          -9.431
REMARK INTER:                  -7.185
REMARK INTRA:                  -2.246
REMARK UNBOUND:                -0.841
REMARK SMILES CCCCCCCCCCCCCCC(=O)[O-]
REMARK SMILES IDX 9 1 10 2 11 3 12 4 13 5 14 6 15 7 16 8 17 9 8 10 7 11 6 12
REMARK SMILES IDX 5 13 4 14 3 15 2 16 1 17
REMARK H PARENT
REMARK Flexibility Score: inf
ROOT
ATOM      1  C   UNL     1     -13.072  -9.897  47.092  1.00  0.00     0.000 C 
ENDROOT
BRANCH   1   2
ATOM      2  C   UNL     1     -13.096  -9.693  45.567  1.00  0.00     0.000 C 
BRANCH   2   3
ATOM      3  C   UNL     1     -14.446  -9.166  45.037  1.00  0.00     0.000 C 
BRANCH   3   4
ATOM      4  C   UNL     1     -15.478 -10.293  44.854  1.00  0.00     0.000 C 
BRANCH   4   5
ATOM      5  C   UNL     1     -16.885  -9.763  44.538  1.00  0.00     0.006 C 
BRANCH   5   6
ATOM      6  C   UNL     1     -16.900  -8.254  44.264  1.00  0.00     0.053 C 
BRANCH   6   7
ATOM      7  C   UNL     1     -17.760  -7.947  43.079  1.00  0.00     0.041 C 
ATOM      8  O   UNL     1     -18.120  -8.869  42.301  1.00  0.00    -0.550 OA
ATOM      9  O   UNL     1     -18.125  -6.635  42.806  1.00  0.00    -0.550 OA
ENDBRANCH   6   7
ENDBRANCH   5   6
ENDBRANCH   4   5
ENDBRANCH   3   4
ENDBRANCH   2   3
ENDBRANCH   1   2
BRANCH   1  10
ATOM     10  C   UNL     1     -13.187 -11.376  47.498  1.00  0.00     0.000 C 
BRANCH  10  11
ATOM     11  C   UNL     1     -14.593 -11.747  47.998  1.00  0.00    -0.000 C 
BRANCH  11  12
ATOM     12  C   UNL     1     -15.237 -10.627  48.834  1.00  0.00    -0.000 C 
BRANCH  12  13
ATOM     13  C   UNL     1     -16.559 -10.127  48.229  1.00  0.00    -0.000 C 
BRANCH  13  14
ATOM     14  C   UNL     1     -16.627  -8.593  48.147  1.00  0.00    -0.000 C 
BRANCH  14  15
ATOM     15  C   UNL     1     -15.501  -7.901  48.938  1.00  0.00    -0.000 C 
BRANCH  15  16
ATOM     16  C   UNL     1     -15.040  -6.550  48.363  1.00  0.00    -0.003 C 
ATOM     17  C   UNL     1     -15.678  -6.226  47.012  1.00  0.00     0.004 C 
ENDBRANCH  15  16
ENDBRANCH  14  15
ENDBRANCH  13  14
ENDBRANCH  12  13
ENDBRANCH  11  12
ENDBRANCH  10  11
ENDBRANCH   1  10
TORSDOF 13
ENDMDL
