MODEL 1
REMARK VINA RESULT:    -8.508      0.000      0.000
REMARK INTER + INTRA:         -10.506
REMARK INTER:                 -10.248
REMARK INTRA:                  -0.258
REMARK UNBOUND:                -0.258
REMARK SMILES O=c1c(O)c(-c2ccc(O)c(O)c2)oc2cc(O)cc(O)c12
REMARK SMILES IDX 5 1 3 2 2 3 1 4 22 5 20 6 19 7 17 8 16 9 15 10 14 11 6 12
REMARK SMILES IDX 7 13 8 14 9 15 13 16 11 17 10 18 12 20 4 22 21 24 18 26
REMARK H PARENT 10 19 12 21 4 23 21 25 18 27
REMARK Flexibility Score: inf
ROOT
ATOM      1  C   UNL     1      -2.044   2.954 -10.990  1.00  0.00     0.180 A 
ATOM      2  C   UNL     1      -3.353   2.618 -11.375  1.00  0.00     0.208 A 
ATOM      3  C   UNL     1      -3.668   2.563 -12.743  1.00  0.00     0.238 A 
ATOM      4  O   UNL     1      -4.855   2.315 -13.080  1.00  0.00    -0.285 OA
ATOM      5  C   UNL     1      -2.666   2.828 -13.707  1.00  0.00     0.111 A 
ATOM      6  C   UNL     1      -2.863   2.761 -15.119  1.00  0.00     0.134 A 
ATOM      7  C   UNL     1      -1.836   3.171 -15.979  1.00  0.00     0.093 A 
ATOM      8  C   UNL     1      -0.600   3.582 -15.482  1.00  0.00     0.123 A 
ATOM      9  C   UNL     1      -0.378   3.594 -14.104  1.00  0.00     0.094 A 
ATOM     10  C   UNL     1      -1.393   3.226 -13.220  1.00  0.00     0.146 A 
ATOM     11  O   UNL     1      -1.144   3.262 -11.916  1.00  0.00    -0.452 OA
ENDROOT
BRANCH   1  12
ATOM     12  C   UNL     1      -1.630   3.009  -9.569  1.00  0.00     0.025 A 
ATOM     13  C   UNL     1      -2.004   4.109  -8.782  1.00  0.00     0.016 A 
ATOM     14  C   UNL     1      -1.607   4.192  -7.445  1.00  0.00     0.051 A 
ATOM     15  C   UNL     1      -0.820   3.185  -6.879  1.00  0.00     0.157 A 
ATOM     16  C   UNL     1      -0.820   2.008  -9.003  1.00  0.00     0.062 A 
ATOM     17  C   UNL     1      -0.419   2.089  -7.661  1.00  0.00     0.158 A 
BRANCH  15  18
ATOM     18  O   UNL     1      -0.441   3.293  -5.541  1.00  0.00    -0.504 OA
ATOM     19  H   UNL     1      -0.992   2.890  -4.791  1.00  0.00     0.293 HD
ENDBRANCH  15  18
BRANCH  17  20
ATOM     20  O   UNL     1       0.377   1.089  -7.106  1.00  0.00    -0.504 OA
ATOM     21  H   UNL     1       0.211   0.109  -7.301  1.00  0.00     0.293 HD
ENDBRANCH  17  20
ENDBRANCH   1  12
BRANCH   2  22
ATOM     22  O   UNL     1      -4.332   2.382 -10.407  1.00  0.00    -0.502 OA
ATOM     23  H   UNL     1      -4.164   2.521  -9.417  1.00  0.00     0.293 HD
ENDBRANCH   2  22
BRANCH   6  24
ATOM     24  O   UNL     1      -4.027   2.278 -15.723  1.00  0.00    -0.507 OA
ATOM     25  H   UNL     1      -4.595   1.527 -15.358  1.00  0.00     0.293 HD
ENDBRANCH   6  24
BRANCH   8  26
ATOM     26  O   UNL     1       0.403   3.968 -16.368  1.00  0.00    -0.508 OA
ATOM     27  H   UNL     1       1.365   3.675 -16.240  1.00  0.00     0.293 HD
ENDBRANCH   8  26
TORSDOF 6
ENDMDL
MODEL 2
REMARK VINA RESULT:    -8.284      1.673      6.677
REMARK INTER + INTRA:         -10.237
REMARK INTER:                 -10.056
REMARK INTRA:                  -0.181
REMARK UNBOUND:                -0.258
REMARK SMILES O=c1c(O)c(-c2ccc(O)c(O)c2)oc2cc(O)cc(O)c12
REMARK SMILES IDX 5 1 3 2 2 3 1 4 22 5 20 6 19 7 17 8 16 9 15 10 14 11 6 12
REMARK SMILES IDX 7 13 8 14 9 15 13 16 11 17 10 18 12 20 4 22 21 24 18 26
REMARK H PARENT 10 19 12 21 4 23 21 25 18 27
REMARK Flexibility Score: inf
ROOT
ATOM      1  C   UNL     1      -1.122   2.780 -12.408  1.00  0.00     0.180 A 
ATOM      2  C   UNL     1      -2.512   2.925 -12.261  1.00  0.00     0.208 A 
ATOM      3  C   UNL     1      -3.028   3.308 -11.012  1.00  0.00     0.238 A 
ATOM      4  O   UNL     1      -4.277   3.384 -10.872  1.00  0.00    -0.285 OA
ATOM      5  C   UNL     1      -2.147   3.556  -9.932  1.00  0.00     0.111 A 
ATOM      6  C   UNL     1      -2.558   3.987  -8.635  1.00  0.00     0.134 A 
ATOM      7  C   UNL     1      -1.612   4.076  -7.606  1.00  0.00     0.093 A 
ATOM      8  C   UNL     1      -0.263   3.812  -7.842  1.00  0.00     0.123 A 
ATOM      9  C   UNL     1       0.157   3.447  -9.121  1.00  0.00     0.094 A 
ATOM     10  C   UNL     1      -0.767   3.315 -10.159  1.00  0.00     0.146 A 
ATOM     11  O   UNL     1      -0.327   2.955 -11.359  1.00  0.00    -0.452 OA
ENDROOT
BRANCH   1  12
ATOM     12  C   UNL     1      -0.501   2.404 -13.699  1.00  0.00     0.025 A 
ATOM     13  C   UNL     1       0.247   1.220 -13.787  1.00  0.00     0.016 A 
ATOM     14  C   UNL     1       0.859   0.856 -14.989  1.00  0.00     0.051 A 
ATOM     15  C   UNL     1       0.745   1.675 -16.116  1.00  0.00     0.157 A 
ATOM     16  C   UNL     1      -0.598   3.237 -14.828  1.00  0.00     0.062 A 
ATOM     17  C   UNL     1       0.017   2.875 -16.036  1.00  0.00     0.158 A 
BRANCH  15  18
ATOM     18  O   UNL     1       1.364   1.285 -17.303  1.00  0.00    -0.504 OA
ATOM     19  H   UNL     1       0.948   1.461 -18.211  1.00  0.00     0.293 HD
ENDBRANCH  15  18
BRANCH  17  20
ATOM     20  O   UNL     1      -0.090   3.703 -17.152  1.00  0.00    -0.504 OA
ATOM     21  H   UNL     1      -0.516   3.381 -18.013  1.00  0.00     0.293 HD
ENDBRANCH  17  20
ENDBRANCH   1  12
BRANCH   2  22
ATOM     22  O   UNL     1      -3.365   2.654 -13.334  1.00  0.00    -0.502 OA
ATOM     23  H   UNL     1      -3.967   3.359 -13.742  1.00  0.00     0.293 HD
ENDBRANCH   2  22
BRANCH   6  24
ATOM     24  O   UNL     1      -3.865   4.365  -8.315  1.00  0.00    -0.507 OA
ATOM     25  H   UNL     1      -4.399   3.989  -7.546  1.00  0.00     0.293 HD
ENDBRANCH   6  24
BRANCH   8  26
ATOM     26  O   UNL     1       0.652   3.926  -6.797  1.00  0.00    -0.508 OA
ATOM     27  H   UNL     1       0.718   3.221  -6.071  1.00  0.00     0.293 HD
ENDBRANCH   8  26
TORSDOF 6
ENDMDL
MODEL 3
REMARK VINA RESULT:    -8.176      0.938      1.524
REMARK INTER + INTRA:         -10.107
REMARK INTER:                  -9.791
REMARK INTRA:                  -0.315
REMARK UNBOUND:                -0.258
REMARK SMILES O=c1c(O)c(-c2ccc(O)c(O)c2)oc2cc(O)cc(O)c12
REMARK SMILES IDX 5 1 3 2 2 3 1 4 22 5 20 6 19 7 17 8 16 9 15 10 14 11 6 12
REMARK SMILES IDX 7 13 8 14 9 15 13 16 11 17 10 18 12 20 4 22 21 24 18 26
REMARK H PARENT 10 19 12 21 4 23 21 25 18 27
REMARK Flexibility Score: inf
ROOT
ATOM      1  C   UNL     1      -2.035   2.649 -11.628  1.00  0.00     0.180 A 
ATOM      2  C   UNL     1      -3.408   2.545 -11.910  1.00  0.00     0.208 A 
ATOM      3  C   UNL     1      -3.836   2.616 -13.245  1.00  0.00     0.238 A 
ATOM      4  O   UNL     1      -5.071   2.577 -13.487  1.00  0.00    -0.285 OA
ATOM      5  C   UNL     1      -2.886   2.774 -14.283  1.00  0.00     0.111 A 
ATOM      6  C   UNL     1      -3.204   2.818 -15.673  1.00  0.00     0.134 A 
ATOM      7  C   UNL     1      -2.197   3.109 -16.602  1.00  0.00     0.093 A 
ATOM      8  C   UNL     1      -0.875   3.293 -16.199  1.00  0.00     0.123 A 
ATOM      9  C   UNL     1      -0.543   3.193 -14.848  1.00  0.00     0.094 A 
ATOM     10  C   UNL     1      -1.531   2.940 -13.893  1.00  0.00     0.146 A 
ATOM     11  O   UNL     1      -1.175   2.863 -12.616  1.00  0.00    -0.452 OA
ENDROOT
BRANCH   1  12
ATOM     12  C   UNL     1      -1.505   2.559 -10.248  1.00  0.00     0.025 A 
ATOM     13  C   UNL     1      -1.271   1.297  -9.679  1.00  0.00     0.016 A 
ATOM     14  C   UNL     1      -0.791   1.187  -8.372  1.00  0.00     0.051 A 
ATOM     15  C   UNL     1      -0.552   2.333  -7.609  1.00  0.00     0.157 A 
ATOM     16  C   UNL     1      -1.283   3.710  -9.471  1.00  0.00     0.062 A 
ATOM     17  C   UNL     1      -0.803   3.602  -8.158  1.00  0.00     0.158 A 
BRANCH  15  18
ATOM     18  O   UNL     1      -0.070   2.193  -6.307  1.00  0.00    -0.504 OA
ATOM     19  H   UNL     1      -0.526   1.597  -5.626  1.00  0.00     0.293 HD
ENDBRANCH  15  18
BRANCH  17  20
ATOM     20  O   UNL     1      -0.579   4.749  -7.398  1.00  0.00    -0.504 OA
ATOM     21  H   UNL     1      -0.669   5.676  -7.796  1.00  0.00     0.293 HD
ENDBRANCH  17  20
ENDBRANCH   1  12
BRANCH   2  22
ATOM     22  O   UNL     1      -4.331   2.412 -10.869  1.00  0.00    -0.502 OA
ATOM     23  H   UNL     1      -5.292   2.131 -11.026  1.00  0.00     0.293 HD
ENDBRANCH   2  22
BRANCH   6  24
ATOM     24  O   UNL     1      -4.476   2.559 -16.191  1.00  0.00    -0.507 OA
ATOM     25  H   UNL     1      -4.655   2.080 -17.062  1.00  0.00     0.293 HD
ENDBRANCH   6  24
BRANCH   8  26
ATOM     26  O   UNL     1       0.102   3.565 -17.154  1.00  0.00    -0.508 OA
ATOM     27  H   UNL     1       0.874   2.928 -17.319  1.00  0.00     0.293 HD
ENDBRANCH   8  26
TORSDOF 6
ENDMDL
MODEL 4
REMARK VINA RESULT:    -8.150      2.145      6.994
REMARK INTER + INTRA:         -10.076
REMARK INTER:                  -9.787
REMARK INTRA:                  -0.289
REMARK UNBOUND:                -0.258
REMARK SMILES O=c1c(O)c(-c2ccc(O)c(O)c2)oc2cc(O)cc(O)c12
REMARK SMILES IDX 5 1 3 2 2 3 1 4 22 5 20 6 19 7 17 8 16 9 15 10 14 11 6 12
REMARK SMILES IDX 7 13 8 14 9 15 13 16 11 17 10 18 12 20 4 22 21 24 18 26
REMARK H PARENT 10 19 12 21 4 23 21 25 18 27
REMARK Flexibility Score: inf
ROOT
ATOM      1  C   UNL     1      -1.182   2.228 -12.611  1.00  0.00     0.180 A 
ATOM      2  C   UNL     1      -0.367   1.098 -12.795  1.00  0.00     0.208 A 
ATOM      3  C   UNL     1       0.469   0.682 -11.745  1.00  0.00     0.238 A 
ATOM      4  O   UNL     1       1.236  -0.298 -11.935  1.00  0.00    -0.285 OA
ATOM      5  C   UNL     1       0.466   1.392 -10.520  1.00  0.00     0.111 A 
ATOM      6  C   UNL     1       1.242   1.036  -9.377  1.00  0.00     0.134 A 
ATOM      7  C   UNL     1       1.259   1.884  -8.263  1.00  0.00     0.093 A 
ATOM      8  C   UNL     1       0.481   3.040  -8.226  1.00  0.00     0.123 A 
ATOM      9  C   UNL     1      -0.327   3.366  -9.316  1.00  0.00     0.094 A 
ATOM     10  C   UNL     1      -0.338   2.559 -10.455  1.00  0.00     0.146 A 
ATOM     11  O   UNL     1      -1.113   2.911 -11.474  1.00  0.00    -0.452 OA
ENDROOT
BRANCH   1  12
ATOM     12  C   UNL     1      -2.106   2.712 -13.661  1.00  0.00     0.025 A 
ATOM     13  C   UNL     1      -3.464   2.360 -13.602  1.00  0.00     0.016 A 
ATOM     14  C   UNL     1      -4.351   2.787 -14.594  1.00  0.00     0.051 A 
ATOM     15  C   UNL     1      -3.893   3.560 -15.666  1.00  0.00     0.157 A 
ATOM     16  C   UNL     1      -1.644   3.471 -14.751  1.00  0.00     0.062 A 
ATOM     17  C   UNL     1      -2.532   3.901 -15.749  1.00  0.00     0.158 A 
BRANCH  15  18
ATOM     18  O   UNL     1      -4.801   3.975 -16.639  1.00  0.00    -0.504 OA
ATOM     19  H   UNL     1      -5.413   3.323 -17.117  1.00  0.00     0.293 HD
ENDBRANCH  15  18
BRANCH  17  20
ATOM     20  O   UNL     1      -2.066   4.659 -16.821  1.00  0.00    -0.504 OA
ATOM     21  H   UNL     1      -2.676   4.933 -17.582  1.00  0.00     0.293 HD
ENDBRANCH  17  20
ENDBRANCH   1  12
BRANCH   2  22
ATOM     22  O   UNL     1      -0.363   0.425 -14.020  1.00  0.00    -0.502 OA
ATOM     23  H   UNL     1       0.081   0.804 -14.848  1.00  0.00     0.293 HD
ENDBRANCH   2  22
BRANCH   6  24
ATOM     24  O   UNL     1       1.984  -0.145  -9.273  1.00  0.00    -0.507 OA
ATOM     25  H   UNL     1       2.846  -0.327  -9.766  1.00  0.00     0.293 HD
ENDBRANCH   6  24
BRANCH   8  26
ATOM     26  O   UNL     1       0.512   3.853  -7.095  1.00  0.00    -0.508 OA
ATOM     27  H   UNL     1       1.236   3.757  -6.392  1.00  0.00     0.293 HD
ENDBRANCH   8  26
TORSDOF 6
ENDMDL
MODEL 5
REMARK VINA RESULT:    -7.963      1.792      6.432
REMARK INTER + INTRA:          -9.850
REMARK INTER:                  -9.563
REMARK INTRA:                  -0.287
REMARK UNBOUND:                -0.258
REMARK SMILES O=c1c(O)c(-c2ccc(O)c(O)c2)oc2cc(O)cc(O)c12
REMARK SMILES IDX 5 1 3 2 2 3 1 4 22 5 20 6 19 7 17 8 16 9 15 10 14 11 6 12
REMARK SMILES IDX 7 13 8 14 9 15 13 16 11 17 10 18 12 20 4 22 21 24 18 26
REMARK H PARENT 10 19 12 21 4 23 21 25 18 27
REMARK Flexibility Score: inf
ROOT
ATOM      1  C   UNL     1      -1.831   2.655 -13.381  1.00  0.00     0.180 A 
ATOM      2  C   UNL     1      -3.196   2.329 -13.456  1.00  0.00     0.208 A 
ATOM      3  C   UNL     1      -4.016   2.570 -12.341  1.00  0.00     0.238 A 
ATOM      4  O   UNL     1      -5.226   2.226 -12.395  1.00  0.00    -0.285 OA
ATOM      5  C   UNL     1      -3.464   3.147 -11.172  1.00  0.00     0.111 A 
ATOM      6  C   UNL     1      -4.209   3.470  -9.999  1.00  0.00     0.134 A 
ATOM      7  C   UNL     1      -3.535   3.917  -8.855  1.00  0.00     0.093 A 
ATOM      8  C   UNL     1      -2.155   4.113  -8.861  1.00  0.00     0.123 A 
ATOM      9  C   UNL     1      -1.425   3.856 -10.022  1.00  0.00     0.094 A 
ATOM     10  C   UNL     1      -2.062   3.375 -11.168  1.00  0.00     0.146 A 
ATOM     11  O   UNL     1      -1.330   3.133 -12.248  1.00  0.00    -0.452 OA
ENDROOT
BRANCH   1  12
ATOM     12  C   UNL     1      -0.909   2.454 -14.522  1.00  0.00     0.025 A 
ATOM     13  C   UNL     1      -0.586   3.542 -15.349  1.00  0.00     0.016 A 
ATOM     14  C   UNL     1       0.264   3.371 -16.444  1.00  0.00     0.051 A 
ATOM     15  C   UNL     1       0.793   2.111 -16.739  1.00  0.00     0.157 A 
ATOM     16  C   UNL     1      -0.393   1.183 -14.832  1.00  0.00     0.062 A 
ATOM     17  C   UNL     1       0.460   1.009 -15.932  1.00  0.00     0.158 A 
BRANCH  15  18
ATOM     18  O   UNL     1       1.641   1.971 -17.836  1.00  0.00    -0.504 OA
ATOM     19  H   UNL     1       1.888   1.064 -18.214  1.00  0.00     0.293 HD
ENDBRANCH  15  18
BRANCH  17  20
ATOM     20  O   UNL     1       0.973  -0.253 -16.228  1.00  0.00    -0.504 OA
ATOM     21  H   UNL     1       1.554  -0.757 -15.570  1.00  0.00     0.293 HD
ENDBRANCH  17  20
ENDBRANCH   1  12
BRANCH   2  22
ATOM     22  O   UNL     1      -3.716   1.740 -14.611  1.00  0.00    -0.502 OA
ATOM     23  H   UNL     1      -3.319   0.903 -15.021  1.00  0.00     0.293 HD
ENDBRANCH   2  22
BRANCH   6  24
ATOM     24  O   UNL     1      -5.602   3.398  -9.914  1.00  0.00    -0.507 OA
ATOM     25  H   UNL     1      -6.202   3.007 -10.625  1.00  0.00     0.293 HD
ENDBRANCH   6  24
BRANCH   8  26
ATOM     26  O   UNL     1      -1.521   4.573  -7.709  1.00  0.00    -0.508 OA
ATOM     27  H   UNL     1      -2.034   5.051  -6.977  1.00  0.00     0.293 HD
ENDBRANCH   8  26
TORSDOF 6
ENDMDL
MODEL 6
REMARK VINA RESULT:    -7.945     13.460     14.598
REMARK INTER + INTRA:          -9.829
REMARK INTER:                  -9.506
REMARK INTRA:                  -0.323
REMARK UNBOUND:                -0.258
REMARK SMILES O=c1c(O)c(-c2ccc(O)c(O)c2)oc2cc(O)cc(O)c12
REMARK SMILES IDX 5 1 3 2 2 3 1 4 22 5 20 6 19 7 17 8 16 9 15 10 14 11 6 12
REMARK SMILES IDX 7 13 8 14 9 15 13 16 11 17 10 18 12 20 4 22 21 24 18 26
REMARK H PARENT 10 19 12 21 4 23 21 25 18 27
REMARK Flexibility Score: inf
ROOT
ATOM      1  C   UNL     1     -13.329  11.135 -10.723  1.00  0.00     0.180 A 
ATOM      2  C   UNL     1     -12.298  12.011 -10.341  1.00  0.00     0.208 A 
ATOM      3  C   UNL     1     -11.786  12.913 -11.287  1.00  0.00     0.238 A 
ATOM      4  O   UNL     1     -10.826  13.657 -10.954  1.00  0.00    -0.285 OA
ATOM      5  C   UNL     1     -12.321  12.940 -12.597  1.00  0.00     0.111 A 
ATOM      6  C   UNL     1     -11.905  13.840 -13.623  1.00  0.00     0.134 A 
ATOM      7  C   UNL     1     -12.413  13.690 -14.920  1.00  0.00     0.093 A 
ATOM      8  C   UNL     1     -13.367  12.717 -15.212  1.00  0.00     0.123 A 
ATOM      9  C   UNL     1     -13.824  11.870 -14.202  1.00  0.00     0.094 A 
ATOM     10  C   UNL     1     -13.311  11.971 -12.907  1.00  0.00     0.146 A 
ATOM     11  O   UNL     1     -13.765  11.139 -11.978  1.00  0.00    -0.452 OA
ENDROOT
BRANCH   1  12
ATOM     12  C   UNL     1     -13.938  10.173  -9.776  1.00  0.00     0.025 A 
ATOM     13  C   UNL     1     -15.009  10.583  -8.967  1.00  0.00     0.016 A 
ATOM     14  C   UNL     1     -15.584   9.699  -8.051  1.00  0.00     0.051 A 
ATOM     15  C   UNL     1     -15.090   8.398  -7.919  1.00  0.00     0.157 A 
ATOM     16  C   UNL     1     -13.428   8.870  -9.627  1.00  0.00     0.062 A 
ATOM     17  C   UNL     1     -14.003   7.981  -8.707  1.00  0.00     0.158 A 
BRANCH  15  18
ATOM     18  O   UNL     1     -15.687   7.537  -6.999  1.00  0.00    -0.504 OA
ATOM     19  H   UNL     1     -15.437   7.542  -6.016  1.00  0.00     0.293 HD
ENDBRANCH  15  18
BRANCH  17  20
ATOM     20  O   UNL     1     -13.497   6.690  -8.570  1.00  0.00    -0.504 OA
ATOM     21  H   UNL     1     -13.908   5.904  -9.060  1.00  0.00     0.293 HD
ENDBRANCH  17  20
ENDBRANCH   1  12
BRANCH   2  22
ATOM     22  O   UNL     1     -11.769  11.952  -9.049  1.00  0.00    -0.502 OA
ATOM     23  H   UNL     1     -11.940  12.673  -8.358  1.00  0.00     0.293 HD
ENDBRANCH   2  22
BRANCH   6  24
ATOM     24  O   UNL     1     -11.026  14.907 -13.417  1.00  0.00    -0.507 OA
ATOM     25  H   UNL     1     -10.461  15.333 -14.137  1.00  0.00     0.293 HD
ENDBRANCH   6  24
BRANCH   8  26
ATOM     26  O   UNL     1     -13.861  12.607 -16.510  1.00  0.00    -0.508 OA
ATOM     27  H   UNL     1     -13.718  13.339 -17.196  1.00  0.00     0.293 HD
ENDBRANCH   8  26
TORSDOF 6
ENDMDL
MODEL 7
REMARK VINA RESULT:    -7.848     13.567     14.659
REMARK INTER + INTRA:          -9.712
REMARK INTER:                  -9.626
REMARK INTRA:                  -0.085
REMARK UNBOUND:                -0.258
REMARK SMILES O=c1c(O)c(-c2ccc(O)c(O)c2)oc2cc(O)cc(O)c12
REMARK SMILES IDX 5 1 3 2 2 3 1 4 22 5 20 6 19 7 17 8 16 9 15 10 14 11 6 12
REMARK SMILES IDX 7 13 8 14 9 15 13 16 11 17 10 18 12 20 4 22 21 24 18 26
REMARK H PARENT 10 19 12 21 4 23 21 25 18 27
REMARK Flexibility Score: inf
ROOT
ATOM      1  C   UNL     1     -12.306  12.282 -10.830  1.00  0.00     0.180 A 
ATOM      2  C   UNL     1     -11.364  13.326 -10.811  1.00  0.00     0.208 A 
ATOM      3  C   UNL     1     -11.165  14.086 -11.975  1.00  0.00     0.238 A 
ATOM      4  O   UNL     1     -10.282  14.983 -11.967  1.00  0.00    -0.285 OA
ATOM      5  C   UNL     1     -11.921  13.804 -13.138  1.00  0.00     0.111 A 
ATOM      6  C   UNL     1     -11.829  14.535 -14.360  1.00  0.00     0.134 A 
ATOM      7  C   UNL     1     -12.530  14.086 -15.487  1.00  0.00     0.093 A 
ATOM      8  C   UNL     1     -13.367  12.973 -15.419  1.00  0.00     0.123 A 
ATOM      9  C   UNL     1     -13.509  12.286 -14.213  1.00  0.00     0.094 A 
ATOM     10  C   UNL     1     -12.796  12.688 -13.081  1.00  0.00     0.146 A 
ATOM     11  O   UNL     1     -12.952  12.000 -11.956  1.00  0.00    -0.452 OA
ENDROOT
BRANCH   1  12
ATOM     12  C   UNL     1     -12.590  11.454  -9.637  1.00  0.00     0.025 A 
ATOM     13  C   UNL     1     -12.531  10.055  -9.736  1.00  0.00     0.016 A 
ATOM     14  C   UNL     1     -12.815   9.253  -8.628  1.00  0.00     0.051 A 
ATOM     15  C   UNL     1     -13.177   9.835  -7.409  1.00  0.00     0.157 A 
ATOM     16  C   UNL     1     -12.974  12.037  -8.415  1.00  0.00     0.062 A 
ATOM     17  C   UNL     1     -13.261  11.234  -7.302  1.00  0.00     0.158 A 
BRANCH  15  18
ATOM     18  O   UNL     1     -13.452   9.010  -6.319  1.00  0.00    -0.504 OA
ATOM     19  H   UNL     1     -13.010   8.105  -6.204  1.00  0.00     0.293 HD
ENDBRANCH  15  18
BRANCH  17  20
ATOM     20  O   UNL     1     -13.634  11.820  -6.093  1.00  0.00    -0.504 OA
ATOM     21  H   UNL     1     -13.970  11.265  -5.316  1.00  0.00     0.293 HD
ENDBRANCH  17  20
ENDBRANCH   1  12
BRANCH   2  22
ATOM     22  O   UNL     1     -10.613  13.573  -9.658  1.00  0.00    -0.502 OA
ATOM     23  H   UNL     1     -10.655  12.974  -8.843  1.00  0.00     0.293 HD
ENDBRANCH   2  22
BRANCH   6  24
ATOM     24  O   UNL     1     -11.094  15.714 -14.511  1.00  0.00    -0.507 OA
ATOM     25  H   UNL     1     -10.427  15.885 -15.249  1.00  0.00     0.293 HD
ENDBRANCH   6  24
BRANCH   8  26
ATOM     26  O   UNL     1     -14.060  12.565 -16.556  1.00  0.00    -0.508 OA
ATOM     27  H   UNL     1     -13.581  12.159 -17.352  1.00  0.00     0.293 HD
ENDBRANCH   8  26
TORSDOF 6
ENDMDL
MODEL 8
REMARK VINA RESULT:    -7.725      1.712      3.347
REMARK INTER + INTRA:          -9.564
REMARK INTER:                  -9.319
REMARK INTRA:                  -0.245
REMARK UNBOUND:                -0.258
REMARK SMILES O=c1c(O)c(-c2ccc(O)c(O)c2)oc2cc(O)cc(O)c12
REMARK SMILES IDX 5 1 3 2 2 3 1 4 22 5 20 6 19 7 17 8 16 9 15 10 14 11 6 12
REMARK SMILES IDX 7 13 8 14 9 15 13 16 11 17 10 18 12 20 4 22 21 24 18 26
REMARK H PARENT 10 19 12 21 4 23 21 25 18 27
REMARK Flexibility Score: inf
ROOT
ATOM      1  C   UNL     1      -1.381   2.346 -12.467  1.00  0.00     0.180 A 
ATOM      2  C   UNL     1      -0.296   1.960 -13.274  1.00  0.00     0.208 A 
ATOM      3  C   UNL     1      -0.428   2.029 -14.671  1.00  0.00     0.238 A 
ATOM      4  O   UNL     1       0.528   1.631 -15.388  1.00  0.00    -0.285 OA
ATOM      5  C   UNL     1      -1.635   2.497 -15.242  1.00  0.00     0.111 A 
ATOM      6  C   UNL     1      -1.864   2.645 -16.643  1.00  0.00     0.134 A 
ATOM      7  C   UNL     1      -3.141   2.993 -17.101  1.00  0.00     0.093 A 
ATOM      8  C   UNL     1      -4.179   3.260 -16.208  1.00  0.00     0.123 A 
ATOM      9  C   UNL     1      -3.949   3.175 -14.834  1.00  0.00     0.094 A 
ATOM     10  C   UNL     1      -2.697   2.796 -14.348  1.00  0.00     0.146 A 
ATOM     11  O   UNL     1      -2.523   2.717 -13.034  1.00  0.00    -0.452 OA
ENDROOT
BRANCH   1  12
ATOM     12  C   UNL     1      -1.309   2.325 -10.989  1.00  0.00     0.025 A 
ATOM     13  C   UNL     1      -1.379   1.097 -10.311  1.00  0.00     0.016 A 
ATOM     14  C   UNL     1      -1.335   1.055  -8.915  1.00  0.00     0.051 A 
ATOM     15  C   UNL     1      -1.236   2.238  -8.176  1.00  0.00     0.157 A 
ATOM     16  C   UNL     1      -1.231   3.514 -10.242  1.00  0.00     0.062 A 
ATOM     17  C   UNL     1      -1.188   3.475  -8.841  1.00  0.00     0.158 A 
BRANCH  15  18
ATOM     18  O   UNL     1      -1.190   2.165  -6.784  1.00  0.00    -0.504 OA
ATOM     19  H   UNL     1      -0.977   1.302  -6.297  1.00  0.00     0.293 HD
ENDBRANCH  15  18
BRANCH  17  20
ATOM     20  O   UNL     1      -1.103   4.658  -8.109  1.00  0.00    -0.504 OA
ATOM     21  H   UNL     1      -0.605   4.703  -7.228  1.00  0.00     0.293 HD
ENDBRANCH  17  20
ENDBRANCH   1  12
BRANCH   2  22
ATOM     22  O   UNL     1       0.879   1.481 -12.690  1.00  0.00    -0.502 OA
ATOM     23  H   UNL     1       1.650   2.089 -12.439  1.00  0.00     0.293 HD
ENDBRANCH   2  22
BRANCH   6  24
ATOM     24  O   UNL     1      -0.873   2.492 -17.617  1.00  0.00    -0.507 OA
ATOM     25  H   UNL     1      -1.049   2.276 -18.587  1.00  0.00     0.293 HD
ENDBRANCH   6  24
BRANCH   8  26
ATOM     26  O   UNL     1      -5.432   3.618 -16.699  1.00  0.00    -0.508 OA
ATOM     27  H   UNL     1      -5.563   3.902 -17.663  1.00  0.00     0.293 HD
ENDBRANCH   8  26
TORSDOF 6
ENDMDL
MODEL 9
REMARK VINA RESULT:    -7.628      1.727      6.818
REMARK INTER + INTRA:          -9.447
REMARK INTER:                  -9.132
REMARK INTRA:                  -0.315
REMARK UNBOUND:                -0.258
REMARK SMILES O=c1c(O)c(-c2ccc(O)c(O)c2)oc2cc(O)cc(O)c12
REMARK SMILES IDX 5 1 3 2 2 3 1 4 22 5 20 6 19 7 17 8 16 9 15 10 14 11 6 12
REMARK SMILES IDX 7 13 8 14 9 15 13 16 11 17 10 18 12 20 4 22 21 24 18 26
REMARK H PARENT 10 19 12 21 4 23 21 25 18 27
REMARK Flexibility Score: inf
ROOT
ATOM      1  C   UNL     1      -2.193   2.374 -12.367  1.00  0.00     0.180 A 
ATOM      2  C   UNL     1      -2.951   2.920 -11.316  1.00  0.00     0.208 A 
ATOM      3  C   UNL     1      -2.511   2.740  -9.995  1.00  0.00     0.238 A 
ATOM      4  O   UNL     1      -3.222   3.183  -9.055  1.00  0.00    -0.285 OA
ATOM      5  C   UNL     1      -1.312   2.031  -9.742  1.00  0.00     0.111 A 
ATOM      6  C   UNL     1      -0.752   1.823  -8.446  1.00  0.00     0.134 A 
ATOM      7  C   UNL     1       0.370   0.996  -8.303  1.00  0.00     0.093 A 
ATOM      8  C   UNL     1       0.988   0.422  -9.413  1.00  0.00     0.123 A 
ATOM      9  C   UNL     1       0.483   0.668 -10.691  1.00  0.00     0.094 A 
ATOM     10  C   UNL     1      -0.654   1.459 -10.863  1.00  0.00     0.146 A 
ATOM     11  O   UNL     1      -1.109   1.658 -12.094  1.00  0.00    -0.452 OA
ENDROOT
BRANCH   1  12
ATOM     12  C   UNL     1      -2.579   2.544 -13.787  1.00  0.00     0.025 A 
ATOM     13  C   UNL     1      -3.480   1.640 -14.370  1.00  0.00     0.016 A 
ATOM     14  C   UNL     1      -3.842   1.767 -15.714  1.00  0.00     0.051 A 
ATOM     15  C   UNL     1      -3.299   2.790 -16.497  1.00  0.00     0.157 A 
ATOM     16  C   UNL     1      -2.017   3.559 -14.582  1.00  0.00     0.062 A 
ATOM     17  C   UNL     1      -2.378   3.689 -15.932  1.00  0.00     0.158 A 
BRANCH  15  18
ATOM     18  O   UNL     1      -3.681   2.895 -17.835  1.00  0.00    -0.504 OA
ATOM     19  H   UNL     1      -3.728   2.088 -18.446  1.00  0.00     0.293 HD
ENDBRANCH  15  18
BRANCH  17  20
ATOM     20  O   UNL     1      -1.822   4.702 -16.711  1.00  0.00    -0.504 OA
ATOM     21  H   UNL     1      -1.308   5.469 -16.296  1.00  0.00     0.293 HD
ENDBRANCH  17  20
ENDBRANCH   1  12
BRANCH   2  22
ATOM     22  O   UNL     1      -4.143   3.597 -11.587  1.00  0.00    -0.502 OA
ATOM     23  H   UNL     1      -4.537   4.281 -10.952  1.00  0.00     0.293 HD
ENDBRANCH   2  22
BRANCH   6  24
ATOM     24  O   UNL     1      -1.236   2.423  -7.280  1.00  0.00    -0.507 OA
ATOM     25  H   UNL     1      -0.799   2.353  -6.374  1.00  0.00     0.293 HD
ENDBRANCH   6  24
BRANCH   8  26
ATOM     26  O   UNL     1       2.111  -0.383  -9.235  1.00  0.00    -0.508 OA
ATOM     27  H   UNL     1       2.635  -0.377  -8.368  1.00  0.00     0.293 HD
ENDBRANCH   8  26
TORSDOF 6
ENDMDL
