MODEL 1
REMARK VINA RESULT:    -6.476      0.000      0.000
REMARK INTER + INTRA:         -10.463
REMARK INTER:                  -9.315
REMARK INTRA:                  -1.148
REMARK UNBOUND:                -1.148
REMARK SMILES O=c1c(O[C@@H]2O[C@@H](CO)[C@@H](O)[C@H](O)[C@H]2O)c(-c2ccc(O)cc2)oc2cc(O)cc(O)c12
REMARK SMILES IDX 4 1 3 2 16 3 24 4 2 5 25 6 1 7 32 8 26 9 30 10 27 11 29 12
REMARK SMILES IDX 17 13 18 14 19 15 20 16 23 17 22 18 21 19 31 21 28 23 5 25
REMARK SMILES IDX 14 26 6 27 12 28 7 29 10 30 15 31 13 33 8 35 9 36 11 38
REMARK H PARENT 21 20 31 22 28 24 15 32 13 34 9 37 11 39
REMARK Flexibility Score: inf
ROOT
ATOM      1  O   UNL     1     -37.575   5.249  81.903  1.00  0.00    -0.454 OA
ENDROOT
BRANCH   1   2
ATOM      2  C   UNL     1     -38.331   4.796  80.814  1.00  0.00     0.214 A 
ATOM      3  C   UNL     1     -37.790   4.711  79.518  1.00  0.00     0.180 A 
ATOM      4  O   UNL     1     -38.530   4.229  78.528  1.00  0.00    -0.452 OA
ATOM      5  C   UNL     1     -39.660   4.415  81.020  1.00  0.00     0.239 A 
ATOM      6  C   UNL     1     -39.786   3.829  78.681  1.00  0.00     0.146 A 
ATOM      7  O   UNL     1     -40.154   4.575  82.166  1.00  0.00    -0.285 OA
ATOM      8  C   UNL     1     -40.418   3.878  79.951  1.00  0.00     0.111 A 
ATOM      9  C   UNL     1     -40.482   3.371  77.560  1.00  0.00     0.094 A 
ATOM     10  C   UNL     1     -41.764   3.416  80.061  1.00  0.00     0.134 A 
ATOM     11  C   UNL     1     -41.814   2.972  77.668  1.00  0.00     0.123 A 
ATOM     12  C   UNL     1     -42.447   3.000  78.910  1.00  0.00     0.093 A 
BRANCH   3  13
ATOM     13  C   UNL     1     -36.416   5.160  79.204  1.00  0.00     0.021 A 
ATOM     14  C   UNL     1     -35.321   4.475  79.754  1.00  0.00     0.016 A 
ATOM     15  C   UNL     1     -34.016   4.898  79.484  1.00  0.00     0.047 A 
ATOM     16  C   UNL     1     -33.790   6.002  78.656  1.00  0.00     0.115 A 
ATOM     17  C   UNL     1     -36.183   6.251  78.347  1.00  0.00     0.016 A 
ATOM     18  C   UNL     1     -34.878   6.675  78.082  1.00  0.00     0.047 A 
BRANCH  16  19
ATOM     19  O   UNL     1     -32.486   6.424  78.410  1.00  0.00    -0.508 OA
ATOM     20  H   UNL     1     -32.159   7.335  78.707  1.00  0.00     0.293 HD
ENDBRANCH  16  19
ENDBRANCH   3  13
BRANCH  10  21
ATOM     21  O   UNL     1     -42.467   3.322  81.265  1.00  0.00    -0.507 OA
ATOM     22  H   UNL     1     -43.236   2.692  81.440  1.00  0.00     0.293 HD
ENDBRANCH  10  21
BRANCH  11  23
ATOM     23  O   UNL     1     -42.521   2.540  76.548  1.00  0.00    -0.508 OA
ATOM     24  H   UNL     1     -42.315   2.895  75.622  1.00  0.00     0.293 HD
ENDBRANCH  11  23
ENDBRANCH   1   2
BRANCH   1  25
ATOM     25  C   UNL     1     -37.098   6.591  81.995  1.00  0.00     0.339 C 
ATOM     26  C   UNL     1     -38.019   7.371  82.942  1.00  0.00     0.214 C 
ATOM     27  O   UNL     1     -35.767   6.565  82.482  1.00  0.00    -0.332 OA
ATOM     28  C   UNL     1     -37.522   8.816  83.075  1.00  0.00     0.180 C 
ATOM     29  C   UNL     1     -35.191   7.861  82.590  1.00  0.00     0.179 C 
ATOM     30  C   UNL     1     -36.034   8.821  83.472  1.00  0.00     0.177 C 
BRANCH  26  31
ATOM     31  O   UNL     1     -39.327   7.361  82.431  1.00  0.00    -0.384 OA
ATOM     32  H   UNL     1     -39.612   8.307  82.349  1.00  0.00     0.211 HD
ENDBRANCH  26  31
BRANCH  28  33
ATOM     33  O   UNL     1     -38.281   9.474  84.058  1.00  0.00    -0.387 OA
ATOM     34  H   UNL     1     -37.758   9.438  84.901  1.00  0.00     0.211 HD
ENDBRANCH  28  33
BRANCH  29  35
ATOM     35  C   UNL     1     -34.733   8.430  81.225  1.00  0.00     0.191 C 
BRANCH  35  36
ATOM     36  O   UNL     1     -33.545   9.162  81.333  1.00  0.00    -0.394 OA
ATOM     37  H   UNL     1     -32.837   8.619  80.898  1.00  0.00     0.210 HD
ENDBRANCH  35  36
ENDBRANCH  29  35
BRANCH  30  38
ATOM     38  O   UNL     1     -35.513  10.125  83.396  1.00  0.00    -0.387 OA
ATOM     39  H   UNL     1     -34.604  10.099  83.793  1.00  0.00     0.211 HD
ENDBRANCH  30  38
ENDBRANCH   1  25
TORSDOF 11
ENDMDL
MODEL 2
REMARK VINA RESULT:    -6.455      2.773      4.887
REMARK INTER + INTRA:         -10.433
REMARK INTER:                  -9.339
REMARK INTRA:                  -1.095
REMARK UNBOUND:                -1.148
REMARK SMILES O=c1c(O[C@@H]2O[C@@H](CO)[C@@H](O)[C@H](O)[C@H]2O)c(-c2ccc(O)cc2)oc2cc(O)cc(O)c12
REMARK SMILES IDX 4 1 3 2 16 3 24 4 2 5 25 6 1 7 32 8 26 9 30 10 27 11 29 12
REMARK SMILES IDX 17 13 18 14 19 15 20 16 23 17 22 18 21 19 31 21 28 23 5 25
REMARK SMILES IDX 14 26 6 27 12 28 7 29 10 30 15 31 13 33 8 35 9 36 11 38
REMARK H PARENT 21 20 31 22 28 24 15 32 13 34 9 37 11 39
REMARK Flexibility Score: inf
ROOT
ATOM      1  O   UNL     1     -37.039   5.454  78.736  1.00  0.00    -0.454 OA
ENDROOT
BRANCH   1   2
ATOM      2  C   UNL     1     -38.133   5.044  79.508  1.00  0.00     0.214 A 
ATOM      3  C   UNL     1     -39.427   5.557  79.297  1.00  0.00     0.180 A 
ATOM      4  O   UNL     1     -40.441   5.100  80.021  1.00  0.00    -0.452 OA
ATOM      5  C   UNL     1     -37.937   4.094  80.516  1.00  0.00     0.239 A 
ATOM      6  C   UNL     1     -40.308   4.180  80.968  1.00  0.00     0.146 A 
ATOM      7  O   UNL     1     -36.763   3.706  80.746  1.00  0.00    -0.285 OA
ATOM      8  C   UNL     1     -39.042   3.604  81.253  1.00  0.00     0.111 A 
ATOM      9  C   UNL     1     -41.440   3.799  81.692  1.00  0.00     0.094 A 
ATOM     10  C   UNL     1     -38.963   2.604  82.269  1.00  0.00     0.134 A 
ATOM     11  C   UNL     1     -41.341   2.860  82.718  1.00  0.00     0.123 A 
ATOM     12  C   UNL     1     -40.109   2.273  83.003  1.00  0.00     0.093 A 
BRANCH   3  13
ATOM     13  C   UNL     1     -39.704   6.613  78.300  1.00  0.00     0.021 A 
ATOM     14  C   UNL     1     -40.514   7.705  78.654  1.00  0.00     0.016 A 
ATOM     15  C   UNL     1     -40.803   8.703  77.718  1.00  0.00     0.047 A 
ATOM     16  C   UNL     1     -40.281   8.626  76.423  1.00  0.00     0.115 A 
ATOM     17  C   UNL     1     -39.157   6.557  77.006  1.00  0.00     0.016 A 
ATOM     18  C   UNL     1     -39.452   7.552  76.070  1.00  0.00     0.047 A 
BRANCH  16  19
ATOM     19  O   UNL     1     -40.591   9.616  75.495  1.00  0.00    -0.508 OA
ATOM     20  H   UNL     1     -41.493   9.646  75.034  1.00  0.00     0.293 HD
ENDBRANCH  16  19
ENDBRANCH   3  13
BRANCH  10  21
ATOM     21  O   UNL     1     -37.801   1.893  82.582  1.00  0.00    -0.507 OA
ATOM     22  H   UNL     1     -37.473   1.701  83.516  1.00  0.00     0.293 HD
ENDBRANCH  10  21
BRANCH  11  23
ATOM     23  O   UNL     1     -42.462   2.497  83.461  1.00  0.00    -0.508 OA
ATOM     24  H   UNL     1     -43.096   1.774  83.143  1.00  0.00     0.293 HD
ENDBRANCH  11  23
ENDBRANCH   1   2
BRANCH   1  25
ATOM     25  C   UNL     1     -36.016   6.303  79.254  1.00  0.00     0.339 C 
ATOM     26  C   UNL     1     -34.684   5.916  78.599  1.00  0.00     0.214 C 
ATOM     27  O   UNL     1     -36.357   7.648  78.966  1.00  0.00    -0.332 OA
ATOM     28  C   UNL     1     -33.565   6.824  79.125  1.00  0.00     0.180 C 
ATOM     29  C   UNL     1     -35.404   8.580  79.464  1.00  0.00     0.179 C 
ATOM     30  C   UNL     1     -33.965   8.301  78.950  1.00  0.00     0.177 C 
BRANCH  26  31
ATOM     31  O   UNL     1     -34.391   4.576  78.898  1.00  0.00    -0.384 OA
ATOM     32  H   UNL     1     -35.258   4.111  79.020  1.00  0.00     0.211 HD
ENDBRANCH  26  31
BRANCH  28  33
ATOM     33  O   UNL     1     -32.385   6.562  78.408  1.00  0.00    -0.387 OA
ATOM     34  H   UNL     1     -32.148   7.395  77.924  1.00  0.00     0.211 HD
ENDBRANCH  28  33
BRANCH  29  35
ATOM     35  C   UNL     1     -35.539   8.820  80.987  1.00  0.00     0.191 C 
BRANCH  35  36
ATOM     36  O   UNL     1     -35.180  10.125  81.348  1.00  0.00    -0.394 OA
ATOM     37  H   UNL     1     -35.226  10.670  80.520  1.00  0.00     0.210 HD
ENDBRANCH  35  36
ENDBRANCH  29  35
BRANCH  30  38
ATOM     38  O   UNL     1     -33.049   9.137  79.611  1.00  0.00    -0.387 OA
ATOM     39  H   UNL     1     -32.182   8.655  79.639  1.00  0.00     0.211 HD
ENDBRANCH  30  38
ENDBRANCH   1  25
TORSDOF 11
ENDMDL
MODEL 3
REMARK VINA RESULT:    -6.404      1.759      2.695
REMARK INTER + INTRA:         -10.360
REMARK INTER:                  -8.974
REMARK INTRA:                  -1.385
REMARK UNBOUND:                -1.148
REMARK SMILES O=c1c(O[C@@H]2O[C@@H](CO)[C@@H](O)[C@H](O)[C@H]2O)c(-c2ccc(O)cc2)oc2cc(O)cc(O)c12
REMARK SMILES IDX 4 1 3 2 16 3 24 4 2 5 25 6 1 7 32 8 26 9 30 10 27 11 29 12
REMARK SMILES IDX 17 13 18 14 19 15 20 16 23 17 22 18 21 19 31 21 28 23 5 25
REMARK SMILES IDX 14 26 6 27 12 28 7 29 10 30 15 31 13 33 8 35 9 36 11 38
REMARK H PARENT 21 20 31 22 28 24 15 32 13 34 9 37 11 39
REMARK Flexibility Score: inf
ROOT
ATOM      1  O   UNL     1     -37.721   6.679  81.225  1.00  0.00    -0.454 OA
ENDROOT
BRANCH   1   2
ATOM      2  C   UNL     1     -38.441   5.943  80.275  1.00  0.00     0.214 A 
ATOM      3  C   UNL     1     -38.094   5.949  78.910  1.00  0.00     0.180 A 
ATOM      4  O   UNL     1     -38.776   5.197  78.056  1.00  0.00    -0.452 OA
ATOM      5  C   UNL     1     -39.535   5.178  80.693  1.00  0.00     0.239 A 
ATOM      6  C   UNL     1     -39.803   4.433  78.411  1.00  0.00     0.146 A 
ATOM      7  O   UNL     1     -39.883   5.248  81.899  1.00  0.00    -0.285 OA
ATOM      8  C   UNL     1     -40.226   4.363  79.764  1.00  0.00     0.111 A 
ATOM      9  C   UNL     1     -40.469   3.710  77.420  1.00  0.00     0.094 A 
ATOM     10  C   UNL     1     -41.324   3.509  80.090  1.00  0.00     0.134 A 
ATOM     11  C   UNL     1     -41.574   2.920  77.742  1.00  0.00     0.123 A 
ATOM     12  C   UNL     1     -41.995   2.828  79.067  1.00  0.00     0.093 A 
BRANCH   3  13
ATOM     13  C   UNL     1     -36.997   6.785  78.378  1.00  0.00     0.021 A 
ATOM     14  C   UNL     1     -35.718   6.229  78.218  1.00  0.00     0.016 A 
ATOM     15  C   UNL     1     -34.664   7.011  77.735  1.00  0.00     0.047 A 
ATOM     16  C   UNL     1     -34.878   8.352  77.399  1.00  0.00     0.115 A 
ATOM     17  C   UNL     1     -37.214   8.125  78.009  1.00  0.00     0.016 A 
ATOM     18  C   UNL     1     -36.158   8.906  77.532  1.00  0.00     0.047 A 
BRANCH  16  19
ATOM     19  O   UNL     1     -33.815   9.124  76.936  1.00  0.00    -0.508 OA
ATOM     20  H   UNL     1     -33.938  10.096  76.681  1.00  0.00     0.293 HD
ENDBRANCH  16  19
ENDBRANCH   3  13
BRANCH  10  21
ATOM     21  O   UNL     1     -41.778   3.278  81.392  1.00  0.00    -0.507 OA
ATOM     22  H   UNL     1     -41.420   2.566  82.012  1.00  0.00     0.293 HD
ENDBRANCH  10  21
BRANCH  11  23
ATOM     23  O   UNL     1     -42.258   2.217  76.754  1.00  0.00    -0.508 OA
ATOM     24  H   UNL     1     -42.279   2.538  75.793  1.00  0.00     0.293 HD
ENDBRANCH  11  23
ENDBRANCH   1   2
BRANCH   1  25
ATOM     25  C   UNL     1     -36.428   6.281  81.677  1.00  0.00     0.339 C 
ATOM     26  C   UNL     1     -35.667   7.530  82.137  1.00  0.00     0.214 C 
ATOM     27  O   UNL     1     -36.587   5.357  82.740  1.00  0.00    -0.332 OA
ATOM     28  C   UNL     1     -34.276   7.131  82.646  1.00  0.00     0.180 C 
ATOM     29  C   UNL     1     -35.347   4.881  83.250  1.00  0.00     0.179 C 
ATOM     30  C   UNL     1     -34.406   6.026  83.711  1.00  0.00     0.177 C 
BRANCH  26  31
ATOM     31  O   UNL     1     -35.543   8.423  81.060  1.00  0.00    -0.384 OA
ATOM     32  H   UNL     1     -34.932   8.000  80.404  1.00  0.00     0.211 HD
ENDBRANCH  26  31
BRANCH  28  33
ATOM     33  O   UNL     1     -33.650   8.259  83.204  1.00  0.00    -0.387 OA
ATOM     34  H   UNL     1     -33.384   8.847  82.449  1.00  0.00     0.211 HD
ENDBRANCH  28  33
BRANCH  29  35
ATOM     35  C   UNL     1     -34.701   3.803  82.345  1.00  0.00     0.191 C 
BRANCH  35  36
ATOM     36  O   UNL     1     -33.712   3.075  83.018  1.00  0.00    -0.394 OA
ATOM     37  H   UNL     1     -33.840   2.124  82.768  1.00  0.00     0.210 HD
ENDBRANCH  35  36
ENDBRANCH  29  35
BRANCH  30  38
ATOM     38  O   UNL     1     -33.140   5.508  84.035  1.00  0.00    -0.387 OA
ATOM     39  H   UNL     1     -32.813   5.017  83.236  1.00  0.00     0.211 HD
ENDBRANCH  30  38
ENDBRANCH   1  25
TORSDOF 11
ENDMDL
MODEL 4
REMARK VINA RESULT:    -6.371      1.882      2.784
REMARK INTER + INTRA:         -10.313
REMARK INTER:                 -10.079
REMARK INTRA:                  -0.234
REMARK UNBOUND:                -1.148
REMARK SMILES O=c1c(O[C@@H]2O[C@@H](CO)[C@@H](O)[C@H](O)[C@H]2O)c(-c2ccc(O)cc2)oc2cc(O)cc(O)c12
REMARK SMILES IDX 4 1 3 2 16 3 24 4 2 5 25 6 1 7 32 8 26 9 30 10 27 11 29 12
REMARK SMILES IDX 17 13 18 14 19 15 20 16 23 17 22 18 21 19 31 21 28 23 5 25
REMARK SMILES IDX 14 26 6 27 12 28 7 29 10 30 15 31 13 33 8 35 9 36 11 38
REMARK H PARENT 21 20 31 22 28 24 15 32 13 34 9 37 11 39
REMARK Flexibility Score: inf
ROOT
ATOM      1  O   UNL     1     -37.992   6.310  81.570  1.00  0.00    -0.454 OA
ENDROOT
BRANCH   1   2
ATOM      2  C   UNL     1     -38.686   5.663  80.540  1.00  0.00     0.214 A 
ATOM      3  C   UNL     1     -38.270   5.744  79.197  1.00  0.00     0.180 A 
ATOM      4  O   UNL     1     -38.930   5.072  78.263  1.00  0.00    -0.452 OA
ATOM      5  C   UNL     1     -39.823   4.911  80.852  1.00  0.00     0.239 A 
ATOM      6  C   UNL     1     -39.997   4.324  78.516  1.00  0.00     0.146 A 
ATOM      7  O   UNL     1     -40.229   4.915  82.042  1.00  0.00    -0.285 OA
ATOM      8  C   UNL     1     -40.491   4.182  79.839  1.00  0.00     0.111 A 
ATOM      9  C   UNL     1     -40.635   3.689  77.448  1.00  0.00     0.094 A 
ATOM     10  C   UNL     1     -41.631   3.347  80.054  1.00  0.00     0.134 A 
ATOM     11  C   UNL     1     -41.779   2.920  77.663  1.00  0.00     0.123 A 
ATOM     12  C   UNL     1     -42.270   2.757  78.957  1.00  0.00     0.093 A 
BRANCH   3  13
ATOM     13  C   UNL     1     -37.121   6.574  78.776  1.00  0.00     0.021 A 
ATOM     14  C   UNL     1     -36.025   5.968  78.142  1.00  0.00     0.016 A 
ATOM     15  C   UNL     1     -34.921   6.735  77.754  1.00  0.00     0.047 A 
ATOM     16  C   UNL     1     -34.904   8.113  77.987  1.00  0.00     0.115 A 
ATOM     17  C   UNL     1     -37.113   7.966  78.980  1.00  0.00     0.016 A 
ATOM     18  C   UNL     1     -36.006   8.729  78.597  1.00  0.00     0.047 A 
BRANCH  16  19
ATOM     19  O   UNL     1     -33.791   8.862  77.614  1.00  0.00    -0.508 OA
ATOM     20  H   UNL     1     -33.400   9.570  78.223  1.00  0.00     0.293 HD
ENDBRANCH  16  19
ENDBRANCH   3  13
BRANCH  10  21
ATOM     21  O   UNL     1     -42.158   3.048  81.314  1.00  0.00    -0.507 OA
ATOM     22  H   UNL     1     -42.381   2.121  81.643  1.00  0.00     0.293 HD
ENDBRANCH  10  21
BRANCH  11  23
ATOM     23  O   UNL     1     -42.434   2.306  76.598  1.00  0.00    -0.508 OA
ATOM     24  H   UNL     1     -43.367   2.584  76.319  1.00  0.00     0.293 HD
ENDBRANCH  11  23
ENDBRANCH   1   2
BRANCH   1  25
ATOM     25  C   UNL     1     -36.811   5.763  82.155  1.00  0.00     0.339 C 
ATOM     26  C   UNL     1     -37.186   4.469  82.889  1.00  0.00     0.214 C 
ATOM     27  O   UNL     1     -35.872   5.512  81.124  1.00  0.00    -0.332 OA
ATOM     28  C   UNL     1     -35.932   3.847  83.516  1.00  0.00     0.180 C 
ATOM     29  C   UNL     1     -34.645   4.982  81.610  1.00  0.00     0.179 C 
ATOM     30  C   UNL     1     -34.838   3.687  82.445  1.00  0.00     0.177 C 
BRANCH  26  31
ATOM     31  O   UNL     1     -38.127   4.759  83.891  1.00  0.00    -0.384 OA
ATOM     32  H   UNL     1     -38.989   4.365  83.600  1.00  0.00     0.211 HD
ENDBRANCH  26  31
BRANCH  28  33
ATOM     33  O   UNL     1     -36.262   2.591  84.053  1.00  0.00    -0.387 OA
ATOM     34  H   UNL     1     -35.537   2.345  84.684  1.00  0.00     0.211 HD
ENDBRANCH  28  33
BRANCH  29  35
ATOM     35  C   UNL     1     -33.734   6.061  82.245  1.00  0.00     0.191 C 
BRANCH  35  36
ATOM     36  O   UNL     1     -33.493   7.127  81.370  1.00  0.00    -0.394 OA
ATOM     37  H   UNL     1     -32.758   7.661  81.770  1.00  0.00     0.210 HD
ENDBRANCH  35  36
ENDBRANCH  29  35
BRANCH  30  38
ATOM     38  O   UNL     1     -33.621   3.313  83.041  1.00  0.00    -0.387 OA
ATOM     39  H   UNL     1     -33.121   2.778  82.371  1.00  0.00     0.211 HD
ENDBRANCH  30  38
ENDBRANCH   1  25
TORSDOF 11
ENDMDL
MODEL 5
REMARK VINA RESULT:    -6.345      3.080      6.962
REMARK INTER + INTRA:         -10.275
REMARK INTER:                  -9.468
REMARK INTRA:                  -0.807
REMARK UNBOUND:                -1.148
REMARK SMILES O=c1c(O[C@@H]2O[C@@H](CO)[C@@H](O)[C@H](O)[C@H]2O)c(-c2ccc(O)cc2)oc2cc(O)cc(O)c12
REMARK SMILES IDX 4 1 3 2 16 3 24 4 2 5 25 6 1 7 32 8 26 9 30 10 27 11 29 12
REMARK SMILES IDX 17 13 18 14 19 15 20 16 23 17 22 18 21 19 31 21 28 23 5 25
REMARK SMILES IDX 14 26 6 27 12 28 7 29 10 30 15 31 13 33 8 35 9 36 11 38
REMARK H PARENT 21 20 31 22 28 24 15 32 13 34 9 37 11 39
REMARK Flexibility Score: inf
ROOT
ATOM      1  O   UNL     1     -38.313   6.061  77.670  1.00  0.00    -0.454 OA
ENDROOT
BRANCH   1   2
ATOM      2  C   UNL     1     -37.595   5.488  78.727  1.00  0.00     0.214 A 
ATOM      3  C   UNL     1     -38.133   4.455  79.518  1.00  0.00     0.180 A 
ATOM      4  O   UNL     1     -37.396   3.909  80.477  1.00  0.00    -0.452 OA
ATOM      5  C   UNL     1     -36.305   5.952  79.005  1.00  0.00     0.239 A 
ATOM      6  C   UNL     1     -36.158   4.297  80.758  1.00  0.00     0.146 A 
ATOM      7  O   UNL     1     -35.871   6.930  78.344  1.00  0.00    -0.285 OA
ATOM      8  C   UNL     1     -35.531   5.332  80.015  1.00  0.00     0.111 A 
ATOM      9  C   UNL     1     -35.487   3.675  81.813  1.00  0.00     0.094 A 
ATOM     10  C   UNL     1     -34.190   5.694  80.349  1.00  0.00     0.134 A 
ATOM     11  C   UNL     1     -34.198   4.073  82.165  1.00  0.00     0.123 A 
ATOM     12  C   UNL     1     -33.561   5.078  81.438  1.00  0.00     0.093 A 
BRANCH   3  13
ATOM     13  C   UNL     1     -39.513   3.957  79.334  1.00  0.00     0.021 A 
ATOM     14  C   UNL     1     -40.416   4.005  80.408  1.00  0.00     0.016 A 
ATOM     15  C   UNL     1     -41.719   3.519  80.258  1.00  0.00     0.047 A 
ATOM     16  C   UNL     1     -42.136   2.990  79.033  1.00  0.00     0.115 A 
ATOM     17  C   UNL     1     -39.947   3.451  78.095  1.00  0.00     0.016 A 
ATOM     18  C   UNL     1     -41.248   2.962  77.949  1.00  0.00     0.047 A 
BRANCH  16  19
ATOM     19  O   UNL     1     -43.431   2.493  78.902  1.00  0.00    -0.508 OA
ATOM     20  H   UNL     1     -43.832   1.873  79.595  1.00  0.00     0.293 HD
ENDBRANCH  16  19
ENDBRANCH   3  13
BRANCH  10  21
ATOM     21  O   UNL     1     -33.429   6.626  79.639  1.00  0.00    -0.507 OA
ATOM     22  H   UNL     1     -32.455   6.828  79.809  1.00  0.00     0.293 HD
ENDBRANCH  10  21
BRANCH  11  23
ATOM     23  O   UNL     1     -33.534   3.474  83.234  1.00  0.00    -0.508 OA
ATOM     24  H   UNL     1     -32.736   2.869  83.089  1.00  0.00     0.293 HD
ENDBRANCH  11  23
ENDBRANCH   1   2
BRANCH   1  25
ATOM     25  C   UNL     1     -39.030   7.286  77.811  1.00  0.00     0.339 C 
ATOM     26  C   UNL     1     -39.516   7.729  76.425  1.00  0.00     0.214 C 
ATOM     27  O   UNL     1     -40.120   7.072  78.692  1.00  0.00    -0.332 OA
ATOM     28  C   UNL     1     -40.307   9.038  76.547  1.00  0.00     0.180 C 
ATOM     29  C   UNL     1     -40.890   8.247  78.916  1.00  0.00     0.179 C 
ATOM     30  C   UNL     1     -41.418   8.880  77.601  1.00  0.00     0.177 C 
BRANCH  26  31
ATOM     31  O   UNL     1     -38.409   7.916  75.582  1.00  0.00    -0.384 OA
ATOM     32  H   UNL     1     -38.011   8.793  75.819  1.00  0.00     0.211 HD
ENDBRANCH  26  31
BRANCH  28  33
ATOM     33  O   UNL     1     -40.873   9.350  75.299  1.00  0.00    -0.387 OA
ATOM     34  H   UNL     1     -41.510  10.097  75.448  1.00  0.00     0.211 HD
ENDBRANCH  28  33
BRANCH  29  35
ATOM     35  C   UNL     1     -40.216   9.226  79.909  1.00  0.00     0.191 C 
BRANCH  35  36
ATOM     36  O   UNL     1     -39.655   8.559  81.005  1.00  0.00    -0.394 OA
ATOM     37  H   UNL     1     -39.241   9.255  81.579  1.00  0.00     0.210 HD
ENDBRANCH  35  36
ENDBRANCH  29  35
BRANCH  30  38
ATOM     38  O   UNL     1     -42.015  10.124  77.871  1.00  0.00    -0.387 OA
ATOM     39  H   UNL     1     -41.283  10.791  77.933  1.00  0.00     0.211 HD
ENDBRANCH  30  38
ENDBRANCH   1  25
TORSDOF 11
ENDMDL
MODEL 6
REMARK VINA RESULT:    -6.270      2.094      6.529
REMARK INTER + INTRA:         -10.167
REMARK INTER:                  -9.261
REMARK INTRA:                  -0.906
REMARK UNBOUND:                -1.148
REMARK SMILES O=c1c(O[C@@H]2O[C@@H](CO)[C@@H](O)[C@H](O)[C@H]2O)c(-c2ccc(O)cc2)oc2cc(O)cc(O)c12
REMARK SMILES IDX 4 1 3 2 16 3 24 4 2 5 25 6 1 7 32 8 26 9 30 10 27 11 29 12
REMARK SMILES IDX 17 13 18 14 19 15 20 16 23 17 22 18 21 19 31 21 28 23 5 25
REMARK SMILES IDX 14 26 6 27 12 28 7 29 10 30 15 31 13 33 8 35 9 36 11 38
REMARK H PARENT 21 20 31 22 28 24 15 32 13 34 9 37 11 39
REMARK Flexibility Score: inf
ROOT
ATOM      1  O   UNL     1     -39.375   5.475  81.453  1.00  0.00    -0.454 OA
ENDROOT
BRANCH   1   2
ATOM      2  C   UNL     1     -38.438   5.833  80.475  1.00  0.00     0.214 A 
ATOM      3  C   UNL     1     -38.538   5.375  79.147  1.00  0.00     0.180 A 
ATOM      4  O   UNL     1     -37.654   5.782  78.244  1.00  0.00    -0.452 OA
ATOM      5  C   UNL     1     -37.374   6.670  80.825  1.00  0.00     0.239 A 
ATOM      6  C   UNL     1     -36.645   6.597  78.523  1.00  0.00     0.146 A 
ATOM      7  O   UNL     1     -37.251   7.003  82.031  1.00  0.00    -0.285 OA
ATOM      8  C   UNL     1     -36.462   7.109  79.834  1.00  0.00     0.111 A 
ATOM      9  C   UNL     1     -35.754   6.930  77.501  1.00  0.00     0.094 A 
ATOM     10  C   UNL     1     -35.370   7.999  80.072  1.00  0.00     0.134 A 
ATOM     11  C   UNL     1     -34.660   7.757  77.756  1.00  0.00     0.123 A 
ATOM     12  C   UNL     1     -34.472   8.282  79.034  1.00  0.00     0.093 A 
BRANCH   3  13
ATOM     13  C   UNL     1     -39.591   4.433  78.713  1.00  0.00     0.021 A 
ATOM     14  C   UNL     1     -39.229   3.197  78.155  1.00  0.00     0.016 A 
ATOM     15  C   UNL     1     -40.212   2.303  77.721  1.00  0.00     0.047 A 
ATOM     16  C   UNL     1     -41.566   2.628  77.848  1.00  0.00     0.115 A 
ATOM     17  C   UNL     1     -40.955   4.743  78.868  1.00  0.00     0.016 A 
ATOM     18  C   UNL     1     -41.937   3.850  78.428  1.00  0.00     0.047 A 
BRANCH  16  19
ATOM     19  O   UNL     1     -42.535   1.737  77.396  1.00  0.00    -0.508 OA
ATOM     20  H   UNL     1     -43.178   1.985  76.653  1.00  0.00     0.293 HD
ENDBRANCH  16  19
ENDBRANCH   3  13
BRANCH  10  21
ATOM     21  O   UNL     1     -35.134   8.645  81.288  1.00  0.00    -0.507 OA
ATOM     22  H   UNL     1     -34.403   8.404  81.940  1.00  0.00     0.293 HD
ENDBRANCH  10  21
BRANCH  11  23
ATOM     23  O   UNL     1     -33.754   8.072  76.746  1.00  0.00    -0.508 OA
ATOM     24  H   UNL     1     -33.083   8.823  76.851  1.00  0.00     0.293 HD
ENDBRANCH  11  23
ENDBRANCH   1   2
BRANCH   1  25
ATOM     25  C   UNL     1     -39.174   4.370  82.332  1.00  0.00     0.339 C 
ATOM     26  C   UNL     1     -40.399   3.451  82.245  1.00  0.00     0.214 C 
ATOM     27  O   UNL     1     -37.995   3.689  81.939  1.00  0.00    -0.332 OA
ATOM     28  C   UNL     1     -40.206   2.241  83.169  1.00  0.00     0.180 C 
ATOM     29  C   UNL     1     -37.694   2.575  82.772  1.00  0.00     0.179 C 
ATOM     30  C   UNL     1     -38.863   1.556  82.858  1.00  0.00     0.177 C 
BRANCH  26  31
ATOM     31  O   UNL     1     -41.545   4.166  82.629  1.00  0.00    -0.384 OA
ATOM     32  H   UNL     1     -41.341   4.593  83.500  1.00  0.00     0.211 HD
ENDBRANCH  26  31
BRANCH  28  33
ATOM     33  O   UNL     1     -41.261   1.336  82.966  1.00  0.00    -0.387 OA
ATOM     34  H   UNL     1     -41.795   1.319  83.803  1.00  0.00     0.211 HD
ENDBRANCH  28  33
BRANCH  29  35
ATOM     35  C   UNL     1     -37.063   2.990  84.124  1.00  0.00     0.191 C 
BRANCH  35  36
ATOM     36  O   UNL     1     -35.664   2.970  84.079  1.00  0.00    -0.394 OA
ATOM     37  H   UNL     1     -35.366   3.916  84.108  1.00  0.00     0.210 HD
ENDBRANCH  35  36
ENDBRANCH  29  35
BRANCH  30  38
ATOM     38  O   UNL     1     -38.577   0.578  83.826  1.00  0.00    -0.387 OA
ATOM     39  H   UNL     1     -38.323  -0.249  83.339  1.00  0.00     0.211 HD
ENDBRANCH  30  38
ENDBRANCH   1  25
TORSDOF 11
ENDMDL
MODEL 7
REMARK VINA RESULT:    -6.059      1.034      2.117
REMARK INTER + INTRA:          -9.864
REMARK INTER:                  -9.021
REMARK INTRA:                  -0.843
REMARK UNBOUND:                -1.148
REMARK SMILES O=c1c(O[C@@H]2O[C@@H](CO)[C@@H](O)[C@H](O)[C@H]2O)c(-c2ccc(O)cc2)oc2cc(O)cc(O)c12
REMARK SMILES IDX 4 1 3 2 16 3 24 4 2 5 25 6 1 7 32 8 26 9 30 10 27 11 29 12
REMARK SMILES IDX 17 13 18 14 19 15 20 16 23 17 22 18 21 19 31 21 28 23 5 25
REMARK SMILES IDX 14 26 6 27 12 28 7 29 10 30 15 31 13 33 8 35 9 36 11 38
REMARK H PARENT 21 20 31 22 28 24 15 32 13 34 9 37 11 39
REMARK Flexibility Score: inf
ROOT
ATOM      1  O   UNL     1     -37.373   4.830  82.109  1.00  0.00    -0.454 OA
ENDROOT
BRANCH   1   2
ATOM      2  C   UNL     1     -38.147   4.508  80.987  1.00  0.00     0.214 A 
ATOM      3  C   UNL     1     -37.630   4.586  79.680  1.00  0.00     0.180 A 
ATOM      4  O   UNL     1     -38.387   4.223  78.652  1.00  0.00    -0.452 OA
ATOM      5  C   UNL     1     -39.471   4.096  81.169  1.00  0.00     0.239 A 
ATOM      6  C   UNL     1     -39.638   3.798  78.778  1.00  0.00     0.146 A 
ATOM      7  O   UNL     1     -39.943   4.111  82.334  1.00  0.00    -0.285 OA
ATOM      8  C   UNL     1     -40.246   3.688  80.056  1.00  0.00     0.111 A 
ATOM      9  C   UNL     1     -40.353   3.476  77.623  1.00  0.00     0.094 A 
ATOM     10  C   UNL     1     -41.588   3.206  80.132  1.00  0.00     0.134 A 
ATOM     11  C   UNL     1     -41.681   3.058  77.705  1.00  0.00     0.123 A 
ATOM     12  C   UNL     1     -42.290   2.929  78.952  1.00  0.00     0.093 A 
BRANCH   3  13
ATOM     13  C   UNL     1     -36.265   5.079  79.398  1.00  0.00     0.021 A 
ATOM     14  C   UNL     1     -36.092   6.221  78.601  1.00  0.00     0.016 A 
ATOM     15  C   UNL     1     -34.807   6.690  78.308  1.00  0.00     0.047 A 
ATOM     16  C   UNL     1     -33.684   6.029  78.815  1.00  0.00     0.115 A 
ATOM     17  C   UNL     1     -35.133   4.436  79.931  1.00  0.00     0.016 A 
ATOM     18  C   UNL     1     -33.849   4.902  79.632  1.00  0.00     0.047 A 
BRANCH  16  19
ATOM     19  O   UNL     1     -32.410   6.495  78.500  1.00  0.00    -0.508 OA
ATOM     20  H   UNL     1     -31.607   6.271  79.076  1.00  0.00     0.293 HD
ENDBRANCH  16  19
ENDBRANCH   3  13
BRANCH  10  21
ATOM     21  O   UNL     1     -42.267   2.961  81.329  1.00  0.00    -0.507 OA
ATOM     22  H   UNL     1     -43.238   2.694  81.400  1.00  0.00     0.293 HD
ENDBRANCH  10  21
BRANCH  11  23
ATOM     23  O   UNL     1     -42.406   2.761  76.554  1.00  0.00    -0.508 OA
ATOM     24  H   UNL     1     -42.249   1.906  76.034  1.00  0.00     0.293 HD
ENDBRANCH  11  23
ENDBRANCH   1   2
BRANCH   1  25
ATOM     25  C   UNL     1     -37.287   6.159  82.621  1.00  0.00     0.339 C 
ATOM     26  C   UNL     1     -35.853   6.402  83.109  1.00  0.00     0.214 C 
ATOM     27  O   UNL     1     -37.636   7.063  81.586  1.00  0.00    -0.332 OA
ATOM     28  C   UNL     1     -35.725   7.831  83.650  1.00  0.00     0.180 C 
ATOM     29  C   UNL     1     -37.601   8.423  82.004  1.00  0.00     0.179 C 
ATOM     30  C   UNL     1     -36.227   8.835  82.596  1.00  0.00     0.177 C 
BRANCH  26  31
ATOM     31  O   UNL     1     -35.544   5.479  84.120  1.00  0.00    -0.384 OA
ATOM     32  H   UNL     1     -36.201   4.740  84.047  1.00  0.00     0.211 HD
ENDBRANCH  26  31
BRANCH  28  33
ATOM     33  O   UNL     1     -34.377   8.089  83.951  1.00  0.00    -0.387 OA
ATOM     34  H   UNL     1     -33.888   8.123  83.088  1.00  0.00     0.211 HD
ENDBRANCH  28  33
BRANCH  29  35
ATOM     35  C   UNL     1     -38.841   8.825  82.841  1.00  0.00     0.191 C 
BRANCH  35  36
ATOM     36  O   UNL     1     -39.529   9.906  82.276  1.00  0.00    -0.394 OA
ATOM     37  H   UNL     1     -39.672  10.563  83.006  1.00  0.00     0.210 HD
ENDBRANCH  35  36
ENDBRANCH  29  35
BRANCH  30  38
ATOM     38  O   UNL     1     -36.309  10.125  83.149  1.00  0.00    -0.387 OA
ATOM     39  H   UNL     1     -35.835  10.099  84.021  1.00  0.00     0.211 HD
ENDBRANCH  30  38
ENDBRANCH   1  25
TORSDOF 11
ENDMDL
MODEL 8
REMARK VINA RESULT:    -6.039      2.669      7.190
REMARK INTER + INTRA:          -9.835
REMARK INTER:                  -8.285
REMARK INTRA:                  -1.550
REMARK UNBOUND:                -1.148
REMARK SMILES O=c1c(O[C@@H]2O[C@@H](CO)[C@@H](O)[C@H](O)[C@H]2O)c(-c2ccc(O)cc2)oc2cc(O)cc(O)c12
REMARK SMILES IDX 4 1 3 2 16 3 24 4 2 5 25 6 1 7 32 8 26 9 30 10 27 11 29 12
REMARK SMILES IDX 17 13 18 14 19 15 20 16 23 17 22 18 21 19 31 21 28 23 5 25
REMARK SMILES IDX 14 26 6 27 12 28 7 29 10 30 15 31 13 33 8 35 9 36 11 38
REMARK H PARENT 21 20 31 22 28 24 15 32 13 34 9 37 11 39
REMARK Flexibility Score: inf
ROOT
ATOM      1  O   UNL     1     -39.169   6.647  80.762  1.00  0.00    -0.454 OA
ENDROOT
BRANCH   1   2
ATOM      2  C   UNL     1     -37.839   7.020  80.529  1.00  0.00     0.214 A 
ATOM      3  C   UNL     1     -37.468   7.792  79.412  1.00  0.00     0.180 A 
ATOM      4  O   UNL     1     -36.203   8.163  79.261  1.00  0.00    -0.452 OA
ATOM      5  C   UNL     1     -36.851   6.617  81.433  1.00  0.00     0.239 A 
ATOM      6  C   UNL     1     -35.236   7.828  80.107  1.00  0.00     0.146 A 
ATOM      7  O   UNL     1     -37.185   5.860  82.380  1.00  0.00    -0.285 OA
ATOM      8  C   UNL     1     -35.514   7.051  81.262  1.00  0.00     0.111 A 
ATOM      9  C   UNL     1     -33.933   8.245  79.829  1.00  0.00     0.094 A 
ATOM     10  C   UNL     1     -34.438   6.738  82.147  1.00  0.00     0.134 A 
ATOM     11  C   UNL     1     -32.880   7.888  80.673  1.00  0.00     0.123 A 
ATOM     12  C   UNL     1     -33.136   7.137  81.819  1.00  0.00     0.093 A 
BRANCH   3  13
ATOM     13  C   UNL     1     -38.440   8.199  78.375  1.00  0.00     0.021 A 
ATOM     14  C   UNL     1     -39.264   9.313  78.597  1.00  0.00     0.016 A 
ATOM     15  C   UNL     1     -40.203   9.700  77.635  1.00  0.00     0.047 A 
ATOM     16  C   UNL     1     -40.322   8.984  76.439  1.00  0.00     0.115 A 
ATOM     17  C   UNL     1     -38.542   7.500  77.158  1.00  0.00     0.016 A 
ATOM     18  C   UNL     1     -39.485   7.885  76.200  1.00  0.00     0.047 A 
BRANCH  16  19
ATOM     19  O   UNL     1     -41.274   9.368  75.498  1.00  0.00    -0.508 OA
ATOM     20  H   UNL     1     -41.167  10.214  74.952  1.00  0.00     0.293 HD
ENDBRANCH  16  19
ENDBRANCH   3  13
BRANCH  10  21
ATOM     21  O   UNL     1     -34.591   6.064  83.362  1.00  0.00    -0.507 OA
ATOM     22  H   UNL     1     -33.954   5.371  83.724  1.00  0.00     0.293 HD
ENDBRANCH  10  21
BRANCH  11  23
ATOM     23  O   UNL     1     -31.575   8.279  80.386  1.00  0.00    -0.508 OA
ATOM     24  H   UNL     1     -31.377   9.034  79.741  1.00  0.00     0.293 HD
ENDBRANCH  11  23
ENDBRANCH   1   2
BRANCH   1  25
ATOM     25  C   UNL     1     -39.676   5.364  80.398  1.00  0.00     0.339 C 
ATOM     26  C   UNL     1     -40.465   4.798  81.585  1.00  0.00     0.214 C 
ATOM     27  O   UNL     1     -40.503   5.513  79.257  1.00  0.00    -0.332 OA
ATOM     28  C   UNL     1     -41.038   3.423  81.218  1.00  0.00     0.180 C 
ATOM     29  C   UNL     1     -41.044   4.279  78.800  1.00  0.00     0.179 C 
ATOM     30  C   UNL     1     -41.833   3.523  79.903  1.00  0.00     0.177 C 
BRANCH  26  31
ATOM     31  O   UNL     1     -39.614   4.679  82.696  1.00  0.00    -0.384 OA
ATOM     32  H   UNL     1     -39.679   5.530  83.201  1.00  0.00     0.211 HD
ENDBRANCH  26  31
BRANCH  28  33
ATOM     33  O   UNL     1     -41.881   2.985  82.253  1.00  0.00    -0.387 OA
ATOM     34  H   UNL     1     -42.316   3.793  82.635  1.00  0.00     0.211 HD
ENDBRANCH  28  33
BRANCH  29  35
ATOM     35  C   UNL     1     -40.019   3.432  78.007  1.00  0.00     0.191 C 
BRANCH  35  36
ATOM     36  O   UNL     1     -40.629   2.675  77.000  1.00  0.00    -0.394 OA
ATOM     37  H   UNL     1     -41.143   3.312  76.438  1.00  0.00     0.210 HD
ENDBRANCH  35  36
ENDBRANCH  29  35
BRANCH  30  38
ATOM     38  O   UNL     1     -42.188   2.241  79.448  1.00  0.00    -0.387 OA
ATOM     39  H   UNL     1     -41.837   2.153  78.523  1.00  0.00     0.211 HD
ENDBRANCH  30  38
ENDBRANCH   1  25
TORSDOF 11
ENDMDL
MODEL 9
REMARK VINA RESULT:    -5.978      3.140      6.609
REMARK INTER + INTRA:          -9.747
REMARK INTER:                  -8.731
REMARK INTRA:                  -1.016
REMARK UNBOUND:                -1.148
REMARK SMILES O=c1c(O[C@@H]2O[C@@H](CO)[C@@H](O)[C@H](O)[C@H]2O)c(-c2ccc(O)cc2)oc2cc(O)cc(O)c12
REMARK SMILES IDX 4 1 3 2 16 3 24 4 2 5 25 6 1 7 32 8 26 9 30 10 27 11 29 12
REMARK SMILES IDX 17 13 18 14 19 15 20 16 23 17 22 18 21 19 31 21 28 23 5 25
REMARK SMILES IDX 14 26 6 27 12 28 7 29 10 30 15 31 13 33 8 35 9 36 11 38
REMARK H PARENT 21 20 31 22 28 24 15 32 13 34 9 37 11 39
REMARK Flexibility Score: inf
ROOT
ATOM      1  O   UNL     1     -39.400   7.169  80.209  1.00  0.00    -0.454 OA
ENDROOT
BRANCH   1   2
ATOM      2  C   UNL     1     -38.390   6.314  80.668  1.00  0.00     0.214 A 
ATOM      3  C   UNL     1     -38.394   4.936  80.379  1.00  0.00     0.180 A 
ATOM      4  O   UNL     1     -37.390   4.175  80.793  1.00  0.00    -0.452 OA
ATOM      5  C   UNL     1     -37.346   6.842  81.433  1.00  0.00     0.239 A 
ATOM      6  C   UNL     1     -36.364   4.637  81.498  1.00  0.00     0.146 A 
ATOM      7  O   UNL     1     -37.399   8.058  81.753  1.00  0.00    -0.285 OA
ATOM      8  C   UNL     1     -36.273   6.012  81.838  1.00  0.00     0.111 A 
ATOM      9  C   UNL     1     -35.380   3.737  81.911  1.00  0.00     0.094 A 
ATOM     10  C   UNL     1     -35.136   6.456  82.580  1.00  0.00     0.134 A 
ATOM     11  C   UNL     1     -34.301   4.172  82.681  1.00  0.00     0.123 A 
ATOM     12  C   UNL     1     -34.187   5.521  83.013  1.00  0.00     0.093 A 
BRANCH   3  13
ATOM     13  C   UNL     1     -39.497   4.289  79.636  1.00  0.00     0.021 A 
ATOM     14  C   UNL     1     -39.332   3.987  78.275  1.00  0.00     0.016 A 
ATOM     15  C   UNL     1     -40.372   3.392  77.553  1.00  0.00     0.047 A 
ATOM     16  C   UNL     1     -41.582   3.086  78.183  1.00  0.00     0.115 A 
ATOM     17  C   UNL     1     -40.705   3.950  80.273  1.00  0.00     0.016 A 
ATOM     18  C   UNL     1     -41.745   3.361  79.548  1.00  0.00     0.047 A 
BRANCH  16  19
ATOM     19  O   UNL     1     -42.615   2.511  77.448  1.00  0.00    -0.508 OA
ATOM     20  H   UNL     1     -42.582   2.461  76.436  1.00  0.00     0.293 HD
ENDBRANCH  16  19
ENDBRANCH   3  13
BRANCH  10  21
ATOM     21  O   UNL     1     -34.879   7.792  82.897  1.00  0.00    -0.507 OA
ATOM     22  H   UNL     1     -35.077   8.225  83.787  1.00  0.00     0.293 HD
ENDBRANCH  10  21
BRANCH  11  23
ATOM     23  O   UNL     1     -33.330   3.274  83.118  1.00  0.00    -0.508 OA
ATOM     24  H   UNL     1     -33.568   2.479  83.700  1.00  0.00     0.293 HD
ENDBRANCH  11  23
ENDBRANCH   1   2
BRANCH   1  25
ATOM     25  C   UNL     1     -39.444   7.645  78.864  1.00  0.00     0.339 C 
ATOM     26  C   UNL     1     -40.637   8.598  78.723  1.00  0.00     0.214 C 
ATOM     27  O   UNL     1     -38.223   8.307  78.581  1.00  0.00    -0.332 OA
ATOM     28  C   UNL     1     -40.701   9.140  77.290  1.00  0.00     0.180 C 
ATOM     29  C   UNL     1     -38.159   8.802  77.249  1.00  0.00     0.179 C 
ATOM     30  C   UNL     1     -39.341   9.747  76.901  1.00  0.00     0.177 C 
BRANCH  26  31
ATOM     31  O   UNL     1     -41.822   7.907  79.026  1.00  0.00    -0.384 OA
ATOM     32  H   UNL     1     -42.473   8.123  78.310  1.00  0.00     0.211 HD
ENDBRANCH  26  31
BRANCH  28  33
ATOM     33  O   UNL     1     -41.702  10.123  77.215  1.00  0.00    -0.387 OA
ATOM     34  H   UNL     1     -41.410  10.784  76.533  1.00  0.00     0.211 HD
ENDBRANCH  28  33
BRANCH  29  35
ATOM     35  C   UNL     1     -37.856   7.694  76.210  1.00  0.00     0.191 C 
BRANCH  35  36
ATOM     36  O   UNL     1     -38.980   7.375  75.438  1.00  0.00    -0.394 OA
ATOM     37  H   UNL     1     -39.467   8.226  75.282  1.00  0.00     0.210 HD
ENDBRANCH  35  36
ENDBRANCH  29  35
BRANCH  30  38
ATOM     38  O   UNL     1     -39.319  10.059  75.530  1.00  0.00    -0.387 OA
ATOM     39  H   UNL     1     -40.047  10.714  75.368  1.00  0.00     0.211 HD
ENDBRANCH  30  38
ENDBRANCH   1  25
TORSDOF 11
ENDMDL
