MODEL 1
REMARK VINA RESULT:    -5.553      0.000      0.000
REMARK INTER + INTRA:          -6.257
REMARK INTER:                  -5.878
REMARK INTRA:                  -0.379
REMARK UNBOUND:                -0.379
REMARK SMILES CC1=CC[C@]23[C@H]([C@@H](C(C)C)CC[C@H]2C)[C@@H]13
REMARK SMILES IDX 14 1 13 2 12 3 11 4 7 5 6 6 5 7 15 8 2 9 3 10 4 11 1 12 8 13
REMARK SMILES IDX 9 14 10 15
REMARK H PARENT
REMARK Flexibility Score: inf
ROOT
ATOM      1  C   UNL     1     141.827 143.622 130.581  1.00  0.00     0.008 C 
ATOM      2  C   UNL     1     142.881 144.159 131.565  1.00  0.00    -0.007 C 
ATOM      3  C   UNL     1     144.280 143.579 131.283  1.00  0.00     0.004 C 
ATOM      4  C   UNL     1     144.513 142.244 131.988  1.00  0.00     0.004 C 
ATOM      5  C   UNL     1     144.485 142.433 133.520  1.00  0.00    -0.004 C 
ATOM      6  C   UNL     1     143.216 143.153 134.045  1.00  0.00     0.007 C 
ATOM      7  C   UNL     1     142.437 144.032 133.051  1.00  0.00    -0.013 C 
ATOM      8  C   UNL     1     141.870 142.679 133.503  1.00  0.00     0.025 C 
ATOM      9  C   UNL     1     140.679 143.036 134.323  1.00  0.00    -0.073 C 
ATOM     10  C   UNL     1     140.473 144.345 134.389  1.00  0.00    -0.027 C 
ATOM     11  C   UNL     1     141.510 145.109 133.639  1.00  0.00     0.035 C 
ATOM     12  C   UNL     1     139.809 142.027 135.004  1.00  0.00     0.039 C 
ENDROOT
BRANCH   5  13
ATOM     13  C   UNL     1     144.798 141.108 134.280  1.00  0.00    -0.014 C 
ATOM     14  C   UNL     1     144.273 139.846 133.576  1.00  0.00     0.007 C 
ATOM     15  C   UNL     1     144.278 141.152 135.726  1.00  0.00     0.007 C 
ENDBRANCH   5  13
TORSDOF 1
ENDMDL
MODEL 2
REMARK VINA RESULT:    -5.548      2.641      4.551
REMARK INTER + INTRA:          -6.252
REMARK INTER:                  -5.873
REMARK INTRA:                  -0.379
REMARK UNBOUND:                -0.379
REMARK SMILES CC1=CC[C@]23[C@H]([C@@H](C(C)C)CC[C@H]2C)[C@@H]13
REMARK SMILES IDX 14 1 13 2 12 3 11 4 7 5 6 6 5 7 15 8 2 9 3 10 4 11 1 12 8 13
REMARK SMILES IDX 9 14 10 15
REMARK H PARENT
REMARK Flexibility Score: inf
ROOT
ATOM      1  C   UNL     1     143.600 140.235 130.587  1.00  0.00     0.008 C 
ATOM      2  C   UNL     1     144.132 139.216 131.610  1.00  0.00    -0.007 C 
ATOM      3  C   UNL     1     143.535 137.812 131.387  1.00  0.00     0.004 C 
ATOM      4  C   UNL     1     142.201 137.623 132.108  1.00  0.00     0.004 C 
ATOM      5  C   UNL     1     142.400 137.711 133.636  1.00  0.00    -0.004 C 
ATOM      6  C   UNL     1     143.136 138.992 134.106  1.00  0.00     0.007 C 
ATOM      7  C   UNL     1     144.018 139.721 133.077  1.00  0.00    -0.013 C 
ATOM      8  C   UNL     1     142.674 140.320 133.512  1.00  0.00     0.025 C 
ATOM      9  C   UNL     1     143.048 141.539 134.282  1.00  0.00    -0.073 C 
ATOM     10  C   UNL     1     144.359 141.733 134.333  1.00  0.00    -0.027 C 
ATOM     11  C   UNL     1     145.109 140.659 133.622  1.00  0.00     0.035 C 
ATOM     12  C   UNL     1     142.053 142.447 134.933  1.00  0.00     0.039 C 
ENDROOT
BRANCH   5  13
ATOM     13  C   UNL     1     141.076 137.443 134.416  1.00  0.00    -0.014 C 
ATOM     14  C   UNL     1     139.821 137.998 133.722  1.00  0.00     0.007 C 
ATOM     15  C   UNL     1     141.152 137.976 135.856  1.00  0.00     0.007 C 
ENDBRANCH   5  13
TORSDOF 1
ENDMDL
MODEL 3
REMARK VINA RESULT:    -5.543      2.608      4.558
REMARK INTER + INTRA:          -6.246
REMARK INTER:                  -5.872
REMARK INTRA:                  -0.374
REMARK UNBOUND:                -0.379
REMARK SMILES CC1=CC[C@]23[C@H]([C@@H](C(C)C)CC[C@H]2C)[C@@H]13
REMARK SMILES IDX 14 1 13 2 12 3 11 4 7 5 6 6 5 7 15 8 2 9 3 10 4 11 1 12 8 13
REMARK SMILES IDX 9 14 10 15
REMARK H PARENT
REMARK Flexibility Score: inf
ROOT
ATOM      1  C   UNL     1     138.489 141.816 130.487  1.00  0.00     0.008 C 
ATOM      2  C   UNL     1     137.963 142.849 131.500  1.00  0.00    -0.007 C 
ATOM      3  C   UNL     1     138.486 144.267 131.199  1.00  0.00     0.004 C 
ATOM      4  C   UNL     1     139.844 144.540 131.844  1.00  0.00     0.004 C 
ATOM      5  C   UNL     1     139.725 144.500 133.383  1.00  0.00    -0.004 C 
ATOM      6  C   UNL     1     139.070 143.207 133.933  1.00  0.00     0.007 C 
ATOM      7  C   UNL     1     138.172 142.404 132.976  1.00  0.00    -0.013 C 
ATOM      8  C   UNL     1     139.561 141.879 133.363  1.00  0.00     0.025 C 
ATOM      9  C   UNL     1     139.280 140.674 134.193  1.00  0.00    -0.073 C 
ATOM     10  C   UNL     1     137.982 140.426 134.317  1.00  0.00    -0.027 C 
ATOM     11  C   UNL     1     137.152 141.441 133.608  1.00  0.00     0.035 C 
ATOM     12  C   UNL     1     140.345 139.833 134.823  1.00  0.00     0.039 C 
ENDROOT
BRANCH   5  13
ATOM     13  C   UNL     1     141.072 144.852 134.084  1.00  0.00    -0.014 C 
ATOM     14  C   UNL     1     142.311 144.275 133.380  1.00  0.00     0.007 C 
ATOM     15  C   UNL     1     141.067 144.425 135.561  1.00  0.00     0.007 C 
ENDBRANCH   5  13
TORSDOF 1
ENDMDL
MODEL 4
REMARK VINA RESULT:    -5.533      3.845      6.405
REMARK INTER + INTRA:          -6.236
REMARK INTER:                  -5.873
REMARK INTRA:                  -0.362
REMARK UNBOUND:                -0.379
REMARK SMILES CC1=CC[C@]23[C@H]([C@@H](C(C)C)CC[C@H]2C)[C@@H]13
REMARK SMILES IDX 14 1 13 2 12 3 11 4 7 5 6 6 5 7 15 8 2 9 3 10 4 11 1 12 8 13
REMARK SMILES IDX 9 14 10 15
REMARK H PARENT
REMARK Flexibility Score: inf
ROOT
ATOM      1  C   UNL     1     140.340 138.454 130.471  1.00  0.00     0.008 C 
ATOM      2  C   UNL     1     139.288 137.974 131.486  1.00  0.00    -0.007 C 
ATOM      3  C   UNL     1     137.882 138.515 131.157  1.00  0.00     0.004 C 
ATOM      4  C   UNL     1     137.629 139.893 131.765  1.00  0.00     0.004 C 
ATOM      5  C   UNL     1     137.651 139.814 133.306  1.00  0.00    -0.004 C 
ATOM      6  C   UNL     1     138.926 139.149 133.886  1.00  0.00     0.007 C 
ATOM      7  C   UNL     1     139.722 138.212 132.961  1.00  0.00    -0.013 C 
ATOM      8  C   UNL     1     140.269 139.601 133.318  1.00  0.00     0.025 C 
ATOM      9  C   UNL     1     141.460 139.319 134.167  1.00  0.00    -0.073 C 
ATOM     10  C   UNL     1     141.681 138.021 134.327  1.00  0.00    -0.027 C 
ATOM     11  C   UNL     1     140.659 137.191 133.629  1.00  0.00     0.035 C 
ATOM     12  C   UNL     1     142.314 140.384 134.779  1.00  0.00     0.039 C 
ENDROOT
BRANCH   5  13
ATOM     13  C   UNL     1     137.317 141.185 133.969  1.00  0.00    -0.014 C 
ATOM     14  C   UNL     1     137.985 142.388 133.283  1.00  0.00     0.007 C 
ATOM     15  C   UNL     1     137.660 141.185 135.467  1.00  0.00     0.007 C 
ENDBRANCH   5  13
TORSDOF 1
ENDMDL
MODEL 5
REMARK VINA RESULT:    -5.286      1.348      3.954
REMARK INTER + INTRA:          -5.974
REMARK INTER:                  -5.785
REMARK INTRA:                  -0.189
REMARK UNBOUND:                -0.379
REMARK SMILES CC1=CC[C@]23[C@H]([C@@H](C(C)C)CC[C@H]2C)[C@@H]13
REMARK SMILES IDX 14 1 13 2 12 3 11 4 7 5 6 6 5 7 15 8 2 9 3 10 4 11 1 12 8 13
REMARK SMILES IDX 9 14 10 15
REMARK H PARENT
REMARK Flexibility Score: inf
ROOT
ATOM      1  C   UNL     1     144.116 139.883 132.614  1.00  0.00     0.008 C 
ATOM      2  C   UNL     1     144.806 141.076 133.298  1.00  0.00    -0.007 C 
ATOM      3  C   UNL     1     144.747 140.969 134.835  1.00  0.00     0.004 C 
ATOM      4  C   UNL     1     143.464 141.564 135.414  1.00  0.00     0.004 C 
ATOM      5  C   UNL     1     143.403 143.081 135.138  1.00  0.00    -0.004 C 
ATOM      6  C   UNL     1     143.597 143.461 133.648  1.00  0.00     0.007 C 
ATOM      7  C   UNL     1     144.323 142.447 132.746  1.00  0.00    -0.013 C 
ATOM      8  C   UNL     1     142.809 142.660 132.615  1.00  0.00     0.025 C 
ATOM      9  C   UNL     1     142.643 143.306 131.283  1.00  0.00    -0.073 C 
ATOM     10  C   UNL     1     143.794 143.470 130.644  1.00  0.00    -0.027 C 
ATOM     11  C   UNL     1     144.950 142.982 131.447  1.00  0.00     0.035 C 
ATOM     12  C   UNL     1     141.320 143.729 130.725  1.00  0.00     0.039 C 
ENDROOT
BRANCH   5  13
ATOM     13  C   UNL     1     142.147 143.744 135.782  1.00  0.00    -0.014 C 
ATOM     14  C   UNL     1     141.457 144.781 134.881  1.00  0.00     0.007 C 
ATOM     15  C   UNL     1     142.479 144.376 137.143  1.00  0.00     0.007 C 
ENDBRANCH   5  13
TORSDOF 1
ENDMDL
MODEL 6
REMARK VINA RESULT:    -5.279      4.449      6.125
REMARK INTER + INTRA:          -5.967
REMARK INTER:                  -5.595
REMARK INTRA:                  -0.372
REMARK UNBOUND:                -0.379
REMARK SMILES CC1=CC[C@]23[C@H]([C@@H](C(C)C)CC[C@H]2C)[C@@H]13
REMARK SMILES IDX 14 1 13 2 12 3 11 4 7 5 6 6 5 7 15 8 2 9 3 10 4 11 1 12 8 13
REMARK SMILES IDX 9 14 10 15
REMARK H PARENT
REMARK Flexibility Score: inf
ROOT
ATOM      1  C   UNL     1     138.001 142.118 132.510  1.00  0.00     0.008 C 
ATOM      2  C   UNL     1     137.350 140.990 133.328  1.00  0.00    -0.007 C 
ATOM      3  C   UNL     1     137.295 141.327 134.831  1.00  0.00     0.004 C 
ATOM      4  C   UNL     1     138.572 140.928 135.568  1.00  0.00     0.004 C 
ATOM      5  C   UNL     1     138.758 139.397 135.532  1.00  0.00    -0.004 C 
ATOM      6  C   UNL     1     138.694 138.785 134.108  1.00  0.00     0.007 C 
ATOM      7  C   UNL     1     137.964 139.594 133.021  1.00  0.00    -0.013 C 
ATOM      8  C   UNL     1     139.495 139.484 133.013  1.00  0.00     0.025 C 
ATOM      9  C   UNL     1     139.797 138.663 131.807  1.00  0.00    -0.073 C 
ATOM     10  C   UNL     1     138.707 138.315 131.135  1.00  0.00    -0.027 C 
ATOM     11  C   UNL     1     137.467 138.824 131.786  1.00  0.00     0.035 C 
ATOM     12  C   UNL     1     141.181 138.267 131.398  1.00  0.00     0.039 C 
ENDROOT
BRANCH   5  13
ATOM     13  C   UNL     1     140.009 138.938 136.342  1.00  0.00    -0.014 C 
ATOM     14  C   UNL     1     141.157 139.960 136.348  1.00  0.00     0.007 C 
ATOM     15  C   UNL     1     140.527 137.576 135.854  1.00  0.00     0.007 C 
ENDBRANCH   5  13
TORSDOF 1
ENDMDL
MODEL 7
REMARK VINA RESULT:    -5.278      2.935      5.593
REMARK INTER + INTRA:          -5.966
REMARK INTER:                  -5.597
REMARK INTRA:                  -0.368
REMARK UNBOUND:                -0.379
REMARK SMILES CC1=CC[C@]23[C@H]([C@@H](C(C)C)CC[C@H]2C)[C@@H]13
REMARK SMILES IDX 14 1 13 2 12 3 11 4 7 5 6 6 5 7 15 8 2 9 3 10 4 11 1 12 8 13
REMARK SMILES IDX 9 14 10 15
REMARK H PARENT
REMARK Flexibility Score: inf
ROOT
ATOM      1  C   UNL     1     140.160 138.020 132.462  1.00  0.00     0.008 C 
ATOM      2  C   UNL     1     141.298 137.391 133.286  1.00  0.00    -0.007 C 
ATOM      3  C   UNL     1     140.961 137.345 134.789  1.00  0.00     0.004 C 
ATOM      4  C   UNL     1     141.343 138.634 135.514  1.00  0.00     0.004 C 
ATOM      5  C   UNL     1     142.872 138.839 135.476  1.00  0.00    -0.004 C 
ATOM      6  C   UNL     1     143.484 138.771 134.053  1.00  0.00     0.007 C 
ATOM      7  C   UNL     1     142.686 138.020 132.973  1.00  0.00    -0.013 C 
ATOM      8  C   UNL     1     142.775 139.552 132.950  1.00  0.00     0.025 C 
ATOM      9  C   UNL     1     143.592 139.855 131.742  1.00  0.00    -0.073 C 
ATOM     10  C   UNL     1     143.954 138.763 131.080  1.00  0.00    -0.027 C 
ATOM     11  C   UNL     1     143.461 137.522 131.741  1.00  0.00     0.035 C 
ATOM     12  C   UNL     1     143.969 141.240 131.320  1.00  0.00     0.039 C 
ENDROOT
BRANCH   5  13
ATOM     13  C   UNL     1     143.315 140.103 136.274  1.00  0.00    -0.014 C 
ATOM     14  C   UNL     1     142.269 141.230 136.288  1.00  0.00     0.007 C 
ATOM     15  C   UNL     1     144.660 140.648 135.767  1.00  0.00     0.007 C 
ENDBRANCH   5  13
TORSDOF 1
ENDMDL
MODEL 8
REMARK VINA RESULT:    -5.268      2.672      4.483
REMARK INTER + INTRA:          -5.955
REMARK INTER:                  -5.590
REMARK INTRA:                  -0.365
REMARK UNBOUND:                -0.379
REMARK SMILES CC1=CC[C@]23[C@H]([C@@H](C(C)C)CC[C@H]2C)[C@@H]13
REMARK SMILES IDX 14 1 13 2 12 3 11 4 7 5 6 6 5 7 15 8 2 9 3 10 4 11 1 12 8 13
REMARK SMILES IDX 9 14 10 15
REMARK H PARENT
REMARK Flexibility Score: inf
ROOT
ATOM      1  C   UNL     1     142.139 144.205 132.551  1.00  0.00     0.008 C 
ATOM      2  C   UNL     1     140.969 144.818 133.341  1.00  0.00    -0.007 C 
ATOM      3  C   UNL     1     141.229 144.801 134.860  1.00  0.00     0.004 C 
ATOM      4  C   UNL     1     140.793 143.491 135.513  1.00  0.00     0.004 C 
ATOM      5  C   UNL     1     139.265 143.311 135.390  1.00  0.00    -0.004 C 
ATOM      6  C   UNL     1     138.728 143.444 133.941  1.00  0.00     0.007 C 
ATOM      7  C   UNL     1     139.591 144.223 132.933  1.00  0.00    -0.013 C 
ATOM      8  C   UNL     1     139.482 142.695 132.846  1.00  0.00     0.025 C 
ATOM      9  C   UNL     1     138.724 142.452 131.587  1.00  0.00    -0.073 C 
ATOM     10  C   UNL     1     138.411 143.573 130.951  1.00  0.00    -0.027 C 
ATOM     11  C   UNL     1     138.885 144.780 131.685  1.00  0.00     0.035 C 
ATOM     12  C   UNL     1     138.351 141.090 131.092  1.00  0.00     0.039 C 
ENDROOT
BRANCH   5  13
ATOM     13  C   UNL     1     138.766 142.023 136.114  1.00  0.00    -0.014 C 
ATOM     14  C   UNL     1     139.804 140.890 136.157  1.00  0.00     0.007 C 
ATOM     15  C   UNL     1     137.455 141.505 135.502  1.00  0.00     0.007 C 
ENDBRANCH   5  13
TORSDOF 1
ENDMDL
MODEL 9
REMARK VINA RESULT:    -5.177      1.692      4.798
REMARK INTER + INTRA:          -5.858
REMARK INTER:                  -5.483
REMARK INTRA:                  -0.375
REMARK UNBOUND:                -0.379
REMARK SMILES CC1=CC[C@]23[C@H]([C@@H](C(C)C)CC[C@H]2C)[C@@H]13
REMARK SMILES IDX 14 1 13 2 12 3 11 4 7 5 6 6 5 7 15 8 2 9 3 10 4 11 1 12 8 13
REMARK SMILES IDX 9 14 10 15
REMARK H PARENT
REMARK Flexibility Score: inf
ROOT
ATOM      1  C   UNL     1     143.625 139.708 136.485  1.00  0.00     0.008 C 
ATOM      2  C   UNL     1     144.351 141.007 136.093  1.00  0.00    -0.007 C 
ATOM      3  C   UNL     1     144.025 142.162 137.061  1.00  0.00     0.004 C 
ATOM      4  C   UNL     1     142.760 142.920 136.663  1.00  0.00     0.004 C 
ATOM      5  C   UNL     1     142.955 143.614 135.299  1.00  0.00    -0.004 C 
ATOM      6  C   UNL     1     143.443 142.668 134.172  1.00  0.00     0.007 C 
ATOM      7  C   UNL     1     144.160 141.373 134.593  1.00  0.00    -0.013 C 
ATOM      8  C   UNL     1     142.733 141.325 134.032  1.00  0.00     0.025 C 
ATOM      9  C   UNL     1     142.879 140.647 132.714  1.00  0.00    -0.073 C 
ATOM     10  C   UNL     1     144.131 140.295 132.453  1.00  0.00    -0.027 C 
ATOM     11  C   UNL     1     145.061 140.695 133.547  1.00  0.00     0.035 C 
ATOM     12  C   UNL     1     141.738 140.395 131.779  1.00  0.00     0.039 C 
ENDROOT
BRANCH   5  13
ATOM     13  C   UNL     1     141.714 144.466 134.892  1.00  0.00    -0.014 C 
ATOM     14  C   UNL     1     140.368 143.825 135.267  1.00  0.00     0.007 C 
ATOM     15  C   UNL     1     141.730 144.803 133.392  1.00  0.00     0.007 C 
ENDBRANCH   5  13
TORSDOF 1
ENDMDL
