MODEL 1
REMARK VINA RESULT:    -3.916      0.000      0.000
REMARK INTER + INTRA:          -6.106
REMARK INTER:                  -5.633
REMARK INTRA:                  -0.473
REMARK UNBOUND:                -0.473
REMARK SMILES O=C(CO)[C@H](O)[C@@H](O)[C@@H](O)CO
REMARK SMILES IDX 7 1 9 2 11 3 12 4 10 6 5 8 2 9 1 10 3 11 4 12 6 14 8 16
REMARK H PARENT 12 5 10 7 4 13 6 15 8 17
REMARK Flexibility Score: inf
ROOT
ATOM      1  C   UNL     1      69.815  35.289  58.874  1.00  0.00     0.181 C 
ENDROOT
BRANCH   1   2
ATOM      2  C   UNL     1      70.420  36.386  57.959  1.00  0.00     0.171 C 
BRANCH   2   3
ATOM      3  C   UNL     1      71.096  35.818  56.699  1.00  0.00     0.190 C 
BRANCH   3   4
ATOM      4  O   UNL     1      72.429  35.478  56.973  1.00  0.00    -0.394 OA
ATOM      5  H   UNL     1      72.891  35.394  56.098  1.00  0.00     0.210 HD
ENDBRANCH   3   4
ENDBRANCH   2   3
BRANCH   2   6
ATOM      6  O   UNL     1      71.367  37.125  58.689  1.00  0.00    -0.388 OA
ATOM      7  H   UNL     1      71.441  38.013  58.252  1.00  0.00     0.211 HD
ENDBRANCH   2   6
ENDBRANCH   1   2
BRANCH   1   8
ATOM      8  C   UNL     1      70.838  34.706  59.881  1.00  0.00     0.214 C 
BRANCH   8   9
ATOM      9  C   UNL     1      71.084  33.238  59.604  1.00  0.00     0.189 C 
ATOM     10  O   UNL     1      70.482  32.694  58.690  1.00  0.00    -0.294 OA
BRANCH   9  11
ATOM     11  C   UNL     1      72.027  32.419  60.443  1.00  0.00     0.234 C 
BRANCH  11  12
ATOM     12  O   UNL     1      71.342  31.918  61.557  1.00  0.00    -0.388 OA
ATOM     13  H   UNL     1      71.105  30.981  61.335  1.00  0.00     0.211 HD
ENDBRANCH  11  12
ENDBRANCH   9  11
ENDBRANCH   8   9
BRANCH   8  14
ATOM     14  O   UNL     1      70.382  34.877  61.199  1.00  0.00    -0.382 OA
ATOM     15  H   UNL     1      69.668  35.567  61.169  1.00  0.00     0.211 HD
ENDBRANCH   8  14
ENDBRANCH   1   8
BRANCH   1  16
ATOM     16  O   UNL     1      68.692  35.802  59.549  1.00  0.00    -0.387 OA
ATOM     17  H   UNL     1      69.005  36.560  60.107  1.00  0.00     0.211 HD
ENDBRANCH   1  16
TORSDOF 10
ENDMDL
MODEL 2
REMARK VINA RESULT:    -3.847     18.411     19.725
REMARK INTER + INTRA:          -6.007
REMARK INTER:                  -5.101
REMARK INTRA:                  -0.905
REMARK UNBOUND:                -0.473
REMARK SMILES O=C(CO)[C@H](O)[C@@H](O)[C@@H](O)CO
REMARK SMILES IDX 7 1 9 2 11 3 12 4 10 6 5 8 2 9 1 10 3 11 4 12 6 14 8 16
REMARK H PARENT 12 5 10 7 4 13 6 15 8 17
REMARK Flexibility Score: inf
ROOT
ATOM      1  C   UNL     1      54.920  24.287  64.442  1.00  0.00     0.181 C 
ENDROOT
BRANCH   1   2
ATOM      2  C   UNL     1      54.122  23.840  65.695  1.00  0.00     0.171 C 
BRANCH   2   3
ATOM      3  C   UNL     1      53.892  22.320  65.755  1.00  0.00     0.190 C 
BRANCH   3   4
ATOM      4  O   UNL     1      55.098  21.654  66.013  1.00  0.00    -0.394 OA
ATOM      5  H   UNL     1      55.727  21.902  65.286  1.00  0.00     0.210 HD
ENDBRANCH   3   4
ENDBRANCH   2   3
BRANCH   2   6
ATOM      6  O   UNL     1      52.877  24.490  65.704  1.00  0.00    -0.388 OA
ATOM      7  H   UNL     1      52.967  25.299  65.137  1.00  0.00     0.211 HD
ENDBRANCH   2   6
ENDBRANCH   1   2
BRANCH   1   8
ATOM      8  C   UNL     1      54.577  25.727  63.986  1.00  0.00     0.214 C 
BRANCH   8   9
ATOM      9  C   UNL     1      55.464  26.150  62.834  1.00  0.00     0.189 C 
ATOM     10  O   UNL     1      56.117  25.303  62.243  1.00  0.00    -0.294 OA
BRANCH   9  11
ATOM     11  C   UNL     1      55.591  27.590  62.416  1.00  0.00     0.234 C 
BRANCH  11  12
ATOM     12  O   UNL     1      56.177  28.325  63.454  1.00  0.00    -0.388 OA
ATOM     13  H   UNL     1      56.283  29.249  63.110  1.00  0.00     0.211 HD
ENDBRANCH  11  12
ENDBRANCH   9  11
ENDBRANCH   8   9
BRANCH   8  14
ATOM     14  O   UNL     1      54.715  26.628  65.056  1.00  0.00    -0.382 OA
ATOM     15  H   UNL     1      54.993  26.095  65.846  1.00  0.00     0.211 HD
ENDBRANCH   8  14
ENDBRANCH   1   8
BRANCH   1  16
ATOM     16  O   UNL     1      56.299  24.160  64.687  1.00  0.00    -0.387 OA
ATOM     17  H   UNL     1      56.565  23.247  64.406  1.00  0.00     0.211 HD
ENDBRANCH   1  16
TORSDOF 10
ENDMDL
MODEL 3
REMARK VINA RESULT:    -3.790     21.493     22.795
REMARK INTER + INTRA:          -5.925
REMARK INTER:                  -5.211
REMARK INTRA:                  -0.714
REMARK UNBOUND:                -0.473
REMARK SMILES O=C(CO)[C@H](O)[C@@H](O)[C@@H](O)CO
REMARK SMILES IDX 7 1 9 2 11 3 12 4 10 6 5 8 2 9 1 10 3 11 4 12 6 14 8 16
REMARK H PARENT 12 5 10 7 4 13 6 15 8 17
REMARK Flexibility Score: inf
ROOT
ATOM      1  C   UNL     1      56.162  18.889  50.879  1.00  0.00     0.181 C 
ENDROOT
BRANCH   1   2
ATOM      2  C   UNL     1      55.703  19.436  52.256  1.00  0.00     0.171 C 
BRANCH   2   3
ATOM      3  C   UNL     1      54.224  19.861  52.276  1.00  0.00     0.190 C 
BRANCH   3   4
ATOM      4  O   UNL     1      53.951  20.722  51.204  1.00  0.00    -0.394 OA
ATOM      5  H   UNL     1      53.852  21.634  51.583  1.00  0.00     0.210 HD
ENDBRANCH   3   4
ENDBRANCH   2   3
BRANCH   2   6
ATOM      6  O   UNL     1      56.498  20.541  52.602  1.00  0.00    -0.388 OA
ATOM      7  H   UNL     1      56.018  21.352  52.293  1.00  0.00     0.211 HD
ENDBRANCH   2   6
ENDBRANCH   1   2
BRANCH   1   8
ATOM      8  C   UNL     1      57.411  17.978  50.974  1.00  0.00     0.214 C 
BRANCH   8   9
ATOM      9  C   UNL     1      58.676  18.779  50.750  1.00  0.00     0.189 C 
ATOM     10  O   UNL     1      59.183  19.369  51.693  1.00  0.00    -0.294 OA
BRANCH   9  11
ATOM     11  C   UNL     1      59.311  18.898  49.391  1.00  0.00     0.234 C 
BRANCH  11  12
ATOM     12  O   UNL     1      59.769  17.640  48.980  1.00  0.00    -0.388 OA
ATOM     13  H   UNL     1      59.513  17.007  49.699  1.00  0.00     0.211 HD
ENDBRANCH  11  12
ENDBRANCH   9  11
ENDBRANCH   8   9
BRANCH   8  14
ATOM     14  O   UNL     1      57.330  16.934  50.036  1.00  0.00    -0.382 OA
ATOM     15  H   UNL     1      58.133  16.365  50.170  1.00  0.00     0.211 HD
ENDBRANCH   8  14
ENDBRANCH   1   8
BRANCH   1  16
ATOM     16  O   UNL     1      55.098  18.208  50.261  1.00  0.00    -0.387 OA
ATOM     17  H   UNL     1      54.748  18.798  49.544  1.00  0.00     0.211 HD
ENDBRANCH   1  16
TORSDOF 10
ENDMDL
MODEL 4
REMARK VINA RESULT:    -3.782      1.259      4.401
REMARK INTER + INTRA:          -5.913
REMARK INTER:                  -4.806
REMARK INTRA:                  -1.107
REMARK UNBOUND:                -0.473
REMARK SMILES O=C(CO)[C@H](O)[C@@H](O)[C@@H](O)CO
REMARK SMILES IDX 7 1 9 2 11 3 12 4 10 6 5 8 2 9 1 10 3 11 4 12 6 14 8 16
REMARK H PARENT 12 5 10 7 4 13 6 15 8 17
REMARK Flexibility Score: inf
ROOT
ATOM      1  C   UNL     1      70.951  33.777  59.216  1.00  0.00     0.181 C 
ENDROOT
BRANCH   1   2
ATOM      2  C   UNL     1      71.049  32.242  59.413  1.00  0.00     0.171 C 
BRANCH   2   3
ATOM      3  C   UNL     1      72.224  31.821  60.312  1.00  0.00     0.190 C 
BRANCH   3   4
ATOM      4  O   UNL     1      71.812  31.748  61.651  1.00  0.00    -0.394 OA
ATOM      5  H   UNL     1      70.831  31.904  61.660  1.00  0.00     0.210 HD
ENDBRANCH   3   4
ENDBRANCH   2   3
BRANCH   2   6
ATOM      6  O   UNL     1      71.192  31.624  58.159  1.00  0.00    -0.388 OA
ATOM      7  H   UNL     1      70.301  31.642  57.723  1.00  0.00     0.211 HD
ENDBRANCH   2   6
ENDBRANCH   1   2
BRANCH   1   8
ATOM      8  C   UNL     1      69.957  34.184  58.100  1.00  0.00     0.214 C 
BRANCH   8   9
ATOM      9  C   UNL     1      69.655  35.666  58.165  1.00  0.00     0.189 C 
ATOM     10  O   UNL     1      70.565  36.467  58.009  1.00  0.00    -0.294 OA
BRANCH   9  11
ATOM     11  C   UNL     1      68.271  36.183  58.449  1.00  0.00     0.234 C 
BRANCH  11  12
ATOM     12  O   UNL     1      67.945  35.929  59.787  1.00  0.00    -0.388 OA
ATOM     13  H   UNL     1      68.621  36.411  60.330  1.00  0.00     0.211 HD
ENDBRANCH  11  12
ENDBRANCH   9  11
ENDBRANCH   8   9
BRANCH   8  14
ATOM     14  O   UNL     1      68.766  33.445  58.209  1.00  0.00    -0.382 OA
ATOM     15  H   UNL     1      68.802  32.969  59.080  1.00  0.00     0.211 HD
ENDBRANCH   8  14
ENDBRANCH   1   8
BRANCH   1  16
ATOM     16  O   UNL     1      70.607  34.391  60.434  1.00  0.00    -0.387 OA
ATOM     17  H   UNL     1      70.788  35.361  60.337  1.00  0.00     0.211 HD
ENDBRANCH   1  16
TORSDOF 10
ENDMDL
MODEL 5
REMARK VINA RESULT:    -3.755      1.225      4.178
REMARK INTER + INTRA:          -5.875
REMARK INTER:                  -4.671
REMARK INTRA:                  -1.204
REMARK UNBOUND:                -0.473
REMARK SMILES O=C(CO)[C@H](O)[C@@H](O)[C@@H](O)CO
REMARK SMILES IDX 7 1 9 2 11 3 12 4 10 6 5 8 2 9 1 10 3 11 4 12 6 14 8 16
REMARK H PARENT 12 5 10 7 4 13 6 15 8 17
REMARK Flexibility Score: inf
ROOT
ATOM      1  C   UNL     1      70.709  34.298  58.848  1.00  0.00     0.181 C 
ENDROOT
BRANCH   1   2
ATOM      2  C   UNL     1      71.228  34.310  60.309  1.00  0.00     0.171 C 
BRANCH   2   3
ATOM      3  C   UNL     1      71.553  32.907  60.848  1.00  0.00     0.190 C 
BRANCH   3   4
ATOM      4  O   UNL     1      70.906  31.928  60.080  1.00  0.00    -0.394 OA
ATOM      5  H   UNL     1      71.337  31.060  60.295  1.00  0.00     0.210 HD
ENDBRANCH   3   4
ENDBRANCH   2   3
BRANCH   2   6
ATOM      6  O   UNL     1      70.259  34.902  61.137  1.00  0.00    -0.388 OA
ATOM      7  H   UNL     1      69.407  34.909  60.629  1.00  0.00     0.211 HD
ENDBRANCH   2   6
ENDBRANCH   1   2
BRANCH   1   8
ATOM      8  C   UNL     1      70.369  35.711  58.311  1.00  0.00     0.214 C 
BRANCH   8   9
ATOM      9  C   UNL     1      70.616  35.792  56.820  1.00  0.00     0.189 C 
ATOM     10  O   UNL     1      69.891  35.165  56.061  1.00  0.00    -0.294 OA
BRANCH   9  11
ATOM     11  C   UNL     1      71.750  36.596  56.245  1.00  0.00     0.234 C 
BRANCH  11  12
ATOM     12  O   UNL     1      72.966  36.093  56.724  1.00  0.00    -0.388 OA
ATOM     13  H   UNL     1      72.814  35.130  56.903  1.00  0.00     0.211 HD
ENDBRANCH  11  12
ENDBRANCH   9  11
ENDBRANCH   8   9
BRANCH   8  14
ATOM     14  O   UNL     1      71.131  36.686  58.979  1.00  0.00    -0.382 OA
ATOM     15  H   UNL     1      71.657  36.213  59.676  1.00  0.00     0.211 HD
ENDBRANCH   8  14
ENDBRANCH   1   8
BRANCH   1  16
ATOM     16  O   UNL     1      71.650  33.665  58.016  1.00  0.00    -0.387 OA
ATOM     17  H   UNL     1      72.052  34.365  57.439  1.00  0.00     0.211 HD
ENDBRANCH   1  16
TORSDOF 10
ENDMDL
MODEL 6
REMARK VINA RESULT:    -3.751     16.848     18.030
REMARK INTER + INTRA:          -5.869
REMARK INTER:                  -4.691
REMARK INTRA:                  -1.178
REMARK UNBOUND:                -0.473
REMARK SMILES O=C(CO)[C@H](O)[C@@H](O)[C@@H](O)CO
REMARK SMILES IDX 7 1 9 2 11 3 12 4 10 6 5 8 2 9 1 10 3 11 4 12 6 14 8 16
REMARK H PARENT 12 5 10 7 4 13 6 15 8 17
REMARK Flexibility Score: inf
ROOT
ATOM      1  C   UNL     1      55.068  25.869  63.009  1.00  0.00     0.181 C 
ENDROOT
BRANCH   1   2
ATOM      2  C   UNL     1      54.902  25.755  64.547  1.00  0.00     0.171 C 
BRANCH   2   3
ATOM      3  C   UNL     1      54.453  24.357  65.006  1.00  0.00     0.190 C 
BRANCH   3   4
ATOM      4  O   UNL     1      55.549  23.481  65.042  1.00  0.00    -0.394 OA
ATOM      5  H   UNL     1      55.871  23.384  64.108  1.00  0.00     0.210 HD
ENDBRANCH   3   4
ENDBRANCH   2   3
BRANCH   2   6
ATOM      6  O   UNL     1      53.956  26.700  64.980  1.00  0.00    -0.388 OA
ATOM      7  H   UNL     1      53.909  26.632  65.969  1.00  0.00     0.211 HD
ENDBRANCH   2   6
ENDBRANCH   1   2
BRANCH   1   8
ATOM      8  C   UNL     1      55.446  27.297  62.543  1.00  0.00     0.214 C 
BRANCH   8   9
ATOM      9  C   UNL     1      56.500  27.245  61.459  1.00  0.00     0.189 C 
ATOM     10  O   UNL     1      56.194  26.835  60.349  1.00  0.00    -0.294 OA
BRANCH   9  11
ATOM     11  C   UNL     1      57.925  27.654  61.716  1.00  0.00     0.234 C 
BRANCH  11  12
ATOM     12  O   UNL     1      58.486  26.805  62.677  1.00  0.00    -0.388 OA
ATOM     13  H   UNL     1      58.938  26.079  62.173  1.00  0.00     0.211 HD
ENDBRANCH  11  12
ENDBRANCH   9  11
ENDBRANCH   8   9
BRANCH   8  14
ATOM     14  O   UNL     1      55.908  28.062  63.628  1.00  0.00    -0.382 OA
ATOM     15  H   UNL     1      56.481  28.780  63.251  1.00  0.00     0.211 HD
ENDBRANCH   8  14
ENDBRANCH   1   8
BRANCH   1  16
ATOM     16  O   UNL     1      56.022  24.934  62.566  1.00  0.00    -0.387 OA
ATOM     17  H   UNL     1      55.528  24.203  62.112  1.00  0.00     0.211 HD
ENDBRANCH   1  16
TORSDOF 10
ENDMDL
MODEL 7
REMARK VINA RESULT:    -3.705     12.598     13.565
REMARK INTER + INTRA:          -5.803
REMARK INTER:                  -4.609
REMARK INTRA:                  -1.194
REMARK UNBOUND:                -0.473
REMARK SMILES O=C(CO)[C@H](O)[C@@H](O)[C@@H](O)CO
REMARK SMILES IDX 7 1 9 2 11 3 12 4 10 6 5 8 2 9 1 10 3 11 4 12 6 14 8 16
REMARK H PARENT 12 5 10 7 4 13 6 15 8 17
REMARK Flexibility Score: inf
ROOT
ATOM      1  C   UNL     1      63.568  31.522  49.437  1.00  0.00     0.181 C 
ENDROOT
BRANCH   1   2
ATOM      2  C   UNL     1      62.257  32.343  49.310  1.00  0.00     0.171 C 
BRANCH   2   3
ATOM      3  C   UNL     1      62.498  33.814  48.930  1.00  0.00     0.190 C 
BRANCH   3   4
ATOM      4  O   UNL     1      62.549  33.954  47.535  1.00  0.00    -0.394 OA
ATOM      5  H   UNL     1      61.650  33.714  47.188  1.00  0.00     0.210 HD
ENDBRANCH   3   4
ENDBRANCH   2   3
BRANCH   2   6
ATOM      6  O   UNL     1      61.565  32.297  50.533  1.00  0.00    -0.388 OA
ATOM      7  H   UNL     1      60.647  31.978  50.334  1.00  0.00     0.211 HD
ENDBRANCH   2   6
ENDBRANCH   1   2
BRANCH   1   8
ATOM      8  C   UNL     1      63.319  30.021  49.727  1.00  0.00     0.214 C 
BRANCH   8   9
ATOM      9  C   UNL     1      64.400  29.168  49.099  1.00  0.00     0.189 C 
ATOM     10  O   UNL     1      65.536  29.218  49.548  1.00  0.00    -0.294 OA
BRANCH   9  11
ATOM     11  C   UNL     1      64.124  28.283  47.914  1.00  0.00     0.234 C 
BRANCH  11  12
ATOM     12  O   UNL     1      63.841  29.077  46.796  1.00  0.00    -0.388 OA
ATOM     13  H   UNL     1      64.687  29.140  46.282  1.00  0.00     0.211 HD
ENDBRANCH  11  12
ENDBRANCH   9  11
ENDBRANCH   8   9
BRANCH   8  14
ATOM     14  O   UNL     1      62.057  29.631  49.248  1.00  0.00    -0.382 OA
ATOM     15  H   UNL     1      62.217  28.977  48.518  1.00  0.00     0.211 HD
ENDBRANCH   8  14
ENDBRANCH   1   8
BRANCH   1  16
ATOM     16  O   UNL     1      64.340  31.681  48.272  1.00  0.00    -0.387 OA
ATOM     17  H   UNL     1      64.795  32.560  48.337  1.00  0.00     0.211 HD
ENDBRANCH   1  16
TORSDOF 10
ENDMDL
MODEL 8
REMARK VINA RESULT:    -3.656     10.857     11.918
REMARK INTER + INTRA:          -5.733
REMARK INTER:                  -4.426
REMARK INTRA:                  -1.306
REMARK UNBOUND:                -0.473
REMARK SMILES O=C(CO)[C@H](O)[C@@H](O)[C@@H](O)CO
REMARK SMILES IDX 7 1 9 2 11 3 12 4 10 6 5 8 2 9 1 10 3 11 4 12 6 14 8 16
REMARK H PARENT 12 5 10 7 4 13 6 15 8 17
REMARK Flexibility Score: inf
ROOT
ATOM      1  C   UNL     1      62.212  28.835  60.911  1.00  0.00     0.181 C 
ENDROOT
BRANCH   1   2
ATOM      2  C   UNL     1      62.393  29.872  62.050  1.00  0.00     0.171 C 
BRANCH   2   3
ATOM      3  C   UNL     1      61.599  31.170  61.819  1.00  0.00     0.190 C 
BRANCH   3   4
ATOM      4  O   UNL     1      60.265  31.002  62.219  1.00  0.00    -0.394 OA
ATOM      5  H   UNL     1      60.252  30.261  62.880  1.00  0.00     0.210 HD
ENDBRANCH   3   4
ENDBRANCH   2   3
BRANCH   2   6
ATOM      6  O   UNL     1      63.756  30.189  62.173  1.00  0.00    -0.388 OA
ATOM      7  H   UNL     1      64.177  29.462  62.701  1.00  0.00     0.211 HD
ENDBRANCH   2   6
ENDBRANCH   1   2
BRANCH   1   8
ATOM      8  C   UNL     1      61.614  27.492  61.401  1.00  0.00     0.214 C 
BRANCH   8   9
ATOM      9  C   UNL     1      60.317  27.189  60.682  1.00  0.00     0.189 C 
ATOM     10  O   UNL     1      60.355  26.780  59.531  1.00  0.00    -0.294 OA
BRANCH   9  11
ATOM     11  C   UNL     1      58.978  27.409  61.333  1.00  0.00     0.234 C 
BRANCH  11  12
ATOM     12  O   UNL     1      58.825  28.767  61.636  1.00  0.00    -0.388 OA
ATOM     13  H   UNL     1      58.774  28.824  62.625  1.00  0.00     0.211 HD
ENDBRANCH  11  12
ENDBRANCH   9  11
ENDBRANCH   8   9
BRANCH   8  14
ATOM     14  O   UNL     1      61.398  27.528  62.790  1.00  0.00    -0.382 OA
ATOM     15  H   UNL     1      62.293  27.520  63.220  1.00  0.00     0.211 HD
ENDBRANCH   8  14
ENDBRANCH   1   8
BRANCH   1  16
ATOM     16  O   UNL     1      61.418  29.387  59.889  1.00  0.00    -0.387 OA
ATOM     17  H   UNL     1      60.582  29.715  60.310  1.00  0.00     0.211 HD
ENDBRANCH   1  16
TORSDOF 10
ENDMDL
MODEL 9
REMARK VINA RESULT:    -3.599      1.658      2.801
REMARK INTER + INTRA:          -5.650
REMARK INTER:                  -4.403
REMARK INTRA:                  -1.247
REMARK UNBOUND:                -0.473
REMARK SMILES O=C(CO)[C@H](O)[C@@H](O)[C@@H](O)CO
REMARK SMILES IDX 7 1 9 2 11 3 12 4 10 6 5 8 2 9 1 10 3 11 4 12 6 14 8 16
REMARK H PARENT 12 5 10 7 4 13 6 15 8 17
REMARK Flexibility Score: inf
ROOT
ATOM      1  C   UNL     1      69.386  34.288  57.529  1.00  0.00     0.181 C 
ENDROOT
BRANCH   1   2
ATOM      2  C   UNL     1      69.160  35.805  57.760  1.00  0.00     0.171 C 
BRANCH   2   3
ATOM      3  C   UNL     1      67.825  36.120  58.456  1.00  0.00     0.190 C 
BRANCH   3   4
ATOM      4  O   UNL     1      67.947  35.948  59.842  1.00  0.00    -0.394 OA
ATOM      5  H   UNL     1      67.295  35.245  60.104  1.00  0.00     0.210 HD
ENDBRANCH   3   4
ENDBRANCH   2   3
BRANCH   2   6
ATOM      6  O   UNL     1      69.195  36.470  56.522  1.00  0.00    -0.388 OA
ATOM      7  H   UNL     1      69.933  36.065  55.995  1.00  0.00     0.211 HD
ENDBRANCH   2   6
ENDBRANCH   1   2
BRANCH   1   8
ATOM      8  C   UNL     1      70.818  33.825  57.893  1.00  0.00     0.214 C 
BRANCH   8   9
ATOM      9  C   UNL     1      70.821  33.075  59.208  1.00  0.00     0.189 C 
ATOM     10  O   UNL     1      70.399  31.929  59.241  1.00  0.00    -0.294 OA
BRANCH   9  11
ATOM     11  C   UNL     1      71.299  33.712  60.484  1.00  0.00     0.234 C 
BRANCH  11  12
ATOM     12  O   UNL     1      70.523  34.845  60.758  1.00  0.00    -0.388 OA
ATOM     13  H   UNL     1      70.955  35.597  60.277  1.00  0.00     0.211 HD
ENDBRANCH  11  12
ENDBRANCH   9  11
ENDBRANCH   8   9
BRANCH   8  14
ATOM     14  O   UNL     1      71.688  34.927  57.965  1.00  0.00    -0.382 OA
ATOM     15  H   UNL     1      72.508  34.679  57.463  1.00  0.00     0.211 HD
ENDBRANCH   8  14
ENDBRANCH   1   8
BRANCH   1  16
ATOM     16  O   UNL     1      68.428  33.552  58.251  1.00  0.00    -0.387 OA
ATOM     17  H   UNL     1      68.099  34.135  58.983  1.00  0.00     0.211 HD
ENDBRANCH   1  16
TORSDOF 10
ENDMDL
