MODEL 1
REMARK VINA RESULT:    -3.832      0.000      0.000
REMARK INTER + INTRA:          -5.669
REMARK INTER:                  -5.401
REMARK INTRA:                  -0.268
REMARK UNBOUND:                -0.268
REMARK SMILES CC1=CCC(=C(C)C)C(=O)CC(C)=CCC1
REMARK SMILES IDX 12 1 14 2 13 3 15 4 16 5 2 6 1 7 3 8 11 10 9 11 10 12 5 13
REMARK SMILES IDX 6 14 7 15 8 16 4 17
REMARK H PARENT
REMARK Flexibility Score: 60.00
ROOT
ATOM      1  C   UNL     1      10.617  31.455 -13.333  1.00  0.00    -0.070 C 
ATOM      2  C   UNL     1      10.471  32.484 -14.199  1.00  0.00    -0.027 C 
ATOM      3  C   UNL     1       9.738  30.246 -13.546  1.00  0.00     0.039 C 
ENDROOT
BRANCH   2   4
ATOM      4  C   UNL     1      11.265  33.765 -14.210  1.00  0.00     0.032 C 
BRANCH   4   5
ATOM      5  C   UNL     1      10.522  35.005 -13.657  1.00  0.00     0.034 C 
BRANCH   5   6
ATOM      6  C   UNL     1      10.904  35.424 -12.244  1.00  0.00    -0.077 C 
ATOM      7  C   UNL     1      11.912  36.537 -12.095  1.00  0.00     0.039 C 
ATOM      8  C   UNL     1      10.453  34.836 -11.101  1.00  0.00    -0.023 CG0
ATOM      9  G   UNL     1       9.348  33.809 -10.902  1.00  0.00     0.000 G0
ENDBRANCH   5   6
ENDBRANCH   4   5
ENDBRANCH   2   4
BRANCH   1  10
ATOM     10  C   UNL     1      11.631  31.406 -12.195  1.00  0.00     0.111 C 
BRANCH  10  11
ATOM     11  C   UNL     1      11.187  31.973 -10.867  1.00  0.00     0.163 C 
ATOM     12  O   UNL     1      12.081  32.108  -9.988  1.00  0.00    -0.294 OA
BRANCH  11  13
ATOM     13  C   UNL     1       9.767  32.384 -10.562  1.00  0.00    -0.002 C 
ATOM     14  C   UNL     1       8.884  31.542  -9.938  1.00  0.00    -0.069 C 
ATOM     15  C   UNL     1       7.504  32.010  -9.529  1.00  0.00     0.039 C 
ATOM     16  C   UNL     1       9.215  30.094  -9.653  1.00  0.00     0.039 C 
BRANCH  13  17
ATOM     17  C   UNL     1       9.341  33.803 -10.910  1.00  0.00     0.066 CG0
ATOM     18  G   UNL     1      10.451  34.824 -11.106  1.00  0.00     0.000 G0
ENDBRANCH  13  17
ENDBRANCH  11  13
ENDBRANCH  10  11
ENDBRANCH   1  10
TORSDOF 0
ENDMDL
MODEL 2
REMARK VINA RESULT:    -3.548      1.893      4.472
REMARK INTER + INTRA:          -5.268
REMARK INTER:                  -5.047
REMARK INTRA:                  -0.221
REMARK UNBOUND:                -0.268
REMARK SMILES CC1=CCC(=C(C)C)C(=O)CC(C)=CCC1
REMARK SMILES IDX 12 1 14 2 13 3 15 4 16 5 2 6 1 7 3 8 11 10 9 11 10 12 5 13
REMARK SMILES IDX 6 14 7 15 8 16 4 17
REMARK H PARENT
REMARK Flexibility Score: 60.00
ROOT
ATOM      1  C   UNL     1      12.426  33.987 -14.324  1.00  0.00    -0.070 C 
ATOM      2  C   UNL     1      11.985  32.713 -14.214  1.00  0.00    -0.027 C 
ATOM      3  C   UNL     1      12.321  34.637 -15.682  1.00  0.00     0.039 C 
ENDROOT
BRANCH   2   4
ATOM      4  C   UNL     1      11.949  31.882 -12.956  1.00  0.00     0.032 C 
BRANCH   4   5
ATOM      5  C   UNL     1      10.568  31.795 -12.264  1.00  0.00     0.034 C 
BRANCH   5   6
ATOM      6  C   UNL     1      10.333  32.791 -11.137  1.00  0.00    -0.077 C 
ATOM      7  C   UNL     1      10.621  32.333  -9.728  1.00  0.00     0.039 C 
ATOM      8  C   UNL     1       9.827  34.047 -11.291  1.00  0.00    -0.023 CG0
ATOM      9  G   UNL     1       9.573  34.847 -12.560  1.00  0.00     0.000 G0
ENDBRANCH   5   6
ENDBRANCH   4   5
ENDBRANCH   2   4
BRANCH   1  10
ATOM     10  C   UNL     1      12.973  34.825 -13.173  1.00  0.00     0.111 C 
BRANCH  10  11
ATOM     11  C   UNL     1      12.002  35.768 -12.501  1.00  0.00     0.163 C 
ATOM     12  O   UNL     1      12.452  36.439 -11.532  1.00  0.00    -0.294 OA
BRANCH  11  13
ATOM     13  C   UNL     1      10.568  35.945 -12.934  1.00  0.00    -0.002 C 
ATOM     14  C   UNL     1      10.163  37.015 -13.689  1.00  0.00    -0.069 C 
ATOM     15  C   UNL     1       8.749  37.116 -14.219  1.00  0.00     0.039 C 
ATOM     16  C   UNL     1      11.084  38.171 -14.008  1.00  0.00     0.039 C 
BRANCH  13  17
ATOM     17  C   UNL     1       9.567  34.860 -12.565  1.00  0.00     0.066 CG0
ATOM     18  G   UNL     1       9.845  34.075 -11.292  1.00  0.00     0.000 G0
ENDBRANCH  13  17
ENDBRANCH  11  13
ENDBRANCH  10  11
ENDBRANCH   1  10
TORSDOF 0
ENDMDL
MODEL 3
REMARK VINA RESULT:    -3.501      1.335      4.144
REMARK INTER + INTRA:          -5.202
REMARK INTER:                  -5.004
REMARK INTRA:                  -0.198
REMARK UNBOUND:                -0.268
REMARK SMILES CC1=CCC(=C(C)C)C(=O)CC(C)=CCC1
REMARK SMILES IDX 12 1 14 2 13 3 15 4 16 5 2 6 1 7 3 8 11 10 9 11 10 12 5 13
REMARK SMILES IDX 6 14 7 15 8 16 4 17
REMARK H PARENT
REMARK Flexibility Score: 60.00
ROOT
ATOM      1  C   UNL     1      10.382  31.485 -13.249  1.00  0.00    -0.070 C 
ATOM      2  C   UNL     1       9.455  30.542 -13.533  1.00  0.00    -0.027 C 
ATOM      3  C   UNL     1      10.351  32.750 -14.072  1.00  0.00     0.039 C 
ENDROOT
BRANCH   2   4
ATOM      4  C   UNL     1       9.266  29.227 -12.819  1.00  0.00     0.032 C 
BRANCH   4   5
ATOM      5  C   UNL     1       8.236  29.247 -11.665  1.00  0.00     0.034 C 
BRANCH   5   6
ATOM      6  C   UNL     1       8.813  29.464 -10.272  1.00  0.00    -0.077 C 
ATOM      7  C   UNL     1       9.288  28.247  -9.516  1.00  0.00     0.039 C 
ATOM      8  C   UNL     1       8.882  30.662  -9.628  1.00  0.00    -0.023 CG0
ATOM      9  G   UNL     1       8.626  32.067 -10.153  1.00  0.00     0.000 G0
ENDBRANCH   5   6
ENDBRANCH   4   5
ENDBRANCH   2   4
BRANCH   1  10
ATOM     10  C   UNL     1      11.418  31.385 -12.134  1.00  0.00     0.111 C 
BRANCH  10  11
ATOM     11  C   UNL     1      11.123  32.152 -10.866  1.00  0.00     0.163 C 
ATOM     12  O   UNL     1      12.035  32.167  -9.995  1.00  0.00    -0.294 OA
BRANCH  11  13
ATOM     13  C   UNL     1       9.831  32.888 -10.611  1.00  0.00    -0.002 C 
ATOM     14  C   UNL     1       9.709  34.237 -10.821  1.00  0.00    -0.069 C 
ATOM     15  C   UNL     1       8.375  34.939 -10.679  1.00  0.00     0.039 C 
ATOM     16  C   UNL     1      10.894  35.109 -11.169  1.00  0.00     0.039 C 
BRANCH  13  17
ATOM     17  C   UNL     1       8.620  32.080 -10.167  1.00  0.00     0.066 CG0
ATOM     18  G   UNL     1       8.886  30.674  -9.651  1.00  0.00     0.000 G0
ENDBRANCH  13  17
ENDBRANCH  11  13
ENDBRANCH  10  11
ENDBRANCH   1  10
TORSDOF 0
ENDMDL
MODEL 4
REMARK VINA RESULT:    -3.496      1.547      2.845
REMARK INTER + INTRA:          -5.195
REMARK INTER:                  -5.087
REMARK INTRA:                  -0.108
REMARK UNBOUND:                -0.268
REMARK SMILES CC1=CCC(=C(C)C)C(=O)CC(C)=CCC1
REMARK SMILES IDX 12 1 14 2 13 3 15 4 16 5 2 6 1 7 3 8 11 10 9 11 10 12 5 13
REMARK SMILES IDX 6 14 7 15 8 16 4 17
REMARK H PARENT
REMARK Flexibility Score: 60.00
ROOT
ATOM      1  C   UNL     1      11.103  33.555 -14.487  1.00  0.00    -0.070 C 
ATOM      2  C   UNL     1      10.772  34.826 -14.162  1.00  0.00    -0.027 C 
ATOM      3  C   UNL     1      12.024  33.365 -15.667  1.00  0.00     0.039 C 
ENDROOT
BRANCH   2   4
ATOM      4  C   UNL     1       9.908  35.258 -13.003  1.00  0.00     0.032 C 
BRANCH   4   5
ATOM      5  C   UNL     1      10.506  34.990 -11.601  1.00  0.00     0.034 C 
BRANCH   5   6
ATOM      6  C   UNL     1       9.612  34.216 -10.643  1.00  0.00    -0.077 C 
ATOM      7  C   UNL     1       8.249  34.789 -10.341  1.00  0.00     0.039 C 
ATOM      8  C   UNL     1       9.966  33.075  -9.987  1.00  0.00    -0.023 CG0
ATOM      9  G   UNL     1      11.183  32.181 -10.173  1.00  0.00     0.000 G0
ENDBRANCH   5   6
ENDBRANCH   4   5
ENDBRANCH   2   4
BRANCH   1  10
ATOM     10  C   UNL     1      10.657  32.312 -13.724  1.00  0.00     0.111 C 
BRANCH  10  11
ATOM     11  C   UNL     1      11.620  31.767 -12.695  1.00  0.00     0.163 C 
ATOM     12  O   UNL     1      12.843  31.799 -13.000  1.00  0.00    -0.294 OA
BRANCH  11  13
ATOM     13  C   UNL     1      11.195  31.217 -11.356  1.00  0.00    -0.002 C 
ATOM     14  C   UNL     1      10.871  29.897 -11.181  1.00  0.00    -0.069 C 
ATOM     15  C   UNL     1      10.566  29.335  -9.809  1.00  0.00     0.039 C 
ATOM     16  C   UNL     1      10.762  28.933 -12.342  1.00  0.00     0.039 C 
BRANCH  13  17
ATOM     17  C   UNL     1      11.192  32.159 -10.161  1.00  0.00     0.066 CG0
ATOM     18  G   UNL     1       9.975  33.057  -9.998  1.00  0.00     0.000 G0
ENDBRANCH  13  17
ENDBRANCH  11  13
ENDBRANCH  10  11
ENDBRANCH   1  10
TORSDOF 0
ENDMDL
MODEL 5
REMARK VINA RESULT:    -3.469     15.268     16.806
REMARK INTER + INTRA:          -5.157
REMARK INTER:                  -5.965
REMARK INTRA:                   0.808
REMARK UNBOUND:                -0.268
REMARK SMILES CC1=CCC(=C(C)C)C(=O)CC(C)=CCC1
REMARK SMILES IDX 12 1 14 2 13 3 15 4 16 5 2 6 1 7 3 8 11 10 9 11 10 12 5 13
REMARK SMILES IDX 6 14 7 15 8 16 4 17
REMARK H PARENT
REMARK Flexibility Score: 60.00
ROOT
ATOM      1  C   UNL     1      -1.675  31.884 -25.540  1.00  0.00    -0.070 C 
ATOM      2  C   UNL     1      -1.005  32.441 -26.575  1.00  0.00    -0.027 C 
ATOM      3  C   UNL     1      -3.057  31.347 -25.825  1.00  0.00     0.039 C 
ENDROOT
BRANCH   2   4
ATOM      4  C   UNL     1       0.395  32.999 -26.540  1.00  0.00     0.032 C 
BRANCH   4   5
ATOM      5  C   UNL     1       1.336  32.486 -27.656  1.00  0.00     0.034 C 
BRANCH   5   6
ATOM      6  C   UNL     1       2.285  31.366 -27.254  1.00  0.00    -0.077 C 
ATOM      7  C   UNL     1       2.999  30.625 -28.359  1.00  0.00     0.039 C 
ATOM      8  C   UNL     1       2.499  30.938 -25.978  1.00  0.00    -0.023 CG0
ATOM      9  G   UNL     1       2.057  31.549 -24.657  1.00  0.00     0.000 G0
ENDBRANCH   5   6
ENDBRANCH   4   5
ENDBRANCH   2   4
BRANCH   1  10
ATOM     10  C   UNL     1      -1.122  31.716 -24.129  1.00  0.00     0.111 C 
BRANCH  10  11
ATOM     11  C   UNL     1      -0.207  30.536 -23.897  1.00  0.00     0.163 C 
ATOM     12  O   UNL     1      -0.753  29.399 -23.878  1.00  0.00    -0.294 OA
BRANCH  11  13
ATOM     13  C   UNL     1       1.285  30.655 -23.706  1.00  0.00    -0.002 C 
ATOM     14  C   UNL     1       1.954  29.949 -22.740  1.00  0.00    -0.069 C 
ATOM     15  C   UNL     1       3.464  29.984 -22.642  1.00  0.00     0.039 C 
ATOM     16  C   UNL     1       1.232  29.125 -21.699  1.00  0.00     0.039 C 
BRANCH  13  17
ATOM     17  C   UNL     1       2.062  31.544 -24.666  1.00  0.00     0.066 CG0
ATOM     18  G   UNL     1       2.495  30.917 -25.983  1.00  0.00     0.000 G0
ENDBRANCH  13  17
ENDBRANCH  11  13
ENDBRANCH  10  11
ENDBRANCH   1  10
TORSDOF 0
ENDMDL
MODEL 6
REMARK VINA RESULT:    -3.447      1.781      3.820
REMARK INTER + INTRA:          -5.126
REMARK INTER:                  -5.236
REMARK INTRA:                   0.109
REMARK UNBOUND:                -0.268
REMARK SMILES CC1=CCC(=C(C)C)C(=O)CC(C)=CCC1
REMARK SMILES IDX 12 1 14 2 13 3 15 4 16 5 2 6 1 7 3 8 11 10 9 11 10 12 5 13
REMARK SMILES IDX 6 14 7 15 8 16 4 17
REMARK H PARENT
REMARK Flexibility Score: 60.00
ROOT
ATOM      1  C   UNL     1      10.784  36.361 -13.800  1.00  0.00    -0.070 C 
ATOM      2  C   UNL     1      11.539  35.802 -14.774  1.00  0.00    -0.027 C 
ATOM      3  C   UNL     1      10.748  37.869 -13.737  1.00  0.00     0.039 C 
ENDROOT
BRANCH   2   4
ATOM      4  C   UNL     1      11.689  34.329 -15.056  1.00  0.00     0.032 C 
BRANCH   4   5
ATOM      5  C   UNL     1      12.482  33.532 -13.992  1.00  0.00     0.034 C 
BRANCH   5   6
ATOM      6  C   UNL     1      11.949  32.141 -13.680  1.00  0.00    -0.077 C 
ATOM      7  C   UNL     1      11.984  31.116 -14.788  1.00  0.00     0.039 C 
ATOM      8  C   UNL     1      11.389  31.761 -12.498  1.00  0.00    -0.023 CG0
ATOM      9  G   UNL     1      11.333  32.492 -11.165  1.00  0.00     0.000 G0
ENDBRANCH   5   6
ENDBRANCH   4   5
ENDBRANCH   2   4
BRANCH   1  10
ATOM     10  C   UNL     1       9.934  35.586 -12.799  1.00  0.00     0.111 C 
BRANCH  10  11
ATOM     11  C   UNL     1      10.660  34.975 -11.623  1.00  0.00     0.163 C 
ATOM     12  O   UNL     1      11.593  35.660 -11.123  1.00  0.00    -0.294 OA
BRANCH  11  13
ATOM     13  C   UNL     1      10.317  33.630 -11.031  1.00  0.00    -0.002 C 
ATOM     14  C   UNL     1       9.108  33.385 -10.434  1.00  0.00    -0.069 C 
ATOM     15  C   UNL     1       8.732  31.998  -9.956  1.00  0.00     0.039 C 
ATOM     16  C   UNL     1       8.095  34.479 -10.185  1.00  0.00     0.039 C 
BRANCH  13  17
ATOM     17  C   UNL     1      11.334  32.506 -11.166  1.00  0.00     0.066 CG0
ATOM     18  G   UNL     1      11.369  31.769 -12.496  1.00  0.00     0.000 G0
ENDBRANCH  13  17
ENDBRANCH  11  13
ENDBRANCH  10  11
ENDBRANCH   1  10
TORSDOF 0
ENDMDL
MODEL 7
REMARK VINA RESULT:    -3.350      1.688      3.876
REMARK INTER + INTRA:          -4.989
REMARK INTER:                  -4.780
REMARK INTRA:                  -0.209
REMARK UNBOUND:                -0.268
REMARK SMILES CC1=CCC(=C(C)C)C(=O)CC(C)=CCC1
REMARK SMILES IDX 12 1 14 2 13 3 15 4 16 5 2 6 1 7 3 8 11 10 9 11 10 12 5 13
REMARK SMILES IDX 6 14 7 15 8 16 4 17
REMARK H PARENT
REMARK Flexibility Score: 60.00
ROOT
ATOM      1  C   UNL     1       9.142  32.262 -10.666  1.00  0.00    -0.070 C 
ATOM      2  C   UNL     1       8.896  33.557 -10.362  1.00  0.00    -0.027 C 
ATOM      3  C   UNL     1       8.955  31.249  -9.562  1.00  0.00     0.039 C 
ENDROOT
BRANCH   2   4
ATOM      4  C   UNL     1       8.972  34.729 -11.307  1.00  0.00     0.032 C 
BRANCH   4   5
ATOM      5  C   UNL     1      10.402  35.223 -11.629  1.00  0.00     0.034 C 
BRANCH   5   6
ATOM      6  C   UNL     1      10.705  35.445 -13.104  1.00  0.00    -0.077 C 
ATOM      7  C   UNL     1      10.064  36.634 -13.778  1.00  0.00     0.039 C 
ATOM      8  C   UNL     1      11.463  34.623 -13.883  1.00  0.00    -0.023 CG0
ATOM      9  G   UNL     1      12.347  33.449 -13.490  1.00  0.00     0.000 G0
ENDBRANCH   5   6
ENDBRANCH   4   5
ENDBRANCH   2   4
BRANCH   1  10
ATOM     10  C   UNL     1       9.543  31.748 -12.044  1.00  0.00     0.111 C 
BRANCH  10  11
ATOM     11  C   UNL     1      11.022  31.562 -12.294  1.00  0.00     0.163 C 
ATOM     12  O   UNL     1      11.669  30.953 -11.400  1.00  0.00    -0.294 OA
BRANCH  11  13
ATOM     13  C   UNL     1      11.731  32.047 -13.535  1.00  0.00    -0.002 C 
ATOM     14  C   UNL     1      11.774  31.303 -14.685  1.00  0.00    -0.069 C 
ATOM     15  C   UNL     1      12.382  31.855 -15.957  1.00  0.00     0.039 C 
ATOM     16  C   UNL     1      11.254  29.885 -14.749  1.00  0.00     0.039 C 
BRANCH  13  17
ATOM     17  C   UNL     1      12.359  33.433 -13.507  1.00  0.00     0.066 CG0
ATOM     18  G   UNL     1      11.462  34.599 -13.892  1.00  0.00     0.000 G0
ENDBRANCH  13  17
ENDBRANCH  11  13
ENDBRANCH  10  11
ENDBRANCH   1  10
TORSDOF 0
ENDMDL
MODEL 8
REMARK VINA RESULT:    -3.039      1.742      4.399
REMARK INTER + INTRA:          -4.551
REMARK INTER:                  -4.398
REMARK INTRA:                  -0.153
REMARK UNBOUND:                -0.268
REMARK SMILES CC1=CCC(=C(C)C)C(=O)CC(C)=CCC1
REMARK SMILES IDX 12 1 14 2 13 3 15 4 16 5 2 6 1 7 3 8 11 10 9 11 10 12 5 13
REMARK SMILES IDX 6 14 7 15 8 16 4 17
REMARK H PARENT
REMARK Flexibility Score: 60.00
ROOT
ATOM      1  C   UNL     1       9.596  29.285 -13.565  1.00  0.00    -0.070 C 
ATOM      2  C   UNL     1       8.633  28.546 -12.967  1.00  0.00    -0.027 C 
ATOM      3  C   UNL     1      10.523  28.567 -14.515  1.00  0.00     0.039 C 
ENDROOT
BRANCH   2   4
ATOM      4  C   UNL     1       7.572  29.053 -12.023  1.00  0.00     0.032 C 
BRANCH   4   5
ATOM      5  C   UNL     1       8.030  29.236 -10.556  1.00  0.00     0.034 C 
BRANCH   5   6
ATOM      6  C   UNL     1       7.682  30.574  -9.920  1.00  0.00    -0.077 C 
ATOM      7  C   UNL     1       6.254  30.786  -9.477  1.00  0.00     0.039 C 
ATOM      8  C   UNL     1       8.541  31.621  -9.771  1.00  0.00    -0.023 CG0
ATOM      9  G   UNL     1      10.047  31.683  -9.976  1.00  0.00     0.000 G0
ENDBRANCH   5   6
ENDBRANCH   4   5
ENDBRANCH   2   4
BRANCH   1  10
ATOM     10  C   UNL     1       9.780  30.789 -13.390  1.00  0.00     0.111 C 
BRANCH  10  11
ATOM     11  C   UNL     1      10.833  31.231 -12.400  1.00  0.00     0.163 C 
ATOM     12  O   UNL     1      11.984  30.736 -12.547  1.00  0.00    -0.294 OA
BRANCH  11  13
ATOM     13  C   UNL     1      10.578  32.218 -11.287  1.00  0.00    -0.002 C 
ATOM     14  C   UNL     1      10.742  33.568 -11.461  1.00  0.00    -0.069 C 
ATOM     15  C   UNL     1      10.365  34.553 -10.375  1.00  0.00     0.039 C 
ATOM     16  C   UNL     1      11.339  34.152 -12.721  1.00  0.00     0.039 C 
BRANCH  13  17
ATOM     17  C   UNL     1      10.063  31.684  -9.959  1.00  0.00     0.066 CG0
ATOM     18  G   UNL     1       8.553  31.621  -9.785  1.00  0.00     0.000 G0
ENDBRANCH  13  17
ENDBRANCH  11  13
ENDBRANCH  10  11
ENDBRANCH   1  10
TORSDOF 0
ENDMDL
MODEL 9
REMARK VINA RESULT:    -3.020      2.082      2.987
REMARK INTER + INTRA:          -4.525
REMARK INTER:                  -4.315
REMARK INTRA:                  -0.210
REMARK UNBOUND:                -0.268
REMARK SMILES CC1=CCC(=C(C)C)C(=O)CC(C)=CCC1
REMARK SMILES IDX 12 1 14 2 13 3 15 4 16 5 2 6 1 7 3 8 11 10 9 11 10 12 5 13
REMARK SMILES IDX 6 14 7 15 8 16 4 17
REMARK H PARENT
REMARK Flexibility Score: 60.00
ROOT
ATOM      1  C   UNL     1      10.027  30.382 -13.564  1.00  0.00    -0.070 C 
ATOM      2  C   UNL     1      10.539  31.584 -13.911  1.00  0.00    -0.027 C 
ATOM      3  C   UNL     1      10.673  29.158 -14.168  1.00  0.00     0.039 C 
ENDROOT
BRANCH   2   4
ATOM      4  C   UNL     1      10.089  32.931 -13.402  1.00  0.00     0.032 C 
BRANCH   4   5
ATOM      5  C   UNL     1      11.054  33.611 -12.402  1.00  0.00     0.034 C 
BRANCH   5   6
ATOM      6  C   UNL     1      10.642  33.541 -10.938  1.00  0.00    -0.077 C 
ATOM      7  C   UNL     1       9.877  34.712 -10.371  1.00  0.00     0.039 C 
ATOM      8  C   UNL     1      10.958  32.530 -10.081  1.00  0.00    -0.023 CG0
ATOM      9  G   UNL     1      11.579  31.170 -10.363  1.00  0.00     0.000 G0
ENDBRANCH   5   6
ENDBRANCH   4   5
ENDBRANCH   2   4
BRANCH   1  10
ATOM     10  C   UNL     1       8.886  30.170 -12.575  1.00  0.00     0.111 C 
BRANCH  10  11
ATOM     11  C   UNL     1       9.228  30.299 -11.108  1.00  0.00     0.163 C 
ATOM     12  O   UNL     1       8.294  30.668 -10.346  1.00  0.00    -0.294 OA
BRANCH  11  13
ATOM     13  C   UNL     1      10.592  30.003 -10.535  1.00  0.00    -0.002 C 
ATOM     14  C   UNL     1      10.993  28.727 -10.234  1.00  0.00    -0.069 C 
ATOM     15  C   UNL     1      12.405  28.432  -9.776  1.00  0.00     0.039 C 
ATOM     16  C   UNL     1      10.049  27.548 -10.305  1.00  0.00     0.039 C 
BRANCH  13  17
ATOM     17  C   UNL     1      11.560  31.162 -10.350  1.00  0.00     0.066 CG0
ATOM     18  G   UNL     1      10.950  32.527 -10.072  1.00  0.00     0.000 G0
ENDBRANCH  13  17
ENDBRANCH  11  13
ENDBRANCH  10  11
ENDBRANCH   1  10
TORSDOF 0
ENDMDL
