MODEL 1
REMARK VINA RESULT:    -5.417      0.000      0.000
REMARK INTER + INTRA:          -6.020
REMARK INTER:                  -5.892
REMARK INTRA:                  -0.127
REMARK UNBOUND:                -0.127
REMARK SMILES Cc1ccc(C(C)C)cc1O
REMARK SMILES IDX 1 1 2 2 10 3 9 4 5 5 4 6 3 7 11 8 6 10 7 11 8 12
REMARK H PARENT 11 9
REMARK Flexibility Score: inf
ROOT
ATOM      1  C   UNL     1     -28.125 -12.876 -30.476  1.00  0.00     0.048 C 
ATOM      2  C   UNL     1     -26.882 -12.177 -30.003  1.00  0.00    -0.009 A 
ATOM      3  C   UNL     1     -26.823 -11.638 -28.705  1.00  0.00     0.118 A 
ATOM      4  C   UNL     1     -25.659 -10.987 -28.271  1.00  0.00     0.050 A 
ATOM      5  C   UNL     1     -24.544 -10.865 -29.121  1.00  0.00    -0.042 A 
ATOM      6  C   UNL     1     -24.614 -11.408 -30.415  1.00  0.00     0.004 A 
ATOM      7  C   UNL     1     -25.771 -12.057 -30.851  1.00  0.00     0.007 A 
ENDROOT
BRANCH   3   8
ATOM      8  O   UNL     1     -27.920 -11.750 -27.852  1.00  0.00    -0.508 OA
ATOM      9  H   UNL     1     -28.271 -10.956 -27.330  1.00  0.00     0.293 HD
ENDBRANCH   3   8
BRANCH   5  10
ATOM     10  C   UNL     1     -23.280 -10.163 -28.660  1.00  0.00     0.013 C 
ATOM     11  C   UNL     1     -22.116 -10.430 -29.623  1.00  0.00     0.012 C 
ATOM     12  C   UNL     1     -23.515  -8.659 -28.482  1.00  0.00     0.012 C 
ENDBRANCH   5  10
TORSDOF 2
ENDMDL
MODEL 2
REMARK VINA RESULT:    -5.282      1.277      2.403
REMARK INTER + INTRA:          -5.873
REMARK INTER:                  -5.745
REMARK INTRA:                  -0.127
REMARK UNBOUND:                -0.127
REMARK SMILES Cc1ccc(C(C)C)cc1O
REMARK SMILES IDX 1 1 2 2 10 3 9 4 5 5 4 6 3 7 11 8 6 10 7 11 8 12
REMARK H PARENT 11 9
REMARK Flexibility Score: inf
ROOT
ATOM      1  C   UNL     1     -28.125 -10.968 -27.722  1.00  0.00     0.048 C 
ATOM      2  C   UNL     1     -26.822 -11.147 -28.448  1.00  0.00    -0.009 A 
ATOM      3  C   UNL     1     -26.722 -12.064 -29.510  1.00  0.00     0.118 A 
ATOM      4  C   UNL     1     -25.502 -12.225 -30.183  1.00  0.00     0.050 A 
ATOM      5  C   UNL     1     -24.370 -11.477 -29.807  1.00  0.00    -0.042 A 
ATOM      6  C   UNL     1     -24.481 -10.564 -28.746  1.00  0.00     0.004 A 
ATOM      7  C   UNL     1     -25.695 -10.401 -28.074  1.00  0.00     0.007 A 
ENDROOT
BRANCH   3   8
ATOM      8  O   UNL     1     -27.834 -12.813 -29.893  1.00  0.00    -0.508 OA
ATOM      9  H   UNL     1     -28.390 -12.563 -30.702  1.00  0.00     0.293 HD
ENDBRANCH   3   8
BRANCH   5  10
ATOM     10  C   UNL     1     -23.046 -11.644 -30.530  1.00  0.00     0.013 C 
ATOM     11  C   UNL     1     -23.226 -11.522 -32.049  1.00  0.00     0.012 C 
ATOM     12  C   UNL     1     -22.004 -10.645 -30.015  1.00  0.00     0.012 C 
ENDBRANCH   5  10
TORSDOF 2
ENDMDL
MODEL 3
REMARK VINA RESULT:    -5.242      2.510      3.820
REMARK INTER + INTRA:          -5.829
REMARK INTER:                  -5.701
REMARK INTRA:                  -0.127
REMARK UNBOUND:                -0.127
REMARK SMILES Cc1ccc(C(C)C)cc1O
REMARK SMILES IDX 1 1 2 2 10 3 9 4 5 5 4 6 3 7 11 8 6 10 7 11 8 12
REMARK H PARENT 11 9
REMARK Flexibility Score: inf
ROOT
ATOM      1  C   UNL     1     -23.606 -12.615 -33.282  1.00  0.00     0.048 C 
ATOM      2  C   UNL     1     -24.189 -12.138 -31.983  1.00  0.00    -0.009 A 
ATOM      3  C   UNL     1     -23.347 -11.705 -30.943  1.00  0.00     0.118 A 
ATOM      4  C   UNL     1     -23.899 -11.260 -29.733  1.00  0.00     0.050 A 
ATOM      5  C   UNL     1     -25.293 -11.243 -29.544  1.00  0.00    -0.042 A 
ATOM      6  C   UNL     1     -26.126 -11.677 -30.588  1.00  0.00     0.004 A 
ATOM      7  C   UNL     1     -25.580 -12.120 -31.795  1.00  0.00     0.007 A 
ENDROOT
BRANCH   3   8
ATOM      8  O   UNL     1     -21.963 -11.717 -31.116  1.00  0.00    -0.508 OA
ATOM      9  H   UNL     1     -21.420 -12.564 -30.997  1.00  0.00     0.293 HD
ENDBRANCH   3   8
BRANCH   5  10
ATOM     10  C   UNL     1     -25.900 -10.764 -28.238  1.00  0.00     0.013 C 
ATOM     11  C   UNL     1     -26.055  -9.237 -28.228  1.00  0.00     0.012 C 
ATOM     12  C   UNL     1     -27.240 -11.456 -27.962  1.00  0.00     0.012 C 
ENDBRANCH   5  10
TORSDOF 2
ENDMDL
MODEL 4
REMARK VINA RESULT:    -5.050      1.478      2.078
REMARK INTER + INTRA:          -5.620
REMARK INTER:                  -5.506
REMARK INTRA:                  -0.114
REMARK UNBOUND:                -0.127
REMARK SMILES Cc1ccc(C(C)C)cc1O
REMARK SMILES IDX 1 1 2 2 10 3 9 4 5 5 4 6 3 7 11 8 6 10 7 11 8 12
REMARK H PARENT 11 9
REMARK Flexibility Score: inf
ROOT
ATOM      1  C   UNL     1     -28.125 -12.791 -30.420  1.00  0.00     0.048 C 
ATOM      2  C   UNL     1     -26.830 -12.155 -30.001  1.00  0.00    -0.009 A 
ATOM      3  C   UNL     1     -25.755 -12.074 -30.903  1.00  0.00     0.118 A 
ATOM      4  C   UNL     1     -24.549 -11.479 -30.504  1.00  0.00     0.050 A 
ATOM      5  C   UNL     1     -24.400 -10.960 -29.204  1.00  0.00    -0.042 A 
ATOM      6  C   UNL     1     -25.480 -11.046 -28.311  1.00  0.00     0.004 A 
ATOM      7  C   UNL     1     -26.683 -11.637 -28.705  1.00  0.00     0.007 A 
ENDROOT
BRANCH   3   8
ATOM      8  O   UNL     1     -25.887 -12.585 -32.194  1.00  0.00    -0.508 OA
ATOM      9  H   UNL     1     -25.132 -13.087 -32.647  1.00  0.00     0.293 HD
ENDBRANCH   3   8
BRANCH   5  10
ATOM     10  C   UNL     1     -23.100 -10.314 -28.763  1.00  0.00     0.013 C 
ATOM     11  C   UNL     1     -21.990 -10.542 -29.798  1.00  0.00     0.012 C 
ATOM     12  C   UNL     1     -23.291  -8.820 -28.480  1.00  0.00     0.012 C 
ENDBRANCH   5  10
TORSDOF 2
ENDMDL
MODEL 5
REMARK VINA RESULT:    -5.046      1.922      4.254
REMARK INTER + INTRA:          -5.616
REMARK INTER:                  -5.491
REMARK INTRA:                  -0.125
REMARK UNBOUND:                -0.127
REMARK SMILES Cc1ccc(C(C)C)cc1O
REMARK SMILES IDX 1 1 2 2 10 3 9 4 5 5 4 6 3 7 11 8 6 10 7 11 8 12
REMARK H PARENT 11 9
REMARK Flexibility Score: inf
ROOT
ATOM      1  C   UNL     1     -21.775 -10.342 -30.607  1.00  0.00     0.048 C 
ATOM      2  C   UNL     1     -23.158 -10.703 -30.147  1.00  0.00    -0.009 A 
ATOM      3  C   UNL     1     -23.643 -10.230 -28.915  1.00  0.00     0.118 A 
ATOM      4  C   UNL     1     -24.936 -10.572 -28.493  1.00  0.00     0.050 A 
ATOM      5  C   UNL     1     -25.759 -11.387 -29.291  1.00  0.00    -0.042 A 
ATOM      6  C   UNL     1     -25.267 -11.855 -30.521  1.00  0.00     0.004 A 
ATOM      7  C   UNL     1     -23.979 -11.515 -30.944  1.00  0.00     0.007 A 
ENDROOT
BRANCH   3   8
ATOM      8  O   UNL     1     -22.838  -9.422 -28.112  1.00  0.00    -0.508 OA
ATOM      9  H   UNL     1     -22.872  -9.473 -27.101  1.00  0.00     0.293 HD
ENDBRANCH   3   8
BRANCH   5  10
ATOM     10  C   UNL     1     -27.160 -11.762 -28.844  1.00  0.00     0.013 C 
ATOM     11  C   UNL     1     -27.696 -10.763 -27.810  1.00  0.00     0.012 C 
ATOM     12  C   UNL     1     -28.111 -11.881 -30.040  1.00  0.00     0.012 C 
ENDBRANCH   5  10
TORSDOF 2
ENDMDL
MODEL 6
REMARK VINA RESULT:    -5.023      2.386      4.757
REMARK INTER + INTRA:          -5.591
REMARK INTER:                  -5.467
REMARK INTRA:                  -0.123
REMARK UNBOUND:                -0.127
REMARK SMILES Cc1ccc(C(C)C)cc1O
REMARK SMILES IDX 1 1 2 2 10 3 9 4 5 5 4 6 3 7 11 8 6 10 7 11 8 12
REMARK H PARENT 11 9
REMARK Flexibility Score: inf
ROOT
ATOM      1  C   UNL     1     -21.046 -10.256 -31.127  1.00  0.00     0.048 C 
ATOM      2  C   UNL     1     -22.380 -10.746 -30.642  1.00  0.00    -0.009 A 
ATOM      3  C   UNL     1     -23.245 -11.430 -31.515  1.00  0.00     0.118 A 
ATOM      4  C   UNL     1     -24.489 -11.885 -31.053  1.00  0.00     0.050 A 
ATOM      5  C   UNL     1     -24.885 -11.665 -29.721  1.00  0.00    -0.042 A 
ATOM      6  C   UNL     1     -24.014 -10.982 -28.857  1.00  0.00     0.004 A 
ATOM      7  C   UNL     1     -22.774 -10.528 -29.313  1.00  0.00     0.007 A 
ENDROOT
BRANCH   3   8
ATOM      8  O   UNL     1     -22.867 -11.654 -32.838  1.00  0.00    -0.508 OA
ATOM      9  H   UNL     1     -22.518 -12.554 -33.146  1.00  0.00     0.293 HD
ENDBRANCH   3   8
BRANCH   5  10
ATOM     10  C   UNL     1     -26.229 -12.155 -29.213  1.00  0.00     0.013 C 
ATOM     11  C   UNL     1     -26.896 -11.105 -28.314  1.00  0.00     0.012 C 
ATOM     12  C   UNL     1     -27.148 -12.553 -30.372  1.00  0.00     0.012 C 
ENDBRANCH   5  10
TORSDOF 2
ENDMDL
MODEL 7
REMARK VINA RESULT:    -4.983      2.200      3.527
REMARK INTER + INTRA:          -5.548
REMARK INTER:                  -5.449
REMARK INTRA:                  -0.099
REMARK UNBOUND:                -0.127
REMARK SMILES Cc1ccc(C(C)C)cc1O
REMARK SMILES IDX 1 1 2 2 10 3 9 4 5 5 4 6 3 7 11 8 6 10 7 11 8 12
REMARK H PARENT 11 9
REMARK Flexibility Score: inf
ROOT
ATOM      1  C   UNL     1     -27.005 -11.782 -28.328  1.00  0.00     0.048 C 
ATOM      2  C   UNL     1     -26.133 -11.830 -29.550  1.00  0.00    -0.009 A 
ATOM      3  C   UNL     1     -26.618 -12.389 -30.746  1.00  0.00     0.118 A 
ATOM      4  C   UNL     1     -25.798 -12.430 -31.883  1.00  0.00     0.050 A 
ATOM      5  C   UNL     1     -24.488 -11.917 -31.842  1.00  0.00    -0.042 A 
ATOM      6  C   UNL     1     -24.013 -11.361 -30.643  1.00  0.00     0.004 A 
ATOM      7  C   UNL     1     -24.827 -11.318 -29.509  1.00  0.00     0.007 A 
ENDROOT
BRANCH   3   8
ATOM      8  O   UNL     1     -27.914 -12.902 -30.800  1.00  0.00    -0.508 OA
ATOM      9  H   UNL     1     -28.388 -13.240 -29.971  1.00  0.00     0.293 HD
ENDBRANCH   3   8
BRANCH   5  10
ATOM     10  C   UNL     1     -23.594 -11.957 -33.067  1.00  0.00     0.013 C 
ATOM     11  C   UNL     1     -23.583 -13.355 -33.699  1.00  0.00     0.012 C 
ATOM     12  C   UNL     1     -24.008 -10.893 -34.090  1.00  0.00     0.012 C 
ENDBRANCH   5  10
TORSDOF 2
ENDMDL
MODEL 8
REMARK VINA RESULT:    -4.974      1.938      3.421
REMARK INTER + INTRA:          -5.538
REMARK INTER:                  -5.425
REMARK INTRA:                  -0.113
REMARK UNBOUND:                -0.127
REMARK SMILES Cc1ccc(C(C)C)cc1O
REMARK SMILES IDX 1 1 2 2 10 3 9 4 5 5 4 6 3 7 11 8 6 10 7 11 8 12
REMARK H PARENT 11 9
REMARK Flexibility Score: inf
ROOT
ATOM      1  C   UNL     1     -24.341 -12.531 -32.679  1.00  0.00     0.048 C 
ATOM      2  C   UNL     1     -24.951 -11.955 -31.433  1.00  0.00    -0.009 A 
ATOM      3  C   UNL     1     -26.325 -12.113 -31.178  1.00  0.00     0.118 A 
ATOM      4  C   UNL     1     -26.887 -11.573 -30.012  1.00  0.00     0.050 A 
ATOM      5  C   UNL     1     -26.089 -10.870 -29.089  1.00  0.00    -0.042 A 
ATOM      6  C   UNL     1     -24.719 -10.718 -29.353  1.00  0.00     0.004 A 
ATOM      7  C   UNL     1     -24.155 -11.256 -30.513  1.00  0.00     0.007 A 
ENDROOT
BRANCH   3   8
ATOM      8  O   UNL     1     -27.128 -12.806 -32.083  1.00  0.00    -0.508 OA
ATOM      9  H   UNL     1     -27.494 -12.362 -32.917  1.00  0.00     0.293 HD
ENDBRANCH   3   8
BRANCH   5  10
ATOM     10  C   UNL     1     -26.689 -10.283 -27.825  1.00  0.00     0.013 C 
ATOM     11  C   UNL     1     -26.628  -8.750 -27.844  1.00  0.00     0.012 C 
ATOM     12  C   UNL     1     -28.124 -10.775 -27.611  1.00  0.00     0.012 C 
ENDBRANCH   5  10
TORSDOF 2
ENDMDL
MODEL 9
REMARK VINA RESULT:    -4.963      2.220      4.906
REMARK INTER + INTRA:          -5.525
REMARK INTER:                  -5.398
REMARK INTRA:                  -0.127
REMARK UNBOUND:                -0.127
REMARK SMILES Cc1ccc(C(C)C)cc1O
REMARK SMILES IDX 1 1 2 2 10 3 9 4 5 5 4 6 3 7 11 8 6 10 7 11 8 12
REMARK H PARENT 11 9
REMARK Flexibility Score: inf
ROOT
ATOM      1  C   UNL     1     -22.904  -7.070 -28.662  1.00  0.00     0.048 C 
ATOM      2  C   UNL     1     -23.869  -8.217 -28.566  1.00  0.00    -0.009 A 
ATOM      3  C   UNL     1     -23.440  -9.529 -28.836  1.00  0.00     0.118 A 
ATOM      4  C   UNL     1     -24.346 -10.595 -28.742  1.00  0.00     0.050 A 
ATOM      5  C   UNL     1     -25.688 -10.368 -28.381  1.00  0.00    -0.042 A 
ATOM      6  C   UNL     1     -26.106  -9.054 -28.114  1.00  0.00     0.004 A 
ATOM      7  C   UNL     1     -25.205  -7.990 -28.204  1.00  0.00     0.007 A 
ENDROOT
BRANCH   3   8
ATOM      8  O   UNL     1     -22.114  -9.770 -29.196  1.00  0.00    -0.508 OA
ATOM      9  H   UNL     1     -21.570 -10.506 -28.761  1.00  0.00     0.293 HD
ENDBRANCH   3   8
BRANCH   5  10
ATOM     10  C   UNL     1     -26.676 -11.515 -28.278  1.00  0.00     0.013 C 
ATOM     11  C   UNL     1     -28.069 -11.010 -27.882  1.00  0.00     0.012 C 
ATOM     12  C   UNL     1     -26.730 -12.319 -29.582  1.00  0.00     0.012 C 
ENDBRANCH   5  10
TORSDOF 2
ENDMDL
