MODEL 1
REMARK VINA RESULT:    26.178      0.000      0.000
REMARK INTER + INTRA:          29.703
REMARK INTER:                  30.004
REMARK INTRA:                  -0.301
REMARK UNBOUND:                -0.301
REMARK SMILES O=C1C[C@H](c2ccc(O)cc2)Oc2cc(O)cc(O)c21
REMARK SMILES IDX 3 1 4 2 12 3 13 4 14 5 15 6 17 7 18 8 20 9 2 10 1 11 5 12
REMARK SMILES IDX 6 13 11 14 7 15 10 16 8 17 9 18 19 20 16 22
REMARK H PARENT 9 19 19 21 16 23
REMARK Flexibility Score: inf
ROOT
ATOM      1  C   UNL     1      19.865 -12.941 -17.577  1.00  0.00     0.131 C 
ATOM      2  C   UNL     1      20.334 -13.125 -16.127  1.00  0.00     0.211 C 
ATOM      3  O   UNL     1      21.254 -12.093 -15.761  1.00  0.00    -0.484 OA
ATOM      4  C   UNL     1      22.231 -11.604 -16.640  1.00  0.00     0.138 A 
ATOM      5  C   UNL     1      23.260 -10.808 -16.134  1.00  0.00     0.093 A 
ATOM      6  C   UNL     1      24.256 -10.318 -16.982  1.00  0.00     0.123 A 
ATOM      7  C   UNL     1      24.205 -10.603 -18.348  1.00  0.00     0.093 A 
ATOM      8  C   UNL     1      23.161 -11.366 -18.884  1.00  0.00     0.133 A 
ATOM      9  C   UNL     1      22.173 -11.905 -18.018  1.00  0.00     0.102 A 
ATOM     10  C   UNL     1      21.064 -12.783 -18.464  1.00  0.00     0.174 C 
ATOM     11  O   UNL     1      21.127 -13.438 -19.538  1.00  0.00    -0.294 OA
ENDROOT
BRANCH   2  12
ATOM     12  C   UNL     1      19.157 -13.127 -15.182  1.00  0.00    -0.007 A 
ATOM     13  C   UNL     1      18.582 -11.918 -14.751  1.00  0.00     0.011 A 
ATOM     14  C   UNL     1      18.587 -14.343 -14.765  1.00  0.00     0.011 A 
ATOM     15  C   UNL     1      17.473 -11.926 -13.901  1.00  0.00     0.046 A 
ATOM     16  C   UNL     1      17.478 -14.347 -13.914  1.00  0.00     0.046 A 
ATOM     17  C   UNL     1      16.919 -13.142 -13.478  1.00  0.00     0.115 A 
BRANCH  17  18
ATOM     18  O   UNL     1      15.815 -13.163 -12.629  1.00  0.00    -0.508 OA
ATOM     19  H   UNL     1      15.222 -13.981 -12.551  1.00  0.00     0.293 HD
ENDBRANCH  17  18
ENDBRANCH   2  12
BRANCH   8  20
ATOM     20  O   UNL     1      23.130 -11.528 -20.272  1.00  0.00    -0.507 OA
ATOM     21  H   UNL     1      23.351 -10.796 -20.930  1.00  0.00     0.293 HD
ENDBRANCH   8  20
BRANCH   6  22
ATOM     22  O   UNL     1      25.298  -9.541 -16.481  1.00  0.00    -0.508 OA
ATOM     23  H   UNL     1      25.409  -8.569 -16.746  1.00  0.00     0.293 HD
ENDBRANCH   6  22
TORSDOF 4
ENDMDL
MODEL 2
REMARK VINA RESULT:    28.933      4.077      7.158
REMARK INTER + INTRA:          32.861
REMARK INTER:                  33.159
REMARK INTRA:                  -0.298
REMARK UNBOUND:                -0.301
REMARK SMILES O=C1C[C@H](c2ccc(O)cc2)Oc2cc(O)cc(O)c21
REMARK SMILES IDX 3 1 4 2 12 3 13 4 14 5 15 6 17 7 18 8 20 9 2 10 1 11 5 12
REMARK SMILES IDX 6 13 11 14 7 15 10 16 8 17 9 18 19 20 16 22
REMARK H PARENT 9 19 19 21 16 23
REMARK Flexibility Score: inf
ROOT
ATOM      1  C   UNL     1      23.192  -8.381 -17.287  1.00  0.00     0.131 C 
ATOM      2  C   UNL     1      22.897  -8.188 -18.782  1.00  0.00     0.211 C 
ATOM      3  O   UNL     1      22.067  -9.246 -19.271  1.00  0.00    -0.484 OA
ATOM      4  C   UNL     1      22.223 -10.579 -18.865  1.00  0.00     0.138 A 
ATOM      5  C   UNL     1      21.572 -11.585 -19.582  1.00  0.00     0.093 A 
ATOM      6  C   UNL     1      21.720 -12.924 -19.211  1.00  0.00     0.123 A 
ATOM      7  C   UNL     1      22.499 -13.254 -18.101  1.00  0.00     0.093 A 
ATOM      8  C   UNL     1      23.128 -12.259 -17.343  1.00  0.00     0.133 A 
ATOM      9  C   UNL     1      23.019 -10.901 -17.745  1.00  0.00     0.102 A 
ATOM     10  C   UNL     1      23.698  -9.774 -17.061  1.00  0.00     0.174 C 
ATOM     11  O   UNL     1      24.717  -9.951 -16.343  1.00  0.00    -0.294 OA
ENDROOT
BRANCH   2  12
ATOM     12  C   UNL     1      22.236  -6.855 -19.029  1.00  0.00    -0.007 A 
ATOM     13  C   UNL     1      20.882  -6.657 -18.705  1.00  0.00     0.011 A 
ATOM     14  C   UNL     1      22.984  -5.777 -19.535  1.00  0.00     0.011 A 
ATOM     15  C   UNL     1      20.282  -5.411 -18.908  1.00  0.00     0.046 A 
ATOM     16  C   UNL     1      22.381  -4.533 -19.737  1.00  0.00     0.046 A 
ATOM     17  C   UNL     1      21.030  -4.345 -19.426  1.00  0.00     0.115 A 
BRANCH  17  18
ATOM     18  O   UNL     1      20.443  -3.099 -19.633  1.00  0.00    -0.508 OA
ATOM     19  H   UNL     1      20.090  -2.825 -20.543  1.00  0.00     0.293 HD
ENDBRANCH  17  18
ENDBRANCH   2  12
BRANCH   8  20
ATOM     20  O   UNL     1      23.811 -12.662 -16.193  1.00  0.00    -0.507 OA
ATOM     21  H   UNL     1      23.384 -13.165 -15.430  1.00  0.00     0.293 HD
ENDBRANCH   8  20
BRANCH   6  22
ATOM     22  O   UNL     1      21.091 -13.935 -19.935  1.00  0.00    -0.508 OA
ATOM     23  H   UNL     1      20.748 -14.775 -19.483  1.00  0.00     0.293 HD
ENDBRANCH   6  22
TORSDOF 4
ENDMDL
