MODEL 1
REMARK VINA RESULT:    -3.564      0.000      0.000
REMARK INTER + INTRA:          -4.761
REMARK INTER:                  -4.606
REMARK INTRA:                  -0.155
REMARK UNBOUND:                -0.155
REMARK SMILES CCCCCCC(=O)[O-]
REMARK SMILES IDX 5 1 6 2 7 3 8 4 9 5 4 6 3 7 2 8 1 9
REMARK H PARENT
REMARK Flexibility Score: inf
ROOT
ATOM      1  C   UNL     1       0.486   4.852   6.852  1.00  0.00     0.006 C 
ENDROOT
BRANCH   1   2
ATOM      2  C   UNL     1      -0.588   5.886   6.498  1.00  0.00     0.053 C 
BRANCH   2   3
ATOM      3  C   UNL     1      -0.616   6.127   5.021  1.00  0.00     0.041 C 
ATOM      4  O   UNL     1      -1.217   7.130   4.554  1.00  0.00    -0.550 OA
ATOM      5  O   UNL     1      -0.019   5.218   4.157  1.00  0.00    -0.550 OA
ENDBRANCH   2   3
ENDBRANCH   1   2
BRANCH   1   6
ATOM      6  C   UNL     1       0.138   4.127   8.160  1.00  0.00     0.000 C 
BRANCH   6   7
ATOM      7  C   UNL     1       0.857   2.772   8.303  1.00  0.00    -0.000 C 
BRANCH   7   8
ATOM      8  C   UNL     1       1.541   2.265   7.022  1.00  0.00    -0.003 C 
ATOM      9  C   UNL     1       1.730   0.748   7.003  1.00  0.00     0.004 C 
ENDBRANCH   7   8
ENDBRANCH   6   7
ENDBRANCH   1   6
TORSDOF 5
ENDMDL
MODEL 2
REMARK VINA RESULT:    -3.395      6.818      7.766
REMARK INTER + INTRA:          -4.543
REMARK INTER:                  -4.398
REMARK INTRA:                  -0.144
REMARK UNBOUND:                -0.155
REMARK SMILES CCCCCCC(=O)[O-]
REMARK SMILES IDX 5 1 6 2 7 3 8 4 9 5 4 6 3 7 2 8 1 9
REMARK H PARENT
REMARK Flexibility Score: inf
ROOT
ATOM      1  C   UNL     1      -0.159  -2.283   6.159  1.00  0.00     0.006 C 
ENDROOT
BRANCH   1   2
ATOM      2  C   UNL     1       0.802  -1.501   5.259  1.00  0.00     0.053 C 
BRANCH   2   3
ATOM      3  C   UNL     1       2.219  -1.887   5.543  1.00  0.00     0.041 C 
ATOM      4  O   UNL     1       2.681  -1.787   6.710  1.00  0.00    -0.550 OA
ATOM      5  O   UNL     1       3.043  -2.313   4.510  1.00  0.00    -0.550 OA
ENDBRANCH   2   3
ENDBRANCH   1   2
BRANCH   1   6
ATOM      6  C   UNL     1      -1.425  -2.687   5.391  1.00  0.00     0.000 C 
BRANCH   6   7
ATOM      7  C   UNL     1      -1.800  -1.684   4.283  1.00  0.00    -0.000 C 
BRANCH   7   8
ATOM      8  C   UNL     1      -3.234  -1.824   3.743  1.00  0.00    -0.003 C 
ATOM      9  C   UNL     1      -4.249  -0.979   4.511  1.00  0.00     0.004 C 
ENDBRANCH   7   8
ENDBRANCH   6   7
ENDBRANCH   1   6
TORSDOF 5
ENDMDL
MODEL 3
REMARK VINA RESULT:    -3.382      6.889      7.820
REMARK INTER + INTRA:          -4.525
REMARK INTER:                  -4.343
REMARK INTRA:                  -0.183
REMARK UNBOUND:                -0.155
REMARK SMILES CCCCCCC(=O)[O-]
REMARK SMILES IDX 5 1 6 2 7 3 8 4 9 5 4 6 3 7 2 8 1 9
REMARK H PARENT
REMARK Flexibility Score: inf
ROOT
ATOM      1  C   UNL     1      -0.630  -2.664   5.988  1.00  0.00     0.006 C 
ENDROOT
BRANCH   1   2
ATOM      2  C   UNL     1       0.258  -1.706   5.188  1.00  0.00     0.053 C 
BRANCH   2   3
ATOM      3  C   UNL     1       1.696  -1.894   5.556  1.00  0.00     0.041 C 
ATOM      4  O   UNL     1       2.547  -2.171   4.670  1.00  0.00    -0.550 OA
ATOM      5  O   UNL     1       2.089  -1.812   6.886  1.00  0.00    -0.550 OA
ENDBRANCH   2   3
ENDBRANCH   1   2
BRANCH   1   6
ATOM      6  C   UNL     1      -2.106  -2.497   5.600  1.00  0.00     0.000 C 
BRANCH   6   7
ATOM      7  C   UNL     1      -2.291  -1.844   4.217  1.00  0.00    -0.000 C 
BRANCH   7   8
ATOM      8  C   UNL     1      -3.723  -1.372   3.912  1.00  0.00    -0.003 C 
ATOM      9  C   UNL     1      -4.532  -1.057   5.170  1.00  0.00     0.004 C 
ENDBRANCH   7   8
ENDBRANCH   6   7
ENDBRANCH   1   6
TORSDOF 5
ENDMDL
MODEL 4
REMARK VINA RESULT:    -3.314      6.271      7.018
REMARK INTER + INTRA:          -4.437
REMARK INTER:                  -4.281
REMARK INTRA:                  -0.156
REMARK UNBOUND:                -0.155
REMARK SMILES CCCCCCC(=O)[O-]
REMARK SMILES IDX 5 1 6 2 7 3 8 4 9 5 4 6 3 7 2 8 1 9
REMARK H PARENT
REMARK Flexibility Score: inf
ROOT
ATOM      1  C   UNL     1      -0.453  -2.270   5.712  1.00  0.00     0.006 C 
ENDROOT
BRANCH   1   2
ATOM      2  C   UNL     1      -1.379  -2.687   4.566  1.00  0.00     0.053 C 
BRANCH   2   3
ATOM      3  C   UNL     1      -2.700  -1.993   4.680  1.00  0.00     0.041 C 
ATOM      4  O   UNL     1      -3.373  -2.082   5.741  1.00  0.00    -0.550 OA
ATOM      5  O   UNL     1      -3.210  -1.287   3.598  1.00  0.00    -0.550 OA
ENDBRANCH   2   3
ENDBRANCH   1   2
BRANCH   1   6
ATOM      6  C   UNL     1       0.788  -1.540   5.177  1.00  0.00     0.000 C 
BRANCH   6   7
ATOM      7  C   UNL     1       1.788  -1.165   6.287  1.00  0.00    -0.000 C 
BRANCH   7   8
ATOM      8  C   UNL     1       3.249  -1.547   5.997  1.00  0.00    -0.003 C 
ATOM      9  C   UNL     1       3.399  -2.473   4.790  1.00  0.00     0.004 C 
ENDBRANCH   7   8
ENDBRANCH   6   7
ENDBRANCH   1   6
TORSDOF 5
ENDMDL
MODEL 5
REMARK VINA RESULT:    -3.078     13.516     15.310
REMARK INTER + INTRA:          -4.132
REMARK INTER:                  -4.001
REMARK INTRA:                  -0.131
REMARK UNBOUND:                -0.155
REMARK SMILES CCCCCCC(=O)[O-]
REMARK SMILES IDX 5 1 6 2 7 3 8 4 9 5 4 6 3 7 2 8 1 9
REMARK H PARENT
REMARK Flexibility Score: inf
ROOT
ATOM      1  C   UNL     1       2.635  -7.757  -1.438  1.00  0.00     0.006 C 
ENDROOT
BRANCH   1   2
ATOM      2  C   UNL     1       3.562  -8.975  -1.482  1.00  0.00     0.053 C 
BRANCH   2   3
ATOM      3  C   UNL     1       4.765  -8.750  -0.620  1.00  0.00     0.041 C 
ATOM      4  O   UNL     1       5.916  -8.736  -1.130  1.00  0.00    -0.550 OA
ATOM      5  O   UNL     1       4.617  -8.605   0.753  1.00  0.00    -0.550 OA
ENDBRANCH   2   3
ENDBRANCH   1   2
BRANCH   1   6
ATOM      6  C   UNL     1       1.322  -8.039  -2.182  1.00  0.00     0.000 C 
BRANCH   6   7
ATOM      7  C   UNL     1       0.746  -6.790  -2.876  1.00  0.00    -0.000 C 
BRANCH   7   8
ATOM      8  C   UNL     1       1.020  -5.463  -2.149  1.00  0.00    -0.003 C 
ATOM      9  C   UNL     1      -0.097  -4.436  -2.334  1.00  0.00     0.004 C 
ENDBRANCH   7   8
ENDBRANCH   6   7
ENDBRANCH   1   6
TORSDOF 5
ENDMDL
MODEL 6
REMARK VINA RESULT:    -3.058      7.403      8.541
REMARK INTER + INTRA:          -4.107
REMARK INTER:                  -3.919
REMARK INTRA:                  -0.187
REMARK UNBOUND:                -0.155
REMARK SMILES CCCCCCC(=O)[O-]
REMARK SMILES IDX 5 1 6 2 7 3 8 4 9 5 4 6 3 7 2 8 1 9
REMARK H PARENT
REMARK Flexibility Score: inf
ROOT
ATOM      1  C   UNL     1      -3.872  -1.101   4.382  1.00  0.00     0.006 C 
ENDROOT
BRANCH   1   2
ATOM      2  C   UNL     1      -2.801  -1.937   3.676  1.00  0.00     0.053 C 
BRANCH   2   3
ATOM      3  C   UNL     1      -1.864  -2.540   4.675  1.00  0.00     0.041 C 
ATOM      4  O   UNL     1      -0.800  -1.944   4.986  1.00  0.00    -0.550 OA
ATOM      5  O   UNL     1      -2.144  -3.785   5.225  1.00  0.00    -0.550 OA
ENDBRANCH   2   3
ENDBRANCH   1   2
BRANCH   1   6
ATOM      6  C   UNL     1      -5.198  -1.871   4.471  1.00  0.00     0.000 C 
BRANCH   6   7
ATOM      7  C   UNL     1      -6.041  -1.473   5.697  1.00  0.00    -0.000 C 
BRANCH   7   8
ATOM      8  C   UNL     1      -5.486  -0.288   6.506  1.00  0.00    -0.003 C 
ATOM      9  C   UNL     1      -6.574   0.513   7.221  1.00  0.00     0.004 C 
ENDBRANCH   7   8
ENDBRANCH   6   7
ENDBRANCH   1   6
TORSDOF 5
ENDMDL
MODEL 7
REMARK VINA RESULT:    -2.990      8.334      9.166
REMARK INTER + INTRA:          -4.019
REMARK INTER:                  -3.927
REMARK INTRA:                  -0.093
REMARK UNBOUND:                -0.155
REMARK SMILES CCCCCCC(=O)[O-]
REMARK SMILES IDX 5 1 6 2 7 3 8 4 9 5 4 6 3 7 2 8 1 9
REMARK H PARENT
REMARK Flexibility Score: inf
ROOT
ATOM      1  C   UNL     1      -3.159  -1.746   3.718  1.00  0.00     0.006 C 
ENDROOT
BRANCH   1   2
ATOM      2  C   UNL     1      -2.395  -3.047   3.456  1.00  0.00     0.053 C 
BRANCH   2   3
ATOM      3  C   UNL     1      -3.168  -3.932   2.529  1.00  0.00     0.041 C 
ATOM      4  O   UNL     1      -4.377  -4.193   2.764  1.00  0.00    -0.550 OA
ATOM      5  O   UNL     1      -2.540  -4.507   1.432  1.00  0.00    -0.550 OA
ENDBRANCH   2   3
ENDBRANCH   1   2
BRANCH   1   6
ATOM      6  C   UNL     1      -3.684  -1.700   5.160  1.00  0.00     0.000 C 
BRANCH   6   7
ATOM      7  C   UNL     1      -4.801  -0.657   5.359  1.00  0.00    -0.000 C 
BRANCH   7   8
ATOM      8  C   UNL     1      -5.576  -0.784   6.681  1.00  0.00    -0.003 C 
ATOM      9  C   UNL     1      -6.225   0.527   7.124  1.00  0.00     0.004 C 
ENDBRANCH   7   8
ENDBRANCH   6   7
ENDBRANCH   1   6
TORSDOF 5
ENDMDL
MODEL 8
REMARK VINA RESULT:    -2.976      7.764      8.631
REMARK INTER + INTRA:          -4.000
REMARK INTER:                  -3.890
REMARK INTRA:                  -0.110
REMARK UNBOUND:                -0.155
REMARK SMILES CCCCCCC(=O)[O-]
REMARK SMILES IDX 5 1 6 2 7 3 8 4 9 5 4 6 3 7 2 8 1 9
REMARK H PARENT
REMARK Flexibility Score: inf
ROOT
ATOM      1  C   UNL     1      -4.564  -1.239   5.671  1.00  0.00     0.006 C 
ENDROOT
BRANCH   1   2
ATOM      2  C   UNL     1      -4.426  -1.112   4.151  1.00  0.00     0.053 C 
BRANCH   2   3
ATOM      3  C   UNL     1      -3.205  -1.834   3.675  1.00  0.00     0.041 C 
ATOM      4  O   UNL     1      -3.316  -2.908   3.027  1.00  0.00    -0.550 OA
ATOM      5  O   UNL     1      -1.943  -1.346   3.988  1.00  0.00    -0.550 OA
ENDBRANCH   2   3
ENDBRANCH   1   2
BRANCH   1   6
ATOM      6  C   UNL     1      -5.991  -0.895   6.122  1.00  0.00     0.000 C 
BRANCH   6   7
ATOM      7  C   UNL     1      -6.024  -0.004   7.379  1.00  0.00    -0.000 C 
BRANCH   7   8
ATOM      8  C   UNL     1      -7.350   0.741   7.608  1.00  0.00    -0.003 C 
ATOM      9  C   UNL     1      -8.559   0.005   7.031  1.00  0.00     0.004 C 
ENDBRANCH   7   8
ENDBRANCH   6   7
ENDBRANCH   1   6
TORSDOF 5
ENDMDL
MODEL 9
REMARK VINA RESULT:    -2.941      7.339      8.041
REMARK INTER + INTRA:          -3.955
REMARK INTER:                  -3.755
REMARK INTRA:                  -0.200
REMARK UNBOUND:                -0.155
REMARK SMILES CCCCCCC(=O)[O-]
REMARK SMILES IDX 5 1 6 2 7 3 8 4 9 5 4 6 3 7 2 8 1 9
REMARK H PARENT
REMARK Flexibility Score: inf
ROOT
ATOM      1  C   UNL     1      -4.576  -1.180   5.599  1.00  0.00     0.006 C 
ENDROOT
BRANCH   1   2
ATOM      2  C   UNL     1      -6.068  -1.492   5.746  1.00  0.00     0.053 C 
BRANCH   2   3
ATOM      3  C   UNL     1      -6.744  -0.444   6.573  1.00  0.00     0.041 C 
ATOM      4  O   UNL     1      -7.967  -0.547   6.851  1.00  0.00    -0.550 OA
ATOM      5  O   UNL     1      -6.033   0.672   6.996  1.00  0.00    -0.550 OA
ENDBRANCH   2   3
ENDBRANCH   1   2
BRANCH   1   6
ATOM      6  C   UNL     1      -4.189  -1.035   4.120  1.00  0.00     0.000 C 
BRANCH   6   7
ATOM      7  C   UNL     1      -2.868  -1.748   3.774  1.00  0.00    -0.000 C 
BRANCH   7   8
ATOM      8  C   UNL     1      -2.209  -2.493   4.947  1.00  0.00    -0.003 C 
ATOM      9  C   UNL     1      -0.730  -2.148   5.121  1.00  0.00     0.004 C 
ENDBRANCH   7   8
ENDBRANCH   6   7
ENDBRANCH   1   6
TORSDOF 5
ENDMDL
