MODEL 1
REMARK VINA RESULT:    -8.859      0.000      0.000
REMARK INTER + INTRA:         -15.846
REMARK INTER:                 -14.038
REMARK INTRA:                  -1.808
REMARK UNBOUND:                -1.808
REMARK SMILES C[C@H]1O[C@@H](O[C@H]2[C@@H](Oc3cc(O)c4c(c3)O[C@@H](c3ccc(O)cc3)CC4=O)O[C@H](CO)[C@H](O)[C@@H]2O)[C@@H](O)[C@@H](O)[C@@H]1O
REMARK SMILES IDX 6 1 34 2 32 3 29 4 28 5 7 6 5 7 4 8 1 9 2 10 40 11 3 12
REMARK SMILES IDX 38 13 36 14 41 15 39 17 37 19 35 21 8 23 9 24 10 25 15 26
REMARK SMILES IDX 11 27 14 28 13 29 16 30 26 31 17 32 27 33 25 34 12 35 18 37
REMARK SMILES IDX 19 38 24 39 20 40 23 41 21 42 22 43 33 45 30 47 31 48
REMARK H PARENT 41 16 39 18 37 20 35 22 12 36 22 44 33 46 31 49
REMARK Flexibility Score: inf
ROOT
ATOM      1  C   UNL     1      18.115   6.760  15.847  1.00  0.00     0.221 C 
ATOM      2  C   UNL     1      17.390   8.116  15.929  1.00  0.00     0.181 C 
ATOM      3  C   UNL     1      17.216   8.711  14.526  1.00  0.00     0.177 C 
ATOM      4  C   UNL     1      16.514   7.665  13.629  1.00  0.00     0.179 C 
ATOM      5  O   UNL     1      17.301   6.489  13.535  1.00  0.00    -0.332 OA
ATOM      6  C   UNL     1      17.438   5.856  14.797  1.00  0.00     0.339 C 
ENDROOT
BRANCH   1   7
ATOM      7  O   UNL     1      18.062   6.109  17.113  1.00  0.00    -0.337 OA
BRANCH   7   8
ATOM      8  C   UNL     1      18.882   4.951  17.150  1.00  0.00     0.282 C 
ATOM      9  C   UNL     1      16.451   4.458  19.149  1.00  0.00     0.041 C 
ATOM     10  C   UNL     1      17.736   3.677  18.841  1.00  0.00     0.150 C 
ATOM     11  C   UNL     1      18.883   3.892  19.871  1.00  0.00     0.174 C 
ATOM     12  O   UNL     1      18.133   3.784  17.479  1.00  0.00    -0.344 OA
ATOM     13  C   UNL     1      19.772   5.108  19.558  1.00  0.00     0.179 C 
ATOM     14  C   UNL     1      20.112   5.165  18.057  1.00  0.00     0.202 C 
BRANCH  11  15
ATOM     15  O   UNL     1      19.670   2.725  19.967  1.00  0.00    -0.388 OA
ATOM     16  H   UNL     1      20.565   2.935  19.598  1.00  0.00     0.211 HD
ENDBRANCH  11  15
BRANCH  13  17
ATOM     17  O   UNL     1      19.197   6.302  20.037  1.00  0.00    -0.387 OA
ATOM     18  H   UNL     1      19.558   7.053  19.513  1.00  0.00     0.211 HD
ENDBRANCH  13  17
BRANCH  14  19
ATOM     19  O   UNL     1      20.731   6.380  17.734  1.00  0.00    -0.385 OA
ATOM     20  H   UNL     1      21.456   6.518  18.398  1.00  0.00     0.211 HD
ENDBRANCH  14  19
ENDBRANCH   7   8
ENDBRANCH   1   7
BRANCH   2  21
ATOM     21  O   UNL     1      18.123   9.011  16.721  1.00  0.00    -0.387 OA
ATOM     22  H   UNL     1      18.411   8.514  17.530  1.00  0.00     0.211 HD
ENDBRANCH   2  21
BRANCH   6  23
ATOM     23  O   UNL     1      16.173   5.384  15.275  1.00  0.00    -0.462 OA
BRANCH  23  24
ATOM     24  C   UNL     1      15.584   4.149  14.953  1.00  0.00     0.130 A 
ATOM     25  C   UNL     1      15.269   3.279  15.998  1.00  0.00     0.093 A 
ATOM     26  C   UNL     1      15.340   3.741  13.630  1.00  0.00     0.094 A 
ATOM     27  C   UNL     1      14.764   1.997  15.751  1.00  0.00     0.133 A 
ATOM     28  C   UNL     1      14.848   2.464  13.364  1.00  0.00     0.138 A 
ATOM     29  C   UNL     1      14.532   1.586  14.414  1.00  0.00     0.102 A 
ATOM     30  O   UNL     1      14.707   2.064  12.027  1.00  0.00    -0.484 OA
ATOM     31  C   UNL     1      13.998   0.260  14.032  1.00  0.00     0.174 C 
ATOM     32  C   UNL     1      14.087   0.838  11.625  1.00  0.00     0.211 C 
ATOM     33  O   UNL     1      13.244  -0.397  14.798  1.00  0.00    -0.294 OA
ATOM     34  C   UNL     1      14.314  -0.271  12.667  1.00  0.00     0.131 C 
BRANCH  27  35
ATOM     35  O   UNL     1      14.566   1.160  16.853  1.00  0.00    -0.507 OA
ATOM     36  H   UNL     1      13.657   0.852  17.170  1.00  0.00     0.293 HD
ENDBRANCH  27  35
BRANCH  32  37
ATOM     37  C   UNL     1      14.629   0.418  10.280  1.00  0.00    -0.007 A 
ATOM     38  C   UNL     1      14.131  -0.727   9.637  1.00  0.00     0.011 A 
ATOM     39  C   UNL     1      15.669   1.146   9.674  1.00  0.00     0.011 A 
ATOM     40  C   UNL     1      14.648  -1.122   8.397  1.00  0.00     0.046 A 
ATOM     41  C   UNL     1      16.180   0.750   8.434  1.00  0.00     0.046 A 
ATOM     42  C   UNL     1      15.670  -0.385   7.792  1.00  0.00     0.115 A 
BRANCH  42  43
ATOM     43  O   UNL     1      16.169  -0.785   6.553  1.00  0.00    -0.508 OA
ATOM     44  H   UNL     1      17.164  -0.830   6.374  1.00  0.00     0.293 HD
ENDBRANCH  42  43
ENDBRANCH  32  37
ENDBRANCH  23  24
ENDBRANCH   6  23
BRANCH   3  45
ATOM     45  O   UNL     1      18.476   9.048  13.995  1.00  0.00    -0.387 OA
ATOM     46  H   UNL     1      18.499  10.036  13.895  1.00  0.00     0.211 HD
ENDBRANCH   3  45
BRANCH   4  47
ATOM     47  C   UNL     1      16.276   8.217  12.220  1.00  0.00     0.191 C 
BRANCH  47  48
ATOM     48  O   UNL     1      17.350   7.867  11.377  1.00  0.00    -0.394 OA
ATOM     49  H   UNL     1      17.167   8.278  10.491  1.00  0.00     0.210 HD
ENDBRANCH  47  48
ENDBRANCH   4  47
TORSDOF 14
ENDMDL
MODEL 2
REMARK VINA RESULT:    -8.825      1.032      4.606
REMARK INTER + INTRA:         -15.791
REMARK INTER:                 -13.995
REMARK INTRA:                  -1.797
REMARK UNBOUND:                -1.808
REMARK SMILES C[C@H]1O[C@@H](O[C@H]2[C@@H](Oc3cc(O)c4c(c3)O[C@@H](c3ccc(O)cc3)CC4=O)O[C@H](CO)[C@H](O)[C@@H]2O)[C@@H](O)[C@@H](O)[C@@H]1O
REMARK SMILES IDX 6 1 34 2 32 3 29 4 28 5 7 6 5 7 4 8 1 9 2 10 40 11 3 12
REMARK SMILES IDX 38 13 36 14 41 15 39 17 37 19 35 21 8 23 9 24 10 25 15 26
REMARK SMILES IDX 11 27 14 28 13 29 16 30 26 31 17 32 27 33 25 34 12 35 18 37
REMARK SMILES IDX 19 38 24 39 20 40 23 41 21 42 22 43 33 45 30 47 31 48
REMARK H PARENT 41 16 39 18 37 20 35 22 12 36 22 44 33 46 31 49
REMARK Flexibility Score: inf
ROOT
ATOM      1  C   UNL     1      18.100   5.945  17.139  1.00  0.00     0.221 C 
ATOM      2  C   UNL     1      19.510   5.511  17.582  1.00  0.00     0.181 C 
ATOM      3  C   UNL     1      19.459   4.891  18.984  1.00  0.00     0.177 C 
ATOM      4  C   UNL     1      18.413   3.753  18.982  1.00  0.00     0.179 C 
ATOM      5  O   UNL     1      17.130   4.263  18.660  1.00  0.00    -0.332 OA
ATOM      6  C   UNL     1      17.098   4.791  17.343  1.00  0.00     0.339 C 
ENDROOT
BRANCH   1   7
ATOM      7  O   UNL     1      18.117   6.298  15.759  1.00  0.00    -0.337 OA
BRANCH   7   8
ATOM      8  C   UNL     1      16.925   6.962  15.367  1.00  0.00     0.282 C 
ATOM      9  C   UNL     1      17.929   5.256  12.871  1.00  0.00     0.041 C 
ATOM     10  C   UNL     1      16.808   6.288  13.058  1.00  0.00     0.150 C 
ATOM     11  C   UNL     1      17.159   7.718  12.555  1.00  0.00     0.174 C 
ATOM     12  O   UNL     1      16.226   6.241  14.356  1.00  0.00    -0.344 OA
ATOM     13  C   UNL     1      17.874   8.583  13.609  1.00  0.00     0.179 C 
ATOM     14  C   UNL     1      17.203   8.433  14.987  1.00  0.00     0.202 C 
BRANCH  11  15
ATOM     15  O   UNL     1      15.993   8.370  12.101  1.00  0.00    -0.388 OA
ATOM     16  H   UNL     1      15.899   8.178  11.134  1.00  0.00     0.211 HD
ENDBRANCH  11  15
BRANCH  13  17
ATOM     17  O   UNL     1      19.257   8.317  13.639  1.00  0.00    -0.387 OA
ATOM     18  H   UNL     1      19.408   7.519  14.195  1.00  0.00     0.211 HD
ENDBRANCH  13  17
BRANCH  14  19
ATOM     19  O   UNL     1      17.977   9.039  15.985  1.00  0.00    -0.385 OA
ATOM     20  H   UNL     1      18.199   8.332  16.645  1.00  0.00     0.211 HD
ENDBRANCH  14  19
ENDBRANCH   7   8
ENDBRANCH   1   7
BRANCH   2  21
ATOM     21  O   UNL     1      20.374   6.616  17.598  1.00  0.00    -0.387 OA
ATOM     22  H   UNL     1      21.023   6.487  16.859  1.00  0.00     0.211 HD
ENDBRANCH   2  21
BRANCH   6  23
ATOM     23  O   UNL     1      17.311   3.759  16.372  1.00  0.00    -0.462 OA
BRANCH  23  24
ATOM     24  C   UNL     1      16.308   2.969  15.784  1.00  0.00     0.130 A 
ATOM     25  C   UNL     1      15.481   2.224  16.626  1.00  0.00     0.093 A 
ATOM     26  C   UNL     1      16.132   2.868  14.394  1.00  0.00     0.094 A 
ATOM     27  C   UNL     1      14.519   1.345  16.113  1.00  0.00     0.133 A 
ATOM     28  C   UNL     1      15.187   1.991  13.862  1.00  0.00     0.138 A 
ATOM     29  C   UNL     1      14.355   1.238  14.708  1.00  0.00     0.102 A 
ATOM     30  O   UNL     1      15.108   1.851  12.470  1.00  0.00    -0.484 OA
ATOM     31  C   UNL     1      13.371   0.349  14.052  1.00  0.00     0.174 C 
ATOM     32  C   UNL     1      14.094   1.092  11.802  1.00  0.00     0.211 C 
ATOM     33  O   UNL     1      12.292   0.023  14.616  1.00  0.00    -0.294 OA
ATOM     34  C   UNL     1      13.644  -0.109  12.652  1.00  0.00     0.131 C 
BRANCH  27  35
ATOM     35  O   UNL     1      13.801   0.570  17.028  1.00  0.00    -0.507 OA
ATOM     36  H   UNL     1      12.825   0.332  16.919  1.00  0.00     0.293 HD
ENDBRANCH  27  35
BRANCH  32  37
ATOM     37  C   UNL     1      14.613   0.627  10.464  1.00  0.00    -0.007 A 
ATOM     38  C   UNL     1      14.375  -0.686  10.024  1.00  0.00     0.011 A 
ATOM     39  C   UNL     1      15.376   1.490   9.658  1.00  0.00     0.011 A 
ATOM     40  C   UNL     1      14.872  -1.118   8.788  1.00  0.00     0.046 A 
ATOM     41  C   UNL     1      15.868   1.056   8.423  1.00  0.00     0.046 A 
ATOM     42  C   UNL     1      15.616  -0.249   7.985  1.00  0.00     0.115 A 
BRANCH  42  43
ATOM     43  O   UNL     1      16.097  -0.691   6.752  1.00  0.00    -0.508 OA
ATOM     44  H   UNL     1      16.328  -0.041   6.012  1.00  0.00     0.293 HD
ENDBRANCH  42  43
ENDBRANCH  32  37
ENDBRANCH  23  24
ENDBRANCH   6  23
BRANCH   3  45
ATOM     45  O   UNL     1      19.112   5.878  19.926  1.00  0.00    -0.387 OA
ATOM     46  H   UNL     1      18.510   5.452  20.591  1.00  0.00     0.211 HD
ENDBRANCH   3  45
BRANCH   4  47
ATOM     47  C   UNL     1      18.343   3.065  20.350  1.00  0.00     0.191 C 
BRANCH  47  48
ATOM     48  O   UNL     1      19.515   3.332  21.085  1.00  0.00    -0.394 OA
ATOM     49  H   UNL     1      19.880   2.454  21.374  1.00  0.00     0.210 HD
ENDBRANCH  47  48
ENDBRANCH   4  47
TORSDOF 14
ENDMDL
MODEL 3
REMARK VINA RESULT:    -8.257      4.642      8.476
REMARK INTER + INTRA:         -14.892
REMARK INTER:                 -12.514
REMARK INTRA:                  -2.379
REMARK UNBOUND:                -1.808
REMARK SMILES C[C@H]1O[C@@H](O[C@H]2[C@@H](Oc3cc(O)c4c(c3)O[C@@H](c3ccc(O)cc3)CC4=O)O[C@H](CO)[C@H](O)[C@@H]2O)[C@@H](O)[C@@H](O)[C@@H]1O
REMARK SMILES IDX 6 1 34 2 32 3 29 4 28 5 7 6 5 7 4 8 1 9 2 10 40 11 3 12
REMARK SMILES IDX 38 13 36 14 41 15 39 17 37 19 35 21 8 23 9 24 10 25 15 26
REMARK SMILES IDX 11 27 14 28 13 29 16 30 26 31 17 32 27 33 25 34 12 35 18 37
REMARK SMILES IDX 19 38 24 39 20 40 23 41 21 42 22 43 33 45 30 47 31 48
REMARK H PARENT 41 16 39 18 37 20 35 22 12 36 22 44 33 46 31 49
REMARK Flexibility Score: inf
ROOT
ATOM      1  C   UNL     1      17.308  10.867  15.622  1.00  0.00     0.221 C 
ATOM      2  C   UNL     1      18.421  11.712  14.974  1.00  0.00     0.181 C 
ATOM      3  C   UNL     1      18.634  13.007  15.767  1.00  0.00     0.177 C 
ATOM      4  C   UNL     1      18.889  12.644  17.248  1.00  0.00     0.179 C 
ATOM      5  O   UNL     1      17.773  11.956  17.786  1.00  0.00    -0.332 OA
ATOM      6  C   UNL     1      17.568  10.713  17.135  1.00  0.00     0.339 C 
ENDROOT
BRANCH   1   7
ATOM      7  O   UNL     1      17.279   9.572  15.029  1.00  0.00    -0.337 OA
BRANCH   7   8
ATOM      8  C   UNL     1      15.954   9.148  14.746  1.00  0.00     0.282 C 
ATOM      9  C   UNL     1      17.685   6.538  15.330  1.00  0.00     0.041 C 
ATOM     10  C   UNL     1      16.250   6.760  14.832  1.00  0.00     0.150 C 
ATOM     11  C   UNL     1      16.074   6.618  13.292  1.00  0.00     0.174 C 
ATOM     12  O   UNL     1      15.644   7.917  15.395  1.00  0.00    -0.344 OA
ATOM     13  C   UNL     1      16.342   7.921  12.519  1.00  0.00     0.179 C 
ATOM     14  C   UNL     1      15.687   9.122  13.226  1.00  0.00     0.202 C 
BRANCH  11  15
ATOM     15  O   UNL     1      14.781   6.135  12.997  1.00  0.00    -0.388 OA
ATOM     16  H   UNL     1      14.128   6.727  13.448  1.00  0.00     0.211 HD
ENDBRANCH  11  15
BRANCH  13  17
ATOM     17  O   UNL     1      17.720   8.105  12.286  1.00  0.00    -0.387 OA
ATOM     18  H   UNL     1      18.220   7.526  12.906  1.00  0.00     0.211 HD
ENDBRANCH  13  17
BRANCH  14  19
ATOM     19  O   UNL     1      16.111  10.328  12.652  1.00  0.00    -0.385 OA
ATOM     20  H   UNL     1      15.346  10.678  12.125  1.00  0.00     0.211 HD
ENDBRANCH  14  19
ENDBRANCH   7   8
ENDBRANCH   1   7
BRANCH   2  21
ATOM     21  O   UNL     1      18.080  12.030  13.652  1.00  0.00    -0.387 OA
ATOM     22  H   UNL     1      17.124  12.293  13.654  1.00  0.00     0.211 HD
ENDBRANCH   2  21
BRANCH   6  23
ATOM     23  O   UNL     1      18.666   9.823  17.371  1.00  0.00    -0.462 OA
BRANCH  23  24
ATOM     24  C   UNL     1      18.587   8.582  18.027  1.00  0.00     0.130 A 
ATOM     25  C   UNL     1      19.679   7.718  17.930  1.00  0.00     0.093 A 
ATOM     26  C   UNL     1      17.447   8.162  18.734  1.00  0.00     0.094 A 
ATOM     27  C   UNL     1      19.640   6.431  18.480  1.00  0.00     0.133 A 
ATOM     28  C   UNL     1      17.385   6.880  19.279  1.00  0.00     0.138 A 
ATOM     29  C   UNL     1      18.483   6.008  19.182  1.00  0.00     0.102 A 
ATOM     30  O   UNL     1      16.195   6.469  19.895  1.00  0.00    -0.484 OA
ATOM     31  C   UNL     1      18.329   4.676  19.807  1.00  0.00     0.174 C 
ATOM     32  C   UNL     1      16.054   5.236  20.609  1.00  0.00     0.211 C 
ATOM     33  O   UNL     1      19.321   4.020  20.224  1.00  0.00    -0.294 OA
ATOM     34  C   UNL     1      16.947   4.136  20.008  1.00  0.00     0.131 C 
BRANCH  27  35
ATOM     35  O   UNL     1      20.743   5.601  18.255  1.00  0.00    -0.507 OA
ATOM     36  H   UNL     1      21.453   5.408  18.947  1.00  0.00     0.293 HD
ENDBRANCH  27  35
BRANCH  32  37
ATOM     37  C   UNL     1      14.606   4.808  20.592  1.00  0.00    -0.007 A 
ATOM     38  C   UNL     1      13.747   5.239  19.567  1.00  0.00     0.011 A 
ATOM     39  C   UNL     1      14.090   4.005  21.625  1.00  0.00     0.011 A 
ATOM     40  C   UNL     1      12.402   4.852  19.565  1.00  0.00     0.046 A 
ATOM     41  C   UNL     1      12.746   3.619  21.617  1.00  0.00     0.046 A 
ATOM     42  C   UNL     1      11.899   4.040  20.586  1.00  0.00     0.115 A 
BRANCH  42  43
ATOM     43  O   UNL     1      10.559   3.655  20.565  1.00  0.00    -0.508 OA
ATOM     44  H   UNL     1      10.089   3.425  19.698  1.00  0.00     0.293 HD
ENDBRANCH  42  43
ENDBRANCH  32  37
ENDBRANCH  23  24
ENDBRANCH   6  23
BRANCH   3  45
ATOM     45  O   UNL     1      17.495  13.827  15.649  1.00  0.00    -0.387 OA
ATOM     46  H   UNL     1      17.663  14.458  14.901  1.00  0.00     0.211 HD
ENDBRANCH   3  45
BRANCH   4  47
ATOM     47  C   UNL     1      19.150  13.900  18.087  1.00  0.00     0.191 C 
BRANCH  47  48
ATOM     48  O   UNL     1      17.978  14.679  18.166  1.00  0.00    -0.394 OA
ATOM     49  H   UNL     1      17.927  15.030  19.094  1.00  0.00     0.210 HD
ENDBRANCH  47  48
ENDBRANCH   4  47
TORSDOF 14
ENDMDL
MODEL 4
REMARK VINA RESULT:    -8.256      3.352      8.007
REMARK INTER + INTRA:         -14.891
REMARK INTER:                 -12.512
REMARK INTRA:                  -2.379
REMARK UNBOUND:                -1.808
REMARK SMILES C[C@H]1O[C@@H](O[C@H]2[C@@H](Oc3cc(O)c4c(c3)O[C@@H](c3ccc(O)cc3)CC4=O)O[C@H](CO)[C@H](O)[C@@H]2O)[C@@H](O)[C@@H](O)[C@@H]1O
REMARK SMILES IDX 6 1 34 2 32 3 29 4 28 5 7 6 5 7 4 8 1 9 2 10 40 11 3 12
REMARK SMILES IDX 38 13 36 14 41 15 39 17 37 19 35 21 8 23 9 24 10 25 15 26
REMARK SMILES IDX 11 27 14 28 13 29 16 30 26 31 17 32 27 33 25 34 12 35 18 37
REMARK SMILES IDX 19 38 24 39 20 40 23 41 21 42 22 43 33 45 30 47 31 48
REMARK H PARENT 41 16 39 18 37 20 35 22 12 36 22 44 33 46 31 49
REMARK Flexibility Score: inf
ROOT
ATOM      1  C   UNL     1      16.872   8.087  15.388  1.00  0.00     0.221 C 
ATOM      2  C   UNL     1      18.158   8.876  15.074  1.00  0.00     0.181 C 
ATOM      3  C   UNL     1      18.067  10.292  15.656  1.00  0.00     0.177 C 
ATOM      4  C   UNL     1      17.735  10.187  17.162  1.00  0.00     0.179 C 
ATOM      5  O   UNL     1      16.490   9.535  17.348  1.00  0.00    -0.332 OA
ATOM      6  C   UNL     1      16.535   8.193  16.889  1.00  0.00     0.339 C 
ENDROOT
BRANCH   1   7
ATOM      7  O   UNL     1      17.057   6.714  15.056  1.00  0.00    -0.337 OA
BRANCH   7   8
ATOM      8  C   UNL     1      16.422   6.373  13.834  1.00  0.00     0.282 C 
ATOM      9  C   UNL     1      15.353   4.357  16.057  1.00  0.00     0.041 C 
ATOM     10  C   UNL     1      15.176   4.436  14.533  1.00  0.00     0.150 C 
ATOM     11  C   UNL     1      16.095   3.473  13.728  1.00  0.00     0.174 C 
ATOM     12  O   UNL     1      15.147   5.773  14.050  1.00  0.00    -0.344 OA
ATOM     13  C   UNL     1      17.478   4.067  13.408  1.00  0.00     0.179 C 
ATOM     14  C   UNL     1      17.351   5.528  12.937  1.00  0.00     0.202 C 
BRANCH  11  15
ATOM     15  O   UNL     1      15.451   3.073  12.538  1.00  0.00    -0.388 OA
ATOM     16  H   UNL     1      14.478   3.038  12.720  1.00  0.00     0.211 HD
ENDBRANCH  11  15
BRANCH  13  17
ATOM     17  O   UNL     1      18.366   3.914  14.491  1.00  0.00    -0.387 OA
ATOM     18  H   UNL     1      18.569   2.956  14.593  1.00  0.00     0.211 HD
ENDBRANCH  13  17
BRANCH  14  19
ATOM     19  O   UNL     1      18.611   6.136  12.857  1.00  0.00    -0.385 OA
ATOM     20  H   UNL     1      18.642   6.619  11.991  1.00  0.00     0.211 HD
ENDBRANCH  14  19
ENDBRANCH   7   8
ENDBRANCH   1   7
BRANCH   2  21
ATOM     21  O   UNL     1      18.349   8.958  13.687  1.00  0.00    -0.387 OA
ATOM     22  H   UNL     1      17.497   9.279  13.295  1.00  0.00     0.211 HD
ENDBRANCH   2  21
BRANCH   6  23
ATOM     23  O   UNL     1      17.451   7.414  17.670  1.00  0.00    -0.462 OA
BRANCH  23  24
ATOM     24  C   UNL     1      17.104   6.339  18.506  1.00  0.00     0.130 A 
ATOM     25  C   UNL     1      17.966   5.242  18.556  1.00  0.00     0.093 A 
ATOM     26  C   UNL     1      15.917   6.306  19.256  1.00  0.00     0.094 A 
ATOM     27  C   UNL     1      17.646   4.097  19.295  1.00  0.00     0.133 A 
ATOM     28  C   UNL     1      15.574   5.171  19.989  1.00  0.00     0.138 A 
ATOM     29  C   UNL     1      16.439   4.064  20.039  1.00  0.00     0.102 A 
ATOM     30  O   UNL     1      14.337   5.144  20.647  1.00  0.00    -0.484 OA
ATOM     31  C   UNL     1      15.998   2.914  20.859  1.00  0.00     0.174 C 
ATOM     32  C   UNL     1      13.933   4.100  21.540  1.00  0.00     0.211 C 
ATOM     33  O   UNL     1      16.823   2.118  21.383  1.00  0.00    -0.294 OA
ATOM     34  C   UNL     1      14.534   2.746  21.124  1.00  0.00     0.131 C 
BRANCH  27  35
ATOM     35  O   UNL     1      18.521   3.011  19.212  1.00  0.00    -0.507 OA
ATOM     36  H   UNL     1      18.258   2.059  19.424  1.00  0.00     0.293 HD
ENDBRANCH  27  35
BRANCH  32  37
ATOM     37  C   UNL     1      12.426   4.021  21.572  1.00  0.00    -0.007 A 
ATOM     38  C   UNL     1      11.782   2.823  21.923  1.00  0.00     0.011 A 
ATOM     39  C   UNL     1      11.647   5.136  21.212  1.00  0.00     0.011 A 
ATOM     40  C   UNL     1      10.384   2.750  21.937  1.00  0.00     0.046 A 
ATOM     41  C   UNL     1      10.251   5.059  21.229  1.00  0.00     0.046 A 
ATOM     42  C   UNL     1       9.616   3.866  21.593  1.00  0.00     0.115 A 
BRANCH  42  43
ATOM     43  O   UNL     1       8.224   3.781  21.620  1.00  0.00    -0.508 OA
ATOM     44  H   UNL     1       7.646   4.611  21.670  1.00  0.00     0.293 HD
ENDBRANCH  42  43
ENDBRANCH  32  37
ENDBRANCH  23  24
ENDBRANCH   6  23
BRANCH   3  45
ATOM     45  O   UNL     1      17.068  11.018  14.980  1.00  0.00    -0.387 OA
ATOM     46  H   UNL     1      17.253  10.939  14.007  1.00  0.00     0.211 HD
ENDBRANCH   3  45
BRANCH   4  47
ATOM     47  C   UNL     1      17.670  11.574  17.811  1.00  0.00     0.191 C 
BRANCH  47  48
ATOM     48  O   UNL     1      16.331  12.006  17.894  1.00  0.00    -0.394 OA
ATOM     49  H   UNL     1      16.347  12.922  18.277  1.00  0.00     0.210 HD
ENDBRANCH  47  48
ENDBRANCH   4  47
TORSDOF 14
ENDMDL
MODEL 5
REMARK VINA RESULT:    -8.067      5.232      9.762
REMARK INTER + INTRA:         -14.590
REMARK INTER:                 -12.797
REMARK INTRA:                  -1.793
REMARK UNBOUND:                -1.808
REMARK SMILES C[C@H]1O[C@@H](O[C@H]2[C@@H](Oc3cc(O)c4c(c3)O[C@@H](c3ccc(O)cc3)CC4=O)O[C@H](CO)[C@H](O)[C@@H]2O)[C@@H](O)[C@@H](O)[C@@H]1O
REMARK SMILES IDX 6 1 34 2 32 3 29 4 28 5 7 6 5 7 4 8 1 9 2 10 40 11 3 12
REMARK SMILES IDX 38 13 36 14 41 15 39 17 37 19 35 21 8 23 9 24 10 25 15 26
REMARK SMILES IDX 11 27 14 28 13 29 16 30 26 31 17 32 27 33 25 34 12 35 18 37
REMARK SMILES IDX 19 38 24 39 20 40 23 41 21 42 22 43 33 45 30 47 31 48
REMARK H PARENT 41 16 39 18 37 20 35 22 12 36 22 44 33 46 31 49
REMARK Flexibility Score: inf
ROOT
ATOM      1  C   UNL     1      16.912  15.054  13.647  1.00  0.00     0.221 C 
ATOM      2  C   UNL     1      15.608  15.813  13.955  1.00  0.00     0.181 C 
ATOM      3  C   UNL     1      14.769  15.967  12.679  1.00  0.00     0.177 C 
ATOM      4  C   UNL     1      14.561  14.569  12.054  1.00  0.00     0.179 C 
ATOM      5  O   UNL     1      15.810  13.990  11.714  1.00  0.00    -0.332 OA
ATOM      6  C   UNL     1      16.604  13.760  12.867  1.00  0.00     0.339 C 
ENDROOT
BRANCH   1   7
ATOM      7  O   UNL     1      17.567  14.709  14.864  1.00  0.00    -0.337 OA
BRANCH   7   8
ATOM      8  C   UNL     1      18.661  15.571  15.141  1.00  0.00     0.282 C 
ATOM      9  C   UNL     1      19.757  12.582  15.240  1.00  0.00     0.041 C 
ATOM     10  C   UNL     1      20.379  13.944  15.583  1.00  0.00     0.150 C 
ATOM     11  C   UNL     1      20.396  14.279  17.103  1.00  0.00     0.174 C 
ATOM     12  O   UNL     1      19.902  14.993  14.748  1.00  0.00    -0.344 OA
ATOM     13  C   UNL     1      19.106  14.955  17.598  1.00  0.00     0.179 C 
ATOM     14  C   UNL     1      18.643  16.043  16.611  1.00  0.00     0.202 C 
BRANCH  11  15
ATOM     15  O   UNL     1      21.514  15.084  17.406  1.00  0.00    -0.388 OA
ATOM     16  H   UNL     1      21.338  15.529  18.273  1.00  0.00     0.211 HD
ENDBRANCH  11  15
BRANCH  13  17
ATOM     17  O   UNL     1      18.103  14.005  17.879  1.00  0.00    -0.387 OA
ATOM     18  H   UNL     1      18.421  13.122  17.582  1.00  0.00     0.211 HD
ENDBRANCH  13  17
BRANCH  14  19
ATOM     19  O   UNL     1      17.362  16.504  16.943  1.00  0.00    -0.385 OA
ATOM     20  H   UNL     1      16.778  16.311  16.165  1.00  0.00     0.211 HD
ENDBRANCH  14  19
ENDBRANCH   7   8
ENDBRANCH   1   7
BRANCH   2  21
ATOM     21  O   UNL     1      15.897  17.084  14.472  1.00  0.00    -0.387 OA
ATOM     22  H   UNL     1      15.209  17.281  15.159  1.00  0.00     0.211 HD
ENDBRANCH   2  21
BRANCH   6  23
ATOM     23  O   UNL     1      15.996  12.785  13.723  1.00  0.00    -0.462 OA
BRANCH  23  24
ATOM     24  C   UNL     1      16.297  11.412  13.744  1.00  0.00     0.130 A 
ATOM     25  C   UNL     1      15.721  10.599  12.767  1.00  0.00     0.093 A 
ATOM     26  C   UNL     1      17.114  10.824  14.725  1.00  0.00     0.094 A 
ATOM     27  C   UNL     1      15.902   9.210  12.776  1.00  0.00     0.133 A 
ATOM     28  C   UNL     1      17.297   9.443  14.757  1.00  0.00     0.138 A 
ATOM     29  C   UNL     1      16.717   8.621  13.776  1.00  0.00     0.102 A 
ATOM     30  O   UNL     1      18.043   8.888  15.807  1.00  0.00    -0.484 OA
ATOM     31  C   UNL     1      16.983   7.169  13.883  1.00  0.00     0.174 C 
ATOM     32  C   UNL     1      18.416   7.507  15.875  1.00  0.00     0.211 C 
ATOM     33  O   UNL     1      16.965   6.415  12.874  1.00  0.00    -0.294 OA
ATOM     34  C   UNL     1      17.352   6.608  15.222  1.00  0.00     0.131 C 
BRANCH  27  35
ATOM     35  O   UNL     1      15.212   8.465  11.816  1.00  0.00    -0.507 OA
ATOM     36  H   UNL     1      15.302   7.464  11.709  1.00  0.00     0.293 HD
ENDBRANCH  27  35
BRANCH  32  37
ATOM     37  C   UNL     1      18.626   7.114  17.317  1.00  0.00    -0.007 A 
ATOM     38  C   UNL     1      17.865   7.710  18.337  1.00  0.00     0.011 A 
ATOM     39  C   UNL     1      19.614   6.174  17.661  1.00  0.00     0.011 A 
ATOM     40  C   UNL     1      18.074   7.352  19.674  1.00  0.00     0.046 A 
ATOM     41  C   UNL     1      19.817   5.818  18.998  1.00  0.00     0.046 A 
ATOM     42  C   UNL     1      19.047   6.406  20.008  1.00  0.00     0.115 A 
BRANCH  42  43
ATOM     43  O   UNL     1      19.238   6.054  21.344  1.00  0.00    -0.508 OA
ATOM     44  H   UNL     1      18.585   6.339  22.063  1.00  0.00     0.293 HD
ENDBRANCH  42  43
ENDBRANCH  32  37
ENDBRANCH  23  24
ENDBRANCH   6  23
BRANCH   3  45
ATOM     45  O   UNL     1      15.434  16.817  11.776  1.00  0.00    -0.387 OA
ATOM     46  H   UNL     1      16.231  17.180  12.245  1.00  0.00     0.211 HD
ENDBRANCH   3  45
BRANCH   4  47
ATOM     47  C   UNL     1      13.694  14.652  10.793  1.00  0.00     0.191 C 
BRANCH  47  48
ATOM     48  O   UNL     1      14.392  14.118   9.691  1.00  0.00    -0.394 OA
ATOM     49  H   UNL     1      14.740  14.888   9.169  1.00  0.00     0.210 HD
ENDBRANCH  47  48
ENDBRANCH   4  47
TORSDOF 14
ENDMDL
MODEL 6
REMARK VINA RESULT:    -8.011      3.916      8.063
REMARK INTER + INTRA:         -14.502
REMARK INTER:                 -12.454
REMARK INTRA:                  -2.048
REMARK UNBOUND:                -1.808
REMARK SMILES C[C@H]1O[C@@H](O[C@H]2[C@@H](Oc3cc(O)c4c(c3)O[C@@H](c3ccc(O)cc3)CC4=O)O[C@H](CO)[C@H](O)[C@@H]2O)[C@@H](O)[C@@H](O)[C@@H]1O
REMARK SMILES IDX 6 1 34 2 32 3 29 4 28 5 7 6 5 7 4 8 1 9 2 10 40 11 3 12
REMARK SMILES IDX 38 13 36 14 41 15 39 17 37 19 35 21 8 23 9 24 10 25 15 26
REMARK SMILES IDX 11 27 14 28 13 29 16 30 26 31 17 32 27 33 25 34 12 35 18 37
REMARK SMILES IDX 19 38 24 39 20 40 23 41 21 42 22 43 33 45 30 47 31 48
REMARK H PARENT 41 16 39 18 37 20 35 22 12 36 22 44 33 46 31 49
REMARK Flexibility Score: inf
ROOT
ATOM      1  C   UNL     1      17.459   7.886  14.547  1.00  0.00     0.221 C 
ATOM      2  C   UNL     1      16.581   7.498  13.342  1.00  0.00     0.181 C 
ATOM      3  C   UNL     1      16.763   6.012  13.009  1.00  0.00     0.177 C 
ATOM      4  C   UNL     1      16.496   5.183  14.286  1.00  0.00     0.179 C 
ATOM      5  O   UNL     1      17.413   5.540  15.306  1.00  0.00    -0.332 OA
ATOM      6  C   UNL     1      17.245   6.891  15.705  1.00  0.00     0.339 C 
ENDROOT
BRANCH   1   7
ATOM      7  O   UNL     1      17.111   9.193  14.995  1.00  0.00    -0.337 OA
BRANCH   7   8
ATOM      8  C   UNL     1      18.201  10.097  14.893  1.00  0.00     0.282 C 
ATOM      9  C   UNL     1      17.319  10.010  17.953  1.00  0.00     0.041 C 
ATOM     10  C   UNL     1      18.316  10.875  17.168  1.00  0.00     0.150 C 
ATOM     11  C   UNL     1      17.779  12.284  16.782  1.00  0.00     0.174 C 
ATOM     12  O   UNL     1      18.944  10.167  16.107  1.00  0.00    -0.344 OA
ATOM     13  C   UNL     1      17.005  12.304  15.453  1.00  0.00     0.179 C 
ATOM     14  C   UNL     1      17.737  11.477  14.380  1.00  0.00     0.202 C 
BRANCH  11  15
ATOM     15  O   UNL     1      18.843  13.210  16.739  1.00  0.00    -0.388 OA
ATOM     16  H   UNL     1      19.495  12.952  17.439  1.00  0.00     0.211 HD
ENDBRANCH  11  15
BRANCH  13  17
ATOM     17  O   UNL     1      15.665  11.908  15.633  1.00  0.00    -0.387 OA
ATOM     18  H   UNL     1      15.274  12.452  16.354  1.00  0.00     0.211 HD
ENDBRANCH  13  17
BRANCH  14  19
ATOM     19  O   UNL     1      16.932  11.311  13.244  1.00  0.00    -0.385 OA
ATOM     20  H   UNL     1      16.181  10.719  13.510  1.00  0.00     0.211 HD
ENDBRANCH  14  19
ENDBRANCH   7   8
ENDBRANCH   1   7
BRANCH   2  21
ATOM     21  O   UNL     1      16.928   8.267  12.222  1.00  0.00    -0.387 OA
ATOM     22  H   UNL     1      16.517   7.831  11.432  1.00  0.00     0.211 HD
ENDBRANCH   2  21
BRANCH   6  23
ATOM     23  O   UNL     1      15.962   7.091  16.312  1.00  0.00    -0.462 OA
BRANCH  23  24
ATOM     24  C   UNL     1      15.537   6.531  17.529  1.00  0.00     0.130 A 
ATOM     25  C   UNL     1      16.512   6.082  18.422  1.00  0.00     0.093 A 
ATOM     26  C   UNL     1      14.182   6.369  17.864  1.00  0.00     0.094 A 
ATOM     27  C   UNL     1      16.166   5.433  19.613  1.00  0.00     0.133 A 
ATOM     28  C   UNL     1      13.817   5.715  19.040  1.00  0.00     0.138 A 
ATOM     29  C   UNL     1      14.797   5.260  19.939  1.00  0.00     0.102 A 
ATOM     30  O   UNL     1      12.456   5.491  19.290  1.00  0.00    -0.484 OA
ATOM     31  C   UNL     1      14.312   4.595  21.169  1.00  0.00     0.174 C 
ATOM     32  C   UNL     1      11.949   4.958  20.518  1.00  0.00     0.211 C 
ATOM     33  O   UNL     1      14.988   4.592  22.232  1.00  0.00    -0.294 OA
ATOM     34  C   UNL     1      12.948   3.976  21.155  1.00  0.00     0.131 C 
BRANCH  27  35
ATOM     35  O   UNL     1      17.207   4.934  20.401  1.00  0.00    -0.507 OA
ATOM     36  H   UNL     1      18.020   4.465  20.027  1.00  0.00     0.293 HD
ENDBRANCH  27  35
BRANCH  32  37
ATOM     37  C   UNL     1      10.627   4.275  20.263  1.00  0.00    -0.007 A 
ATOM     38  C   UNL     1       9.740   4.021  21.322  1.00  0.00     0.011 A 
ATOM     39  C   UNL     1      10.286   3.849  18.967  1.00  0.00     0.011 A 
ATOM     40  C   UNL     1       8.522   3.374  21.082  1.00  0.00     0.046 A 
ATOM     41  C   UNL     1       9.067   3.205  18.732  1.00  0.00     0.046 A 
ATOM     42  C   UNL     1       8.182   2.967  19.789  1.00  0.00     0.115 A 
BRANCH  42  43
ATOM     43  O   UNL     1       6.961   2.331  19.565  1.00  0.00    -0.508 OA
ATOM     44  H   UNL     1       6.229   2.771  19.021  1.00  0.00     0.293 HD
ENDBRANCH  42  43
ENDBRANCH  32  37
ENDBRANCH  23  24
ENDBRANCH   6  23
BRANCH   3  45
ATOM     45  O   UNL     1      18.072   5.788  12.541  1.00  0.00    -0.387 OA
ATOM     46  H   UNL     1      17.998   5.396  11.632  1.00  0.00     0.211 HD
ENDBRANCH   3  45
BRANCH   4  47
ATOM     47  C   UNL     1      16.624   3.682  14.007  1.00  0.00     0.191 C 
BRANCH  47  48
ATOM     48  O   UNL     1      16.072   3.376  12.747  1.00  0.00    -0.394 OA
ATOM     49  H   UNL     1      16.098   4.211  12.210  1.00  0.00     0.210 HD
ENDBRANCH  47  48
ENDBRANCH   4  47
TORSDOF 14
ENDMDL
MODEL 7
REMARK VINA RESULT:    -7.891      2.309      4.852
REMARK INTER + INTRA:         -14.311
REMARK INTER:                 -12.402
REMARK INTRA:                  -1.909
REMARK UNBOUND:                -1.808
REMARK SMILES C[C@H]1O[C@@H](O[C@H]2[C@@H](Oc3cc(O)c4c(c3)O[C@@H](c3ccc(O)cc3)CC4=O)O[C@H](CO)[C@H](O)[C@@H]2O)[C@@H](O)[C@@H](O)[C@@H]1O
REMARK SMILES IDX 6 1 34 2 32 3 29 4 28 5 7 6 5 7 4 8 1 9 2 10 40 11 3 12
REMARK SMILES IDX 38 13 36 14 41 15 39 17 37 19 35 21 8 23 9 24 10 25 15 26
REMARK SMILES IDX 11 27 14 28 13 29 16 30 26 31 17 32 27 33 25 34 12 35 18 37
REMARK SMILES IDX 19 38 24 39 20 40 23 41 21 42 22 43 33 45 30 47 31 48
REMARK H PARENT 41 16 39 18 37 20 35 22 12 36 22 44 33 46 31 49
REMARK Flexibility Score: inf
ROOT
ATOM      1  C   UNL     1      17.862   7.019  15.724  1.00  0.00     0.221 C 
ATOM      2  C   UNL     1      17.092   8.345  15.878  1.00  0.00     0.181 C 
ATOM      3  C   UNL     1      16.888   9.002  14.507  1.00  0.00     0.177 C 
ATOM      4  C   UNL     1      16.214   7.978  13.564  1.00  0.00     0.179 C 
ATOM      5  O   UNL     1      17.039   6.836  13.407  1.00  0.00    -0.332 OA
ATOM      6  C   UNL     1      17.208   6.146  14.635  1.00  0.00     0.339 C 
ENDROOT
BRANCH   1   7
ATOM      7  O   UNL     1      17.841   6.305  16.957  1.00  0.00    -0.337 OA
BRANCH   7   8
ATOM      8  C   UNL     1      18.756   5.220  16.958  1.00  0.00     0.282 C 
ATOM      9  C   UNL     1      16.341   4.427  18.878  1.00  0.00     0.041 C 
ATOM     10  C   UNL     1      17.694   3.774  18.562  1.00  0.00     0.150 C 
ATOM     11  C   UNL     1      18.799   4.036  19.627  1.00  0.00     0.174 C 
ATOM     12  O   UNL     1      18.105   3.979  17.216  1.00  0.00    -0.344 OA
ATOM     13  C   UNL     1      19.586   5.337  19.389  1.00  0.00     0.179 C 
ATOM     14  C   UNL     1      19.947   5.494  17.901  1.00  0.00     0.202 C 
BRANCH  11  15
ATOM     15  O   UNL     1      19.682   2.937  19.686  1.00  0.00    -0.388 OA
ATOM     16  H   UNL     1      19.603   2.442  18.832  1.00  0.00     0.211 HD
ENDBRANCH  11  15
BRANCH  13  17
ATOM     17  O   UNL     1      18.902   6.453  19.910  1.00  0.00    -0.387 OA
ATOM     18  H   UNL     1      17.948   6.222  19.992  1.00  0.00     0.211 HD
ENDBRANCH  13  17
BRANCH  14  19
ATOM     19  O   UNL     1      20.465   6.772  17.648  1.00  0.00    -0.385 OA
ATOM     20  H   UNL     1      19.995   7.117  16.846  1.00  0.00     0.211 HD
ENDBRANCH  14  19
ENDBRANCH   7   8
ENDBRANCH   1   7
BRANCH   2  21
ATOM     21  O   UNL     1      17.801   9.223  16.709  1.00  0.00    -0.387 OA
ATOM     22  H   UNL     1      18.714   8.850  16.815  1.00  0.00     0.211 HD
ENDBRANCH   2  21
BRANCH   6  23
ATOM     23  O   UNL     1      15.962   5.608  15.097  1.00  0.00    -0.462 OA
BRANCH  23  24
ATOM     24  C   UNL     1      15.472   4.321  14.818  1.00  0.00     0.130 A 
ATOM     25  C   UNL     1      15.623   3.828  13.521  1.00  0.00     0.093 A 
ATOM     26  C   UNL     1      14.806   3.533  15.772  1.00  0.00     0.094 A 
ATOM     27  C   UNL     1      15.083   2.593  13.143  1.00  0.00     0.133 A 
ATOM     28  C   UNL     1      14.252   2.306  15.413  1.00  0.00     0.138 A 
ATOM     29  C   UNL     1      14.400   1.808  14.107  1.00  0.00     0.102 A 
ATOM     30  O   UNL     1      13.515   1.595  16.371  1.00  0.00    -0.484 OA
ATOM     31  C   UNL     1      13.793   0.488  13.827  1.00  0.00     0.174 C 
ATOM     32  C   UNL     1      13.017   0.268  16.168  1.00  0.00     0.211 C 
ATOM     33  O   UNL     1      14.242  -0.271  12.926  1.00  0.00    -0.294 OA
ATOM     34  C   UNL     1      12.662   0.024  14.691  1.00  0.00     0.131 C 
BRANCH  27  35
ATOM     35  O   UNL     1      15.201   2.221  11.800  1.00  0.00    -0.507 OA
ATOM     36  H   UNL     1      15.858   1.532  11.463  1.00  0.00     0.293 HD
ENDBRANCH  27  35
BRANCH  32  37
ATOM     37  C   UNL     1      11.808   0.046  17.045  1.00  0.00    -0.007 A 
ATOM     38  C   UNL     1      11.717   0.663  18.304  1.00  0.00     0.011 A 
ATOM     39  C   UNL     1      10.776  -0.814  16.628  1.00  0.00     0.011 A 
ATOM     40  C   UNL     1      10.601   0.441  19.119  1.00  0.00     0.046 A 
ATOM     41  C   UNL     1       9.662  -1.031  17.445  1.00  0.00     0.046 A 
ATOM     42  C   UNL     1       9.571  -0.403  18.692  1.00  0.00     0.115 A 
BRANCH  42  43
ATOM     43  O   UNL     1       8.462  -0.607  19.512  1.00  0.00    -0.508 OA
ATOM     44  H   UNL     1       8.550  -1.047  20.420  1.00  0.00     0.293 HD
ENDBRANCH  42  43
ENDBRANCH  32  37
ENDBRANCH  23  24
ENDBRANCH   6  23
BRANCH   3  45
ATOM     45  O   UNL     1      18.131   9.407  13.986  1.00  0.00    -0.387 OA
ATOM     46  H   UNL     1      18.836   8.979  14.540  1.00  0.00     0.211 HD
ENDBRANCH   3  45
BRANCH   4  47
ATOM     47  C   UNL     1      15.946   8.591  12.185  1.00  0.00     0.191 C 
BRANCH  47  48
ATOM     48  O   UNL     1      16.997   8.270  11.303  1.00  0.00    -0.394 OA
ATOM     49  H   UNL     1      16.640   7.604  10.659  1.00  0.00     0.210 HD
ENDBRANCH  47  48
ENDBRANCH   4  47
TORSDOF 14
ENDMDL
MODEL 8
REMARK VINA RESULT:    -7.878      5.474      8.898
REMARK INTER + INTRA:         -14.291
REMARK INTER:                 -12.072
REMARK INTRA:                  -2.219
REMARK UNBOUND:                -1.808
REMARK SMILES C[C@H]1O[C@@H](O[C@H]2[C@@H](Oc3cc(O)c4c(c3)O[C@@H](c3ccc(O)cc3)CC4=O)O[C@H](CO)[C@H](O)[C@@H]2O)[C@@H](O)[C@@H](O)[C@@H]1O
REMARK SMILES IDX 6 1 34 2 32 3 29 4 28 5 7 6 5 7 4 8 1 9 2 10 40 11 3 12
REMARK SMILES IDX 38 13 36 14 41 15 39 17 37 19 35 21 8 23 9 24 10 25 15 26
REMARK SMILES IDX 11 27 14 28 13 29 16 30 26 31 17 32 27 33 25 34 12 35 18 37
REMARK SMILES IDX 19 38 24 39 20 40 23 41 21 42 22 43 33 45 30 47 31 48
REMARK H PARENT 41 16 39 18 37 20 35 22 12 36 22 44 33 46 31 49
REMARK Flexibility Score: inf
ROOT
ATOM      1  C   UNL     1      17.662  11.553  14.999  1.00  0.00     0.221 C 
ATOM      2  C   UNL     1      16.160  11.754  14.722  1.00  0.00     0.181 C 
ATOM      3  C   UNL     1      15.649  10.678  13.756  1.00  0.00     0.177 C 
ATOM      4  C   UNL     1      16.012   9.288  14.328  1.00  0.00     0.179 C 
ATOM      5  O   UNL     1      17.418   9.159  14.456  1.00  0.00    -0.332 OA
ATOM      6  C   UNL     1      17.940  10.088  15.393  1.00  0.00     0.339 C 
ENDROOT
BRANCH   1   7
ATOM      7  O   UNL     1      18.071  12.400  16.068  1.00  0.00    -0.337 OA
BRANCH   7   8
ATOM      8  C   UNL     1      19.188  13.201  15.713  1.00  0.00     0.282 C 
ATOM      9  C   UNL     1      19.772  11.984  18.598  1.00  0.00     0.041 C 
ATOM     10  C   UNL     1      20.494  13.022  17.727  1.00  0.00     0.150 C 
ATOM     11  C   UNL     1      20.210  14.501  18.120  1.00  0.00     0.174 C 
ATOM     12  O   UNL     1      20.386  12.745  16.336  1.00  0.00    -0.344 OA
ATOM     13  C   UNL     1      18.957  15.086  17.447  1.00  0.00     0.179 C 
ATOM     14  C   UNL     1      18.903  14.699  15.958  1.00  0.00     0.202 C 
BRANCH  11  15
ATOM     15  O   UNL     1      21.336  15.300  17.832  1.00  0.00    -0.388 OA
ATOM     16  H   UNL     1      21.055  16.248  17.890  1.00  0.00     0.211 HD
ENDBRANCH  11  15
BRANCH  13  17
ATOM     17  O   UNL     1      17.786  14.737  18.149  1.00  0.00    -0.387 OA
ATOM     18  H   UNL     1      17.195  14.239  17.539  1.00  0.00     0.211 HD
ENDBRANCH  13  17
BRANCH  14  19
ATOM     19  O   UNL     1      17.664  15.041  15.400  1.00  0.00    -0.385 OA
ATOM     20  H   UNL     1      17.263  14.200  15.056  1.00  0.00     0.211 HD
ENDBRANCH  14  19
ENDBRANCH   7   8
ENDBRANCH   1   7
BRANCH   2  21
ATOM     21  O   UNL     1      15.936  13.020  14.162  1.00  0.00    -0.387 OA
ATOM     22  H   UNL     1      15.102  13.373  14.568  1.00  0.00     0.211 HD
ENDBRANCH   2  21
BRANCH   6  23
ATOM     23  O   UNL     1      17.449   9.817  16.712  1.00  0.00    -0.462 OA
BRANCH  23  24
ATOM     24  C   UNL     1      17.793   8.706  17.501  1.00  0.00     0.130 A 
ATOM     25  C   UNL     1      19.064   8.152  17.336  1.00  0.00     0.093 A 
ATOM     26  C   UNL     1      16.904   8.111  18.412  1.00  0.00     0.094 A 
ATOM     27  C   UNL     1      19.447   6.992  18.020  1.00  0.00     0.133 A 
ATOM     28  C   UNL     1      17.263   6.949  19.094  1.00  0.00     0.138 A 
ATOM     29  C   UNL     1      18.540   6.388  18.928  1.00  0.00     0.102 A 
ATOM     30  O   UNL     1      16.312   6.335  19.922  1.00  0.00    -0.484 OA
ATOM     31  C   UNL     1      18.835   5.166  19.709  1.00  0.00     0.174 C 
ATOM     32  C   UNL     1      16.601   5.224  20.777  1.00  0.00     0.211 C 
ATOM     33  O   UNL     1      20.012   4.859  20.041  1.00  0.00    -0.294 OA
ATOM     34  C   UNL     1      17.689   4.320  20.171  1.00  0.00     0.131 C 
BRANCH  27  35
ATOM     35  O   UNL     1      20.703   6.455  17.723  1.00  0.00    -0.507 OA
ATOM     36  H   UNL     1      21.211   5.838  18.342  1.00  0.00     0.293 HD
ENDBRANCH  27  35
BRANCH  32  37
ATOM     37  C   UNL     1      15.337   4.436  21.023  1.00  0.00    -0.007 A 
ATOM     38  C   UNL     1      14.083   4.982  20.703  1.00  0.00     0.011 A 
ATOM     39  C   UNL     1      15.398   3.161  21.612  1.00  0.00     0.011 A 
ATOM     40  C   UNL     1      12.913   4.254  20.947  1.00  0.00     0.046 A 
ATOM     41  C   UNL     1      14.227   2.436  21.852  1.00  0.00     0.046 A 
ATOM     42  C   UNL     1      12.981   2.980  21.518  1.00  0.00     0.115 A 
BRANCH  42  43
ATOM     43  O   UNL     1      11.807   2.263  21.747  1.00  0.00    -0.508 OA
ATOM     44  H   UNL     1      11.828   1.317  22.107  1.00  0.00     0.293 HD
ENDBRANCH  42  43
ENDBRANCH  32  37
ENDBRANCH  23  24
ENDBRANCH   6  23
BRANCH   3  45
ATOM     45  O   UNL     1      16.240  10.859  12.491  1.00  0.00    -0.387 OA
ATOM     46  H   UNL     1      16.009  11.776  12.186  1.00  0.00     0.211 HD
ENDBRANCH   3  45
BRANCH   4  47
ATOM     47  C   UNL     1      15.491   8.165  13.424  1.00  0.00     0.191 C 
BRANCH  47  48
ATOM     48  O   UNL     1      16.325   8.029  12.296  1.00  0.00    -0.394 OA
ATOM     49  H   UNL     1      16.390   8.926  11.875  1.00  0.00     0.210 HD
ENDBRANCH  47  48
ENDBRANCH   4  47
TORSDOF 14
ENDMDL
MODEL 9
REMARK VINA RESULT:    -7.842      3.257      8.164
REMARK INTER + INTRA:         -14.233
REMARK INTER:                 -11.770
REMARK INTRA:                  -2.463
REMARK UNBOUND:                -1.808
REMARK SMILES C[C@H]1O[C@@H](O[C@H]2[C@@H](Oc3cc(O)c4c(c3)O[C@@H](c3ccc(O)cc3)CC4=O)O[C@H](CO)[C@H](O)[C@@H]2O)[C@@H](O)[C@@H](O)[C@@H]1O
REMARK SMILES IDX 6 1 34 2 32 3 29 4 28 5 7 6 5 7 4 8 1 9 2 10 40 11 3 12
REMARK SMILES IDX 38 13 36 14 41 15 39 17 37 19 35 21 8 23 9 24 10 25 15 26
REMARK SMILES IDX 11 27 14 28 13 29 16 30 26 31 17 32 27 33 25 34 12 35 18 37
REMARK SMILES IDX 19 38 24 39 20 40 23 41 21 42 22 43 33 45 30 47 31 48
REMARK H PARENT 41 16 39 18 37 20 35 22 12 36 22 44 33 46 31 49
REMARK Flexibility Score: inf
ROOT
ATOM      1  C   UNL     1      15.958   7.129  14.890  1.00  0.00     0.221 C 
ATOM      2  C   UNL     1      17.124   7.347  13.906  1.00  0.00     0.181 C 
ATOM      3  C   UNL     1      17.627   8.793  13.991  1.00  0.00     0.177 C 
ATOM      4  C   UNL     1      17.968   9.112  15.465  1.00  0.00     0.179 C 
ATOM      5  O   UNL     1      16.814   8.980  16.277  1.00  0.00    -0.332 OA
ATOM      6  C   UNL     1      16.342   7.643  16.292  1.00  0.00     0.339 C 
ENDROOT
BRANCH   1   7
ATOM      7  O   UNL     1      15.656   5.740  14.977  1.00  0.00    -0.337 OA
BRANCH   7   8
ATOM      8  C   UNL     1      14.274   5.512  15.209  1.00  0.00     0.282 C 
ATOM      9  C   UNL     1      15.843   2.911  16.171  1.00  0.00     0.041 C 
ATOM     10  C   UNL     1      14.352   3.245  16.018  1.00  0.00     0.150 C 
ATOM     11  C   UNL     1      13.698   2.691  14.719  1.00  0.00     0.174 C 
ATOM     12  O   UNL     1      14.062   4.610  16.293  1.00  0.00    -0.344 OA
ATOM     13  C   UNL     1      13.840   3.631  13.509  1.00  0.00     0.179 C 
ATOM     14  C   UNL     1      13.551   5.089  13.912  1.00  0.00     0.202 C 
BRANCH  11  15
ATOM     15  O   UNL     1      12.338   2.398  14.951  1.00  0.00    -0.388 OA
ATOM     16  H   UNL     1      11.798   3.037  14.421  1.00  0.00     0.211 HD
ENDBRANCH  11  15
BRANCH  13  17
ATOM     17  O   UNL     1      15.089   3.472  12.878  1.00  0.00    -0.387 OA
ATOM     18  H   UNL     1      15.713   4.137  13.251  1.00  0.00     0.211 HD
ENDBRANCH  13  17
BRANCH  14  19
ATOM     19  O   UNL     1      13.891   5.968  12.875  1.00  0.00    -0.385 OA
ATOM     20  H   UNL     1      14.690   5.586  12.427  1.00  0.00     0.211 HD
ENDBRANCH  14  19
ENDBRANCH   7   8
ENDBRANCH   1   7
BRANCH   2  21
ATOM     21  O   UNL     1      16.707   7.080  12.594  1.00  0.00    -0.387 OA
ATOM     22  H   UNL     1      16.616   6.096  12.513  1.00  0.00     0.211 HD
ENDBRANCH   2  21
BRANCH   6  23
ATOM     23  O   UNL     1      17.296   6.768  16.908  1.00  0.00    -0.462 OA
BRANCH  23  24
ATOM     24  C   UNL     1      17.033   5.890  17.973  1.00  0.00     0.130 A 
ATOM     25  C   UNL     1      17.962   4.881  18.236  1.00  0.00     0.093 A 
ATOM     26  C   UNL     1      15.865   5.959  18.751  1.00  0.00     0.094 A 
ATOM     27  C   UNL     1      17.727   3.914  19.221  1.00  0.00     0.133 A 
ATOM     28  C   UNL     1      15.609   5.000  19.729  1.00  0.00     0.138 A 
ATOM     29  C   UNL     1      16.541   3.982  19.994  1.00  0.00     0.102 A 
ATOM     30  O   UNL     1      14.389   5.052  20.418  1.00  0.00    -0.484 OA
ATOM     31  C   UNL     1      16.188   3.022  21.064  1.00  0.00     0.174 C 
ATOM     32  C   UNL     1      14.068   4.213  21.533  1.00  0.00     0.211 C 
ATOM     33  O   UNL     1      17.071   2.410  21.723  1.00  0.00    -0.294 OA
ATOM     34  C   UNL     1      14.743   2.836  21.409  1.00  0.00     0.131 C 
BRANCH  27  35
ATOM     35  O   UNL     1      18.667   2.887  19.352  1.00  0.00    -0.507 OA
ATOM     36  H   UNL     1      19.658   3.042  19.464  1.00  0.00     0.293 HD
ENDBRANCH  27  35
BRANCH  32  37
ATOM     37  C   UNL     1      12.570   4.060  21.633  1.00  0.00    -0.007 A 
ATOM     38  C   UNL     1      11.727   5.174  21.480  1.00  0.00     0.011 A 
ATOM     39  C   UNL     1      12.001   2.806  21.919  1.00  0.00     0.011 A 
ATOM     40  C   UNL     1      10.339   5.029  21.588  1.00  0.00     0.046 A 
ATOM     41  C   UNL     1      10.614   2.666  22.023  1.00  0.00     0.046 A 
ATOM     42  C   UNL     1       9.779   3.777  21.857  1.00  0.00     0.115 A 
BRANCH  42  43
ATOM     43  O   UNL     1       8.394   3.646  21.953  1.00  0.00    -0.508 OA
ATOM     44  H   UNL     1       7.862   4.160  22.645  1.00  0.00     0.293 HD
ENDBRANCH  42  43
ENDBRANCH  32  37
ENDBRANCH  23  24
ENDBRANCH   6  23
BRANCH   3  45
ATOM     45  O   UNL     1      16.633   9.669  13.515  1.00  0.00    -0.387 OA
ATOM     46  H   UNL     1      16.891  10.587  13.793  1.00  0.00     0.211 HD
ENDBRANCH   3  45
BRANCH   4  47
ATOM     47  C   UNL     1      18.516  10.536  15.609  1.00  0.00     0.191 C 
BRANCH  47  48
ATOM     48  O   UNL     1      19.016  10.989  14.372  1.00  0.00    -0.394 OA
ATOM     49  H   UNL     1      19.369  10.193  13.895  1.00  0.00     0.210 HD
ENDBRANCH  47  48
ENDBRANCH   4  47
TORSDOF 14
ENDMDL
