MODEL 1
REMARK VINA RESULT:    -5.260      0.000      0.000
REMARK INTER + INTRA:          -5.414
REMARK INTER:                  -5.414
REMARK INTRA:                   0.000
REMARK UNBOUND:                 0.000
REMARK SMILES C=C1CCC[C@]2(C)C[C@]3(O)OC(=O)C(C)=C3C[C@@H]12
REMARK SMILES IDX 15 1 14 2 16 3 17 4 18 5 2 6 1 7 3 8 4 9 5 10 6 11 8 12 9 13
REMARK SMILES IDX 11 14 12 15 13 16 7 17 10 18
REMARK H PARENT 10 19
REMARK Flexibility Score: inf
ROOT
ATOM      1  C   UNL     1      22.632  33.564  27.872  1.00  0.00     0.052 C 
ATOM      2  C   UNL     1      21.988  32.343  28.452  1.00  0.00     0.040 C 
ATOM      3  C   UNL     1      22.026  31.105  27.954  1.00  0.00     0.012 C 
ATOM      4  C   UNL     1      22.647  30.679  26.657  1.00  0.00     0.047 C 
ATOM      5  C   UNL     1      21.543  30.106  25.731  1.00  0.00     0.025 C 
ATOM      6  C   UNL     1      22.040  29.569  24.388  1.00  0.00    -0.073 C 
ATOM      7  C   UNL     1      23.308  29.693  23.956  1.00  0.00     0.008 C 
ATOM      8  C   UNL     1      21.045  28.858  23.499  1.00  0.00     0.031 C 
ATOM      9  C   UNL     1      19.611  29.012  24.018  1.00  0.00     0.005 C 
ATOM     10  C   UNL     1      19.460  28.594  25.494  1.00  0.00     0.008 C 
ATOM     11  C   UNL     1      20.651  29.015  26.435  1.00  0.00    -0.019 C 
ATOM     12  C   UNL     1      20.052  29.593  27.761  1.00  0.00     0.092 C 
ATOM     13  C   UNL     1      21.102  30.191  28.718  1.00  0.00     0.235 C 
ATOM     14  O   UNL     1      20.486  31.058  29.670  1.00  0.00    -0.426 OA
ATOM     15  C   UNL     1      21.019  32.325  29.527  1.00  0.00     0.336 C 
ATOM     16  O   UNL     1      20.676  33.315  30.225  1.00  0.00    -0.246 OA
ATOM     17  C   UNL     1      21.484  27.740  26.750  1.00  0.00     0.012 C 
ENDROOT
BRANCH  13  18
ATOM     18  O   UNL     1      21.814  29.177  29.381  1.00  0.00    -0.353 OA
ATOM     19  H   UNL     1      22.294  29.601  30.140  1.00  0.00     0.215 HD
ENDBRANCH  13  18
TORSDOF 1
ENDMDL
MODEL 2
REMARK VINA RESULT:    -5.219      2.422      5.308
REMARK INTER + INTRA:          -5.372
REMARK INTER:                  -5.372
REMARK INTRA:                   0.000
REMARK UNBOUND:                 0.000
REMARK SMILES C=C1CCC[C@]2(C)C[C@]3(O)OC(=O)C(C)=C3C[C@@H]12
REMARK SMILES IDX 15 1 14 2 16 3 17 4 18 5 2 6 1 7 3 8 4 9 5 10 6 11 8 12 9 13
REMARK SMILES IDX 11 14 12 15 13 16 7 17 10 18
REMARK H PARENT 10 19
REMARK Flexibility Score: inf
ROOT
ATOM      1  C   UNL     1      19.833  28.933  24.264  1.00  0.00     0.052 C 
ATOM      2  C   UNL     1      20.738  28.281  25.263  1.00  0.00     0.040 C 
ATOM      3  C   UNL     1      20.812  28.545  26.569  1.00  0.00     0.012 C 
ATOM      4  C   UNL     1      20.068  29.616  27.310  1.00  0.00     0.047 C 
ATOM      5  C   UNL     1      21.088  30.616  27.914  1.00  0.00     0.025 C 
ATOM      6  C   UNL     1      20.475  31.735  28.757  1.00  0.00    -0.073 C 
ATOM      7  C   UNL     1      19.152  31.945  28.872  1.00  0.00     0.008 C 
ATOM      8  C   UNL     1      21.417  32.655  29.501  1.00  0.00     0.031 C 
ATOM      9  C   UNL     1      22.873  32.439  29.077  1.00  0.00     0.005 C 
ATOM     10  C   UNL     1      23.315  30.965  29.181  1.00  0.00     0.008 C 
ATOM     11  C   UNL     1      22.234  29.910  28.732  1.00  0.00    -0.019 C 
ATOM     12  C   UNL     1      22.938  28.832  27.840  1.00  0.00     0.092 C 
ATOM     13  C   UNL     1      21.971  27.817  27.199  1.00  0.00     0.235 C 
ATOM     14  O   UNL     1      22.589  27.153  26.096  1.00  0.00    -0.426 OA
ATOM     15  C   UNL     1      21.853  27.411  24.955  1.00  0.00     0.336 C 
ATOM     16  O   UNL     1      22.147  26.966  23.814  1.00  0.00    -0.246 OA
ATOM     17  C   UNL     1      21.664  29.237  30.013  1.00  0.00     0.012 C 
ENDROOT
BRANCH  13  18
ATOM     18  O   UNL     1      21.533  26.873  28.144  1.00  0.00    -0.353 OA
ATOM     19  H   UNL     1      21.433  27.347  29.011  1.00  0.00     0.215 HD
ENDBRANCH  13  18
TORSDOF 1
ENDMDL
MODEL 3
REMARK VINA RESULT:    -5.203      2.040      3.602
REMARK INTER + INTRA:          -5.355
REMARK INTER:                  -5.355
REMARK INTRA:                   0.000
REMARK UNBOUND:                 0.000
REMARK SMILES C=C1CCC[C@]2(C)C[C@]3(O)OC(=O)C(C)=C3C[C@@H]12
REMARK SMILES IDX 15 1 14 2 16 3 17 4 18 5 2 6 1 7 3 8 4 9 5 10 6 11 8 12 9 13
REMARK SMILES IDX 11 14 12 15 13 16 7 17 10 18
REMARK H PARENT 10 19
REMARK Flexibility Score: inf
ROOT
ATOM      1  C   UNL     1      22.793  27.005  28.952  1.00  0.00     0.052 C 
ATOM      2  C   UNL     1      21.869  28.002  28.323  1.00  0.00     0.040 C 
ATOM      3  C   UNL     1      21.453  28.019  27.055  1.00  0.00     0.012 C 
ATOM      4  C   UNL     1      21.891  27.097  25.956  1.00  0.00     0.047 C 
ATOM      5  C   UNL     1      22.592  27.926  24.849  1.00  0.00     0.025 C 
ATOM      6  C   UNL     1      23.039  27.123  23.625  1.00  0.00    -0.073 C 
ATOM      7  C   UNL     1      22.968  25.782  23.544  1.00  0.00     0.008 C 
ATOM      8  C   UNL     1      23.591  27.887  22.443  1.00  0.00     0.031 C 
ATOM      9  C   UNL     1      23.829  29.362  22.782  1.00  0.00     0.005 C 
ATOM     10  C   UNL     1      22.583  30.050  23.375  1.00  0.00     0.008 C 
ATOM     11  C   UNL     1      21.748  29.170  24.380  1.00  0.00    -0.019 C 
ATOM     12  C   UNL     1      21.374  30.055  25.617  1.00  0.00     0.092 C 
ATOM     13  C   UNL     1      20.686  29.282  26.759  1.00  0.00     0.235 C 
ATOM     14  O   UNL     1      20.759  30.013  27.983  1.00  0.00    -0.426 OA
ATOM     15  C   UNL     1      21.441  29.252  28.914  1.00  0.00     0.336 C 
ATOM     16  O   UNL     1      21.673  29.626  30.094  1.00  0.00    -0.246 OA
ATOM     17  C   UNL     1      20.451  28.715  23.652  1.00  0.00     0.012 C 
ENDROOT
BRANCH  13  18
ATOM     18  O   UNL     1      19.345  29.006  26.443  1.00  0.00    -0.353 OA
ATOM     19  H   UNL     1      18.915  29.868  26.203  1.00  0.00     0.215 HD
ENDBRANCH  13  18
TORSDOF 1
ENDMDL
MODEL 4
REMARK VINA RESULT:    -5.091      4.399      6.904
REMARK INTER + INTRA:          -5.240
REMARK INTER:                  -5.240
REMARK INTRA:                   0.000
REMARK UNBOUND:                 0.000
REMARK SMILES C=C1CCC[C@]2(C)C[C@]3(O)OC(=O)C(C)=C3C[C@@H]12
REMARK SMILES IDX 15 1 14 2 16 3 17 4 18 5 2 6 1 7 3 8 4 9 5 10 6 11 8 12 9 13
REMARK SMILES IDX 11 14 12 15 13 16 7 17 10 18
REMARK H PARENT 10 19
REMARK Flexibility Score: inf
ROOT
ATOM      1  C   UNL     1      24.120  25.474  21.261  1.00  0.00     0.052 C 
ATOM      2  C   UNL     1      23.829  26.943  21.220  1.00  0.00     0.040 C 
ATOM      3  C   UNL     1      23.621  27.748  22.264  1.00  0.00     0.012 C 
ATOM      4  C   UNL     1      23.544  27.342  23.707  1.00  0.00     0.047 C 
ATOM      5  C   UNL     1      22.130  27.673  24.251  1.00  0.00     0.025 C 
ATOM      6  C   UNL     1      21.922  27.372  25.736  1.00  0.00    -0.073 C 
ATOM      7  C   UNL     1      22.829  26.743  26.505  1.00  0.00     0.008 C 
ATOM      8  C   UNL     1      20.621  27.809  26.369  1.00  0.00     0.031 C 
ATOM      9  C   UNL     1      19.612  28.285  25.320  1.00  0.00     0.005 C 
ATOM     10  C   UNL     1      20.184  29.370  24.386  1.00  0.00     0.008 C 
ATOM     11  C   UNL     1      21.682  29.152  23.947  1.00  0.00    -0.019 C 
ATOM     12  C   UNL     1      21.793  29.437  22.411  1.00  0.00     0.092 C 
ATOM     13  C   UNL     1      23.174  29.113  21.810  1.00  0.00     0.235 C 
ATOM     14  O   UNL     1      23.091  28.982  20.390  1.00  0.00    -0.426 OA
ATOM     15  C   UNL     1      23.494  27.708  20.038  1.00  0.00     0.336 C 
ATOM     16  O   UNL     1      23.529  27.284  18.853  1.00  0.00    -0.246 OA
ATOM     17  C   UNL     1      22.561  30.167  24.732  1.00  0.00     0.012 C 
ENDROOT
BRANCH  13  18
ATOM     18  O   UNL     1      24.114  30.101  22.147  1.00  0.00    -0.353 OA
ATOM     19  H   UNL     1      23.842  30.937  21.687  1.00  0.00     0.215 HD
ENDBRANCH  13  18
TORSDOF 1
ENDMDL
MODEL 5
REMARK VINA RESULT:    -5.052      3.160      5.230
REMARK INTER + INTRA:          -5.200
REMARK INTER:                  -5.200
REMARK INTRA:                   0.000
REMARK UNBOUND:                 0.000
REMARK SMILES C=C1CCC[C@]2(C)C[C@]3(O)OC(=O)C(C)=C3C[C@@H]12
REMARK SMILES IDX 15 1 14 2 16 3 17 4 18 5 2 6 1 7 3 8 4 9 5 10 6 11 8 12 9 13
REMARK SMILES IDX 11 14 12 15 13 16 7 17 10 18
REMARK H PARENT 10 19
REMARK Flexibility Score: inf
ROOT
ATOM      1  C   UNL     1      23.908  31.744  23.740  1.00  0.00     0.052 C 
ATOM      2  C   UNL     1      23.040  30.552  23.480  1.00  0.00     0.040 C 
ATOM      3  C   UNL     1      22.059  30.091  24.260  1.00  0.00     0.012 C 
ATOM      4  C   UNL     1      21.670  30.611  25.612  1.00  0.00     0.047 C 
ATOM      5  C   UNL     1      21.882  29.493  26.665  1.00  0.00     0.025 C 
ATOM      6  C   UNL     1      21.464  29.859  28.090  1.00  0.00    -0.073 C 
ATOM      7  C   UNL     1      21.068  31.090  28.460  1.00  0.00     0.008 C 
ATOM      8  C   UNL     1      21.500  28.770  29.138  1.00  0.00     0.031 C 
ATOM      9  C   UNL     1      22.195  27.507  28.620  1.00  0.00     0.005 C 
ATOM     10  C   UNL     1      21.603  27.000  27.290  1.00  0.00     0.008 C 
ATOM     11  C   UNL     1      21.216  28.125  26.258  1.00  0.00    -0.019 C 
ATOM     12  C   UNL     1      21.720  27.690  24.840  1.00  0.00     0.092 C 
ATOM     13  C   UNL     1      21.547  28.767  23.752  1.00  0.00     0.235 C 
ATOM     14  O   UNL     1      22.385  28.493  22.629  1.00  0.00    -0.426 OA
ATOM     15  C   UNL     1      23.255  29.553  22.456  1.00  0.00     0.336 C 
ATOM     16  O   UNL     1      24.124  29.608  21.546  1.00  0.00    -0.246 OA
ATOM     17  C   UNL     1      19.665  28.248  26.246  1.00  0.00     0.012 C 
ENDROOT
BRANCH  13  18
ATOM     18  O   UNL     1      20.207  28.858  23.342  1.00  0.00    -0.353 OA
ATOM     19  H   UNL     1      20.205  28.917  22.350  1.00  0.00     0.215 HD
ENDBRANCH  13  18
TORSDOF 1
ENDMDL
MODEL 6
REMARK VINA RESULT:    -4.816      1.705      2.887
REMARK INTER + INTRA:          -4.956
REMARK INTER:                  -4.956
REMARK INTRA:                   0.000
REMARK UNBOUND:                 0.000
REMARK SMILES C=C1CCC[C@]2(C)C[C@]3(O)OC(=O)C(C)=C3C[C@@H]12
REMARK SMILES IDX 15 1 14 2 16 3 17 4 18 5 2 6 1 7 3 8 4 9 5 10 6 11 8 12 9 13
REMARK SMILES IDX 11 14 12 15 13 16 7 17 10 18
REMARK H PARENT 10 19
REMARK Flexibility Score: inf
ROOT
ATOM      1  C   UNL     1      18.851  30.765  29.261  1.00  0.00     0.052 C 
ATOM      2  C   UNL     1      20.242  31.214  28.934  1.00  0.00     0.040 C 
ATOM      3  C   UNL     1      20.857  31.117  27.754  1.00  0.00     0.012 C 
ATOM      4  C   UNL     1      20.325  30.456  26.517  1.00  0.00     0.047 C 
ATOM      5  C   UNL     1      21.248  29.268  26.140  1.00  0.00     0.025 C 
ATOM      6  C   UNL     1      20.864  28.533  24.855  1.00  0.00    -0.073 C 
ATOM      7  C   UNL     1      19.741  28.785  24.157  1.00  0.00     0.008 C 
ATOM      8  C   UNL     1      21.804  27.465  24.344  1.00  0.00     0.031 C 
ATOM      9  C   UNL     1      22.896  27.135  25.367  1.00  0.00     0.005 C 
ATOM     10  C   UNL     1      23.660  28.384  25.851  1.00  0.00     0.008 C 
ATOM     11  C   UNL     1      22.772  29.664  26.083  1.00  0.00    -0.019 C 
ATOM     12  C   UNL     1      23.200  30.324  27.436  1.00  0.00     0.092 C 
ATOM     13  C   UNL     1      22.309  31.504  27.871  1.00  0.00     0.235 C 
ATOM     14  O   UNL     1      22.471  31.776  29.264  1.00  0.00    -0.426 OA
ATOM     15  C   UNL     1      21.248  31.622  29.890  1.00  0.00     0.336 C 
ATOM     16  O   UNL     1      21.065  31.791  31.125  1.00  0.00    -0.246 OA
ATOM     17  C   UNL     1      23.042  30.651  24.911  1.00  0.00     0.012 C 
ENDROOT
BRANCH  13  18
ATOM     18  O   UNL     1      22.597  32.656  27.120  1.00  0.00    -0.353 OA
ATOM     19  H   UNL     1      21.865  32.767  26.458  1.00  0.00     0.215 HD
ENDBRANCH  13  18
TORSDOF 1
ENDMDL
MODEL 7
REMARK VINA RESULT:    -4.687      2.558      5.344
REMARK INTER + INTRA:          -4.824
REMARK INTER:                  -4.824
REMARK INTRA:                   0.000
REMARK UNBOUND:                 0.000
REMARK SMILES C=C1CCC[C@]2(C)C[C@]3(O)OC(=O)C(C)=C3C[C@@H]12
REMARK SMILES IDX 15 1 14 2 16 3 17 4 18 5 2 6 1 7 3 8 4 9 5 10 6 11 8 12 9 13
REMARK SMILES IDX 11 14 12 15 13 16 7 17 10 18
REMARK H PARENT 10 19
REMARK Flexibility Score: inf
ROOT
ATOM      1  C   UNL     1      22.701  26.281  26.777  1.00  0.00     0.052 C 
ATOM      2  C   UNL     1      22.451  27.621  26.158  1.00  0.00     0.040 C 
ATOM      3  C   UNL     1      22.394  28.796  26.789  1.00  0.00     0.012 C 
ATOM      4  C   UNL     1      22.479  29.023  28.270  1.00  0.00     0.047 C 
ATOM      5  C   UNL     1      21.151  29.654  28.762  1.00  0.00     0.025 C 
ATOM      6  C   UNL     1      21.114  30.003  30.251  1.00  0.00    -0.073 C 
ATOM      7  C   UNL     1      22.088  29.677  31.120  1.00  0.00     0.008 C 
ATOM      8  C   UNL     1      19.912  30.760  30.769  1.00  0.00     0.031 C 
ATOM      9  C   UNL     1      18.798  30.841  29.720  1.00  0.00     0.005 C 
ATOM     10  C   UNL     1      19.286  31.401  28.370  1.00  0.00     0.008 C 
ATOM     11  C   UNL     1      20.713  30.910  27.918  1.00  0.00    -0.019 C 
ATOM     12  C   UNL     1      20.647  30.532  26.399  1.00  0.00     0.092 C 
ATOM     13  C   UNL     1      21.936  29.886  25.855  1.00  0.00     0.235 C 
ATOM     14  O   UNL     1      21.679  29.193  24.633  1.00  0.00    -0.426 OA
ATOM     15  C   UNL     1      21.999  27.859  24.804  1.00  0.00     0.336 C 
ATOM     16  O   UNL     1      21.879  26.987  23.904  1.00  0.00    -0.246 OA
ATOM     17  C   UNL     1      21.709  32.087  28.120  1.00  0.00     0.012 C 
ENDROOT
BRANCH  13  18
ATOM     18  O   UNL     1      22.938  30.850  25.659  1.00  0.00    -0.353 OA
ATOM     19  H   UNL     1      22.545  31.579  25.110  1.00  0.00     0.215 HD
ENDBRANCH  13  18
TORSDOF 1
ENDMDL
MODEL 8
REMARK VINA RESULT:    -4.564      2.352      3.094
REMARK INTER + INTRA:          -4.698
REMARK INTER:                  -4.698
REMARK INTRA:                   0.000
REMARK UNBOUND:                 0.000
REMARK SMILES C=C1CCC[C@]2(C)C[C@]3(O)OC(=O)C(C)=C3C[C@@H]12
REMARK SMILES IDX 15 1 14 2 16 3 17 4 18 5 2 6 1 7 3 8 4 9 5 10 6 11 8 12 9 13
REMARK SMILES IDX 11 14 12 15 13 16 7 17 10 18
REMARK H PARENT 10 19
REMARK Flexibility Score: inf
ROOT
ATOM      1  C   UNL     1      24.112  32.896  23.582  1.00  0.00     0.052 C 
ATOM      2  C   UNL     1      23.895  32.680  25.048  1.00  0.00     0.040 C 
ATOM      3  C   UNL     1      23.523  31.545  25.642  1.00  0.00     0.012 C 
ATOM      4  C   UNL     1      23.154  30.257  24.966  1.00  0.00     0.047 C 
ATOM      5  C   UNL     1      21.677  29.919  25.293  1.00  0.00     0.025 C 
ATOM      6  C   UNL     1      21.175  28.592  24.720  1.00  0.00    -0.073 C 
ATOM      7  C   UNL     1      21.891  27.822  23.881  1.00  0.00     0.008 C 
ATOM      8  C   UNL     1      19.795  28.125  25.125  1.00  0.00     0.031 C 
ATOM      9  C   UNL     1      19.026  29.215  25.878  1.00  0.00     0.005 C 
ATOM     10  C   UNL     1      19.811  29.782  27.078  1.00  0.00     0.008 C 
ATOM     11  C   UNL     1      21.355  29.980  26.834  1.00  0.00    -0.019 C 
ATOM     12  C   UNL     1      21.771  31.376  27.408  1.00  0.00     0.092 C 
ATOM     13  C   UNL     1      23.228  31.775  27.102  1.00  0.00     0.235 C 
ATOM     14  O   UNL     1      23.414  33.182  27.263  1.00  0.00    -0.426 OA
ATOM     15  C   UNL     1      23.824  33.715  26.056  1.00  0.00     0.336 C 
ATOM     16  O   UNL     1      24.069  34.937  25.875  1.00  0.00    -0.246 OA
ATOM     17  C   UNL     1      22.108  28.855  27.600  1.00  0.00     0.012 C 
ENDROOT
BRANCH  13  18
ATOM     18  O   UNL     1      24.125  31.074  27.925  1.00  0.00    -0.353 OA
ATOM     19  H   UNL     1      23.709  31.006  28.825  1.00  0.00     0.215 HD
ENDBRANCH  13  18
TORSDOF 1
ENDMDL
MODEL 9
REMARK VINA RESULT:    -4.522      1.613      2.588
REMARK INTER + INTRA:          -4.654
REMARK INTER:                  -4.654
REMARK INTRA:                   0.000
REMARK UNBOUND:                 0.000
REMARK SMILES C=C1CCC[C@]2(C)C[C@]3(O)OC(=O)C(C)=C3C[C@@H]12
REMARK SMILES IDX 15 1 14 2 16 3 17 4 18 5 2 6 1 7 3 8 4 9 5 10 6 11 8 12 9 13
REMARK SMILES IDX 11 14 12 15 13 16 7 17 10 18
REMARK H PARENT 10 19
REMARK Flexibility Score: inf
ROOT
ATOM      1  C   UNL     1      23.512  29.883  29.918  1.00  0.00     0.052 C 
ATOM      2  C   UNL     1      22.298  30.311  29.153  1.00  0.00     0.040 C 
ATOM      3  C   UNL     1      21.602  29.579  28.280  1.00  0.00     0.012 C 
ATOM      4  C   UNL     1      21.936  28.195  27.804  1.00  0.00     0.047 C 
ATOM      5  C   UNL     1      22.192  28.234  26.275  1.00  0.00     0.025 C 
ATOM      6  C   UNL     1      22.482  26.876  25.634  1.00  0.00    -0.073 C 
ATOM      7  C   UNL     1      22.645  25.739  26.334  1.00  0.00     0.008 C 
ATOM      8  C   UNL     1      22.591  26.815  24.127  1.00  0.00     0.031 C 
ATOM      9  C   UNL     1      22.623  28.215  23.505  1.00  0.00     0.005 C 
ATOM     10  C   UNL     1      21.443  29.099  23.957  1.00  0.00     0.008 C 
ATOM     11  C   UNL     1      21.045  28.958  25.474  1.00  0.00    -0.019 C 
ATOM     12  C   UNL     1      20.812  30.392  26.059  1.00  0.00     0.092 C 
ATOM     13  C   UNL     1      20.565  30.419  27.580  1.00  0.00     0.235 C 
ATOM     14  O   UNL     1      20.785  31.728  28.107  1.00  0.00    -0.426 OA
ATOM     15  C   UNL     1      21.795  31.664  29.048  1.00  0.00     0.336 C 
ATOM     16  O   UNL     1      22.221  32.659  29.691  1.00  0.00    -0.246 OA
ATOM     17  C   UNL     1      19.722  28.143  25.546  1.00  0.00     0.012 C 
ENDROOT
BRANCH  13  18
ATOM     18  O   UNL     1      19.263  29.989  27.887  1.00  0.00    -0.353 OA
ATOM     19  H   UNL     1      18.651  30.751  27.709  1.00  0.00     0.215 HD
ENDBRANCH  13  18
TORSDOF 1
ENDMDL
