MODEL 1
REMARK VINA RESULT:    -6.916      0.000      0.000
REMARK INTER + INTRA:         -10.501
REMARK INTER:                  -9.140
REMARK INTRA:                  -1.361
REMARK UNBOUND:                -1.361
REMARK SMILES CC[C@H](C=C[C@@H](C)[C@@H]1CC[C@H]2C3=CC[C@H]4C[C@@H](O)CC[C@@]4(C)[C@H]3CC[C@]21C)C(C)C
REMARK SMILES IDX 6 1 7 2 5 3 4 4 3 5 2 6 1 7 28 8 29 9 30 10 8 11 9 12 26 13
REMARK SMILES IDX 10 14 11 15 25 16 27 17 12 18 24 19 23 20 13 21 21 22 14 23
REMARK SMILES IDX 15 24 20 25 22 26 16 27 19 28 17 29 18 30
REMARK H PARENT 18 31
REMARK Flexibility Score: inf
ROOT
ATOM      1  C   UNL     1      44.876   8.651 114.632  1.00  0.00     0.012 C 
ATOM      2  C   UNL     1      46.215   8.365 113.929  1.00  0.00     0.012 C 
ENDROOT
BRANCH   1   3
ATOM      3  C   UNL     1      44.006   9.492 113.717  1.00  0.00    -0.028 C 
ATOM      4  C   UNL     1      42.992  10.254 114.166  1.00  0.00    -0.027 C 
BRANCH   4   5
ATOM      5  C   UNL     1      42.217  11.180 113.249  1.00  0.00     0.014 C 
BRANCH   5   6
ATOM      6  C   UNL     1      41.051  10.380 112.610  1.00  0.00     0.004 C 
ATOM      7  C   UNL     1      40.275  11.149 111.542  1.00  0.00     0.004 C 
ENDBRANCH   5   6
BRANCH   5   8
ATOM      8  C   UNL     1      41.818  12.472 114.041  1.00  0.00    -0.011 C 
ATOM      9  C   UNL     1      42.189  13.778 113.326  1.00  0.00     0.008 C 
ATOM     10  C   UNL     1      42.333  12.473 115.489  1.00  0.00     0.008 C 
ENDBRANCH   5   8
ENDBRANCH   4   5
ENDBRANCH   1   3
BRANCH   1  11
ATOM     11  C   UNL     1      45.080   9.289 116.050  1.00  0.00     0.002 C 
ATOM     12  C   UNL     1      46.495   9.839 116.223  1.00  0.00     0.005 C 
ATOM     13  C   UNL     1      44.856   8.372 117.312  1.00  0.00    -0.023 C 
ATOM     14  C   UNL     1      46.660  10.030 117.714  1.00  0.00     0.009 C 
ATOM     15  C   UNL     1      45.921   8.859 118.362  1.00  0.00     0.021 C 
ATOM     16  C   UNL     1      43.393   8.498 117.825  1.00  0.00     0.008 C 
ATOM     17  C   UNL     1      45.127   6.875 117.004  1.00  0.00     0.012 C 
ATOM     18  C   UNL     1      45.422   9.246 119.757  1.00  0.00    -0.067 C 
ATOM     19  C   UNL     1      43.176   9.706 118.735  1.00  0.00     0.009 C 
ATOM     20  C   UNL     1      43.955   9.505 120.046  1.00  0.00     0.021 C 
ATOM     21  C   UNL     1      46.326   9.339 120.752  1.00  0.00    -0.027 C 
ATOM     22  C   UNL     1      43.751  10.652 121.102  1.00  0.00    -0.023 C 
ATOM     23  C   UNL     1      46.012   9.825 122.142  1.00  0.00     0.031 C 
ATOM     24  C   UNL     1      44.535  10.236 122.394  1.00  0.00     0.002 C 
ATOM     25  C   UNL     1      44.244  12.041 120.558  1.00  0.00     0.010 C 
ATOM     26  C   UNL     1      42.235  10.744 121.460  1.00  0.00     0.012 C 
ATOM     27  C   UNL     1      44.462  11.313 123.512  1.00  0.00     0.036 C 
ATOM     28  C   UNL     1      45.006  12.911 121.579  1.00  0.00     0.032 C 
ATOM     29  C   UNL     1      44.450  12.776 123.005  1.00  0.00     0.114 C 
BRANCH  29  30
ATOM     30  O   UNL     1      45.206  13.570 123.883  1.00  0.00    -0.393 OA
ATOM     31  H   UNL     1      46.150  13.535 123.573  1.00  0.00     0.210 HD
ENDBRANCH  29  30
ENDBRANCH   1  11
TORSDOF 6
ENDMDL
MODEL 2
REMARK VINA RESULT:    -6.841      2.078      4.435
REMARK INTER + INTRA:         -10.402
REMARK INTER:                 -10.242
REMARK INTRA:                  -0.160
REMARK UNBOUND:                -1.361
REMARK SMILES CC[C@H](C=C[C@@H](C)[C@@H]1CC[C@H]2C3=CC[C@H]4C[C@@H](O)CC[C@@]4(C)[C@H]3CC[C@]21C)C(C)C
REMARK SMILES IDX 6 1 7 2 5 3 4 4 3 5 2 6 1 7 28 8 29 9 30 10 8 11 9 12 26 13
REMARK SMILES IDX 10 14 11 15 25 16 27 17 12 18 24 19 23 20 13 21 21 22 14 23
REMARK SMILES IDX 15 24 20 25 22 26 16 27 19 28 17 29 18 30
REMARK H PARENT 18 31
REMARK Flexibility Score: inf
ROOT
ATOM      1  C   UNL     1      45.541   8.965 114.644  1.00  0.00     0.012 C 
ATOM      2  C   UNL     1      44.104   8.636 114.202  1.00  0.00     0.012 C 
ENDROOT
BRANCH   1   3
ATOM      3  C   UNL     1      46.418   7.747 114.425  1.00  0.00    -0.028 C 
ATOM      4  C   UNL     1      47.381   7.695 113.487  1.00  0.00    -0.027 C 
BRANCH   4   5
ATOM      5  C   UNL     1      48.325   6.514 113.370  1.00  0.00     0.014 C 
BRANCH   5   6
ATOM      6  C   UNL     1      48.349   6.047 111.890  1.00  0.00     0.004 C 
ATOM      7  C   UNL     1      49.318   4.899 111.612  1.00  0.00     0.004 C 
ENDBRANCH   5   6
BRANCH   5   8
ATOM      8  C   UNL     1      49.709   6.898 113.997  1.00  0.00    -0.011 C 
ATOM      9  C   UNL     1      50.125   6.004 115.174  1.00  0.00     0.008 C 
ATOM     10  C   UNL     1      49.807   8.384 114.375  1.00  0.00     0.008 C 
ENDBRANCH   5   8
ENDBRANCH   4   5
ENDBRANCH   1   3
BRANCH   1  11
ATOM     11  C   UNL     1      45.596   9.511 116.113  1.00  0.00     0.002 C 
ATOM     12  C   UNL     1      47.022   9.868 116.530  1.00  0.00     0.005 C 
ATOM     13  C   UNL     1      45.070   8.578 117.269  1.00  0.00    -0.023 C 
ATOM     14  C   UNL     1      46.975   9.973 118.037  1.00  0.00     0.009 C 
ATOM     15  C   UNL     1      46.009   8.880 118.494  1.00  0.00     0.021 C 
ATOM     16  C   UNL     1      43.571   8.867 117.564  1.00  0.00     0.008 C 
ATOM     17  C   UNL     1      45.205   7.072 116.913  1.00  0.00     0.012 C 
ATOM     18  C   UNL     1      45.348   9.267 119.820  1.00  0.00    -0.067 C 
ATOM     19  C   UNL     1      43.360  10.053 118.503  1.00  0.00     0.009 C 
ATOM     20  C   UNL     1      43.895   9.700 119.901  1.00  0.00     0.021 C 
ATOM     21  C   UNL     1      46.090   9.202 120.942  1.00  0.00    -0.027 C 
ATOM     22  C   UNL     1      43.668  10.817 120.983  1.00  0.00    -0.023 C 
ATOM     23  C   UNL     1      45.624   9.664 122.297  1.00  0.00     0.031 C 
ATOM     24  C   UNL     1      44.186  10.250 122.351  1.00  0.00     0.002 C 
ATOM     25  C   UNL     1      44.403  12.154 120.606  1.00  0.00     0.010 C 
ATOM     26  C   UNL     1      42.137  11.087 121.116  1.00  0.00     0.012 C 
ATOM     27  C   UNL     1      44.068  11.280 123.509  1.00  0.00     0.036 C 
ATOM     28  C   UNL     1      45.094  12.875 121.781  1.00  0.00     0.032 C 
ATOM     29  C   UNL     1      44.311  12.752 123.096  1.00  0.00     0.114 C 
BRANCH  29  30
ATOM     30  O   UNL     1      45.010  13.405 124.125  1.00  0.00    -0.393 OA
ATOM     31  H   UNL     1      45.929  13.028 124.142  1.00  0.00     0.210 HD
ENDBRANCH  29  30
ENDBRANCH   1  11
TORSDOF 6
ENDMDL
MODEL 3
REMARK VINA RESULT:    -6.211      5.466     11.683
REMARK INTER + INTRA:          -9.569
REMARK INTER:                  -8.593
REMARK INTRA:                  -0.975
REMARK UNBOUND:                -1.361
REMARK SMILES CC[C@H](C=C[C@@H](C)[C@@H]1CC[C@H]2C3=CC[C@H]4C[C@@H](O)CC[C@@]4(C)[C@H]3CC[C@]21C)C(C)C
REMARK SMILES IDX 6 1 7 2 5 3 4 4 3 5 2 6 1 7 28 8 29 9 30 10 8 11 9 12 26 13
REMARK SMILES IDX 10 14 11 15 25 16 27 17 12 18 24 19 23 20 13 21 21 22 14 23
REMARK SMILES IDX 15 24 20 25 22 26 16 27 19 28 17 29 18 30
REMARK H PARENT 18 31
REMARK Flexibility Score: inf
ROOT
ATOM      1  C   UNL     1      41.368  12.774 113.921  1.00  0.00     0.012 C 
ATOM      2  C   UNL     1      42.218  13.543 114.949  1.00  0.00     0.012 C 
ENDROOT
BRANCH   1   3
ATOM      3  C   UNL     1      41.802  11.320 113.909  1.00  0.00    -0.028 C 
ATOM      4  C   UNL     1      42.947  10.892 114.470  1.00  0.00    -0.027 C 
BRANCH   4   5
ATOM      5  C   UNL     1      43.299   9.419 114.553  1.00  0.00     0.014 C 
BRANCH   5   6
ATOM      6  C   UNL     1      44.163   9.048 113.318  1.00  0.00     0.004 C 
ATOM      7  C   UNL     1      45.328   8.111 113.628  1.00  0.00     0.004 C 
ENDBRANCH   5   6
BRANCH   5   8
ATOM      8  C   UNL     1      43.930   9.119 115.955  1.00  0.00    -0.011 C 
ATOM      9  C   UNL     1      43.421   7.823 116.600  1.00  0.00     0.008 C 
ATOM     10  C   UNL     1      43.816  10.300 116.931  1.00  0.00     0.008 C 
ENDBRANCH   5   8
ENDBRANCH   4   5
ENDBRANCH   1   3
BRANCH   1  11
ATOM     11  C   UNL     1      41.407  13.444 112.504  1.00  0.00     0.002 C 
ATOM     12  C   UNL     1      42.581  14.413 112.371  1.00  0.00     0.005 C 
ATOM     13  C   UNL     1      40.153  14.278 112.045  1.00  0.00    -0.023 C 
ATOM     14  C   UNL     1      42.256  15.257 111.160  1.00  0.00     0.009 C 
ATOM     15  C   UNL     1      40.743  15.468 111.201  1.00  0.00     0.021 C 
ATOM     16  C   UNL     1      39.170  13.386 111.236  1.00  0.00     0.008 C 
ATOM     17  C   UNL     1      39.375  14.876 113.249  1.00  0.00     0.012 C 
ATOM     18  C   UNL     1      40.192  15.681 109.788  1.00  0.00    -0.067 C 
ATOM     19  C   UNL     1      39.550  13.254 109.762  1.00  0.00     0.009 C 
ATOM     20  C   UNL     1      39.384  14.617 109.068  1.00  0.00     0.021 C 
ATOM     21  C   UNL     1      40.427  16.863 109.187  1.00  0.00    -0.027 C 
ATOM     22  C   UNL     1      39.674  14.596 107.523  1.00  0.00    -0.023 C 
ATOM     23  C   UNL     1      40.059  17.179 107.761  1.00  0.00     0.031 C 
ATOM     24  C   UNL     1      39.367  16.032 106.974  1.00  0.00     0.002 C 
ATOM     25  C   UNL     1      41.155  14.172 107.212  1.00  0.00     0.010 C 
ATOM     26  C   UNL     1      38.694  13.593 106.840  1.00  0.00     0.012 C 
ATOM     27  C   UNL     1      39.663  16.169 105.455  1.00  0.00     0.036 C 
ATOM     28  C   UNL     1      41.843  14.972 106.087  1.00  0.00     0.032 C 
ATOM     29  C   UNL     1      40.879  15.351 104.954  1.00  0.00     0.114 C 
BRANCH  29  30
ATOM     30  O   UNL     1      41.563  16.099 103.982  1.00  0.00    -0.393 OA
ATOM     31  H   UNL     1      42.534  16.018 104.178  1.00  0.00     0.210 HD
ENDBRANCH  29  30
ENDBRANCH   1  11
TORSDOF 6
ENDMDL
MODEL 4
REMARK VINA RESULT:    -6.098      6.644     10.952
REMARK INTER + INTRA:          -9.419
REMARK INTER:                  -8.050
REMARK INTRA:                  -1.369
REMARK UNBOUND:                -1.361
REMARK SMILES CC[C@H](C=C[C@@H](C)[C@@H]1CC[C@H]2C3=CC[C@H]4C[C@@H](O)CC[C@@]4(C)[C@H]3CC[C@]21C)C(C)C
REMARK SMILES IDX 6 1 7 2 5 3 4 4 3 5 2 6 1 7 28 8 29 9 30 10 8 11 9 12 26 13
REMARK SMILES IDX 10 14 11 15 25 16 27 17 12 18 24 19 23 20 13 21 21 22 14 23
REMARK SMILES IDX 15 24 20 25 22 26 16 27 19 28 17 29 18 30
REMARK H PARENT 18 31
REMARK Flexibility Score: inf
ROOT
ATOM      1  C   UNL     1      35.743  11.503 107.727  1.00  0.00     0.012 C 
ATOM      2  C   UNL     1      34.534  10.675 108.196  1.00  0.00     0.012 C 
ENDROOT
BRANCH   1   3
ATOM      3  C   UNL     1      36.543  10.689 106.729  1.00  0.00    -0.028 C 
ATOM      4  C   UNL     1      37.402   9.720 107.092  1.00  0.00    -0.027 C 
BRANCH   4   5
ATOM      5  C   UNL     1      38.097   8.837 106.073  1.00  0.00     0.014 C 
BRANCH   5   6
ATOM      6  C   UNL     1      38.955   9.737 105.145  1.00  0.00     0.004 C 
ATOM      7  C   UNL     1      39.960   8.972 104.286  1.00  0.00     0.004 C 
ENDBRANCH   5   6
BRANCH   5   8
ATOM      8  C   UNL     1      38.855   7.688 106.820  1.00  0.00    -0.011 C 
ATOM      9  C   UNL     1      38.461   6.279 106.354  1.00  0.00     0.008 C 
ATOM     10  C   UNL     1      38.768   7.805 108.350  1.00  0.00     0.008 C 
ENDBRANCH   5   8
ENDBRANCH   4   5
ENDBRANCH   1   3
BRANCH   1  11
ATOM     11  C   UNL     1      36.603  12.023 108.931  1.00  0.00     0.002 C 
ATOM     12  C   UNL     1      35.729  12.415 110.122  1.00  0.00     0.005 C 
ATOM     13  C   UNL     1      37.528  13.276 108.693  1.00  0.00    -0.023 C 
ATOM     14  C   UNL     1      36.623  13.254 111.005  1.00  0.00     0.009 C 
ATOM     15  C   UNL     1      37.492  14.072 110.050  1.00  0.00     0.021 C 
ATOM     16  C   UNL     1      38.961  12.827 108.287  1.00  0.00     0.008 C 
ATOM     17  C   UNL     1      36.983  14.202 107.573  1.00  0.00     0.012 C 
ATOM     18  C   UNL     1      38.831  14.420 110.707  1.00  0.00    -0.067 C 
ATOM     19  C   UNL     1      39.843  12.476 109.484  1.00  0.00     0.009 C 
ATOM     20  C   UNL     1      40.129  13.747 110.300  1.00  0.00     0.021 C 
ATOM     21  C   UNL     1      38.840  15.367 111.665  1.00  0.00    -0.027 C 
ATOM     22  C   UNL     1      41.094  13.529 111.522  1.00  0.00    -0.023 C 
ATOM     23  C   UNL     1      40.048  15.733 112.486  1.00  0.00     0.031 C 
ATOM     24  C   UNL     1      41.343  14.934 112.172  1.00  0.00     0.002 C 
ATOM     25  C   UNL     1      40.496  12.517 112.565  1.00  0.00     0.010 C 
ATOM     26  C   UNL     1      42.458  12.986 110.996  1.00  0.00     0.012 C 
ATOM     27  C   UNL     1      42.247  14.858 113.434  1.00  0.00     0.036 C 
ATOM     28  C   UNL     1      40.700  12.904 114.044  1.00  0.00     0.032 C 
ATOM     29  C   UNL     1      42.052  13.588 114.297  1.00  0.00     0.114 C 
BRANCH  29  30
ATOM     30  O   UNL     1      42.158  13.936 115.653  1.00  0.00    -0.393 OA
ATOM     31  H   UNL     1      42.060  14.924 115.712  1.00  0.00     0.210 HD
ENDBRANCH  29  30
ENDBRANCH   1  11
TORSDOF 6
ENDMDL
MODEL 5
REMARK VINA RESULT:    -5.953      9.731     12.417
REMARK INTER + INTRA:          -9.228
REMARK INTER:                  -7.593
REMARK INTRA:                  -1.635
REMARK UNBOUND:                -1.361
REMARK SMILES CC[C@H](C=C[C@@H](C)[C@@H]1CC[C@H]2C3=CC[C@H]4C[C@@H](O)CC[C@@]4(C)[C@H]3CC[C@]21C)C(C)C
REMARK SMILES IDX 6 1 7 2 5 3 4 4 3 5 2 6 1 7 28 8 29 9 30 10 8 11 9 12 26 13
REMARK SMILES IDX 10 14 11 15 25 16 27 17 12 18 24 19 23 20 13 21 21 22 14 23
REMARK SMILES IDX 15 24 20 25 22 26 16 27 19 28 17 29 18 30
REMARK H PARENT 18 31
REMARK Flexibility Score: inf
ROOT
ATOM      1  C   UNL     1      33.833   1.836 114.322  1.00  0.00     0.012 C 
ATOM      2  C   UNL     1      32.875   0.821 113.673  1.00  0.00     0.012 C 
ENDROOT
BRANCH   1   3
ATOM      3  C   UNL     1      33.427   3.237 113.906  1.00  0.00    -0.028 C 
ATOM      4  C   UNL     1      33.866   3.823 112.778  1.00  0.00    -0.027 C 
BRANCH   4   5
ATOM      5  C   UNL     1      33.350   5.174 112.321  1.00  0.00     0.014 C 
BRANCH   5   6
ATOM      6  C   UNL     1      32.946   5.997 113.573  1.00  0.00     0.004 C 
ATOM      7  C   UNL     1      33.234   7.493 113.458  1.00  0.00     0.004 C 
ENDBRANCH   5   6
BRANCH   5   8
ATOM      8  C   UNL     1      34.406   5.834 111.370  1.00  0.00    -0.011 C 
ATOM      9  C   UNL     1      34.089   5.661 109.877  1.00  0.00     0.008 C 
ATOM     10  C   UNL     1      35.847   5.400 111.678  1.00  0.00     0.008 C 
ENDBRANCH   5   8
ENDBRANCH   4   5
ENDBRANCH   1   3
BRANCH   1  11
ATOM     11  C   UNL     1      35.336   1.510 114.011  1.00  0.00     0.002 C 
ATOM     12  C   UNL     1      35.548   0.018 113.756  1.00  0.00     0.005 C 
ATOM     13  C   UNL     1      36.414   1.881 115.098  1.00  0.00    -0.023 C 
ATOM     14  C   UNL     1      37.039  -0.192 113.883  1.00  0.00     0.009 C 
ATOM     15  C   UNL     1      37.490   0.737 115.011  1.00  0.00     0.021 C 
ATOM     16  C   UNL     1      37.003   3.294 114.822  1.00  0.00     0.008 C 
ATOM     17  C   UNL     1      35.822   1.882 116.533  1.00  0.00     0.012 C 
ATOM     18  C   UNL     1      38.952   1.147 114.817  1.00  0.00    -0.067 C 
ATOM     19  C   UNL     1      38.129   3.285 113.791  1.00  0.00     0.009 C 
ATOM     20  C   UNL     1      39.346   2.542 114.368  1.00  0.00     0.021 C 
ATOM     21  C   UNL     1      39.907   0.232 115.071  1.00  0.00    -0.027 C 
ATOM     22  C   UNL     1      40.604   2.530 113.425  1.00  0.00    -0.023 C 
ATOM     23  C   UNL     1      41.376   0.442 114.813  1.00  0.00     0.031 C 
ATOM     24  C   UNL     1      41.762   1.820 114.209  1.00  0.00     0.002 C 
ATOM     25  C   UNL     1      40.308   1.804 112.065  1.00  0.00     0.010 C 
ATOM     26  C   UNL     1      41.037   4.002 113.144  1.00  0.00     0.012 C 
ATOM     27  C   UNL     1      43.063   1.691 113.368  1.00  0.00     0.036 C 
ATOM     28  C   UNL     1      41.439   0.891 111.549  1.00  0.00     0.032 C 
ATOM     29  C   UNL     1      42.837   1.448 111.855  1.00  0.00     0.114 C 
BRANCH  29  30
ATOM     30  O   UNL     1      43.814   0.556 111.385  1.00  0.00    -0.393 OA
ATOM     31  H   UNL     1      43.478   0.174 110.532  1.00  0.00     0.210 HD
ENDBRANCH  29  30
ENDBRANCH   1  11
TORSDOF 6
ENDMDL
MODEL 6
REMARK VINA RESULT:    -5.772      7.338     12.190
REMARK INTER + INTRA:          -8.989
REMARK INTER:                  -7.889
REMARK INTRA:                  -1.100
REMARK UNBOUND:                -1.361
REMARK SMILES CC[C@H](C=C[C@@H](C)[C@@H]1CC[C@H]2C3=CC[C@H]4C[C@@H](O)CC[C@@]4(C)[C@H]3CC[C@]21C)C(C)C
REMARK SMILES IDX 6 1 7 2 5 3 4 4 3 5 2 6 1 7 28 8 29 9 30 10 8 11 9 12 26 13
REMARK SMILES IDX 10 14 11 15 25 16 27 17 12 18 24 19 23 20 13 21 21 22 14 23
REMARK SMILES IDX 15 24 20 25 22 26 16 27 19 28 17 29 18 30
REMARK H PARENT 18 31
REMARK Flexibility Score: inf
ROOT
ATOM      1  C   UNL     1      40.749  15.727 110.219  1.00  0.00     0.012 C 
ATOM      2  C   UNL     1      41.876  16.354 109.379  1.00  0.00     0.012 C 
ENDROOT
BRANCH   1   3
ATOM      3  C   UNL     1      41.150  15.748 111.681  1.00  0.00    -0.028 C 
ATOM      4  C   UNL     1      40.257  15.781 112.686  1.00  0.00    -0.027 C 
BRANCH   4   5
ATOM      5  C   UNL     1      40.679  15.677 114.140  1.00  0.00     0.014 C 
BRANCH   5   6
ATOM      6  C   UNL     1      41.919  14.748 114.228  1.00  0.00     0.004 C 
ATOM      7  C   UNL     1      41.581  13.264 114.361  1.00  0.00     0.004 C 
ENDBRANCH   5   6
BRANCH   5   8
ATOM      8  C   UNL     1      40.849  17.117 114.731  1.00  0.00    -0.011 C 
ATOM      9  C   UNL     1      41.167  17.139 116.232  1.00  0.00     0.008 C 
ATOM     10  C   UNL     1      39.667  18.044 114.407  1.00  0.00     0.008 C 
ENDBRANCH   5   8
ENDBRANCH   4   5
ENDBRANCH   1   3
BRANCH   1  11
ATOM     11  C   UNL     1      40.357  14.297 109.705  1.00  0.00     0.002 C 
ATOM     12  C   UNL     1      41.466  13.682 108.853  1.00  0.00     0.005 C 
ATOM     13  C   UNL     1      39.059  14.158 108.825  1.00  0.00    -0.023 C 
ATOM     14  C   UNL     1      40.804  12.539 108.116  1.00  0.00     0.009 C 
ATOM     15  C   UNL     1      39.395  13.030 107.781  1.00  0.00     0.021 C 
ATOM     16  C   UNL     1      37.830  13.817 109.715  1.00  0.00     0.008 C 
ATOM     17  C   UNL     1      38.737  15.461 108.044  1.00  0.00     0.012 C 
ATOM     18  C   UNL     1      38.427  11.848 107.672  1.00  0.00    -0.067 C 
ATOM     19  C   UNL     1      37.708  12.328 110.029  1.00  0.00     0.009 C 
ATOM     20  C   UNL     1      37.386  11.557 108.738  1.00  0.00     0.021 C 
ATOM     21  C   UNL     1      38.507  11.061 106.582  1.00  0.00    -0.027 C 
ATOM     22  C   UNL     1      37.161  10.015 108.943  1.00  0.00    -0.023 C 
ATOM     23  C   UNL     1      37.712   9.796 106.388  1.00  0.00     0.031 C 
ATOM     24  C   UNL     1      36.755   9.417 107.552  1.00  0.00     0.002 C 
ATOM     25  C   UNL     1      38.442   9.308 109.515  1.00  0.00     0.010 C 
ATOM     26  C   UNL     1      35.970   9.806 109.929  1.00  0.00     0.012 C 
ATOM     27  C   UNL     1      36.551   7.877 107.598  1.00  0.00     0.036 C 
ATOM     28  C   UNL     1      38.765   7.933 108.894  1.00  0.00     0.032 C 
ATOM     29  C   UNL     1      37.503   7.124 108.559  1.00  0.00     0.114 C 
BRANCH  29  30
ATOM     30  O   UNL     1      37.869   5.901 107.973  1.00  0.00    -0.393 OA
ATOM     31  H   UNL     1      38.241   5.328 108.695  1.00  0.00     0.210 HD
ENDBRANCH  29  30
ENDBRANCH   1  11
TORSDOF 6
ENDMDL
MODEL 7
REMARK VINA RESULT:    -5.663      9.686     12.779
REMARK INTER + INTRA:          -8.844
REMARK INTER:                  -7.470
REMARK INTRA:                  -1.374
REMARK UNBOUND:                -1.361
REMARK SMILES CC[C@H](C=C[C@@H](C)[C@@H]1CC[C@H]2C3=CC[C@H]4C[C@@H](O)CC[C@@]4(C)[C@H]3CC[C@]21C)C(C)C
REMARK SMILES IDX 6 1 7 2 5 3 4 4 3 5 2 6 1 7 28 8 29 9 30 10 8 11 9 12 26 13
REMARK SMILES IDX 10 14 11 15 25 16 27 17 12 18 24 19 23 20 13 21 21 22 14 23
REMARK SMILES IDX 15 24 20 25 22 26 16 27 19 28 17 29 18 30
REMARK H PARENT 18 31
REMARK Flexibility Score: inf
ROOT
ATOM      1  C   UNL     1      40.140   0.442 114.717  1.00  0.00     0.012 C 
ATOM      2  C   UNL     1      40.373   0.489 116.238  1.00  0.00     0.012 C 
ENDROOT
BRANCH   1   3
ATOM      3  C   UNL     1      41.476   0.286 114.016  1.00  0.00    -0.028 C 
ATOM      4  C   UNL     1      41.666   0.598 112.722  1.00  0.00    -0.027 C 
BRANCH   4   5
ATOM      5  C   UNL     1      43.037   0.552 112.077  1.00  0.00     0.014 C 
BRANCH   5   6
ATOM      6  C   UNL     1      43.836   1.805 112.523  1.00  0.00     0.004 C 
ATOM      7  C   UNL     1      43.033   3.104 112.486  1.00  0.00     0.004 C 
ENDBRANCH   5   6
BRANCH   5   8
ATOM      8  C   UNL     1      43.701  -0.835 112.378  1.00  0.00    -0.011 C 
ATOM      9  C   UNL     1      45.217  -0.863 112.138  1.00  0.00     0.008 C 
ATOM     10  C   UNL     1      43.010  -2.002 111.656  1.00  0.00     0.008 C 
ENDBRANCH   5   8
ENDBRANCH   4   5
ENDBRANCH   1   3
BRANCH   1  11
ATOM     11  C   UNL     1      39.315   1.675 114.209  1.00  0.00     0.002 C 
ATOM     12  C   UNL     1      38.971   2.632 115.349  1.00  0.00     0.005 C 
ATOM     13  C   UNL     1      37.937   1.400 113.496  1.00  0.00    -0.023 C 
ATOM     14  C   UNL     1      37.867   3.509 114.804  1.00  0.00     0.009 C 
ATOM     15  C   UNL     1      37.009   2.594 113.931  1.00  0.00     0.021 C 
ATOM     16  C   UNL     1      38.129   1.307 111.956  1.00  0.00     0.008 C 
ATOM     17  C   UNL     1      37.283   0.076 113.977  1.00  0.00     0.012 C 
ATOM     18  C   UNL     1      36.318   3.398 112.826  1.00  0.00    -0.067 C 
ATOM     19  C   UNL     1      38.147   2.670 111.268  1.00  0.00     0.009 C 
ATOM     20  C   UNL     1      36.755   3.316 111.375  1.00  0.00     0.021 C 
ATOM     21  C   UNL     1      35.282   4.187 113.169  1.00  0.00    -0.027 C 
ATOM     22  C   UNL     1      36.624   4.698 110.636  1.00  0.00    -0.023 C 
ATOM     23  C   UNL     1      34.581   5.127 112.225  1.00  0.00     0.031 C 
ATOM     24  C   UNL     1      35.130   5.155 110.771  1.00  0.00     0.002 C 
ATOM     25  C   UNL     1      37.604   5.772 111.229  1.00  0.00     0.010 C 
ATOM     26  C   UNL     1      36.935   4.491 109.122  1.00  0.00     0.012 C 
ATOM     27  C   UNL     1      34.868   6.543 110.125  1.00  0.00     0.036 C 
ATOM     28  C   UNL     1      37.010   7.188 111.382  1.00  0.00     0.032 C 
ATOM     29  C   UNL     1      36.039   7.549 110.248  1.00  0.00     0.114 C 
BRANCH  29  30
ATOM     30  O   UNL     1      35.517   8.834 110.465  1.00  0.00    -0.393 OA
ATOM     31  H   UNL     1      36.248   9.483 110.286  1.00  0.00     0.210 HD
ENDBRANCH  29  30
ENDBRANCH   1  11
TORSDOF 6
ENDMDL
MODEL 8
REMARK VINA RESULT:    -5.612      7.110     12.688
REMARK INTER + INTRA:          -8.777
REMARK INTER:                  -7.324
REMARK INTRA:                  -1.453
REMARK UNBOUND:                -1.361
REMARK SMILES CC[C@H](C=C[C@@H](C)[C@@H]1CC[C@H]2C3=CC[C@H]4C[C@@H](O)CC[C@@]4(C)[C@H]3CC[C@]21C)C(C)C
REMARK SMILES IDX 6 1 7 2 5 3 4 4 3 5 2 6 1 7 28 8 29 9 30 10 8 11 9 12 26 13
REMARK SMILES IDX 10 14 11 15 25 16 27 17 12 18 24 19 23 20 13 21 21 22 14 23
REMARK SMILES IDX 15 24 20 25 22 26 16 27 19 28 17 29 18 30
REMARK H PARENT 18 31
REMARK Flexibility Score: inf
ROOT
ATOM      1  C   UNL     1      40.756  13.452 108.314  1.00  0.00     0.012 C 
ATOM      2  C   UNL     1      41.514  14.081 107.131  1.00  0.00     0.012 C 
ENDROOT
BRANCH   1   3
ATOM      3  C   UNL     1      41.711  13.282 109.480  1.00  0.00    -0.028 C 
ATOM      4  C   UNL     1      41.341  13.453 110.762  1.00  0.00    -0.027 C 
BRANCH   4   5
ATOM      5  C   UNL     1      42.280  13.157 111.915  1.00  0.00     0.014 C 
BRANCH   5   6
ATOM      6  C   UNL     1      42.306  14.389 112.859  1.00  0.00     0.004 C 
ATOM      7  C   UNL     1      41.197  15.404 112.592  1.00  0.00     0.004 C 
ENDBRANCH   5   6
BRANCH   5   8
ATOM      8  C   UNL     1      41.878  11.792 112.569  1.00  0.00    -0.011 C 
ATOM      9  C   UNL     1      41.972  11.786 114.102  1.00  0.00     0.008 C 
ATOM     10  C   UNL     1      42.628  10.593 111.969  1.00  0.00     0.008 C 
ENDBRANCH   5   8
ENDBRANCH   4   5
ENDBRANCH   1   3
BRANCH   1  11
ATOM     11  C   UNL     1      40.032  12.121 107.908  1.00  0.00     0.002 C 
ATOM     12  C   UNL     1      39.856  12.014 106.394  1.00  0.00     0.005 C 
ATOM     13  C   UNL     1      38.593  11.855 108.492  1.00  0.00    -0.023 C 
ATOM     14  C   UNL     1      38.817  10.934 106.197  1.00  0.00     0.009 C 
ATOM     15  C   UNL     1      37.819  11.111 107.342  1.00  0.00     0.021 C 
ATOM     16  C   UNL     1      38.682  11.024 109.804  1.00  0.00     0.008 C 
ATOM     17  C   UNL     1      37.837  13.173 108.812  1.00  0.00     0.012 C 
ATOM     18  C   UNL     1      37.149   9.776 107.681  1.00  0.00    -0.067 C 
ATOM     19  C   UNL     1      38.798   9.521 109.557  1.00  0.00     0.009 C 
ATOM     20  C   UNL     1      37.488   9.000 108.941  1.00  0.00     0.021 C 
ATOM     21  C   UNL     1      36.221   9.298 106.831  1.00  0.00    -0.027 C 
ATOM     22  C   UNL     1      37.454   7.446 108.708  1.00  0.00    -0.023 C 
ATOM     23  C   UNL     1      35.564   7.949 106.960  1.00  0.00     0.031 C 
ATOM     24  C   UNL     1      36.026   7.089 108.170  1.00  0.00     0.002 C 
ATOM     25  C   UNL     1      38.573   6.981 107.708  1.00  0.00     0.010 C 
ATOM     26  C   UNL     1      37.652   6.727 110.079  1.00  0.00     0.012 C 
ATOM     27  C   UNL     1      35.868   5.578 107.845  1.00  0.00     0.036 C 
ATOM     28  C   UNL     1      38.136   5.907 106.691  1.00  0.00     0.032 C 
ATOM     29  C   UNL     1      37.141   4.898 107.283  1.00  0.00     0.114 C 
BRANCH  29  30
ATOM     30  O   UNL     1      36.766   3.971 106.297  1.00  0.00    -0.393 OA
ATOM     31  H   UNL     1      36.654   4.474 105.447  1.00  0.00     0.210 HD
ENDBRANCH  29  30
ENDBRANCH   1  11
TORSDOF 6
ENDMDL
MODEL 9
REMARK VINA RESULT:    -5.609      6.538     12.388
REMARK INTER + INTRA:          -8.774
REMARK INTER:                  -7.393
REMARK INTRA:                  -1.381
REMARK UNBOUND:                -1.361
REMARK SMILES CC[C@H](C=C[C@@H](C)[C@@H]1CC[C@H]2C3=CC[C@H]4C[C@@H](O)CC[C@@]4(C)[C@H]3CC[C@]21C)C(C)C
REMARK SMILES IDX 6 1 7 2 5 3 4 4 3 5 2 6 1 7 28 8 29 9 30 10 8 11 9 12 26 13
REMARK SMILES IDX 10 14 11 15 25 16 27 17 12 18 24 19 23 20 13 21 21 22 14 23
REMARK SMILES IDX 15 24 20 25 22 26 16 27 19 28 17 29 18 30
REMARK H PARENT 18 31
REMARK Flexibility Score: inf
ROOT
ATOM      1  C   UNL     1      40.686  13.735 109.665  1.00  0.00     0.012 C 
ATOM      2  C   UNL     1      41.454  14.622 108.668  1.00  0.00     0.012 C 
ENDROOT
BRANCH   1   3
ATOM      3  C   UNL     1      41.583  13.432 110.850  1.00  0.00    -0.028 C 
ATOM      4  C   UNL     1      41.138  12.842 111.974  1.00  0.00    -0.027 C 
BRANCH   4   5
ATOM      5  C   UNL     1      42.076  12.437 113.095  1.00  0.00     0.014 C 
BRANCH   5   6
ATOM      6  C   UNL     1      41.654  13.187 114.386  1.00  0.00     0.004 C 
ATOM      7  C   UNL     1      41.901  14.693 114.345  1.00  0.00     0.004 C 
ENDBRANCH   5   6
BRANCH   5   8
ATOM      8  C   UNL     1      42.126  10.874 113.185  1.00  0.00    -0.011 C 
ATOM      9  C   UNL     1      42.914  10.347 114.393  1.00  0.00     0.008 C 
ATOM     10  C   UNL     1      42.606  10.211 111.885  1.00  0.00     0.008 C 
ENDBRANCH   5   8
ENDBRANCH   4   5
ENDBRANCH   1   3
BRANCH   1  11
ATOM     11  C   UNL     1      40.106  12.447 108.983  1.00  0.00     0.002 C 
ATOM     12  C   UNL     1      40.193  12.529 107.459  1.00  0.00     0.005 C 
ATOM     13  C   UNL     1      38.604  12.069 109.273  1.00  0.00    -0.023 C 
ATOM     14  C   UNL     1      39.255  11.455 106.957  1.00  0.00     0.009 C 
ATOM     15  C   UNL     1      38.072  11.457 107.925  1.00  0.00     0.021 C 
ATOM     16  C   UNL     1      38.512  11.081 110.470  1.00  0.00     0.008 C 
ATOM     17  C   UNL     1      37.742  13.315 109.614  1.00  0.00     0.012 C 
ATOM     18  C   UNL     1      37.420  10.072 107.979  1.00  0.00    -0.067 C 
ATOM     19  C   UNL     1      38.741   9.625 110.068  1.00  0.00     0.009 C 
ATOM     20  C   UNL     1      37.580   9.152 109.176  1.00  0.00     0.021 C 
ATOM     21  C   UNL     1      36.672   9.681 106.930  1.00  0.00    -0.027 C 
ATOM     22  C   UNL     1      37.662   7.640 108.755  1.00  0.00    -0.023 C 
ATOM     23  C   UNL     1      36.070   8.309 106.781  1.00  0.00     0.031 C 
ATOM     24  C   UNL     1      36.363   7.316 107.939  1.00  0.00     0.002 C 
ATOM     25  C   UNL     1      38.953   7.336 107.915  1.00  0.00     0.010 C 
ATOM     26  C   UNL     1      37.661   6.758 110.043  1.00  0.00     0.012 C 
ATOM     27  C   UNL     1      36.336   5.854 107.412  1.00  0.00     0.036 C 
ATOM     28  C   UNL     1      38.747   6.389 106.715  1.00  0.00     0.032 C 
ATOM     29  C   UNL     1      37.716   5.286 107.001  1.00  0.00     0.114 C 
BRANCH  29  30
ATOM     30  O   UNL     1      37.558   4.482 105.861  1.00  0.00    -0.393 OA
ATOM     31  H   UNL     1      36.858   4.905 105.296  1.00  0.00     0.210 HD
ENDBRANCH  29  30
ENDBRANCH   1  11
TORSDOF 6
ENDMDL
