MODEL 1
REMARK VINA RESULT:    -3.905      0.000      0.000
REMARK INTER + INTRA:          -3.905
REMARK INTER:                  -3.905
REMARK INTRA:                   0.000
REMARK UNBOUND:                 0.000
REMARK SMILES O=c1ccc2ccc3occc3c2o1
REMARK SMILES IDX 6 1 7 2 8 3 12 4 11 5 10 6 9 7 13 8 5 9 4 10 3 11 2 12 1 13
REMARK SMILES IDX 14 14
REMARK H PARENT
REMARK Flexibility Score: inf
ROOT
ATOM      1  C   UNL     1      18.637  -2.434  -8.509  1.00  0.00     0.016 A 
ATOM      2  C   UNL     1      19.491  -3.125  -7.628  1.00  0.00     0.048 A 
ATOM      3  C   UNL     1      20.764  -2.601  -7.405  1.00  0.00     0.137 A 
ATOM      4  C   UNL     1      21.190  -1.450  -8.012  1.00  0.00     0.064 A 
ATOM      5  C   UNL     1      22.475  -1.220  -7.577  1.00  0.00     0.054 A 
ATOM      6  C   UNL     1      22.747  -2.277  -6.712  1.00  0.00     0.196 A 
ATOM      7  O   UNL     1      21.704  -3.085  -6.630  1.00  0.00    -0.464 OA
ATOM      8  C   UNL     1      20.375  -0.738  -8.888  1.00  0.00     0.149 A 
ATOM      9  C   UNL     1      19.073  -1.243  -9.139  1.00  0.00     0.018 A 
ATOM     10  C   UNL     1      18.249  -0.533 -10.018  1.00  0.00     0.019 A 
ATOM     11  C   UNL     1      18.729   0.635 -10.612  1.00  0.00     0.094 A 
ATOM     12  C   UNL     1      20.027   1.070 -10.314  1.00  0.00     0.336 A 
ATOM     13  O   UNL     1      20.473   2.121 -10.843  1.00  0.00    -0.246 OA
ATOM     14  O   UNL     1      20.794   0.379  -9.475  1.00  0.00    -0.422 OA
ENDROOT
TORSDOF 0
ENDMDL
MODEL 2
REMARK VINA RESULT:    -3.821      1.188      4.277
REMARK INTER + INTRA:          -3.821
REMARK INTER:                  -3.821
REMARK INTRA:                   0.000
REMARK UNBOUND:                 0.000
REMARK SMILES O=c1ccc2ccc3occc3c2o1
REMARK SMILES IDX 6 1 7 2 8 3 12 4 11 5 10 6 9 7 13 8 5 9 4 10 3 11 2 12 1 13
REMARK SMILES IDX 14 14
REMARK H PARENT
REMARK Flexibility Score: inf
ROOT
ATOM      1  C   UNL     1      18.614  -1.645  -9.268  1.00  0.00     0.016 A 
ATOM      2  C   UNL     1      18.529  -0.571 -10.174  1.00  0.00     0.048 A 
ATOM      3  C   UNL     1      19.605   0.311 -10.247  1.00  0.00     0.137 A 
ATOM      4  C   UNL     1      20.724   0.156  -9.472  1.00  0.00     0.064 A 
ATOM      5  C   UNL     1      21.579   1.185  -9.792  1.00  0.00     0.054 A 
ATOM      6  C   UNL     1      20.902   1.914 -10.766  1.00  0.00     0.196 A 
ATOM      7  O   UNL     1      19.726   1.366 -11.016  1.00  0.00    -0.464 OA
ATOM      8  C   UNL     1      20.847  -0.894  -8.566  1.00  0.00     0.149 A 
ATOM      9  C   UNL     1      19.769  -1.811  -8.465  1.00  0.00     0.018 A 
ATOM     10  C   UNL     1      19.886  -2.868  -7.556  1.00  0.00     0.019 A 
ATOM     11  C   UNL     1      21.045  -2.984  -6.788  1.00  0.00     0.094 A 
ATOM     12  C   UNL     1      22.067  -2.038  -6.945  1.00  0.00     0.336 A 
ATOM     13  O   UNL     1      23.118  -2.130  -6.259  1.00  0.00    -0.246 OA
ATOM     14  O   UNL     1      21.935  -1.041  -7.815  1.00  0.00    -0.422 OA
ENDROOT
TORSDOF 0
ENDMDL
MODEL 3
REMARK VINA RESULT:    -3.594      1.724      5.156
REMARK INTER + INTRA:          -3.594
REMARK INTER:                  -3.594
REMARK INTRA:                   0.000
REMARK UNBOUND:                 0.000
REMARK SMILES O=c1ccc2ccc3occc3c2o1
REMARK SMILES IDX 6 1 7 2 8 3 12 4 11 5 10 6 9 7 13 8 5 9 4 10 3 11 2 12 1 13
REMARK SMILES IDX 14 14
REMARK H PARENT
REMARK Flexibility Score: inf
ROOT
ATOM      1  C   UNL     1      21.571   0.686 -10.361  1.00  0.00     0.016 A 
ATOM      2  C   UNL     1      20.892   1.804 -10.883  1.00  0.00     0.048 A 
ATOM      3  C   UNL     1      19.511   1.874 -10.702  1.00  0.00     0.137 A 
ATOM      4  C   UNL     1      18.817   0.897 -10.040  1.00  0.00     0.064 A 
ATOM      5  C   UNL     1      17.494   1.274 -10.041  1.00  0.00     0.054 A 
ATOM      6  C   UNL     1      17.477   2.487 -10.724  1.00  0.00     0.196 A 
ATOM      7  O   UNL     1      18.697   2.819 -11.105  1.00  0.00    -0.464 OA
ATOM      8  C   UNL     1      19.453  -0.223  -9.509  1.00  0.00     0.149 A 
ATOM      9  C   UNL     1      20.858  -0.327  -9.674  1.00  0.00     0.018 A 
ATOM     10  C   UNL     1      21.503  -1.448  -9.144  1.00  0.00     0.019 A 
ATOM     11  C   UNL     1      20.752  -2.418  -8.477  1.00  0.00     0.094 A 
ATOM     12  C   UNL     1      19.367  -2.244  -8.354  1.00  0.00     0.336 A 
ATOM     13  O   UNL     1      18.677  -3.110  -7.756  1.00  0.00    -0.246 OA
ATOM     14  O   UNL     1      18.774  -1.169  -8.867  1.00  0.00    -0.422 OA
ENDROOT
TORSDOF 0
ENDMDL
MODEL 4
REMARK VINA RESULT:    -3.508      1.479      2.616
REMARK INTER + INTRA:          -3.508
REMARK INTER:                  -3.508
REMARK INTRA:                   0.000
REMARK UNBOUND:                 0.000
REMARK SMILES O=c1ccc2ccc3occc3c2o1
REMARK SMILES IDX 6 1 7 2 8 3 12 4 11 5 10 6 9 7 13 8 5 9 4 10 3 11 2 12 1 13
REMARK SMILES IDX 14 14
REMARK H PARENT
REMARK Flexibility Score: inf
ROOT
ATOM      1  C   UNL     1      22.390   0.556  -8.848  1.00  0.00     0.016 A 
ATOM      2  C   UNL     1      22.802  -0.359  -7.860  1.00  0.00     0.048 A 
ATOM      3  C   UNL     1      21.929  -1.390  -7.518  1.00  0.00     0.137 A 
ATOM      4  C   UNL     1      20.703  -1.529  -8.113  1.00  0.00     0.064 A 
ATOM      5  C   UNL     1      20.107  -2.635  -7.550  1.00  0.00     0.054 A 
ATOM      6  C   UNL     1      21.038  -3.103  -6.628  1.00  0.00     0.196 A 
ATOM      7  O   UNL     1      22.116  -2.338  -6.632  1.00  0.00    -0.464 OA
ATOM      8  C   UNL     1      20.260  -0.646  -9.094  1.00  0.00     0.149 A 
ATOM      9  C   UNL     1      21.124   0.416  -9.467  1.00  0.00     0.018 A 
ATOM     10  C   UNL     1      20.686   1.308 -10.451  1.00  0.00     0.019 A 
ATOM     11  C   UNL     1      19.428   1.125 -11.029  1.00  0.00     0.094 A 
ATOM     12  C   UNL     1      18.632   0.051 -10.607  1.00  0.00     0.336 A 
ATOM     13  O   UNL     1      17.496  -0.126 -11.119  1.00  0.00    -0.246 OA
ATOM     14  O   UNL     1      19.069  -0.785  -9.669  1.00  0.00    -0.422 OA
ENDROOT
TORSDOF 0
ENDMDL
MODEL 5
REMARK VINA RESULT:    -3.464      1.653      4.616
REMARK INTER + INTRA:          -3.464
REMARK INTER:                  -3.464
REMARK INTRA:                   0.000
REMARK UNBOUND:                 0.000
REMARK SMILES O=c1ccc2ccc3occc3c2o1
REMARK SMILES IDX 6 1 7 2 8 3 12 4 11 5 10 6 9 7 13 8 5 9 4 10 3 11 2 12 1 13
REMARK SMILES IDX 14 14
REMARK H PARENT
REMARK Flexibility Score: inf
ROOT
ATOM      1  C   UNL     1      22.927  -0.698  -7.898  1.00  0.00     0.016 A 
ATOM      2  C   UNL     1      23.099   0.340  -8.835  1.00  0.00     0.048 A 
ATOM      3  C   UNL     1      22.012   0.686  -9.635  1.00  0.00     0.137 A 
ATOM      4  C   UNL     1      20.803   0.051  -9.529  1.00  0.00     0.064 A 
ATOM      5  C   UNL     1      19.963   0.631 -10.452  1.00  0.00     0.054 A 
ATOM      6  C   UNL     1      20.742   1.605 -11.070  1.00  0.00     0.196 A 
ATOM      7  O   UNL     1      21.961   1.613 -10.560  1.00  0.00    -0.464 OA
ATOM      8  C   UNL     1      20.594  -0.979  -8.615  1.00  0.00     0.149 A 
ATOM      9  C   UNL     1      21.679  -1.357  -7.784  1.00  0.00     0.018 A 
ATOM     10  C   UNL     1      21.476  -2.391  -6.864  1.00  0.00     0.019 A 
ATOM     11  C   UNL     1      20.226  -3.008  -6.794  1.00  0.00     0.094 A 
ATOM     12  C   UNL     1      19.202  -2.577  -7.649  1.00  0.00     0.336 A 
ATOM     13  O   UNL     1      18.071  -3.125  -7.597  1.00  0.00    -0.246 OA
ATOM     14  O   UNL     1      19.418  -1.593  -8.517  1.00  0.00    -0.422 OA
ENDROOT
TORSDOF 0
ENDMDL
MODEL 6
REMARK VINA RESULT:    -3.447     10.478     12.505
REMARK INTER + INTRA:          -3.447
REMARK INTER:                  -3.447
REMARK INTRA:                   0.000
REMARK UNBOUND:                 0.000
REMARK SMILES O=c1ccc2ccc3occc3c2o1
REMARK SMILES IDX 6 1 7 2 8 3 12 4 11 5 10 6 9 7 13 8 5 9 4 10 3 11 2 12 1 13
REMARK SMILES IDX 14 14
REMARK H PARENT
REMARK Flexibility Score: inf
ROOT
ATOM      1  C   UNL     1      22.492  10.944  -9.854  1.00  0.00     0.016 A 
ATOM      2  C   UNL     1      22.553   9.940  -8.869  1.00  0.00     0.048 A 
ATOM      3  C   UNL     1      21.423   9.726  -8.082  1.00  0.00     0.137 A 
ATOM      4  C   UNL     1      20.277  10.457  -8.245  1.00  0.00     0.064 A 
ATOM      5  C   UNL     1      19.370   9.994  -7.319  1.00  0.00     0.054 A 
ATOM      6  C   UNL     1      20.048   8.986  -6.639  1.00  0.00     0.196 A 
ATOM      7  O   UNL     1      21.271   8.850  -7.119  1.00  0.00    -0.464 OA
ATOM      8  C   UNL     1      20.177  11.459  -9.208  1.00  0.00     0.149 A 
ATOM      9  C   UNL     1      21.309  11.703 -10.028  1.00  0.00     0.018 A 
ATOM     10  C   UNL     1      21.217  12.707 -10.997  1.00  0.00     0.019 A 
ATOM     11  C   UNL     1      20.027  13.426 -11.125  1.00  0.00     0.094 A 
ATOM     12  C   UNL     1      18.952  13.125 -10.278  1.00  0.00     0.336 A 
ATOM     13  O   UNL     1      17.874  13.766 -10.382  1.00  0.00    -0.246 OA
ATOM     14  O   UNL     1      19.062  12.167  -9.363  1.00  0.00    -0.422 OA
ENDROOT
TORSDOF 0
ENDMDL
MODEL 7
REMARK VINA RESULT:    -3.046     10.313     12.542
REMARK INTER + INTRA:          -3.046
REMARK INTER:                  -3.046
REMARK INTRA:                   0.000
REMARK UNBOUND:                 0.000
REMARK SMILES O=c1ccc2ccc3occc3c2o1
REMARK SMILES IDX 6 1 7 2 8 3 12 4 11 5 10 6 9 7 13 8 5 9 4 10 3 11 2 12 1 13
REMARK SMILES IDX 14 14
REMARK H PARENT
REMARK Flexibility Score: inf
ROOT
ATOM      1  C   UNL     1      18.957  11.928  -9.183  1.00  0.00     0.016 A 
ATOM      2  C   UNL     1      19.745  12.573 -10.156  1.00  0.00     0.048 A 
ATOM      3  C   UNL     1      21.074  12.175 -10.290  1.00  0.00     0.137 A 
ATOM      4  C   UNL     1      21.617  11.188  -9.511  1.00  0.00     0.064 A 
ATOM      5  C   UNL     1      22.930  11.047  -9.899  1.00  0.00     0.054 A 
ATOM      6  C   UNL     1      23.097  11.984 -10.915  1.00  0.00     0.196 A 
ATOM      7  O   UNL     1      21.970  12.642 -11.125  1.00  0.00    -0.464 OA
ATOM      8  C   UNL     1      20.870  10.527  -8.539  1.00  0.00     0.149 A 
ATOM      9  C   UNL     1      19.513  10.906  -8.375  1.00  0.00     0.018 A 
ATOM     10  C   UNL     1      18.757  10.247  -7.401  1.00  0.00     0.019 A 
ATOM     11  C   UNL     1      19.355   9.248  -6.632  1.00  0.00     0.094 A 
ATOM     12  C   UNL     1      20.702   8.928  -6.853  1.00  0.00     0.336 A 
ATOM     13  O   UNL     1      21.254   8.030  -6.166  1.00  0.00    -0.246 OA
ATOM     14  O   UNL     1      21.402   9.569  -7.785  1.00  0.00    -0.422 OA
ENDROOT
TORSDOF 0
ENDMDL
MODEL 8
REMARK VINA RESULT:    -3.010     10.609     13.400
REMARK INTER + INTRA:          -3.010
REMARK INTER:                  -3.010
REMARK INTRA:                   0.000
REMARK UNBOUND:                 0.000
REMARK SMILES O=c1ccc2ccc3occc3c2o1
REMARK SMILES IDX 6 1 7 2 8 3 12 4 11 5 10 6 9 7 13 8 5 9 4 10 3 11 2 12 1 13
REMARK SMILES IDX 14 14
REMARK H PARENT
REMARK Flexibility Score: inf
ROOT
ATOM      1  C   UNL     1      22.413  11.875 -10.531  1.00  0.00     0.016 A 
ATOM      2  C   UNL     1      21.625  12.882 -11.121  1.00  0.00     0.048 A 
ATOM      3  C   UNL     1      20.300  13.003 -10.706  1.00  0.00     0.137 A 
ATOM      4  C   UNL     1      19.760  12.180  -9.753  1.00  0.00     0.064 A 
ATOM      5  C   UNL     1      18.451  12.568  -9.583  1.00  0.00     0.054 A 
ATOM      6  C   UNL     1      18.282  13.629 -10.469  1.00  0.00     0.196 A 
ATOM      7  O   UNL     1      19.405  13.865 -11.124  1.00  0.00    -0.464 OA
ATOM      8  C   UNL     1      20.507  11.174  -9.146  1.00  0.00     0.149 A 
ATOM      9  C   UNL     1      21.860  11.021  -9.545  1.00  0.00     0.018 A 
ATOM     10  C   UNL     1      22.616  10.013  -8.939  1.00  0.00     0.019 A 
ATOM     11  C   UNL     1      22.022   9.199  -7.974  1.00  0.00     0.094 A 
ATOM     12  C   UNL     1      20.679   9.412  -7.633  1.00  0.00     0.336 A 
ATOM     13  O   UNL     1      20.130   8.685  -6.764  1.00  0.00    -0.246 OA
ATOM     14  O   UNL     1      19.979  10.377  -8.222  1.00  0.00    -0.422 OA
ENDROOT
TORSDOF 0
ENDMDL
MODEL 9
REMARK VINA RESULT:    -2.898     12.175     14.362
REMARK INTER + INTRA:          -2.898
REMARK INTER:                  -2.898
REMARK INTRA:                   0.000
REMARK UNBOUND:                 0.000
REMARK SMILES O=c1ccc2ccc3occc3c2o1
REMARK SMILES IDX 6 1 7 2 8 3 12 4 11 5 10 6 9 7 13 8 5 9 4 10 3 11 2 12 1 13
REMARK SMILES IDX 14 14
REMARK H PARENT
REMARK Flexibility Score: inf
ROOT
ATOM      1  C   UNL     1      17.480  12.418 -11.108  1.00  0.00     0.016 A 
ATOM      2  C   UNL     1      17.485  11.166 -10.465  1.00  0.00     0.048 A 
ATOM      3  C   UNL     1      18.140  11.061  -9.239  1.00  0.00     0.137 A 
ATOM      4  C   UNL     1      18.764  12.133  -8.658  1.00  0.00     0.064 A 
ATOM      5  C   UNL     1      19.300  11.688  -7.471  1.00  0.00     0.054 A 
ATOM      6  C   UNL     1      18.955  10.341  -7.413  1.00  0.00     0.196 A 
ATOM      7  O   UNL     1      18.261   9.997  -8.484  1.00  0.00    -0.464 OA
ATOM      8  C   UNL     1      18.780  13.388  -9.261  1.00  0.00     0.149 A 
ATOM      9  C   UNL     1      18.124  13.530 -10.511  1.00  0.00     0.018 A 
ATOM     10  C   UNL     1      18.136  14.787 -11.123  1.00  0.00     0.019 A 
ATOM     11  C   UNL     1      18.786  15.849 -10.491  1.00  0.00     0.094 A 
ATOM     12  C   UNL     1      19.412  15.629  -9.256  1.00  0.00     0.336 A 
ATOM     13  O   UNL     1      20.002  16.577  -8.676  1.00  0.00    -0.246 OA
ATOM     14  O   UNL     1      19.388  14.425  -8.693  1.00  0.00    -0.422 OA
ENDROOT
TORSDOF 0
ENDMDL
