MODEL 1
REMARK VINA RESULT:    -2.981      0.000      0.000
REMARK INTER + INTRA:         -13.744
REMARK INTER:                  -7.862
REMARK INTRA:                  -5.882
REMARK UNBOUND:                -5.882
REMARK SMILES CCCCCCCCCCCCCCCCCCCCCCCCCCCCCC(=O)[O-]
REMARK SMILES IDX 16 1 17 2 18 3 19 4 20 5 21 6 22 7 23 8 24 9 25 10 26 11
REMARK SMILES IDX 27 12 28 13 29 14 30 15 31 16 32 17 15 18 14 19 13 20 12 21
REMARK SMILES IDX 11 22 10 23 9 24 8 25 7 26 6 27 5 28 4 29 3 30 2 31 1 32
REMARK H PARENT
REMARK Flexibility Score: inf
ROOT
ATOM      1  C   UNL     1     -19.014 -28.352  -0.352  1.00  0.00     0.000 C 
ENDROOT
BRANCH   1   2
ATOM      2  C   UNL     1     -19.549 -29.739  -0.754  1.00  0.00     0.000 C 
BRANCH   2   3
ATOM      3  C   UNL     1     -20.709 -29.727  -1.771  1.00  0.00     0.000 C 
BRANCH   3   4
ATOM      4  C   UNL     1     -20.311 -30.050  -3.225  1.00  0.00     0.000 C 
BRANCH   4   5
ATOM      5  C   UNL     1     -20.736 -28.992  -4.262  1.00  0.00     0.000 C 
BRANCH   5   6
ATOM      6  C   UNL     1     -19.670 -28.664  -5.328  1.00  0.00     0.000 C 
BRANCH   6   7
ATOM      7  C   UNL     1     -19.758 -27.247  -5.922  1.00  0.00     0.000 C 
BRANCH   7   8
ATOM      8  C   UNL     1     -18.412 -26.506  -5.904  1.00  0.00     0.000 C 
BRANCH   8   9
ATOM      9  C   UNL     1     -18.611 -24.993  -6.053  1.00  0.00     0.000 C 
BRANCH   9  10
ATOM     10  C   UNL     1     -19.978 -24.681  -6.684  1.00  0.00     0.000 C 
BRANCH  10  11
ATOM     11  C   UNL     1     -20.555 -23.328  -6.231  1.00  0.00     0.000 C 
BRANCH  11  12
ATOM     12  C   UNL     1     -19.711 -22.584  -5.179  1.00  0.00     0.000 C 
BRANCH  12  13
ATOM     13  C   UNL     1     -19.946 -21.064  -5.190  1.00  0.00     0.006 C 
BRANCH  13  14
ATOM     14  C   UNL     1     -18.672 -20.279  -4.847  1.00  0.00     0.053 C 
BRANCH  14  15
ATOM     15  C   UNL     1     -18.915 -19.279  -3.758  1.00  0.00     0.041 C 
ATOM     16  O   UNL     1     -19.885 -19.426  -2.967  1.00  0.00    -0.550 OA
ATOM     17  O   UNL     1     -18.049 -18.205  -3.593  1.00  0.00    -0.550 OA
ENDBRANCH  14  15
ENDBRANCH  13  14
ENDBRANCH  12  13
ENDBRANCH  11  12
ENDBRANCH  10  11
ENDBRANCH   9  10
ENDBRANCH   8   9
ENDBRANCH   7   8
ENDBRANCH   6   7
ENDBRANCH   5   6
ENDBRANCH   4   5
ENDBRANCH   3   4
ENDBRANCH   2   3
ENDBRANCH   1   2
BRANCH   1  18
ATOM     18  C   UNL     1     -17.974 -27.802  -1.344  1.00  0.00     0.000 C 
BRANCH  18  19
ATOM     19  C   UNL     1     -18.547 -26.709  -2.261  1.00  0.00     0.000 C 
BRANCH  19  20
ATOM     20  C   UNL     1     -19.961 -26.219  -1.894  1.00  0.00     0.000 C 
BRANCH  20  21
ATOM     21  C   UNL     1     -20.527 -25.153  -2.857  1.00  0.00     0.000 C 
BRANCH  21  22
ATOM     22  C   UNL     1     -21.877 -25.566  -3.471  1.00  0.00     0.000 C 
BRANCH  22  23
ATOM     23  C   UNL     1     -22.892 -24.413  -3.488  1.00  0.00     0.000 C 
BRANCH  23  24
ATOM     24  C   UNL     1     -22.431 -23.204  -2.654  1.00  0.00    -0.000 C 
BRANCH  24  25
ATOM     25  C   UNL     1     -23.142 -23.126  -1.293  1.00  0.00    -0.000 C 
BRANCH  25  26
ATOM     26  C   UNL     1     -24.660 -23.350  -1.409  1.00  0.00    -0.000 C 
BRANCH  26  27
ATOM     27  C   UNL     1     -25.132 -24.619  -0.682  1.00  0.00    -0.000 C 
BRANCH  27  28
ATOM     28  C   UNL     1     -24.021 -25.263   0.168  1.00  0.00    -0.000 C 
BRANCH  28  29
ATOM     29  C   UNL     1     -23.625 -26.660  -0.353  1.00  0.00    -0.000 C 
BRANCH  29  30
ATOM     30  C   UNL     1     -22.528 -27.341   0.489  1.00  0.00    -0.000 C 
BRANCH  30  31
ATOM     31  C   UNL     1     -21.655 -26.373   1.306  1.00  0.00    -0.003 C 
ATOM     32  C   UNL     1     -21.797 -26.578   2.814  1.00  0.00     0.004 C 
ENDBRANCH  30  31
ENDBRANCH  29  30
ENDBRANCH  28  29
ENDBRANCH  27  28
ENDBRANCH  26  27
ENDBRANCH  25  26
ENDBRANCH  24  25
ENDBRANCH  23  24
ENDBRANCH  22  23
ENDBRANCH  21  22
ENDBRANCH  20  21
ENDBRANCH  19  20
ENDBRANCH  18  19
ENDBRANCH   1  18
TORSDOF 28
ENDMDL
MODEL 2
REMARK VINA RESULT:    -2.888      3.476      5.985
REMARK INTER + INTRA:         -13.498
REMARK INTER:                  -8.437
REMARK INTRA:                  -5.061
REMARK UNBOUND:                -5.882
REMARK SMILES CCCCCCCCCCCCCCCCCCCCCCCCCCCCCC(=O)[O-]
REMARK SMILES IDX 16 1 17 2 18 3 19 4 20 5 21 6 22 7 23 8 24 9 25 10 26 11
REMARK SMILES IDX 27 12 28 13 29 14 30 15 31 16 32 17 15 18 14 19 13 20 12 21
REMARK SMILES IDX 11 22 10 23 9 24 8 25 7 26 6 27 5 28 4 29 3 30 2 31 1 32
REMARK H PARENT
REMARK Flexibility Score: inf
ROOT
ATOM      1  C   UNL     1     -19.333 -27.801  -2.842  1.00  0.00     0.000 C 
ENDROOT
BRANCH   1   2
ATOM      2  C   UNL     1     -19.918 -26.566  -3.553  1.00  0.00     0.000 C 
BRANCH   2   3
ATOM      3  C   UNL     1     -19.452 -25.205  -2.997  1.00  0.00     0.000 C 
BRANCH   3   4
ATOM      4  C   UNL     1     -20.054 -23.969  -3.695  1.00  0.00     0.000 C 
BRANCH   4   5
ATOM      5  C   UNL     1     -20.552 -22.866  -2.741  1.00  0.00     0.000 C 
BRANCH   5   6
ATOM      6  C   UNL     1     -20.444 -21.431  -3.296  1.00  0.00     0.000 C 
BRANCH   6   7
ATOM      7  C   UNL     1     -20.910 -21.260  -4.754  1.00  0.00     0.000 C 
BRANCH   7   8
ATOM      8  C   UNL     1     -21.212 -19.797  -5.117  1.00  0.00     0.000 C 
BRANCH   8   9
ATOM      9  C   UNL     1     -22.552 -19.677  -5.853  1.00  0.00     0.000 C 
BRANCH   9  10
ATOM     10  C   UNL     1     -23.138 -21.066  -6.153  1.00  0.00     0.000 C 
BRANCH  10  11
ATOM     11  C   UNL     1     -24.651 -21.151  -5.882  1.00  0.00     0.000 C 
BRANCH  11  12
ATOM     12  C   UNL     1     -25.408 -22.175  -6.749  1.00  0.00     0.000 C 
BRANCH  12  13
ATOM     13  C   UNL     1     -26.769 -22.574  -6.153  1.00  0.00     0.006 C 
BRANCH  13  14
ATOM     14  C   UNL     1     -27.238 -21.590  -5.072  1.00  0.00     0.053 C 
BRANCH  14  15
ATOM     15  C   UNL     1     -28.701 -21.735  -4.789  1.00  0.00     0.041 C 
ATOM     16  O   UNL     1     -29.540 -21.643  -5.726  1.00  0.00    -0.550 OA
ATOM     17  O   UNL     1     -29.138 -22.007  -3.499  1.00  0.00    -0.550 OA
ENDBRANCH  14  15
ENDBRANCH  13  14
ENDBRANCH  12  13
ENDBRANCH  11  12
ENDBRANCH  10  11
ENDBRANCH   9  10
ENDBRANCH   8   9
ENDBRANCH   7   8
ENDBRANCH   6   7
ENDBRANCH   5   6
ENDBRANCH   4   5
ENDBRANCH   3   4
ENDBRANCH   2   3
ENDBRANCH   1   2
BRANCH   1  18
ATOM     18  C   UNL     1     -18.417 -27.431  -1.661  1.00  0.00     0.000 C 
BRANCH  18  19
ATOM     19  C   UNL     1     -18.472 -28.462  -0.521  1.00  0.00     0.000 C 
BRANCH  19  20
ATOM     20  C   UNL     1     -19.367 -29.688  -0.787  1.00  0.00     0.000 C 
BRANCH  20  21
ATOM     21  C   UNL     1     -20.681 -29.696   0.023  1.00  0.00     0.000 C 
BRANCH  21  22
ATOM     22  C   UNL     1     -21.926 -29.853  -0.869  1.00  0.00     0.000 C 
BRANCH  22  23
ATOM     23  C   UNL     1     -22.512 -28.501  -1.304  1.00  0.00     0.000 C 
BRANCH  23  24
ATOM     24  C   UNL     1     -22.158 -27.360  -0.333  1.00  0.00    -0.000 C 
BRANCH  24  25
ATOM     25  C   UNL     1     -22.412 -25.972  -0.943  1.00  0.00    -0.000 C 
BRANCH  25  26
ATOM     26  C   UNL     1     -23.690 -25.930  -1.799  1.00  0.00    -0.000 C 
BRANCH  26  27
ATOM     27  C   UNL     1     -23.438 -25.408  -3.222  1.00  0.00    -0.000 C 
BRANCH  27  28
ATOM     28  C   UNL     1     -24.485 -24.370  -3.666  1.00  0.00    -0.000 C 
BRANCH  28  29
ATOM     29  C   UNL     1     -24.326 -23.027  -2.923  1.00  0.00    -0.000 C 
BRANCH  29  30
ATOM     30  C   UNL     1     -25.532 -22.670  -2.034  1.00  0.00    -0.000 C 
BRANCH  30  31
ATOM     31  C   UNL     1     -25.289 -22.842  -0.525  1.00  0.00    -0.003 C 
ATOM     32  C   UNL     1     -23.872 -22.455  -0.105  1.00  0.00     0.004 C 
ENDBRANCH  30  31
ENDBRANCH  29  30
ENDBRANCH  28  29
ENDBRANCH  27  28
ENDBRANCH  26  27
ENDBRANCH  25  26
ENDBRANCH  24  25
ENDBRANCH  23  24
ENDBRANCH  22  23
ENDBRANCH  21  22
ENDBRANCH  20  21
ENDBRANCH  19  20
ENDBRANCH  18  19
ENDBRANCH   1  18
TORSDOF 28
ENDMDL
MODEL 3
REMARK VINA RESULT:    -2.867      5.193      8.365
REMARK INTER + INTRA:         -13.442
REMARK INTER:                  -9.248
REMARK INTRA:                  -4.193
REMARK UNBOUND:                -5.882
REMARK SMILES CCCCCCCCCCCCCCCCCCCCCCCCCCCCCC(=O)[O-]
REMARK SMILES IDX 16 1 17 2 18 3 19 4 20 5 21 6 22 7 23 8 24 9 25 10 26 11
REMARK SMILES IDX 27 12 28 13 29 14 30 15 31 16 32 17 15 18 14 19 13 20 12 21
REMARK SMILES IDX 11 22 10 23 9 24 8 25 7 26 6 27 5 28 4 29 3 30 2 31 1 32
REMARK H PARENT
REMARK Flexibility Score: inf
ROOT
ATOM      1  C   UNL     1     -23.641 -19.303  -9.493  1.00  0.00     0.000 C 
ENDROOT
BRANCH   1   2
ATOM      2  C   UNL     1     -22.761 -19.637  -8.274  1.00  0.00     0.000 C 
BRANCH   2   3
ATOM      3  C   UNL     1     -22.840 -18.628  -7.110  1.00  0.00     0.000 C 
BRANCH   3   4
ATOM      4  C   UNL     1     -23.238 -19.227  -5.747  1.00  0.00     0.000 C 
BRANCH   4   5
ATOM      5  C   UNL     1     -24.253 -20.384  -5.819  1.00  0.00     0.000 C 
BRANCH   5   6
ATOM      6  C   UNL     1     -23.718 -21.748  -5.338  1.00  0.00     0.000 C 
BRANCH   6   7
ATOM      7  C   UNL     1     -22.209 -21.967  -5.550  1.00  0.00     0.000 C 
BRANCH   7   8
ATOM      8  C   UNL     1     -21.510 -22.546  -4.309  1.00  0.00     0.000 C 
BRANCH   8   9
ATOM      9  C   UNL     1     -20.443 -21.581  -3.777  1.00  0.00     0.000 C 
BRANCH   9  10
ATOM     10  C   UNL     1     -19.285 -21.439  -4.778  1.00  0.00     0.000 C 
BRANCH  10  11
ATOM     11  C   UNL     1     -18.681 -20.024  -4.803  1.00  0.00     0.000 C 
BRANCH  11  12
ATOM     12  C   UNL     1     -19.201 -19.079  -3.703  1.00  0.00     0.000 C 
BRANCH  12  13
ATOM     13  C   UNL     1     -18.258 -17.892  -3.439  1.00  0.00     0.006 C 
BRANCH  13  14
ATOM     14  C   UNL     1     -17.037 -17.904  -4.370  1.00  0.00     0.053 C 
BRANCH  14  15
ATOM     15  C   UNL     1     -15.935 -17.033  -3.851  1.00  0.00     0.041 C 
ATOM     16  O   UNL     1     -14.983 -16.698  -4.607  1.00  0.00    -0.550 OA
ATOM     17  O   UNL     1     -15.977 -16.559  -2.546  1.00  0.00    -0.550 OA
ENDBRANCH  14  15
ENDBRANCH  13  14
ENDBRANCH  12  13
ENDBRANCH  11  12
ENDBRANCH  10  11
ENDBRANCH   9  10
ENDBRANCH   8   9
ENDBRANCH   7   8
ENDBRANCH   6   7
ENDBRANCH   5   6
ENDBRANCH   4   5
ENDBRANCH   3   4
ENDBRANCH   2   3
ENDBRANCH   1   2
BRANCH   1  18
ATOM     18  C   UNL     1     -24.752 -20.341  -9.730  1.00  0.00     0.000 C 
BRANCH  18  19
ATOM     19  C   UNL     1     -24.328 -21.766  -9.339  1.00  0.00     0.000 C 
BRANCH  19  20
ATOM     20  C   UNL     1     -25.432 -22.625  -8.693  1.00  0.00     0.000 C 
BRANCH  20  21
ATOM     21  C   UNL     1     -26.652 -21.817  -8.200  1.00  0.00     0.000 C 
BRANCH  21  22
ATOM     22  C   UNL     1     -27.624 -22.664  -7.359  1.00  0.00     0.000 C 
BRANCH  22  23
ATOM     23  C   UNL     1     -26.901 -23.501  -6.292  1.00  0.00     0.000 C 
BRANCH  23  24
ATOM     24  C   UNL     1     -27.176 -23.005  -4.861  1.00  0.00    -0.000 C 
BRANCH  24  25
ATOM     25  C   UNL     1     -27.798 -21.599  -4.838  1.00  0.00    -0.000 C 
BRANCH  25  26
ATOM     26  C   UNL     1     -28.486 -21.282  -3.499  1.00  0.00    -0.000 C 
BRANCH  26  27
ATOM     27  C   UNL     1     -28.913 -22.545  -2.735  1.00  0.00    -0.000 C 
BRANCH  27  28
ATOM     28  C   UNL     1     -30.412 -22.857  -2.899  1.00  0.00    -0.000 C 
BRANCH  28  29
ATOM     29  C   UNL     1     -30.661 -24.022  -3.880  1.00  0.00    -0.000 C 
BRANCH  29  30
ATOM     30  C   UNL     1     -31.676 -23.685  -4.989  1.00  0.00    -0.000 C 
BRANCH  30  31
ATOM     31  C   UNL     1     -31.046 -23.330  -6.347  1.00  0.00    -0.003 C 
ATOM     32  C   UNL     1     -30.875 -24.545  -7.257  1.00  0.00     0.004 C 
ENDBRANCH  30  31
ENDBRANCH  29  30
ENDBRANCH  28  29
ENDBRANCH  27  28
ENDBRANCH  26  27
ENDBRANCH  25  26
ENDBRANCH  24  25
ENDBRANCH  23  24
ENDBRANCH  22  23
ENDBRANCH  21  22
ENDBRANCH  20  21
ENDBRANCH  19  20
ENDBRANCH  18  19
ENDBRANCH   1  18
TORSDOF 28
ENDMDL
MODEL 4
REMARK VINA RESULT:    -2.851      2.753      4.867
REMARK INTER + INTRA:         -13.399
REMARK INTER:                  -8.530
REMARK INTRA:                  -4.869
REMARK UNBOUND:                -5.882
REMARK SMILES CCCCCCCCCCCCCCCCCCCCCCCCCCCCCC(=O)[O-]
REMARK SMILES IDX 16 1 17 2 18 3 19 4 20 5 21 6 22 7 23 8 24 9 25 10 26 11
REMARK SMILES IDX 27 12 28 13 29 14 30 15 31 16 32 17 15 18 14 19 13 20 12 21
REMARK SMILES IDX 11 22 10 23 9 24 8 25 7 26 6 27 5 28 4 29 3 30 2 31 1 32
REMARK H PARENT
REMARK Flexibility Score: inf
ROOT
ATOM      1  C   UNL     1     -18.956 -28.268  -0.389  1.00  0.00     0.000 C 
ENDROOT
BRANCH   1   2
ATOM      2  C   UNL     1     -17.547 -27.965  -0.931  1.00  0.00     0.000 C 
BRANCH   2   3
ATOM      3  C   UNL     1     -17.497 -26.973  -2.112  1.00  0.00     0.000 C 
BRANCH   3   4
ATOM      4  C   UNL     1     -18.790 -26.167  -2.349  1.00  0.00     0.000 C 
BRANCH   4   5
ATOM      5  C   UNL     1     -19.010 -25.710  -3.804  1.00  0.00     0.000 C 
BRANCH   5   6
ATOM      6  C   UNL     1     -17.847 -26.023  -4.766  1.00  0.00     0.000 C 
BRANCH   6   7
ATOM      7  C   UNL     1     -18.219 -26.024  -6.260  1.00  0.00     0.000 C 
BRANCH   7   8
ATOM      8  C   UNL     1     -19.401 -25.096  -6.582  1.00  0.00     0.000 C 
BRANCH   8   9
ATOM      9  C   UNL     1     -18.931 -23.846  -7.336  1.00  0.00     0.000 C 
BRANCH   9  10
ATOM     10  C   UNL     1     -20.131 -23.038  -7.857  1.00  0.00     0.000 C 
BRANCH  10  11
ATOM     11  C   UNL     1     -20.554 -21.906  -6.903  1.00  0.00     0.000 C 
BRANCH  11  12
ATOM     12  C   UNL     1     -22.026 -21.473  -7.024  1.00  0.00     0.000 C 
BRANCH  12  13
ATOM     13  C   UNL     1     -22.411 -20.372  -6.021  1.00  0.00     0.006 C 
BRANCH  13  14
ATOM     14  C   UNL     1     -23.179 -19.222  -6.690  1.00  0.00     0.053 C 
BRANCH  14  15
ATOM     15  C   UNL     1     -23.498 -19.528  -8.121  1.00  0.00     0.041 C 
ATOM     16  O   UNL     1     -24.574 -20.113  -8.419  1.00  0.00    -0.550 OA
ATOM     17  O   UNL     1     -22.627 -19.134  -9.129  1.00  0.00    -0.550 OA
ENDBRANCH  14  15
ENDBRANCH  13  14
ENDBRANCH  12  13
ENDBRANCH  11  12
ENDBRANCH  10  11
ENDBRANCH   9  10
ENDBRANCH   8   9
ENDBRANCH   7   8
ENDBRANCH   6   7
ENDBRANCH   5   6
ENDBRANCH   4   5
ENDBRANCH   3   4
ENDBRANCH   2   3
ENDBRANCH   1   2
BRANCH   1  18
ATOM     18  C   UNL     1     -19.423 -29.700  -0.706  1.00  0.00     0.000 C 
BRANCH  18  19
ATOM     19  C   UNL     1     -20.895 -29.762  -1.147  1.00  0.00     0.000 C 
BRANCH  19  20
ATOM     20  C   UNL     1     -21.292 -28.764  -2.252  1.00  0.00     0.000 C 
BRANCH  20  21
ATOM     21  C   UNL     1     -20.683 -29.081  -3.635  1.00  0.00     0.000 C 
BRANCH  21  22
ATOM     22  C   UNL     1     -21.335 -28.269  -4.769  1.00  0.00     0.000 C 
BRANCH  22  23
ATOM     23  C   UNL     1     -22.354 -27.245  -4.249  1.00  0.00     0.000 C 
BRANCH  23  24
ATOM     24  C   UNL     1     -22.904 -26.336  -5.362  1.00  0.00    -0.000 C 
BRANCH  24  25
ATOM     25  C   UNL     1     -22.429 -24.881  -5.219  1.00  0.00    -0.000 C 
BRANCH  25  26
ATOM     26  C   UNL     1     -22.401 -24.413  -3.753  1.00  0.00    -0.000 C 
BRANCH  26  27
ATOM     27  C   UNL     1     -22.028 -22.930  -3.608  1.00  0.00    -0.000 C 
BRANCH  27  28
ATOM     28  C   UNL     1     -20.780 -22.717  -2.731  1.00  0.00    -0.000 C 
BRANCH  28  29
ATOM     29  C   UNL     1     -19.691 -21.898  -3.455  1.00  0.00    -0.000 C 
BRANCH  29  30
ATOM     30  C   UNL     1     -19.876 -20.375  -3.319  1.00  0.00    -0.000 C 
BRANCH  30  31
ATOM     31  C   UNL     1     -19.222 -19.548  -4.439  1.00  0.00    -0.003 C 
ATOM     32  C   UNL     1     -18.336 -18.422  -3.905  1.00  0.00     0.004 C 
ENDBRANCH  30  31
ENDBRANCH  29  30
ENDBRANCH  28  29
ENDBRANCH  27  28
ENDBRANCH  26  27
ENDBRANCH  25  26
ENDBRANCH  24  25
ENDBRANCH  23  24
ENDBRANCH  22  23
ENDBRANCH  21  22
ENDBRANCH  20  21
ENDBRANCH  19  20
ENDBRANCH  18  19
ENDBRANCH   1  18
TORSDOF 28
ENDMDL
MODEL 5
REMARK VINA RESULT:    -2.850      2.365      6.660
REMARK INTER + INTRA:         -13.396
REMARK INTER:                  -9.485
REMARK INTRA:                  -3.912
REMARK UNBOUND:                -5.882
REMARK SMILES CCCCCCCCCCCCCCCCCCCCCCCCCCCCCC(=O)[O-]
REMARK SMILES IDX 16 1 17 2 18 3 19 4 20 5 21 6 22 7 23 8 24 9 25 10 26 11
REMARK SMILES IDX 27 12 28 13 29 14 30 15 31 16 32 17 15 18 14 19 13 20 12 21
REMARK SMILES IDX 11 22 10 23 9 24 8 25 7 26 6 27 5 28 4 29 3 30 2 31 1 32
REMARK H PARENT
REMARK Flexibility Score: inf
ROOT
ATOM      1  C   UNL     1     -18.892 -28.277  -0.325  1.00  0.00     0.000 C 
ENDROOT
BRANCH   1   2
ATOM      2  C   UNL     1     -19.398 -29.663  -0.767  1.00  0.00     0.000 C 
BRANCH   2   3
ATOM      3  C   UNL     1     -20.347 -29.658  -1.983  1.00  0.00     0.000 C 
BRANCH   3   4
ATOM      4  C   UNL     1     -21.804 -29.254  -1.678  1.00  0.00     0.000 C 
BRANCH   4   5
ATOM      5  C   UNL     1     -22.381 -29.844  -0.376  1.00  0.00     0.000 C 
BRANCH   5   6
ATOM      6  C   UNL     1     -23.055 -28.819   0.558  1.00  0.00     0.000 C 
BRANCH   6   7
ATOM      7  C   UNL     1     -22.086 -27.968   1.399  1.00  0.00     0.000 C 
BRANCH   7   8
ATOM      8  C   UNL     1     -21.975 -26.519   0.898  1.00  0.00     0.000 C 
BRANCH   8   9
ATOM      9  C   UNL     1     -23.178 -25.684   1.353  1.00  0.00     0.000 C 
BRANCH   9  10
ATOM     10  C   UNL     1     -23.806 -24.938   0.165  1.00  0.00     0.000 C 
BRANCH  10  11
ATOM     11  C   UNL     1     -23.946 -23.425   0.411  1.00  0.00     0.000 C 
BRANCH  11  12
ATOM     12  C   UNL     1     -24.698 -22.656  -0.690  1.00  0.00     0.000 C 
BRANCH  12  13
ATOM     13  C   UNL     1     -25.158 -23.562  -1.845  1.00  0.00     0.006 C 
BRANCH  13  14
ATOM     14  C   UNL     1     -26.344 -22.962  -2.614  1.00  0.00     0.053 C 
BRANCH  14  15
ATOM     15  C   UNL     1     -25.916 -22.379  -3.926  1.00  0.00     0.041 C 
ATOM     16  O   UNL     1     -24.719 -22.489  -4.307  1.00  0.00    -0.550 OA
ATOM     17  O   UNL     1     -26.844 -21.747  -4.744  1.00  0.00    -0.550 OA
ENDBRANCH  14  15
ENDBRANCH  13  14
ENDBRANCH  12  13
ENDBRANCH  11  12
ENDBRANCH  10  11
ENDBRANCH   9  10
ENDBRANCH   8   9
ENDBRANCH   7   8
ENDBRANCH   6   7
ENDBRANCH   5   6
ENDBRANCH   4   5
ENDBRANCH   3   4
ENDBRANCH   2   3
ENDBRANCH   1   2
BRANCH   1  18
ATOM     18  C   UNL     1     -17.584 -27.868  -1.026  1.00  0.00     0.000 C 
BRANCH  18  19
ATOM     19  C   UNL     1     -17.825 -27.037  -2.296  1.00  0.00     0.000 C 
BRANCH  19  20
ATOM     20  C   UNL     1     -19.090 -26.157  -2.275  1.00  0.00     0.000 C 
BRANCH  20  21
ATOM     21  C   UNL     1     -19.908 -26.199  -3.583  1.00  0.00     0.000 C 
BRANCH  21  22
ATOM     22  C   UNL     1     -21.286 -25.527  -3.443  1.00  0.00     0.000 C 
BRANCH  22  23
ATOM     23  C   UNL     1     -21.329 -24.509  -2.292  1.00  0.00     0.000 C 
BRANCH  23  24
ATOM     24  C   UNL     1     -21.617 -23.077  -2.776  1.00  0.00    -0.000 C 
BRANCH  24  25
ATOM     25  C   UNL     1     -21.084 -22.820  -4.195  1.00  0.00    -0.000 C 
BRANCH  25  26
ATOM     26  C   UNL     1     -19.685 -22.180  -4.191  1.00  0.00    -0.000 C 
BRANCH  26  27
ATOM     27  C   UNL     1     -19.618 -20.887  -5.018  1.00  0.00    -0.000 C 
BRANCH  27  28
ATOM     28  C   UNL     1     -20.090 -19.653  -4.228  1.00  0.00    -0.000 C 
BRANCH  28  29
ATOM     29  C   UNL     1     -18.925 -18.943  -3.506  1.00  0.00    -0.000 C 
BRANCH  29  30
ATOM     30  C   UNL     1     -17.761 -18.566  -4.443  1.00  0.00    -0.000 C 
BRANCH  30  31
ATOM     31  C   UNL     1     -17.283 -17.109  -4.317  1.00  0.00    -0.003 C 
ATOM     32  C   UNL     1     -16.653 -16.808  -2.957  1.00  0.00     0.004 C 
ENDBRANCH  30  31
ENDBRANCH  29  30
ENDBRANCH  28  29
ENDBRANCH  27  28
ENDBRANCH  26  27
ENDBRANCH  25  26
ENDBRANCH  24  25
ENDBRANCH  23  24
ENDBRANCH  22  23
ENDBRANCH  21  22
ENDBRANCH  20  21
ENDBRANCH  19  20
ENDBRANCH  18  19
ENDBRANCH   1  18
TORSDOF 28
ENDMDL
MODEL 6
REMARK VINA RESULT:    -2.842      3.175      7.005
REMARK INTER + INTRA:         -13.377
REMARK INTER:                  -7.697
REMARK INTRA:                  -5.679
REMARK UNBOUND:                -5.882
REMARK SMILES CCCCCCCCCCCCCCCCCCCCCCCCCCCCCC(=O)[O-]
REMARK SMILES IDX 16 1 17 2 18 3 19 4 20 5 21 6 22 7 23 8 24 9 25 10 26 11
REMARK SMILES IDX 27 12 28 13 29 14 30 15 31 16 32 17 15 18 14 19 13 20 12 21
REMARK SMILES IDX 11 22 10 23 9 24 8 25 7 26 6 27 5 28 4 29 3 30 2 31 1 32
REMARK H PARENT
REMARK Flexibility Score: inf
ROOT
ATOM      1  C   UNL     1     -19.770 -27.818  -4.127  1.00  0.00     0.000 C 
ENDROOT
BRANCH   1   2
ATOM      2  C   UNL     1     -19.231 -26.455  -3.654  1.00  0.00     0.000 C 
BRANCH   2   3
ATOM      3  C   UNL     1     -18.867 -26.376  -2.157  1.00  0.00     0.000 C 
BRANCH   3   4
ATOM      4  C   UNL     1     -18.125 -27.605  -1.596  1.00  0.00     0.000 C 
BRANCH   4   5
ATOM      5  C   UNL     1     -18.828 -28.302  -0.414  1.00  0.00     0.000 C 
BRANCH   5   6
ATOM      6  C   UNL     1     -19.341 -29.725  -0.713  1.00  0.00     0.000 C 
BRANCH   6   7
ATOM      7  C   UNL     1     -20.852 -29.930  -0.500  1.00  0.00     0.000 C 
BRANCH   7   8
ATOM      8  C   UNL     1     -21.660 -29.813  -1.802  1.00  0.00     0.000 C 
BRANCH   8   9
ATOM      9  C   UNL     1     -22.855 -28.868  -1.628  1.00  0.00     0.000 C 
BRANCH   9  10
ATOM     10  C   UNL     1     -22.391 -27.404  -1.571  1.00  0.00     0.000 C 
BRANCH  10  11
ATOM     11  C   UNL     1     -22.804 -26.692  -0.270  1.00  0.00     0.000 C 
BRANCH  11  12
ATOM     12  C   UNL     1     -21.646 -26.389   0.699  1.00  0.00     0.000 C 
BRANCH  12  13
ATOM     13  C   UNL     1     -21.655 -27.294   1.943  1.00  0.00     0.006 C 
BRANCH  13  14
ATOM     14  C   UNL     1     -20.871 -26.679   3.111  1.00  0.00     0.053 C 
BRANCH  14  15
ATOM     15  C   UNL     1     -21.722 -26.535   4.335  1.00  0.00     0.041 C 
ATOM     16  O   UNL     1     -21.276 -26.884   5.461  1.00  0.00    -0.550 OA
ATOM     17  O   UNL     1     -22.992 -25.981   4.239  1.00  0.00    -0.550 OA
ENDBRANCH  14  15
ENDBRANCH  13  14
ENDBRANCH  12  13
ENDBRANCH  11  12
ENDBRANCH  10  11
ENDBRANCH   9  10
ENDBRANCH   8   9
ENDBRANCH   7   8
ENDBRANCH   6   7
ENDBRANCH   5   6
ENDBRANCH   4   5
ENDBRANCH   3   4
ENDBRANCH   2   3
ENDBRANCH   1   2
BRANCH   1  18
ATOM     18  C   UNL     1     -21.014 -27.689  -5.025  1.00  0.00     0.000 C 
BRANCH  18  19
ATOM     19  C   UNL     1     -21.338 -26.231  -5.386  1.00  0.00     0.000 C 
BRANCH  19  20
ATOM     20  C   UNL     1     -22.633 -25.672  -4.764  1.00  0.00     0.000 C 
BRANCH  20  21
ATOM     21  C   UNL     1     -22.407 -24.490  -3.798  1.00  0.00     0.000 C 
BRANCH  21  22
ATOM     22  C   UNL     1     -23.535 -23.443  -3.868  1.00  0.00     0.000 C 
BRANCH  22  23
ATOM     23  C   UNL     1     -23.210 -22.293  -4.834  1.00  0.00     0.000 C 
BRANCH  23  24
ATOM     24  C   UNL     1     -23.945 -22.422  -6.180  1.00  0.00    -0.000 C 
BRANCH  24  25
ATOM     25  C   UNL     1     -23.003 -22.825  -7.326  1.00  0.00    -0.000 C 
BRANCH  25  26
ATOM     26  C   UNL     1     -21.639 -22.117  -7.242  1.00  0.00    -0.000 C 
BRANCH  26  27
ATOM     27  C   UNL     1     -20.469 -23.097  -7.060  1.00  0.00    -0.000 C 
BRANCH  27  28
ATOM     28  C   UNL     1     -19.312 -22.492  -6.244  1.00  0.00    -0.000 C 
BRANCH  28  29
ATOM     29  C   UNL     1     -19.360 -22.918  -4.761  1.00  0.00    -0.000 C 
BRANCH  29  30
ATOM     30  C   UNL     1     -19.657 -21.754  -3.797  1.00  0.00    -0.000 C 
BRANCH  30  31
ATOM     31  C   UNL     1     -19.701 -20.367  -4.462  1.00  0.00    -0.003 C 
ATOM     32  C   UNL     1     -19.178 -19.256  -3.551  1.00  0.00     0.004 C 
ENDBRANCH  30  31
ENDBRANCH  29  30
ENDBRANCH  28  29
ENDBRANCH  27  28
ENDBRANCH  26  27
ENDBRANCH  25  26
ENDBRANCH  24  25
ENDBRANCH  23  24
ENDBRANCH  22  23
ENDBRANCH  21  22
ENDBRANCH  20  21
ENDBRANCH  19  20
ENDBRANCH  18  19
ENDBRANCH   1  18
TORSDOF 28
ENDMDL
MODEL 7
REMARK VINA RESULT:    -2.797      1.549      2.408
REMARK INTER + INTRA:         -13.257
REMARK INTER:                  -8.203
REMARK INTRA:                  -5.054
REMARK UNBOUND:                -5.882
REMARK SMILES CCCCCCCCCCCCCCCCCCCCCCCCCCCCCC(=O)[O-]
REMARK SMILES IDX 16 1 17 2 18 3 19 4 20 5 21 6 22 7 23 8 24 9 25 10 26 11
REMARK SMILES IDX 27 12 28 13 29 14 30 15 31 16 32 17 15 18 14 19 13 20 12 21
REMARK SMILES IDX 11 22 10 23 9 24 8 25 7 26 6 27 5 28 4 29 3 30 2 31 1 32
REMARK H PARENT
REMARK Flexibility Score: inf
ROOT
ATOM      1  C   UNL     1     -19.457 -29.707  -0.808  1.00  0.00     0.000 C 
ENDROOT
BRANCH   1   2
ATOM      2  C   UNL     1     -20.652 -29.604  -1.775  1.00  0.00     0.000 C 
BRANCH   2   3
ATOM      3  C   UNL     1     -20.320 -29.865  -3.258  1.00  0.00     0.000 C 
BRANCH   3   4
ATOM      4  C   UNL     1     -20.551 -28.669  -4.204  1.00  0.00     0.000 C 
BRANCH   4   5
ATOM      5  C   UNL     1     -19.574 -28.585  -5.393  1.00  0.00     0.000 C 
BRANCH   5   6
ATOM      6  C   UNL     1     -19.467 -27.193  -6.048  1.00  0.00     0.000 C 
BRANCH   6   7
ATOM      7  C   UNL     1     -18.061 -26.817  -6.552  1.00  0.00     0.000 C 
BRANCH   7   8
ATOM      8  C   UNL     1     -17.434 -25.658  -5.761  1.00  0.00     0.000 C 
BRANCH   8   9
ATOM      9  C   UNL     1     -15.907 -25.652  -5.908  1.00  0.00     0.000 C 
BRANCH   9  10
ATOM     10  C   UNL     1     -15.444 -24.452  -6.749  1.00  0.00     0.000 C 
BRANCH  10  11
ATOM     11  C   UNL     1     -15.689 -23.100  -6.055  1.00  0.00     0.000 C 
BRANCH  11  12
ATOM     12  C   UNL     1     -16.704 -22.183  -6.763  1.00  0.00     0.000 C 
BRANCH  12  13
ATOM     13  C   UNL     1     -17.450 -21.254  -5.791  1.00  0.00     0.006 C 
BRANCH  13  14
ATOM     14  C   UNL     1     -18.600 -21.972  -5.071  1.00  0.00     0.053 C 
BRANCH  14  15
ATOM     15  C   UNL     1     -19.718 -21.033  -4.738  1.00  0.00     0.041 C 
ATOM     16  O   UNL     1     -20.633 -20.813  -5.578  1.00  0.00    -0.550 OA
ATOM     17  O   UNL     1     -19.772 -20.429  -3.488  1.00  0.00    -0.550 OA
ENDBRANCH  14  15
ENDBRANCH  13  14
ENDBRANCH  12  13
ENDBRANCH  11  12
ENDBRANCH  10  11
ENDBRANCH   9  10
ENDBRANCH   8   9
ENDBRANCH   7   8
ENDBRANCH   6   7
ENDBRANCH   5   6
ENDBRANCH   4   5
ENDBRANCH   3   4
ENDBRANCH   2   3
ENDBRANCH   1   2
BRANCH   1  18
ATOM     18  C   UNL     1     -18.937 -28.332  -0.352  1.00  0.00     0.000 C 
BRANCH  18  19
ATOM     19  C   UNL     1     -17.740 -27.844  -1.185  1.00  0.00     0.000 C 
BRANCH  19  20
ATOM     20  C   UNL     1     -18.072 -26.783  -2.252  1.00  0.00     0.000 C 
BRANCH  20  21
ATOM     21  C   UNL     1     -19.441 -26.096  -2.052  1.00  0.00     0.000 C 
BRANCH  21  22
ATOM     22  C   UNL     1     -19.762 -25.081  -3.164  1.00  0.00     0.000 C 
BRANCH  22  23
ATOM     23  C   UNL     1     -20.754 -24.001  -2.705  1.00  0.00     0.000 C 
BRANCH  23  24
ATOM     24  C   UNL     1     -22.123 -24.118  -3.399  1.00  0.00    -0.000 C 
BRANCH  24  25
ATOM     25  C   UNL     1     -22.436 -25.558  -3.837  1.00  0.00    -0.000 C 
BRANCH  25  26
ATOM     26  C   UNL     1     -23.049 -26.397  -2.702  1.00  0.00    -0.000 C 
BRANCH  26  27
ATOM     27  C   UNL     1     -23.854 -25.551  -1.703  1.00  0.00    -0.000 C 
BRANCH  27  28
ATOM     28  C   UNL     1     -23.567 -25.931  -0.239  1.00  0.00    -0.000 C 
BRANCH  28  29
ATOM     29  C   UNL     1     -22.126 -26.447  -0.042  1.00  0.00    -0.000 C 
BRANCH  29  30
ATOM     30  C   UNL     1     -21.697 -26.523   1.436  1.00  0.00    -0.000 C 
BRANCH  30  31
ATOM     31  C   UNL     1     -22.383 -27.637   2.245  1.00  0.00    -0.003 C 
ATOM     32  C   UNL     1     -22.302 -29.002   1.561  1.00  0.00     0.004 C 
ENDBRANCH  30  31
ENDBRANCH  29  30
ENDBRANCH  28  29
ENDBRANCH  27  28
ENDBRANCH  26  27
ENDBRANCH  25  26
ENDBRANCH  24  25
ENDBRANCH  23  24
ENDBRANCH  22  23
ENDBRANCH  21  22
ENDBRANCH  20  21
ENDBRANCH  19  20
ENDBRANCH  18  19
ENDBRANCH   1  18
TORSDOF 28
ENDMDL
MODEL 8
REMARK VINA RESULT:    -2.775      3.085      5.903
REMARK INTER + INTRA:         -13.200
REMARK INTER:                  -7.754
REMARK INTRA:                  -5.446
REMARK UNBOUND:                -5.882
REMARK SMILES CCCCCCCCCCCCCCCCCCCCCCCCCCCCCC(=O)[O-]
REMARK SMILES IDX 16 1 17 2 18 3 19 4 20 5 21 6 22 7 23 8 24 9 25 10 26 11
REMARK SMILES IDX 27 12 28 13 29 14 30 15 31 16 32 17 15 18 14 19 13 20 12 21
REMARK SMILES IDX 11 22 10 23 9 24 8 25 7 26 6 27 5 28 4 29 3 30 2 31 1 32
REMARK H PARENT
REMARK Flexibility Score: inf
ROOT
ATOM      1  C   UNL     1     -18.243 -26.477  -2.696  1.00  0.00     0.000 C 
ENDROOT
BRANCH   1   2
ATOM      2  C   UNL     1     -18.592 -26.144  -4.159  1.00  0.00     0.000 C 
BRANCH   2   3
ATOM      3  C   UNL     1     -19.912 -26.752  -4.675  1.00  0.00     0.000 C 
BRANCH   3   4
ATOM      4  C   UNL     1     -20.635 -25.929  -5.760  1.00  0.00     0.000 C 
BRANCH   4   5
ATOM      5  C   UNL     1     -22.156 -25.785  -5.558  1.00  0.00     0.000 C 
BRANCH   5   6
ATOM      6  C   UNL     1     -22.724 -24.388  -5.883  1.00  0.00     0.000 C 
BRANCH   6   7
ATOM      7  C   UNL     1     -22.823 -24.058  -7.384  1.00  0.00     0.000 C 
BRANCH   7   8
ATOM      8  C   UNL     1     -21.862 -22.938  -7.814  1.00  0.00     0.000 C 
BRANCH   8   9
ATOM      9  C   UNL     1     -22.627 -21.764  -8.436  1.00  0.00     0.000 C 
BRANCH   9  10
ATOM     10  C   UNL     1     -22.311 -20.453  -7.697  1.00  0.00     0.000 C 
BRANCH  10  11
ATOM     11  C   UNL     1     -23.507 -19.915  -6.890  1.00  0.00     0.000 C 
BRANCH  11  12
ATOM     12  C   UNL     1     -23.891 -20.758  -5.660  1.00  0.00     0.000 C 
BRANCH  12  13
ATOM     13  C   UNL     1     -25.245 -21.470  -5.821  1.00  0.00     0.006 C 
BRANCH  13  14
ATOM     14  C   UNL     1     -25.652 -22.234  -4.553  1.00  0.00     0.053 C 
BRANCH  14  15
ATOM     15  C   UNL     1     -27.139 -22.260  -4.375  1.00  0.00     0.041 C 
ATOM     16  O   UNL     1     -27.801 -21.188  -4.424  1.00  0.00    -0.550 OA
ATOM     17  O   UNL     1     -27.799 -23.468  -4.193  1.00  0.00    -0.550 OA
ENDBRANCH  14  15
ENDBRANCH  13  14
ENDBRANCH  12  13
ENDBRANCH  11  12
ENDBRANCH  10  11
ENDBRANCH   9  10
ENDBRANCH   8   9
ENDBRANCH   7   8
ENDBRANCH   6   7
ENDBRANCH   5   6
ENDBRANCH   4   5
ENDBRANCH   3   4
ENDBRANCH   2   3
ENDBRANCH   1   2
BRANCH   1  18
ATOM     18  C   UNL     1     -18.782 -27.849  -2.251  1.00  0.00     0.000 C 
BRANCH  18  19
ATOM     19  C   UNL     1     -18.657 -28.073  -0.736  1.00  0.00     0.000 C 
BRANCH  19  20
ATOM     20  C   UNL     1     -19.992 -28.233   0.017  1.00  0.00     0.000 C 
BRANCH  20  21
ATOM     21  C   UNL     1     -20.926 -27.008  -0.091  1.00  0.00     0.000 C 
BRANCH  21  22
ATOM     22  C   UNL     1     -22.238 -27.325  -0.830  1.00  0.00     0.000 C 
BRANCH  22  23
ATOM     23  C   UNL     1     -22.508 -26.356  -1.992  1.00  0.00     0.000 C 
BRANCH  23  24
ATOM     24  C   UNL     1     -21.658 -25.076  -1.906  1.00  0.00    -0.000 C 
BRANCH  24  25
ATOM     25  C   UNL     1     -22.451 -23.819  -2.298  1.00  0.00    -0.000 C 
BRANCH  25  26
ATOM     26  C   UNL     1     -21.536 -22.626  -2.626  1.00  0.00    -0.000 C 
BRANCH  26  27
ATOM     27  C   UNL     1     -20.115 -23.056  -3.024  1.00  0.00    -0.000 C 
BRANCH  27  28
ATOM     28  C   UNL     1     -19.768 -22.681  -4.477  1.00  0.00    -0.000 C 
BRANCH  28  29
ATOM     29  C   UNL     1     -20.169 -21.230  -4.817  1.00  0.00    -0.000 C 
BRANCH  29  30
ATOM     30  C   UNL     1     -19.002 -20.230  -4.712  1.00  0.00    -0.000 C 
BRANCH  30  31
ATOM     31  C   UNL     1     -19.139 -19.203  -3.575  1.00  0.00    -0.003 C 
ATOM     32  C   UNL     1     -18.085 -18.098  -3.645  1.00  0.00     0.004 C 
ENDBRANCH  30  31
ENDBRANCH  29  30
ENDBRANCH  28  29
ENDBRANCH  27  28
ENDBRANCH  26  27
ENDBRANCH  25  26
ENDBRANCH  24  25
ENDBRANCH  23  24
ENDBRANCH  22  23
ENDBRANCH  21  22
ENDBRANCH  20  21
ENDBRANCH  19  20
ENDBRANCH  18  19
ENDBRANCH   1  18
TORSDOF 28
ENDMDL
MODEL 9
REMARK VINA RESULT:    -2.767      1.969      3.913
REMARK INTER + INTRA:         -13.178
REMARK INTER:                  -7.958
REMARK INTRA:                  -5.220
REMARK UNBOUND:                -5.882
REMARK SMILES CCCCCCCCCCCCCCCCCCCCCCCCCCCCCC(=O)[O-]
REMARK SMILES IDX 16 1 17 2 18 3 19 4 20 5 21 6 22 7 23 8 24 9 25 10 26 11
REMARK SMILES IDX 27 12 28 13 29 14 30 15 31 16 32 17 15 18 14 19 13 20 12 21
REMARK SMILES IDX 11 22 10 23 9 24 8 25 7 26 6 27 5 28 4 29 3 30 2 31 1 32
REMARK H PARENT
REMARK Flexibility Score: inf
ROOT
ATOM      1  C   UNL     1     -19.275 -26.225  -2.238  1.00  0.00     0.000 C 
ENDROOT
BRANCH   1   2
ATOM      2  C   UNL     1     -19.935 -26.194  -3.630  1.00  0.00     0.000 C 
BRANCH   2   3
ATOM      3  C   UNL     1     -19.241 -27.057  -4.704  1.00  0.00     0.000 C 
BRANCH   3   4
ATOM      4  C   UNL     1     -18.876 -26.316  -6.006  1.00  0.00     0.000 C 
BRANCH   4   5
ATOM      5  C   UNL     1     -17.368 -26.269  -6.323  1.00  0.00     0.000 C 
BRANCH   5   6
ATOM      6  C   UNL     1     -16.567 -25.228  -5.514  1.00  0.00     0.000 C 
BRANCH   6   7
ATOM      7  C   UNL     1     -15.608 -24.356  -6.345  1.00  0.00     0.000 C 
BRANCH   7   8
ATOM      8  C   UNL     1     -16.042 -22.883  -6.407  1.00  0.00     0.000 C 
BRANCH   8   9
ATOM      9  C   UNL     1     -17.241 -22.700  -7.345  1.00  0.00     0.000 C 
BRANCH   9  10
ATOM     10  C   UNL     1     -18.231 -21.672  -6.775  1.00  0.00     0.000 C 
BRANCH  10  11
ATOM     11  C   UNL     1     -18.290 -21.683  -5.236  1.00  0.00     0.000 C 
BRANCH  11  12
ATOM     12  C   UNL     1     -19.283 -22.694  -4.634  1.00  0.00     0.000 C 
BRANCH  12  13
ATOM     13  C   UNL     1     -20.546 -22.877  -5.492  1.00  0.00     0.006 C 
BRANCH  13  14
ATOM     14  C   UNL     1     -21.701 -21.984  -5.019  1.00  0.00     0.053 C 
BRANCH  14  15
ATOM     15  C   UNL     1     -21.787 -20.719  -5.817  1.00  0.00     0.041 C 
ATOM     16  O   UNL     1     -21.585 -19.605  -5.262  1.00  0.00    -0.550 OA
ATOM     17  O   UNL     1     -22.052 -20.771  -7.179  1.00  0.00    -0.550 OA
ENDBRANCH  14  15
ENDBRANCH  13  14
ENDBRANCH  12  13
ENDBRANCH  11  12
ENDBRANCH  10  11
ENDBRANCH   9  10
ENDBRANCH   8   9
ENDBRANCH   7   8
ENDBRANCH   6   7
ENDBRANCH   5   6
ENDBRANCH   4   5
ENDBRANCH   3   4
ENDBRANCH   2   3
ENDBRANCH   1   2
BRANCH   1  18
ATOM     18  C   UNL     1     -17.878 -26.871  -2.253  1.00  0.00     0.000 C 
BRANCH  18  19
ATOM     19  C   UNL     1     -17.661 -27.843  -1.082  1.00  0.00     0.000 C 
BRANCH  19  20
ATOM     20  C   UNL     1     -18.939 -28.264  -0.331  1.00  0.00     0.000 C 
BRANCH  20  21
ATOM     21  C   UNL     1     -19.402 -29.705  -0.634  1.00  0.00     0.000 C 
BRANCH  21  22
ATOM     22  C   UNL     1     -20.856 -29.768  -1.136  1.00  0.00     0.000 C 
BRANCH  22  23
ATOM     23  C   UNL     1     -20.951 -29.745  -2.669  1.00  0.00     0.000 C 
BRANCH  23  24
ATOM     24  C   UNL     1     -22.404 -29.687  -3.173  1.00  0.00    -0.000 C 
BRANCH  24  25
ATOM     25  C   UNL     1     -22.867 -28.250  -3.464  1.00  0.00    -0.000 C 
BRANCH  25  26
ATOM     26  C   UNL     1     -23.683 -27.649  -2.306  1.00  0.00    -0.000 C 
BRANCH  26  27
ATOM     27  C   UNL     1     -22.946 -26.508  -1.588  1.00  0.00    -0.000 C 
BRANCH  27  28
ATOM     28  C   UNL     1     -23.165 -26.528  -0.064  1.00  0.00    -0.000 C 
BRANCH  28  29
ATOM     29  C   UNL     1     -21.835 -26.575   0.716  1.00  0.00    -0.000 C 
BRANCH  29  30
ATOM     30  C   UNL     1     -21.916 -27.390   2.021  1.00  0.00    -0.000 C 
BRANCH  30  31
ATOM     31  C   UNL     1     -22.601 -28.759   1.880  1.00  0.00    -0.003 C 
ATOM     32  C   UNL     1     -22.461 -29.625   3.131  1.00  0.00     0.004 C 
ENDBRANCH  30  31
ENDBRANCH  29  30
ENDBRANCH  28  29
ENDBRANCH  27  28
ENDBRANCH  26  27
ENDBRANCH  25  26
ENDBRANCH  24  25
ENDBRANCH  23  24
ENDBRANCH  22  23
ENDBRANCH  21  22
ENDBRANCH  20  21
ENDBRANCH  19  20
ENDBRANCH  18  19
ENDBRANCH   1  18
TORSDOF 28
ENDMDL
