MODEL 1
REMARK VINA RESULT:    -4.368      0.000      0.000
REMARK INTER + INTRA:          -5.022
REMARK INTER:                  -4.879
REMARK INTRA:                  -0.143
REMARK UNBOUND:                -0.143
REMARK SMILES O=C([O-])c1ccccc1C(=O)[O-]
REMARK SMILES IDX 4 1 9 2 5 3 8 4 6 5 7 6 2 7 1 8 3 9 10 10 11 11 12 12
REMARK H PARENT
REMARK Flexibility Score: inf
ROOT
ATOM      1  C   UNL     1      37.260  -8.480  12.790  1.00  0.00     0.006 A 
ATOM      2  C   UNL     1      38.317  -8.697  11.861  1.00  0.00     0.006 A 
ATOM      3  C   UNL     1      36.865  -9.535  13.633  1.00  0.00     0.010 A 
ATOM      4  C   UNL     1      38.983  -9.937  11.858  1.00  0.00     0.010 A 
ATOM      5  C   UNL     1      37.524 -10.764  13.597  1.00  0.00     0.001 A 
ATOM      6  C   UNL     1      38.588 -10.960  12.720  1.00  0.00     0.001 A 
ENDROOT
BRANCH   1   7
ATOM      7  C   UNL     1      36.592  -7.170  12.962  1.00  0.00     0.072 C 
ATOM      8  O   UNL     1      37.131  -6.255  13.642  1.00  0.00    -0.545 OA
ATOM      9  O   UNL     1      35.326  -6.957  12.430  1.00  0.00    -0.545 OA
ENDBRANCH   1   7
BRANCH   2  10
ATOM     10  C   UNL     1      38.714  -7.697  10.842  1.00  0.00     0.072 C 
ATOM     11  O   UNL     1      37.938  -7.397   9.897  1.00  0.00    -0.545 OA
ATOM     12  O   UNL     1      39.982  -7.128  10.881  1.00  0.00    -0.545 OA
ENDBRANCH   2  10
TORSDOF 2
ENDMDL
MODEL 2
REMARK VINA RESULT:    -4.356      0.065      3.192
REMARK INTER + INTRA:          -5.009
REMARK INTER:                  -4.870
REMARK INTRA:                  -0.139
REMARK UNBOUND:                -0.143
REMARK SMILES O=C([O-])c1ccccc1C(=O)[O-]
REMARK SMILES IDX 4 1 9 2 5 3 8 4 6 5 7 6 2 7 1 8 3 9 10 10 11 11 12 12
REMARK H PARENT
REMARK Flexibility Score: inf
ROOT
ATOM      1  C   UNL     1      38.298  -8.668  11.828  1.00  0.00     0.006 A 
ATOM      2  C   UNL     1      37.258  -8.479  12.783  1.00  0.00     0.006 A 
ATOM      3  C   UNL     1      38.971  -9.903  11.788  1.00  0.00     0.010 A 
ATOM      4  C   UNL     1      36.887  -9.554  13.612  1.00  0.00     0.010 A 
ATOM      5  C   UNL     1      38.602 -10.947  12.637  1.00  0.00     0.001 A 
ATOM      6  C   UNL     1      37.554 -10.776  13.538  1.00  0.00     0.001 A 
ENDROOT
BRANCH   1   7
ATOM      7  C   UNL     1      38.667  -7.646  10.822  1.00  0.00     0.072 C 
ATOM      8  O   UNL     1      37.866  -7.326   9.904  1.00  0.00    -0.545 OA
ATOM      9  O   UNL     1      39.934  -7.075  10.841  1.00  0.00    -0.545 OA
ENDBRANCH   1   7
BRANCH   2  10
ATOM     10  C   UNL     1      36.585  -7.177  12.995  1.00  0.00     0.072 C 
ATOM     11  O   UNL     1      37.131  -6.272  13.679  1.00  0.00    -0.545 OA
ATOM     12  O   UNL     1      35.305  -6.965  12.494  1.00  0.00    -0.545 OA
ENDBRANCH   2  10
TORSDOF 2
ENDMDL
MODEL 3
REMARK VINA RESULT:    -4.338      1.842      3.784
REMARK INTER + INTRA:          -4.988
REMARK INTER:                  -4.866
REMARK INTRA:                  -0.123
REMARK UNBOUND:                -0.143
REMARK SMILES O=C([O-])c1ccccc1C(=O)[O-]
REMARK SMILES IDX 4 1 9 2 5 3 8 4 6 5 7 6 2 7 1 8 3 9 10 10 11 11 12 12
REMARK H PARENT
REMARK Flexibility Score: inf
ROOT
ATOM      1  C   UNL     1      38.341  -8.495   9.973  1.00  0.00     0.006 A 
ATOM      2  C   UNL     1      37.271  -8.701  10.889  1.00  0.00     0.006 A 
ATOM      3  C   UNL     1      38.739  -9.554   9.136  1.00  0.00     0.010 A 
ATOM      4  C   UNL     1      36.595  -9.936  10.884  1.00  0.00     0.010 A 
ATOM      5  C   UNL     1      38.069 -10.778   9.166  1.00  0.00     0.001 A 
ATOM      6  C   UNL     1      36.992 -10.964  10.029  1.00  0.00     0.001 A 
ENDROOT
BRANCH   1   7
ATOM      7  C   UNL     1      39.023  -7.191   9.807  1.00  0.00     0.072 C 
ATOM      8  O   UNL     1      38.536  -6.299   9.063  1.00  0.00    -0.545 OA
ATOM      9  O   UNL     1      40.248  -6.960  10.422  1.00  0.00    -0.545 OA
ENDBRANCH   1   7
BRANCH   2  10
ATOM     10  C   UNL     1      36.870  -7.697  11.901  1.00  0.00     0.072 C 
ATOM     11  O   UNL     1      37.664  -7.348  12.813  1.00  0.00    -0.545 OA
ATOM     12  O   UNL     1      35.580  -7.177  11.894  1.00  0.00    -0.545 OA
ENDBRANCH   2  10
TORSDOF 2
ENDMDL
MODEL 4
REMARK VINA RESULT:    -4.330      1.822      2.159
REMARK INTER + INTRA:          -4.980
REMARK INTER:                  -4.847
REMARK INTRA:                  -0.133
REMARK UNBOUND:                -0.143
REMARK SMILES O=C([O-])c1ccccc1C(=O)[O-]
REMARK SMILES IDX 4 1 9 2 5 3 8 4 6 5 7 6 2 7 1 8 3 9 10 10 11 11 12 12
REMARK H PARENT
REMARK Flexibility Score: inf
ROOT
ATOM      1  C   UNL     1      37.271  -8.709  10.920  1.00  0.00     0.006 A 
ATOM      2  C   UNL     1      38.349  -8.489  10.016  1.00  0.00     0.006 A 
ATOM      3  C   UNL     1      36.594  -9.942  10.889  1.00  0.00     0.010 A 
ATOM      4  C   UNL     1      38.752  -9.535   9.165  1.00  0.00     0.010 A 
ATOM      5  C   UNL     1      36.996 -10.956  10.020  1.00  0.00     0.001 A 
ATOM      6  C   UNL     1      38.080 -10.757   9.168  1.00  0.00     0.001 A 
ENDROOT
BRANCH   1   7
ATOM      7  C   UNL     1      36.863  -7.722  11.946  1.00  0.00     0.072 C 
ATOM      8  O   UNL     1      37.643  -7.408  12.885  1.00  0.00    -0.545 OA
ATOM      9  O   UNL     1      35.584  -7.179  11.922  1.00  0.00    -0.545 OA
ENDBRANCH   1   7
BRANCH   2  10
ATOM     10  C   UNL     1      39.033  -7.183   9.878  1.00  0.00     0.072 C 
ATOM     11  O   UNL     1      38.558  -6.281   9.139  1.00  0.00    -0.545 OA
ATOM     12  O   UNL     1      40.250  -6.962  10.514  1.00  0.00    -0.545 OA
ENDBRANCH   2  10
TORSDOF 2
ENDMDL
MODEL 5
REMARK VINA RESULT:    -4.276      1.989      3.277
REMARK INTER + INTRA:          -4.919
REMARK INTER:                  -4.696
REMARK INTRA:                  -0.223
REMARK UNBOUND:                -0.143
REMARK SMILES O=C([O-])c1ccccc1C(=O)[O-]
REMARK SMILES IDX 4 1 9 2 5 3 8 4 6 5 7 6 2 7 1 8 3 9 10 10 11 11 12 12
REMARK H PARENT
REMARK Flexibility Score: inf
ROOT
ATOM      1  C   UNL     1      38.092  -7.840  11.483  1.00  0.00     0.006 A 
ATOM      2  C   UNL     1      38.071  -9.259  11.594  1.00  0.00     0.006 A 
ATOM      3  C   UNL     1      37.376  -7.070  12.419  1.00  0.00     0.010 A 
ATOM      4  C   UNL     1      37.391  -9.851  12.675  1.00  0.00     0.010 A 
ATOM      5  C   UNL     1      36.690  -7.680  13.470  1.00  0.00     0.001 A 
ATOM      6  C   UNL     1      36.708  -9.066  13.604  1.00  0.00     0.001 A 
ENDROOT
BRANCH   1   7
ATOM      7  C   UNL     1      38.890  -7.120  10.464  1.00  0.00     0.072 C 
ATOM      8  O   UNL     1      38.344  -6.657   9.427  1.00  0.00    -0.545 OA
ATOM      9  O   UNL     1      40.268  -7.007  10.608  1.00  0.00    -0.545 OA
ENDBRANCH   1   7
BRANCH   2  10
ATOM     10  C   UNL     1      38.677 -10.156  10.584  1.00  0.00     0.072 C 
ATOM     11  O   UNL     1      39.808 -10.674  10.777  1.00  0.00    -0.545 OA
ATOM     12  O   UNL     1      38.028 -10.384   9.375  1.00  0.00    -0.545 OA
ENDBRANCH   2  10
TORSDOF 2
ENDMDL
MODEL 6
REMARK VINA RESULT:    -4.253      2.000      3.136
REMARK INTER + INTRA:          -4.893
REMARK INTER:                  -4.673
REMARK INTRA:                  -0.220
REMARK UNBOUND:                -0.143
REMARK SMILES O=C([O-])c1ccccc1C(=O)[O-]
REMARK SMILES IDX 4 1 9 2 5 3 8 4 6 5 7 6 2 7 1 8 3 9 10 10 11 11 12 12
REMARK H PARENT
REMARK Flexibility Score: inf
ROOT
ATOM      1  C   UNL     1      38.043  -9.221  11.607  1.00  0.00     0.006 A 
ATOM      2  C   UNL     1      38.072  -7.804  11.470  1.00  0.00     0.006 A 
ATOM      3  C   UNL     1      37.375  -9.788  12.708  1.00  0.00     0.010 A 
ATOM      4  C   UNL     1      37.374  -7.013  12.400  1.00  0.00     0.010 A 
ATOM      5  C   UNL     1      36.709  -8.982  13.632  1.00  0.00     0.001 A 
ATOM      6  C   UNL     1      36.698  -7.598  13.471  1.00  0.00     0.001 A 
ENDROOT
BRANCH   1   7
ATOM      7  C   UNL     1      38.630 -10.142  10.607  1.00  0.00     0.072 C 
ATOM      8  O   UNL     1      39.753 -10.679  10.805  1.00  0.00    -0.545 OA
ATOM      9  O   UNL     1      37.976 -10.373   9.402  1.00  0.00    -0.545 OA
ENDBRANCH   1   7
BRANCH   2  10
ATOM     10  C   UNL     1      38.861  -7.110  10.426  1.00  0.00     0.072 C 
ATOM     11  O   UNL     1      38.304  -6.656   9.392  1.00  0.00    -0.545 OA
ATOM     12  O   UNL     1      40.243  -7.013  10.546  1.00  0.00    -0.545 OA
ENDBRANCH   2  10
TORSDOF 2
ENDMDL
MODEL 7
REMARK VINA RESULT:    -4.204      1.933      3.215
REMARK INTER + INTRA:          -4.839
REMARK INTER:                  -4.620
REMARK INTRA:                  -0.219
REMARK UNBOUND:                -0.143
REMARK SMILES O=C([O-])c1ccccc1C(=O)[O-]
REMARK SMILES IDX 4 1 9 2 5 3 8 4 6 5 7 6 2 7 1 8 3 9 10 10 11 11 12 12
REMARK H PARENT
REMARK Flexibility Score: inf
ROOT
ATOM      1  C   UNL     1      37.425  -7.830  11.558  1.00  0.00     0.006 A 
ATOM      2  C   UNL     1      37.361  -9.250  11.469  1.00  0.00     0.006 A 
ATOM      3  C   UNL     1      38.140  -7.116  10.579  1.00  0.00     0.010 A 
ATOM      4  C   UNL     1      37.956  -9.894  10.368  1.00  0.00     0.010 A 
ATOM      5  C   UNL     1      38.742  -7.777   9.508  1.00  0.00     0.001 A 
ATOM      6  C   UNL     1      38.640  -9.162   9.397  1.00  0.00     0.001 A 
ENDROOT
BRANCH   1   7
ATOM      7  C   UNL     1      36.717  -7.053  12.601  1.00  0.00     0.072 C 
ATOM      8  O   UNL     1      37.344  -6.570  13.582  1.00  0.00    -0.545 OA
ATOM      9  O   UNL     1      35.336  -6.905  12.544  1.00  0.00    -0.545 OA
ENDBRANCH   1   7
BRANCH   2  10
ATOM     10  C   UNL     1      36.752 -10.098  12.519  1.00  0.00     0.072 C 
ATOM     11  O   UNL     1      35.571 -10.518  12.405  1.00  0.00    -0.545 OA
ATOM     12  O   UNL     1      37.460 -10.385  13.681  1.00  0.00    -0.545 OA
ENDBRANCH   2  10
TORSDOF 2
ENDMDL
MODEL 8
REMARK VINA RESULT:    -4.191      1.937      3.718
REMARK INTER + INTRA:          -4.824
REMARK INTER:                  -4.601
REMARK INTRA:                  -0.224
REMARK UNBOUND:                -0.143
REMARK SMILES O=C([O-])c1ccccc1C(=O)[O-]
REMARK SMILES IDX 4 1 9 2 5 3 8 4 6 5 7 6 2 7 1 8 3 9 10 10 11 11 12 12
REMARK H PARENT
REMARK Flexibility Score: inf
ROOT
ATOM      1  C   UNL     1      37.465  -9.242  11.432  1.00  0.00     0.006 A 
ATOM      2  C   UNL     1      37.461  -7.820  11.516  1.00  0.00     0.006 A 
ATOM      3  C   UNL     1      38.111  -9.861  10.346  1.00  0.00     0.010 A 
ATOM      4  C   UNL     1      38.161  -7.076  10.547  1.00  0.00     0.010 A 
ATOM      5  C   UNL     1      38.778  -9.101   9.384  1.00  0.00     0.001 A 
ATOM      6  C   UNL     1      38.813  -7.713   9.492  1.00  0.00     0.001 A 
ENDROOT
BRANCH   1   7
ATOM      7  C   UNL     1      36.876 -10.114  12.474  1.00  0.00     0.072 C 
ATOM      8  O   UNL     1      35.717 -10.589  12.337  1.00  0.00    -0.545 OA
ATOM      9  O   UNL     1      37.573 -10.365  13.650  1.00  0.00    -0.545 OA
ENDBRANCH   1   7
BRANCH   2  10
ATOM     10  C   UNL     1      36.697  -7.074  12.542  1.00  0.00     0.072 C 
ATOM     11  O   UNL     1      37.274  -6.589  13.550  1.00  0.00    -0.545 OA
ATOM     12  O   UNL     1      35.315  -6.959  12.435  1.00  0.00    -0.545 OA
ENDBRANCH   2  10
TORSDOF 2
ENDMDL
MODEL 9
REMARK VINA RESULT:    -4.113      1.901      3.475
REMARK INTER + INTRA:          -4.737
REMARK INTER:                  -4.517
REMARK INTRA:                  -0.220
REMARK UNBOUND:                -0.143
REMARK SMILES O=C([O-])c1ccccc1C(=O)[O-]
REMARK SMILES IDX 4 1 9 2 5 3 8 4 6 5 7 6 2 7 1 8 3 9 10 10 11 11 12 12
REMARK H PARENT
REMARK Flexibility Score: inf
ROOT
ATOM      1  C   UNL     1      37.461  -7.662  12.196  1.00  0.00     0.006 A 
ATOM      2  C   UNL     1      36.933  -8.952  12.488  1.00  0.00     0.006 A 
ATOM      3  C   UNL     1      37.096  -6.574  13.011  1.00  0.00     0.010 A 
ATOM      4  C   UNL     1      36.117  -9.116  13.623  1.00  0.00     0.010 A 
ATOM      5  C   UNL     1      36.266  -6.756  14.117  1.00  0.00     0.001 A 
ATOM      6  C   UNL     1      35.788  -8.026  14.430  1.00  0.00     0.001 A 
ENDROOT
BRANCH   1   7
ATOM      7  C   UNL     1      38.434  -7.415  11.108  1.00  0.00     0.072 C 
ATOM      8  O   UNL     1      39.674  -7.438  11.334  1.00  0.00    -0.545 OA
ATOM      9  O   UNL     1      37.987  -7.086   9.833  1.00  0.00    -0.545 OA
ENDBRANCH   1   7
BRANCH   2  10
ATOM     10  C   UNL     1      37.147 -10.128  11.615  1.00  0.00     0.072 C 
ATOM     11  O   UNL     1      38.139 -10.885  11.783  1.00  0.00    -0.545 OA
ATOM     12  O   UNL     1      36.286 -10.372  10.550  1.00  0.00    -0.545 OA
ENDBRANCH   2  10
TORSDOF 2
ENDMDL
