MODEL 1
REMARK VINA RESULT:    -3.514      0.000      0.000
REMARK INTER + INTRA:          -5.067
REMARK INTER:                  -4.746
REMARK INTRA:                  -0.321
REMARK UNBOUND:                -0.321
REMARK SMILES CCCCCCCC(=O)[O-]
REMARK SMILES IDX 5 1 6 2 7 3 8 4 9 5 10 6 4 7 3 8 2 9 1 10
REMARK H PARENT
REMARK Flexibility Score: inf
ROOT
ATOM      1  C   UNL     1      -6.339 -26.654  25.758  1.00  0.00     0.000 C 
ENDROOT
BRANCH   1   2
ATOM      2  C   UNL     1      -5.976 -27.605  26.908  1.00  0.00     0.006 C 
BRANCH   2   3
ATOM      3  C   UNL     1      -4.462 -27.824  27.027  1.00  0.00     0.053 C 
BRANCH   3   4
ATOM      4  C   UNL     1      -4.083 -28.350  28.377  1.00  0.00     0.041 C 
ATOM      5  O   UNL     1      -4.940 -28.922  29.099  1.00  0.00    -0.550 OA
ATOM      6  O   UNL     1      -2.773 -28.234  28.825  1.00  0.00    -0.550 OA
ENDBRANCH   3   4
ENDBRANCH   2   3
ENDBRANCH   1   2
BRANCH   1   7
ATOM      7  C   UNL     1      -7.508 -27.207  24.936  1.00  0.00     0.000 C 
BRANCH   7   8
ATOM      8  C   UNL     1      -7.005 -28.094  23.791  1.00  0.00    -0.000 C 
BRANCH   8   9
ATOM      9  C   UNL     1      -5.805 -27.454  23.085  1.00  0.00    -0.003 C 
ATOM     10  C   UNL     1      -6.255 -26.392  22.084  1.00  0.00     0.004 C 
ENDBRANCH   8   9
ENDBRANCH   7   8
ENDBRANCH   1   7
TORSDOF 6
ENDMDL
MODEL 2
REMARK VINA RESULT:    -3.290      1.801      3.030
REMARK INTER + INTRA:          -4.764
REMARK INTER:                  -4.349
REMARK INTRA:                  -0.415
REMARK UNBOUND:                -0.321
REMARK SMILES CCCCCCCC(=O)[O-]
REMARK SMILES IDX 5 1 6 2 7 3 8 4 9 5 10 6 4 7 3 8 2 9 1 10
REMARK H PARENT
REMARK Flexibility Score: inf
ROOT
ATOM      1  C   UNL     1      -6.170 -27.872  24.109  1.00  0.00     0.000 C 
ENDROOT
BRANCH   1   2
ATOM      2  C   UNL     1      -5.698 -26.887  25.189  1.00  0.00     0.006 C 
BRANCH   2   3
ATOM      3  C   UNL     1      -5.219 -27.601  26.460  1.00  0.00     0.053 C 
BRANCH   3   4
ATOM      4  C   UNL     1      -3.725 -27.661  26.532  1.00  0.00     0.041 C 
ATOM      5  O   UNL     1      -3.154 -27.996  27.603  1.00  0.00    -0.550 OA
ATOM      6  O   UNL     1      -2.962 -27.376  25.406  1.00  0.00    -0.550 OA
ENDBRANCH   3   4
ENDBRANCH   2   3
ENDBRANCH   1   2
BRANCH   1   7
ATOM      7  C   UNL     1      -7.600 -27.552  23.662  1.00  0.00     0.000 C 
BRANCH   7   8
ATOM      8  C   UNL     1      -8.496 -27.236  24.866  1.00  0.00    -0.000 C 
BRANCH   8   9
ATOM      9  C   UNL     1      -9.256 -28.483  25.329  1.00  0.00    -0.003 C 
ATOM     10  C   UNL     1      -9.219 -28.619  26.849  1.00  0.00     0.004 C 
ENDBRANCH   8   9
ENDBRANCH   7   8
ENDBRANCH   1   7
TORSDOF 6
ENDMDL
MODEL 3
REMARK VINA RESULT:    -3.277      1.133      2.161
REMARK INTER + INTRA:          -4.748
REMARK INTER:                  -4.311
REMARK INTRA:                  -0.436
REMARK UNBOUND:                -0.321
REMARK SMILES CCCCCCCC(=O)[O-]
REMARK SMILES IDX 5 1 6 2 7 3 8 4 9 5 10 6 4 7 3 8 2 9 1 10
REMARK H PARENT
REMARK Flexibility Score: inf
ROOT
ATOM      1  C   UNL     1      -3.999 -28.384  24.794  1.00  0.00     0.000 C 
ENDROOT
BRANCH   1   2
ATOM      2  C   UNL     1      -4.220 -27.335  25.894  1.00  0.00     0.006 C 
BRANCH   2   3
ATOM      3  C   UNL     1      -5.061 -27.880  27.057  1.00  0.00     0.053 C 
BRANCH   3   4
ATOM      4  C   UNL     1      -4.201 -28.352  28.189  1.00  0.00     0.041 C 
ATOM      5  O   UNL     1      -2.958 -28.159  28.165  1.00  0.00    -0.550 OA
ATOM      6  O   UNL     1      -4.778 -28.979  29.286  1.00  0.00    -0.550 OA
ENDBRANCH   3   4
ENDBRANCH   2   3
ENDBRANCH   1   2
BRANCH   1   7
ATOM      7  C   UNL     1      -5.275 -28.593  23.971  1.00  0.00     0.000 C 
BRANCH   7   8
ATOM      8  C   UNL     1      -5.742 -27.277  23.337  1.00  0.00    -0.000 C 
BRANCH   8   9
ATOM      9  C   UNL     1      -7.255 -27.289  23.093  1.00  0.00    -0.003 C 
ATOM     10  C   UNL     1      -8.000 -27.889  24.281  1.00  0.00     0.004 C 
ENDBRANCH   8   9
ENDBRANCH   7   8
ENDBRANCH   1   7
TORSDOF 6
ENDMDL
MODEL 4
REMARK VINA RESULT:    -3.222      2.576      3.803
REMARK INTER + INTRA:          -4.673
REMARK INTER:                  -4.398
REMARK INTRA:                  -0.275
REMARK UNBOUND:                -0.321
REMARK SMILES CCCCCCCC(=O)[O-]
REMARK SMILES IDX 5 1 6 2 7 3 8 4 9 5 10 6 4 7 3 8 2 9 1 10
REMARK H PARENT
REMARK Flexibility Score: inf
ROOT
ATOM      1  C   UNL     1      -7.718 -27.093  24.810  1.00  0.00     0.000 C 
ENDROOT
BRANCH   1   2
ATOM      2  C   UNL     1      -6.460 -26.429  25.392  1.00  0.00     0.006 C 
BRANCH   2   3
ATOM      3  C   UNL     1      -5.726 -27.343  26.383  1.00  0.00     0.053 C 
BRANCH   3   4
ATOM      4  C   UNL     1      -4.318 -27.611  25.949  1.00  0.00     0.041 C 
ATOM      5  O   UNL     1      -4.008 -27.563  24.731  1.00  0.00    -0.550 OA
ATOM      6  O   UNL     1      -3.340 -27.886  26.897  1.00  0.00    -0.550 OA
ENDBRANCH   3   4
ENDBRANCH   2   3
ENDBRANCH   1   2
BRANCH   1   7
ATOM      7  C   UNL     1      -8.395 -27.992  25.850  1.00  0.00     0.000 C 
BRANCH   7   8
ATOM      8  C   UNL     1      -9.773 -28.455  25.364  1.00  0.00    -0.000 C 
BRANCH   8   9
ATOM      9  C   UNL     1     -10.680 -28.820  26.544  1.00  0.00    -0.003 C 
ATOM     10  C   UNL     1      -9.868 -29.023  27.821  1.00  0.00     0.004 C 
ENDBRANCH   8   9
ENDBRANCH   7   8
ENDBRANCH   1   7
TORSDOF 6
ENDMDL
MODEL 5
REMARK VINA RESULT:    -3.077     16.428     17.676
REMARK INTER + INTRA:          -4.477
REMARK INTER:                  -4.333
REMARK INTRA:                  -0.144
REMARK UNBOUND:                -0.321
REMARK SMILES CCCCCCCC(=O)[O-]
REMARK SMILES IDX 5 1 6 2 7 3 8 4 9 5 10 6 4 7 3 8 2 9 1 10
REMARK H PARENT
REMARK Flexibility Score: inf
ROOT
ATOM      1  C   UNL     1     -15.798 -14.920  26.684  1.00  0.00     0.000 C 
ENDROOT
BRANCH   1   2
ATOM      2  C   UNL     1     -16.761 -14.791  25.494  1.00  0.00     0.006 C 
BRANCH   2   3
ATOM      3  C   UNL     1     -16.887 -13.342  25.003  1.00  0.00     0.053 C 
BRANCH   3   4
ATOM      4  C   UNL     1     -18.273 -12.810  25.200  1.00  0.00     0.041 C 
ATOM      5  O   UNL     1     -19.111 -13.457  25.880  1.00  0.00    -0.550 OA
ATOM      6  O   UNL     1     -18.630 -11.582  24.656  1.00  0.00    -0.550 OA
ENDBRANCH   3   4
ENDBRANCH   2   3
ENDBRANCH   1   2
BRANCH   1   7
ATOM      7  C   UNL     1     -15.233 -16.342  26.779  1.00  0.00     0.000 C 
BRANCH   7   8
ATOM      8  C   UNL     1     -14.889 -16.701  28.230  1.00  0.00    -0.000 C 
BRANCH   8   9
ATOM      9  C   UNL     1     -13.489 -16.203  28.604  1.00  0.00    -0.003 C 
ATOM     10  C   UNL     1     -12.849 -17.097  29.663  1.00  0.00     0.004 C 
ENDBRANCH   8   9
ENDBRANCH   7   8
ENDBRANCH   1   7
TORSDOF 6
ENDMDL
MODEL 6
REMARK VINA RESULT:    -3.021      9.424     10.939
REMARK INTER + INTRA:          -4.401
REMARK INTER:                  -4.108
REMARK INTRA:                  -0.293
REMARK UNBOUND:                -0.321
REMARK SMILES CCCCCCCC(=O)[O-]
REMARK SMILES IDX 5 1 6 2 7 3 8 4 9 5 10 6 4 7 3 8 2 9 1 10
REMARK H PARENT
REMARK Flexibility Score: inf
ROOT
ATOM      1  C   UNL     1     -10.792 -21.605  20.262  1.00  0.00     0.000 C 
ENDROOT
BRANCH   1   2
ATOM      2  C   UNL     1     -11.565 -22.249  21.423  1.00  0.00     0.006 C 
BRANCH   2   3
ATOM      3  C   UNL     1     -12.010 -21.217  22.468  1.00  0.00     0.053 C 
BRANCH   3   4
ATOM      4  C   UNL     1     -12.779 -21.855  23.584  1.00  0.00     0.041 C 
ATOM      5  O   UNL     1     -12.173 -22.411  24.536  1.00  0.00    -0.550 OA
ATOM      6  O   UNL     1     -14.168 -21.807  23.586  1.00  0.00    -0.550 OA
ENDBRANCH   3   4
ENDBRANCH   2   3
ENDBRANCH   1   2
BRANCH   1   7
ATOM      7  C   UNL     1     -10.491 -20.131  20.554  1.00  0.00     0.000 C 
BRANCH   7   8
ATOM      8  C   UNL     1     -11.085 -19.223  19.470  1.00  0.00    -0.000 C 
BRANCH   8   9
ATOM      9  C   UNL     1     -12.372 -18.550  19.960  1.00  0.00    -0.003 C 
ATOM     10  C   UNL     1     -13.097 -17.847  18.816  1.00  0.00     0.004 C 
ENDBRANCH   8   9
ENDBRANCH   7   8
ENDBRANCH   1   7
TORSDOF 6
ENDMDL
MODEL 7
REMARK VINA RESULT:    -2.997      1.551      2.184
REMARK INTER + INTRA:          -4.370
REMARK INTER:                  -3.819
REMARK INTRA:                  -0.550
REMARK UNBOUND:                -0.321
REMARK SMILES CCCCCCCC(=O)[O-]
REMARK SMILES IDX 5 1 6 2 7 3 8 4 9 5 10 6 4 7 3 8 2 9 1 10
REMARK H PARENT
REMARK Flexibility Score: inf
ROOT
ATOM      1  C   UNL     1      -7.463 -27.250  25.026  1.00  0.00     0.000 C 
ENDROOT
BRANCH   1   2
ATOM      2  C   UNL     1      -6.211 -26.636  25.669  1.00  0.00     0.006 C 
BRANCH   2   3
ATOM      3  C   UNL     1      -5.506 -27.615  26.619  1.00  0.00     0.053 C 
BRANCH   3   4
ATOM      4  C   UNL     1      -4.025 -27.631  26.397  1.00  0.00     0.041 C 
ATOM      5  O   UNL     1      -3.247 -27.964  27.329  1.00  0.00    -0.550 OA
ATOM      6  O   UNL     1      -3.505 -27.307  25.150  1.00  0.00    -0.550 OA
ENDBRANCH   3   4
ENDBRANCH   2   3
ENDBRANCH   1   2
BRANCH   1   7
ATOM      7  C   UNL     1      -7.141 -27.835  23.646  1.00  0.00     0.000 C 
BRANCH   7   8
ATOM      8  C   UNL     1      -6.247 -26.884  22.840  1.00  0.00    -0.000 C 
BRANCH   8   9
ATOM      9  C   UNL     1      -5.121 -27.650  22.138  1.00  0.00    -0.003 C 
ATOM     10  C   UNL     1      -5.128 -29.125  22.530  1.00  0.00     0.004 C 
ENDBRANCH   8   9
ENDBRANCH   7   8
ENDBRANCH   1   7
TORSDOF 6
ENDMDL
MODEL 8
REMARK VINA RESULT:    -2.981     18.068     19.106
REMARK INTER + INTRA:          -4.347
REMARK INTER:                  -3.829
REMARK INTRA:                  -0.519
REMARK UNBOUND:                -0.321
REMARK SMILES CCCCCCCC(=O)[O-]
REMARK SMILES IDX 5 1 6 2 7 3 8 4 9 5 10 6 4 7 3 8 2 9 1 10
REMARK H PARENT
REMARK Flexibility Score: inf
ROOT
ATOM      1  C   UNL     1     -17.570 -15.488  24.557  1.00  0.00     0.000 C 
ENDROOT
BRANCH   1   2
ATOM      2  C   UNL     1     -16.711 -14.501  25.362  1.00  0.00     0.006 C 
BRANCH   2   3
ATOM      3  C   UNL     1     -17.272 -14.256  26.769  1.00  0.00     0.053 C 
BRANCH   3   4
ATOM      4  C   UNL     1     -18.470 -13.358  26.739  1.00  0.00     0.041 C 
ATOM      5  O   UNL     1     -18.327 -12.111  26.650  1.00  0.00    -0.550 OA
ATOM      6  O   UNL     1     -19.747 -13.903  26.779  1.00  0.00    -0.550 OA
ENDBRANCH   3   4
ENDBRANCH   2   3
ENDBRANCH   1   2
BRANCH   1   7
ATOM      7  C   UNL     1     -18.179 -14.807  23.325  1.00  0.00     0.000 C 
BRANCH   7   8
ATOM      8  C   UNL     1     -17.544 -13.432  23.087  1.00  0.00    -0.000 C 
BRANCH   8   9
ATOM      9  C   UNL     1     -18.605 -12.326  23.098  1.00  0.00    -0.003 C 
ATOM     10  C   UNL     1     -19.884 -12.782  22.400  1.00  0.00     0.004 C 
ENDBRANCH   8   9
ENDBRANCH   7   8
ENDBRANCH   1   7
TORSDOF 6
ENDMDL
MODEL 9
REMARK VINA RESULT:    -2.931     17.820     19.084
REMARK INTER + INTRA:          -4.279
REMARK INTER:                  -3.920
REMARK INTRA:                  -0.359
REMARK UNBOUND:                -0.321
REMARK SMILES CCCCCCCC(=O)[O-]
REMARK SMILES IDX 5 1 6 2 7 3 8 4 9 5 10 6 4 7 3 8 2 9 1 10
REMARK H PARENT
REMARK Flexibility Score: inf
ROOT
ATOM      1  C   UNL     1     -18.372 -15.052  24.626  1.00  0.00     0.000 C 
ENDROOT
BRANCH   1   2
ATOM      2  C   UNL     1     -18.393 -14.685  23.135  1.00  0.00     0.006 C 
BRANCH   2   3
ATOM      3  C   UNL     1     -17.967 -13.232  22.888  1.00  0.00     0.053 C 
BRANCH   3   4
ATOM      4  C   UNL     1     -18.948 -12.261  23.471  1.00  0.00     0.041 C 
ATOM      5  O   UNL     1     -20.060 -12.071  22.915  1.00  0.00    -0.550 OA
ATOM      6  O   UNL     1     -18.643 -11.589  24.648  1.00  0.00    -0.550 OA
ENDBRANCH   3   4
ENDBRANCH   2   3
ENDBRANCH   1   2
BRANCH   1   7
ATOM      7  C   UNL     1     -17.513 -16.298  24.873  1.00  0.00     0.000 C 
BRANCH   7   8
ATOM      8  C   UNL     1     -16.533 -16.070  26.030  1.00  0.00    -0.000 C 
BRANCH   8   9
ATOM      9  C   UNL     1     -16.122 -14.596  26.122  1.00  0.00    -0.003 C 
ATOM     10  C   UNL     1     -15.882 -14.180  27.571  1.00  0.00     0.004 C 
ENDBRANCH   8   9
ENDBRANCH   7   8
ENDBRANCH   1   7
TORSDOF 6
ENDMDL
