MODEL 1
REMARK VINA RESULT:    -5.984      0.000      0.000
REMARK INTER + INTRA:         -11.297
REMARK INTER:                 -10.181
REMARK INTRA:                  -1.115
REMARK UNBOUND:                -1.115
REMARK SMILES CCCCCCCCCCCCCC(=O)[O-]
REMARK SMILES IDX 8 1 9 2 10 3 11 4 12 5 13 6 14 7 15 8 16 9 7 10 6 11 5 12
REMARK SMILES IDX 4 13 3 14 2 15 1 16
REMARK H PARENT
REMARK Flexibility Score: inf
ROOT
ATOM      1  C   UNL     1      -6.785 -12.993  -3.768  1.00  0.00     0.000 C 
ENDROOT
BRANCH   1   2
ATOM      2  C   UNL     1      -7.009 -13.608  -5.157  1.00  0.00     0.000 C 
BRANCH   2   3
ATOM      3  C   UNL     1      -8.467 -13.443  -5.602  1.00  0.00     0.000 C 
BRANCH   3   4
ATOM      4  C   UNL     1      -9.139 -14.808  -5.805  1.00  0.00     0.000 C 
BRANCH   4   5
ATOM      5  C   UNL     1      -8.234 -15.813  -6.535  1.00  0.00     0.006 C 
BRANCH   5   6
ATOM      6  C   UNL     1      -8.778 -17.246  -6.481  1.00  0.00     0.053 C 
BRANCH   6   7
ATOM      7  C   UNL     1      -8.041 -18.045  -5.453  1.00  0.00     0.041 C 
ATOM      8  O   UNL     1      -8.583 -18.313  -4.349  1.00  0.00    -0.550 OA
ATOM      9  O   UNL     1      -6.773 -18.539  -5.735  1.00  0.00    -0.550 OA
ENDBRANCH   6   7
ENDBRANCH   5   6
ENDBRANCH   4   5
ENDBRANCH   3   4
ENDBRANCH   2   3
ENDBRANCH   1   2
BRANCH   1  10
ATOM     10  C   UNL     1      -6.459 -14.046  -2.697  1.00  0.00     0.000 C 
BRANCH  10  11
ATOM     11  C   UNL     1      -6.809 -15.475  -3.148  1.00  0.00    -0.000 C 
BRANCH  11  12
ATOM     12  C   UNL     1      -5.709 -16.490  -2.796  1.00  0.00    -0.000 C 
BRANCH  12  13
ATOM     13  C   UNL     1      -4.625 -15.901  -1.881  1.00  0.00    -0.000 C 
BRANCH  13  14
ATOM     14  C   UNL     1      -4.126 -16.951  -0.877  1.00  0.00    -0.000 C 
BRANCH  14  15
ATOM     15  C   UNL     1      -2.609 -16.874  -0.645  1.00  0.00    -0.003 C 
ATOM     16  C   UNL     1      -1.801 -17.183  -1.907  1.00  0.00     0.004 C 
ENDBRANCH  14  15
ENDBRANCH  13  14
ENDBRANCH  12  13
ENDBRANCH  11  12
ENDBRANCH  10  11
ENDBRANCH   1  10
TORSDOF 12
ENDMDL
MODEL 2
REMARK VINA RESULT:    -5.922      3.360      6.707
REMARK INTER + INTRA:         -11.192
REMARK INTER:                 -10.058
REMARK INTRA:                  -1.134
REMARK UNBOUND:                -1.115
REMARK SMILES CCCCCCCCCCCCCC(=O)[O-]
REMARK SMILES IDX 8 1 9 2 10 3 11 4 12 5 13 6 14 7 15 8 16 9 7 10 6 11 5 12
REMARK SMILES IDX 4 13 3 14 2 15 1 16
REMARK H PARENT
REMARK Flexibility Score: inf
ROOT
ATOM      1  C   UNL     1      -7.348 -16.775  -3.342  1.00  0.00     0.000 C 
ENDROOT
BRANCH   1   2
ATOM      2  C   UNL     1      -5.851 -16.431  -3.369  1.00  0.00     0.000 C 
BRANCH   2   3
ATOM      3  C   UNL     1      -5.365 -15.982  -1.986  1.00  0.00     0.000 C 
BRANCH   3   4
ATOM      4  C   UNL     1      -3.863 -16.252  -1.816  1.00  0.00     0.000 C 
BRANCH   4   5
ATOM      5  C   UNL     1      -3.557 -17.185  -0.633  1.00  0.00     0.006 C 
BRANCH   5   6
ATOM      6  C   UNL     1      -2.257 -17.977  -0.826  1.00  0.00     0.053 C 
BRANCH   6   7
ATOM      7  C   UNL     1      -1.322 -17.728   0.315  1.00  0.00     0.041 C 
ATOM      8  O   UNL     1      -0.819 -16.587   0.486  1.00  0.00    -0.550 OA
ATOM      9  O   UNL     1      -1.044 -18.745   1.220  1.00  0.00    -0.550 OA
ENDBRANCH   6   7
ENDBRANCH   5   6
ENDBRANCH   4   5
ENDBRANCH   3   4
ENDBRANCH   2   3
ENDBRANCH   1   2
BRANCH   1  10
ATOM     10  C   UNL     1      -7.836 -17.409  -4.654  1.00  0.00     0.000 C 
BRANCH  10  11
ATOM     11  C   UNL     1      -6.921 -17.080  -5.845  1.00  0.00    -0.000 C 
BRANCH  11  12
ATOM     12  C   UNL     1      -7.400 -15.853  -6.637  1.00  0.00    -0.000 C 
BRANCH  12  13
ATOM     13  C   UNL     1      -8.750 -15.313  -6.140  1.00  0.00    -0.000 C 
BRANCH  13  14
ATOM     14  C   UNL     1      -8.622 -13.853  -5.684  1.00  0.00    -0.000 C 
BRANCH  14  15
ATOM     15  C   UNL     1      -7.160 -13.418  -5.492  1.00  0.00    -0.003 C 
ATOM     16  C   UNL     1      -6.860 -12.967  -4.062  1.00  0.00     0.004 C 
ENDBRANCH  14  15
ENDBRANCH  13  14
ENDBRANCH  12  13
ENDBRANCH  11  12
ENDBRANCH  10  11
ENDBRANCH   1  10
TORSDOF 12
ENDMDL
MODEL 3
REMARK VINA RESULT:    -5.898      2.864      6.298
REMARK INTER + INTRA:         -11.151
REMARK INTER:                  -9.833
REMARK INTRA:                  -1.318
REMARK UNBOUND:                -1.115
REMARK SMILES CCCCCCCCCCCCCC(=O)[O-]
REMARK SMILES IDX 8 1 9 2 10 3 11 4 12 5 13 6 14 7 15 8 16 9 7 10 6 11 5 12
REMARK SMILES IDX 4 13 3 14 2 15 1 16
REMARK H PARENT
REMARK Flexibility Score: inf
ROOT
ATOM      1  C   UNL     1      -6.326 -16.894  -4.818  1.00  0.00     0.000 C 
ENDROOT
BRANCH   1   2
ATOM      2  C   UNL     1      -7.200 -16.887  -3.554  1.00  0.00     0.000 C 
BRANCH   2   3
ATOM      3  C   UNL     1      -6.500 -16.149  -2.407  1.00  0.00     0.000 C 
BRANCH   3   4
ATOM      4  C   UNL     1      -4.975 -16.187  -2.577  1.00  0.00     0.000 C 
BRANCH   4   5
ATOM      5  C   UNL     1      -4.242 -16.568  -1.280  1.00  0.00     0.006 C 
BRANCH   5   6
ATOM      6  C   UNL     1      -2.732 -16.745  -1.485  1.00  0.00     0.053 C 
BRANCH   6   7
ATOM      7  C   UNL     1      -2.161 -17.628  -0.420  1.00  0.00     0.041 C 
ATOM      8  O   UNL     1      -1.434 -18.607  -0.731  1.00  0.00    -0.550 OA
ATOM      9  O   UNL     1      -2.390 -17.338   0.919  1.00  0.00    -0.550 OA
ENDBRANCH   6   7
ENDBRANCH   5   6
ENDBRANCH   4   5
ENDBRANCH   3   4
ENDBRANCH   2   3
ENDBRANCH   1   2
BRANCH   1  10
ATOM     10  C   UNL     1      -7.031 -17.536  -6.024  1.00  0.00     0.000 C 
BRANCH  10  11
ATOM     11  C   UNL     1      -8.514 -17.141  -6.121  1.00  0.00    -0.000 C 
BRANCH  11  12
ATOM     12  C   UNL     1      -8.711 -15.714  -6.659  1.00  0.00    -0.000 C 
BRANCH  12  13
ATOM     13  C   UNL     1      -9.277 -14.752  -5.604  1.00  0.00    -0.000 C 
BRANCH  13  14
ATOM     14  C   UNL     1      -8.627 -13.366  -5.722  1.00  0.00    -0.000 C 
BRANCH  14  15
ATOM     15  C   UNL     1      -7.113 -13.399  -5.465  1.00  0.00    -0.003 C 
ATOM     16  C   UNL     1      -6.744 -12.964  -4.045  1.00  0.00     0.004 C 
ENDBRANCH  14  15
ENDBRANCH  13  14
ENDBRANCH  12  13
ENDBRANCH  11  12
ENDBRANCH  10  11
ENDBRANCH   1  10
TORSDOF 12
ENDMDL
MODEL 4
REMARK VINA RESULT:    -5.884      2.801      6.142
REMARK INTER + INTRA:         -11.128
REMARK INTER:                  -9.992
REMARK INTRA:                  -1.136
REMARK UNBOUND:                -1.115
REMARK SMILES CCCCCCCCCCCCCC(=O)[O-]
REMARK SMILES IDX 8 1 9 2 10 3 11 4 12 5 13 6 14 7 15 8 16 9 7 10 6 11 5 12
REMARK SMILES IDX 4 13 3 14 2 15 1 16
REMARK H PARENT
REMARK Flexibility Score: inf
ROOT
ATOM      1  C   UNL     1      -6.245 -13.911  -2.705  1.00  0.00     0.000 C 
ENDROOT
BRANCH   1   2
ATOM      2  C   UNL     1      -6.884 -15.306  -2.755  1.00  0.00     0.000 C 
BRANCH   2   3
ATOM      3  C   UNL     1      -5.824 -16.402  -2.593  1.00  0.00     0.000 C 
BRANCH   3   4
ATOM      4  C   UNL     1      -4.605 -15.879  -1.820  1.00  0.00     0.000 C 
BRANCH   4   5
ATOM      5  C   UNL     1      -3.917 -16.972  -0.986  1.00  0.00     0.006 C 
BRANCH   5   6
ATOM      6  C   UNL     1      -2.405 -16.751  -0.856  1.00  0.00     0.053 C 
BRANCH   6   7
ATOM      7  C   UNL     1      -1.715 -18.039  -0.532  1.00  0.00     0.041 C 
ATOM      8  O   UNL     1      -1.283 -18.777  -1.455  1.00  0.00    -0.550 OA
ATOM      9  O   UNL     1      -1.505 -18.400   0.793  1.00  0.00    -0.550 OA
ENDBRANCH   6   7
ENDBRANCH   5   6
ENDBRANCH   4   5
ENDBRANCH   3   4
ENDBRANCH   2   3
ENDBRANCH   1   2
BRANCH   1  10
ATOM     10  C   UNL     1      -6.878 -12.930  -3.705  1.00  0.00     0.000 C 
BRANCH  10  11
ATOM     11  C   UNL     1      -6.915 -13.489  -5.137  1.00  0.00    -0.000 C 
BRANCH  11  12
ATOM     12  C   UNL     1      -8.349 -13.706  -5.649  1.00  0.00    -0.000 C 
BRANCH  12  13
ATOM     13  C   UNL     1      -8.687 -15.190  -5.861  1.00  0.00    -0.000 C 
BRANCH  13  14
ATOM     14  C   UNL     1      -7.665 -15.857  -6.792  1.00  0.00    -0.000 C 
BRANCH  14  15
ATOM     15  C   UNL     1      -6.846 -16.949  -6.087  1.00  0.00    -0.003 C 
ATOM     16  C   UNL     1      -7.724 -18.014  -5.428  1.00  0.00     0.004 C 
ENDBRANCH  14  15
ENDBRANCH  13  14
ENDBRANCH  12  13
ENDBRANCH  11  12
ENDBRANCH  10  11
ENDBRANCH   1  10
TORSDOF 12
ENDMDL
MODEL 5
REMARK VINA RESULT:    -5.705      3.057      6.562
REMARK INTER + INTRA:         -10.823
REMARK INTER:                  -9.703
REMARK INTRA:                  -1.120
REMARK UNBOUND:                -1.115
REMARK SMILES CCCCCCCCCCCCCC(=O)[O-]
REMARK SMILES IDX 8 1 9 2 10 3 11 4 12 5 13 6 14 7 15 8 16 9 7 10 6 11 5 12
REMARK SMILES IDX 4 13 3 14 2 15 1 16
REMARK H PARENT
REMARK Flexibility Score: inf
ROOT
ATOM      1  C   UNL     1      -6.776 -15.404  -2.861  1.00  0.00     0.000 C 
ENDROOT
BRANCH   1   2
ATOM      2  C   UNL     1      -5.622 -16.417  -2.817  1.00  0.00     0.000 C 
BRANCH   2   3
ATOM      3  C   UNL     1      -4.521 -15.955  -1.856  1.00  0.00     0.000 C 
BRANCH   3   4
ATOM      4  C   UNL     1      -4.241 -17.020  -0.786  1.00  0.00     0.000 C 
BRANCH   4   5
ATOM      5  C   UNL     1      -2.739 -17.245  -0.551  1.00  0.00     0.006 C 
BRANCH   5   6
ATOM      6  C   UNL     1      -1.910 -17.087  -1.832  1.00  0.00     0.053 C 
BRANCH   6   7
ATOM      7  C   UNL     1      -0.730 -16.200  -1.585  1.00  0.00     0.041 C 
ATOM      8  O   UNL     1      -0.019 -16.363  -0.559  1.00  0.00    -0.550 OA
ATOM      9  O   UNL     1      -0.386 -15.226  -2.514  1.00  0.00    -0.550 OA
ENDBRANCH   6   7
ENDBRANCH   5   6
ENDBRANCH   4   5
ENDBRANCH   3   4
ENDBRANCH   2   3
ENDBRANCH   1   2
BRANCH   1  10
ATOM     10  C   UNL     1      -6.308 -13.959  -2.624  1.00  0.00     0.000 C 
BRANCH  10  11
ATOM     11  C   UNL     1      -6.874 -12.977  -3.663  1.00  0.00    -0.000 C 
BRANCH  11  12
ATOM     12  C   UNL     1      -6.879 -13.560  -5.086  1.00  0.00    -0.000 C 
BRANCH  12  13
ATOM     13  C   UNL     1      -8.289 -13.645  -5.690  1.00  0.00    -0.000 C 
BRANCH  13  14
ATOM     14  C   UNL     1      -8.626 -15.088  -6.093  1.00  0.00    -0.000 C 
BRANCH  14  15
ATOM     15  C   UNL     1      -7.478 -15.775  -6.849  1.00  0.00    -0.003 C 
ATOM     16  C   UNL     1      -7.023 -17.072  -6.179  1.00  0.00     0.004 C 
ENDBRANCH  14  15
ENDBRANCH  13  14
ENDBRANCH  12  13
ENDBRANCH  11  12
ENDBRANCH  10  11
ENDBRANCH   1  10
TORSDOF 12
ENDMDL
MODEL 6
REMARK VINA RESULT:    -5.648      2.739      6.452
REMARK INTER + INTRA:         -10.726
REMARK INTER:                  -9.842
REMARK INTRA:                  -0.884
REMARK UNBOUND:                -1.115
REMARK SMILES CCCCCCCCCCCCCC(=O)[O-]
REMARK SMILES IDX 8 1 9 2 10 3 11 4 12 5 13 6 14 7 15 8 16 9 7 10 6 11 5 12
REMARK SMILES IDX 4 13 3 14 2 15 1 16
REMARK H PARENT
REMARK Flexibility Score: inf
ROOT
ATOM      1  C   UNL     1      -6.762 -13.081  -3.640  1.00  0.00     0.000 C 
ENDROOT
BRANCH   1   2
ATOM      2  C   UNL     1      -6.487 -14.165  -2.588  1.00  0.00     0.000 C 
BRANCH   2   3
ATOM      3  C   UNL     1      -6.757 -15.563  -3.155  1.00  0.00     0.000 C 
BRANCH   3   4
ATOM      4  C   UNL     1      -5.541 -16.481  -2.960  1.00  0.00     0.000 C 
BRANCH   4   5
ATOM      5  C   UNL     1      -4.578 -15.969  -1.877  1.00  0.00     0.006 C 
BRANCH   5   6
ATOM      6  C   UNL     1      -4.288 -17.022  -0.800  1.00  0.00     0.053 C 
BRANCH   6   7
ATOM      7  C   UNL     1      -2.837 -17.386  -0.805  1.00  0.00     0.041 C 
ATOM      8  O   UNL     1      -2.150 -17.240  -1.850  1.00  0.00    -0.550 OA
ATOM      9  O   UNL     1      -2.230 -17.840   0.360  1.00  0.00    -0.550 OA
ENDBRANCH   6   7
ENDBRANCH   5   6
ENDBRANCH   4   5
ENDBRANCH   3   4
ENDBRANCH   2   3
ENDBRANCH   1   2
BRANCH   1  10
ATOM     10  C   UNL     1      -6.942 -13.656  -5.054  1.00  0.00     0.000 C 
BRANCH  10  11
ATOM     11  C   UNL     1      -8.359 -13.430  -5.608  1.00  0.00    -0.000 C 
BRANCH  11  12
ATOM     12  C   UNL     1      -9.087 -14.747  -5.923  1.00  0.00    -0.000 C 
BRANCH  12  13
ATOM     13  C   UNL     1      -8.188 -15.769  -6.636  1.00  0.00    -0.000 C 
BRANCH  13  14
ATOM     14  C   UNL     1      -9.003 -16.632  -7.609  1.00  0.00    -0.000 C 
BRANCH  14  15
ATOM     15  C   UNL     1      -8.411 -16.646  -9.027  1.00  0.00    -0.003 C 
ATOM     16  C   UNL     1      -9.451 -16.342 -10.105  1.00  0.00     0.004 C 
ENDBRANCH  14  15
ENDBRANCH  13  14
ENDBRANCH  12  13
ENDBRANCH  11  12
ENDBRANCH  10  11
ENDBRANCH   1  10
TORSDOF 12
ENDMDL
MODEL 7
REMARK VINA RESULT:    -5.588      1.220      2.703
REMARK INTER + INTRA:         -10.623
REMARK INTER:                  -9.675
REMARK INTRA:                  -0.948
REMARK UNBOUND:                -1.115
REMARK SMILES CCCCCCCCCCCCCC(=O)[O-]
REMARK SMILES IDX 8 1 9 2 10 3 11 4 12 5 13 6 14 7 15 8 16 9 7 10 6 11 5 12
REMARK SMILES IDX 4 13 3 14 2 15 1 16
REMARK H PARENT
REMARK Flexibility Score: inf
ROOT
ATOM      1  C   UNL     1      -6.279 -15.488  -3.283  1.00  0.00     0.000 C 
ENDROOT
BRANCH   1   2
ATOM      2  C   UNL     1      -6.429 -14.075  -2.699  1.00  0.00     0.000 C 
BRANCH   2   3
ATOM      3  C   UNL     1      -6.853 -13.076  -3.782  1.00  0.00     0.000 C 
BRANCH   3   4
ATOM      4  C   UNL     1      -7.002 -13.769  -5.144  1.00  0.00     0.000 C 
BRANCH   4   5
ATOM      5  C   UNL     1      -8.398 -13.579  -5.757  1.00  0.00     0.006 C 
BRANCH   5   6
ATOM      6  C   UNL     1      -9.365 -14.711  -5.385  1.00  0.00     0.053 C 
BRANCH   6   7
ATOM      7  C   UNL     1      -8.915 -16.002  -5.992  1.00  0.00     0.041 C 
ATOM      8  O   UNL     1      -8.631 -16.062  -7.217  1.00  0.00    -0.550 OA
ATOM      9  O   UNL     1      -8.761 -17.129  -5.194  1.00  0.00    -0.550 OA
ENDBRANCH   6   7
ENDBRANCH   5   6
ENDBRANCH   4   5
ENDBRANCH   3   4
ENDBRANCH   2   3
ENDBRANCH   1   2
BRANCH   1  10
ATOM     10  C   UNL     1      -5.651 -16.478  -2.289  1.00  0.00     0.000 C 
BRANCH  10  11
ATOM     11  C   UNL     1      -4.238 -16.057  -1.849  1.00  0.00    -0.000 C 
BRANCH  11  12
ATOM     12  C   UNL     1      -3.748 -16.832  -0.615  1.00  0.00    -0.000 C 
BRANCH  12  13
ATOM     13  C   UNL     1      -2.217 -16.937  -0.546  1.00  0.00    -0.000 C 
BRANCH  13  14
ATOM     14  C   UNL     1      -1.656 -17.607  -1.808  1.00  0.00    -0.000 C 
BRANCH  14  15
ATOM     15  C   UNL     1      -0.363 -16.944  -2.306  1.00  0.00    -0.003 C 
ATOM     16  C   UNL     1      -0.440 -15.416  -2.295  1.00  0.00     0.004 C 
ENDBRANCH  14  15
ENDBRANCH  13  14
ENDBRANCH  12  13
ENDBRANCH  11  12
ENDBRANCH  10  11
ENDBRANCH   1  10
TORSDOF 12
ENDMDL
MODEL 8
REMARK VINA RESULT:    -5.552      3.722      7.220
REMARK INTER + INTRA:         -10.562
REMARK INTER:                  -9.576
REMARK INTRA:                  -0.986
REMARK UNBOUND:                -1.115
REMARK SMILES CCCCCCCCCCCCCC(=O)[O-]
REMARK SMILES IDX 8 1 9 2 10 3 11 4 12 5 13 6 14 7 15 8 16 9 7 10 6 11 5 12
REMARK SMILES IDX 4 13 3 14 2 15 1 16
REMARK H PARENT
REMARK Flexibility Score: inf
ROOT
ATOM      1  C   UNL     1      -6.183 -15.538  -2.324  1.00  0.00     0.000 C 
ENDROOT
BRANCH   1   2
ATOM      2  C   UNL     1      -4.690 -15.812  -2.092  1.00  0.00     0.000 C 
BRANCH   2   3
ATOM      3  C   UNL     1      -4.491 -16.964  -1.100  1.00  0.00     0.000 C 
BRANCH   3   4
ATOM      4  C   UNL     1      -3.180 -16.797  -0.318  1.00  0.00     0.000 C 
BRANCH   4   5
ATOM      5  C   UNL     1      -2.145 -17.882  -0.654  1.00  0.00     0.006 C 
BRANCH   5   6
ATOM      6  C   UNL     1      -0.716 -17.473  -0.274  1.00  0.00     0.053 C 
BRANCH   6   7
ATOM      7  C   UNL     1      -0.628 -17.186   1.192  1.00  0.00     0.041 C 
ATOM      8  O   UNL     1      -0.350 -16.026   1.595  1.00  0.00    -0.550 OA
ATOM      9  O   UNL     1      -0.903 -18.188   2.113  1.00  0.00    -0.550 OA
ENDBRANCH   6   7
ENDBRANCH   5   6
ENDBRANCH   4   5
ENDBRANCH   3   4
ENDBRANCH   2   3
ENDBRANCH   1   2
BRANCH   1  10
ATOM     10  C   UNL     1      -6.852 -16.600  -3.212  1.00  0.00     0.000 C 
BRANCH  10  11
ATOM     11  C   UNL     1      -6.132 -16.783  -4.558  1.00  0.00    -0.000 C 
BRANCH  11  12
ATOM     12  C   UNL     1      -6.938 -16.220  -5.740  1.00  0.00    -0.000 C 
BRANCH  12  13
ATOM     13  C   UNL     1      -8.322 -15.699  -5.323  1.00  0.00    -0.000 C 
BRANCH  13  14
ATOM     14  C   UNL     1      -8.463 -14.204  -5.644  1.00  0.00    -0.000 C 
BRANCH  14  15
ATOM     15  C   UNL     1      -7.115 -13.467  -5.640  1.00  0.00    -0.003 C 
ATOM     16  C   UNL     1      -6.835 -12.756  -4.315  1.00  0.00     0.004 C 
ENDBRANCH  14  15
ENDBRANCH  13  14
ENDBRANCH  12  13
ENDBRANCH  11  12
ENDBRANCH  10  11
ENDBRANCH   1  10
TORSDOF 12
ENDMDL
MODEL 9
REMARK VINA RESULT:    -5.463      3.888      7.618
REMARK INTER + INTRA:         -10.410
REMARK INTER:                  -9.591
REMARK INTRA:                  -0.820
REMARK UNBOUND:                -1.115
REMARK SMILES CCCCCCCCCCCCCC(=O)[O-]
REMARK SMILES IDX 8 1 9 2 10 3 11 4 12 5 13 6 14 7 15 8 16 9 7 10 6 11 5 12
REMARK SMILES IDX 4 13 3 14 2 15 1 16
REMARK H PARENT
REMARK Flexibility Score: inf
ROOT
ATOM      1  C   UNL     1      -5.750 -16.404  -2.641  1.00  0.00     0.000 C 
ENDROOT
BRANCH   1   2
ATOM      2  C   UNL     1      -4.536 -15.854  -1.876  1.00  0.00     0.000 C 
BRANCH   2   3
ATOM      3  C   UNL     1      -3.919 -16.932  -0.978  1.00  0.00     0.000 C 
BRANCH   3   4
ATOM      4  C   UNL     1      -2.394 -16.987  -1.153  1.00  0.00     0.000 C 
BRANCH   4   5
ATOM      5  C   UNL     1      -1.718 -17.952  -0.166  1.00  0.00     0.006 C 
BRANCH   5   6
ATOM      6  C   UNL     1      -0.463 -17.352   0.481  1.00  0.00     0.053 C 
BRANCH   6   7
ATOM      7  C   UNL     1      -0.598 -17.344   1.971  1.00  0.00     0.041 C 
ATOM      8  O   UNL     1      -1.679 -16.988   2.509  1.00  0.00    -0.550 OA
ATOM      9  O   UNL     1       0.455 -17.779   2.766  1.00  0.00    -0.550 OA
ENDBRANCH   6   7
ENDBRANCH   5   6
ENDBRANCH   4   5
ENDBRANCH   3   4
ENDBRANCH   2   3
ENDBRANCH   1   2
BRANCH   1  10
ATOM     10  C   UNL     1      -6.869 -15.363  -2.808  1.00  0.00     0.000 C 
BRANCH  10  11
ATOM     11  C   UNL     1      -6.351 -13.918  -2.706  1.00  0.00    -0.000 C 
BRANCH  11  12
ATOM     12  C   UNL     1      -6.848 -13.030  -3.859  1.00  0.00    -0.000 C 
BRANCH  12  13
ATOM     13  C   UNL     1      -7.020 -13.804  -5.175  1.00  0.00    -0.000 C 
BRANCH  13  14
ATOM     14  C   UNL     1      -8.456 -13.673  -5.702  1.00  0.00    -0.000 C 
BRANCH  14  15
ATOM     15  C   UNL     1      -9.243 -14.990  -5.612  1.00  0.00    -0.003 C 
ATOM     16  C   UNL     1      -8.463 -16.183  -6.166  1.00  0.00     0.004 C 
ENDBRANCH  14  15
ENDBRANCH  13  14
ENDBRANCH  12  13
ENDBRANCH  11  12
ENDBRANCH  10  11
ENDBRANCH   1  10
TORSDOF 12
ENDMDL
