MODEL 1
REMARK VINA RESULT:    -2.843      0.000      0.000
REMARK INTER + INTRA:          -3.566
REMARK INTER:                  -3.508
REMARK INTRA:                  -0.058
REMARK UNBOUND:                -0.058
REMARK SMILES CCCCCC(=O)[O-]
REMARK SMILES IDX 4 1 5 2 6 3 7 4 8 5 3 6 2 7 1 8
REMARK H PARENT
REMARK Flexibility Score: inf
ROOT
ATOM      1  C   UNL     1      53.223  54.806  46.689  1.00  0.00     0.006 C 
ENDROOT
BRANCH   1   2
ATOM      2  C   UNL     1      53.123  54.623  48.209  1.00  0.00     0.053 C 
BRANCH   2   3
ATOM      3  C   UNL     1      52.611  53.256  48.537  1.00  0.00     0.041 C 
ATOM      4  O   UNL     1      52.123  53.018  49.674  1.00  0.00    -0.550 OA
ATOM      5  O   UNL     1      52.716  52.232  47.604  1.00  0.00    -0.550 OA
ENDBRANCH   2   3
ENDBRANCH   1   2
BRANCH   1   6
ATOM      6  C   UNL     1      52.366  55.976  46.177  1.00  0.00     0.000 C 
BRANCH   6   7
ATOM      7  C   UNL     1      52.647  56.314  44.706  1.00  0.00    -0.003 C 
ATOM      8  C   UNL     1      51.348  56.440  43.915  1.00  0.00     0.004 C 
ENDBRANCH   6   7
ENDBRANCH   1   6
TORSDOF 4
ENDMDL
MODEL 2
REMARK VINA RESULT:    -2.779     15.813     16.672
REMARK INTER + INTRA:          -3.487
REMARK INTER:                  -3.265
REMARK INTRA:                  -0.222
REMARK UNBOUND:                -0.058
REMARK SMILES CCCCCC(=O)[O-]
REMARK SMILES IDX 4 1 5 2 6 3 7 4 8 5 3 6 2 7 1 8
REMARK H PARENT
REMARK Flexibility Score: inf
ROOT
ATOM      1  C   UNL     1      50.079  49.291  61.269  1.00  0.00     0.006 C 
ENDROOT
BRANCH   1   2
ATOM      2  C   UNL     1      51.316  48.399  61.097  1.00  0.00     0.053 C 
BRANCH   2   3
ATOM      3  C   UNL     1      51.069  47.048  61.689  1.00  0.00     0.041 C 
ATOM      4  O   UNL     1      51.145  46.878  62.934  1.00  0.00    -0.550 OA
ATOM      5  O   UNL     1      50.805  45.964  60.861  1.00  0.00    -0.550 OA
ENDBRANCH   2   3
ENDBRANCH   1   2
BRANCH   1   6
ATOM      6  C   UNL     1      50.422  50.672  61.851  1.00  0.00     0.000 C 
BRANCH   6   7
ATOM      7  C   UNL     1      50.763  50.614  63.348  1.00  0.00    -0.003 C 
ATOM      8  C   UNL     1      49.691  49.855  64.125  1.00  0.00     0.004 C 
ENDBRANCH   6   7
ENDBRANCH   1   6
TORSDOF 4
ENDMDL
MODEL 3
REMARK VINA RESULT:    -2.768      2.623      4.624
REMARK INTER + INTRA:          -3.473
REMARK INTER:                  -3.382
REMARK INTRA:                  -0.091
REMARK UNBOUND:                -0.058
REMARK SMILES CCCCCC(=O)[O-]
REMARK SMILES IDX 4 1 5 2 6 3 7 4 8 5 3 6 2 7 1 8
REMARK H PARENT
REMARK Flexibility Score: inf
ROOT
ATOM      1  C   UNL     1      53.334  53.423  47.294  1.00  0.00     0.006 C 
ENDROOT
BRANCH   1   2
ATOM      2  C   UNL     1      53.014  54.917  47.435  1.00  0.00     0.053 C 
BRANCH   2   3
ATOM      3  C   UNL     1      52.833  55.541  46.087  1.00  0.00     0.041 C 
ATOM      4  O   UNL     1      51.738  56.085  45.783  1.00  0.00    -0.550 OA
ATOM      5  O   UNL     1      53.854  55.478  45.149  1.00  0.00    -0.550 OA
ENDBRANCH   2   3
ENDBRANCH   1   2
BRANCH   1   6
ATOM      6  C   UNL     1      52.638  52.566  48.363  1.00  0.00     0.000 C 
BRANCH   6   7
ATOM      7  C   UNL     1      52.390  53.336  49.669  1.00  0.00    -0.003 C 
ATOM      8  C   UNL     1      51.994  52.389  50.797  1.00  0.00     0.004 C 
ENDBRANCH   6   7
ENDBRANCH   1   6
TORSDOF 4
ENDMDL
MODEL 4
REMARK VINA RESULT:    -2.762      2.831      4.588
REMARK INTER + INTRA:          -3.466
REMARK INTER:                  -3.394
REMARK INTRA:                  -0.071
REMARK UNBOUND:                -0.058
REMARK SMILES CCCCCC(=O)[O-]
REMARK SMILES IDX 4 1 5 2 6 3 7 4 8 5 3 6 2 7 1 8
REMARK H PARENT
REMARK Flexibility Score: inf
ROOT
ATOM      1  C   UNL     1      53.038  54.713  47.318  1.00  0.00     0.006 C 
ENDROOT
BRANCH   1   2
ATOM      2  C   UNL     1      53.110  55.448  45.973  1.00  0.00     0.053 C 
BRANCH   2   3
ATOM      3  C   UNL     1      52.023  56.470  45.879  1.00  0.00     0.041 C 
ATOM      4  O   UNL     1      51.198  56.433  44.927  1.00  0.00    -0.550 OA
ATOM      5  O   UNL     1      51.948  57.494  46.814  1.00  0.00    -0.550 OA
ENDBRANCH   2   3
ENDBRANCH   1   2
BRANCH   1   6
ATOM      6  C   UNL     1      53.566  53.272  47.234  1.00  0.00     0.000 C 
BRANCH   6   7
ATOM      7  C   UNL     1      52.711  52.281  48.037  1.00  0.00    -0.003 C 
ATOM      8  C   UNL     1      52.291  52.881  49.376  1.00  0.00     0.004 C 
ENDBRANCH   6   7
ENDBRANCH   1   6
TORSDOF 4
ENDMDL
MODEL 5
REMARK VINA RESULT:    -2.727      3.048      4.436
REMARK INTER + INTRA:          -3.422
REMARK INTER:                  -3.169
REMARK INTRA:                  -0.253
REMARK UNBOUND:                -0.058
REMARK SMILES CCCCCC(=O)[O-]
REMARK SMILES IDX 4 1 5 2 6 3 7 4 8 5 3 6 2 7 1 8
REMARK H PARENT
REMARK Flexibility Score: inf
ROOT
ATOM      1  C   UNL     1      52.944  51.359  50.449  1.00  0.00     0.006 C 
ENDROOT
BRANCH   1   2
ATOM      2  C   UNL     1      51.838  52.314  50.919  1.00  0.00     0.053 C 
BRANCH   2   3
ATOM      3  C   UNL     1      52.433  53.501  51.607  1.00  0.00     0.041 C 
ATOM      4  O   UNL     1      53.001  53.368  52.723  1.00  0.00    -0.550 OA
ATOM      5  O   UNL     1      52.318  54.763  51.040  1.00  0.00    -0.550 OA
ENDBRANCH   2   3
ENDBRANCH   1   2
BRANCH   1   6
ATOM      6  C   UNL     1      53.685  51.878  49.206  1.00  0.00     0.000 C 
BRANCH   6   7
ATOM      7  C   UNL     1      52.728  52.338  48.097  1.00  0.00    -0.003 C 
ATOM      8  C   UNL     1      53.141  53.699  47.546  1.00  0.00     0.004 C 
ENDBRANCH   6   7
ENDBRANCH   1   6
TORSDOF 4
ENDMDL
MODEL 6
REMARK VINA RESULT:    -2.709      2.163      2.846
REMARK INTER + INTRA:          -3.400
REMARK INTER:                  -3.307
REMARK INTRA:                  -0.093
REMARK UNBOUND:                -0.058
REMARK SMILES CCCCCC(=O)[O-]
REMARK SMILES IDX 4 1 5 2 6 3 7 4 8 5 3 6 2 7 1 8
REMARK H PARENT
REMARK Flexibility Score: inf
ROOT
ATOM      1  C   UNL     1      52.774  52.317  48.228  1.00  0.00     0.006 C 
ENDROOT
BRANCH   1   2
ATOM      2  C   UNL     1      52.398  53.257  49.381  1.00  0.00     0.053 C 
BRANCH   2   3
ATOM      3  C   UNL     1      52.112  52.471  50.621  1.00  0.00     0.041 C 
ATOM      4  O   UNL     1      51.642  53.044  51.640  1.00  0.00    -0.550 OA
ATOM      5  O   UNL     1      52.409  51.115  50.669  1.00  0.00    -0.550 OA
ENDBRANCH   2   3
ENDBRANCH   1   2
BRANCH   1   6
ATOM      6  C   UNL     1      53.602  53.019  47.138  1.00  0.00     0.000 C 
BRANCH   6   7
ATOM      7  C   UNL     1      53.233  54.501  46.979  1.00  0.00    -0.003 C 
ATOM      8  C   UNL     1      53.985  55.131  45.811  1.00  0.00     0.004 C 
ENDBRANCH   6   7
ENDBRANCH   1   6
TORSDOF 4
ENDMDL
MODEL 7
REMARK VINA RESULT:    -2.702     15.056     15.746
REMARK INTER + INTRA:          -3.391
REMARK INTER:                  -3.318
REMARK INTRA:                  -0.073
REMARK UNBOUND:                -0.058
REMARK SMILES CCCCCC(=O)[O-]
REMARK SMILES IDX 4 1 5 2 6 3 7 4 8 5 3 6 2 7 1 8
REMARK H PARENT
REMARK Flexibility Score: inf
ROOT
ATOM      1  C   UNL     1      51.084  50.839  61.461  1.00  0.00     0.006 C 
ENDROOT
BRANCH   1   2
ATOM      2  C   UNL     1      50.093  49.671  61.369  1.00  0.00     0.053 C 
BRANCH   2   3
ATOM      3  C   UNL     1      50.105  48.877  62.637  1.00  0.00     0.041 C 
ATOM      4  O   UNL     1      49.527  49.318  63.666  1.00  0.00    -0.550 OA
ATOM      5  O   UNL     1      50.795  47.674  62.698  1.00  0.00    -0.550 OA
ENDBRANCH   2   3
ENDBRANCH   1   2
BRANCH   1   6
ATOM      6  C   UNL     1      50.391  52.181  61.747  1.00  0.00     0.000 C 
BRANCH   6   7
ATOM      7  C   UNL     1      51.115  53.370  61.097  1.00  0.00    -0.003 C 
ATOM      8  C   UNL     1      50.309  54.656  61.256  1.00  0.00     0.004 C 
ENDBRANCH   6   7
ENDBRANCH   1   6
TORSDOF 4
ENDMDL
MODEL 8
REMARK VINA RESULT:    -2.676     15.094     15.835
REMARK INTER + INTRA:          -3.360
REMARK INTER:                  -3.228
REMARK INTRA:                  -0.132
REMARK UNBOUND:                -0.058
REMARK SMILES CCCCCC(=O)[O-]
REMARK SMILES IDX 4 1 5 2 6 3 7 4 8 5 3 6 2 7 1 8
REMARK H PARENT
REMARK Flexibility Score: inf
ROOT
ATOM      1  C   UNL     1      50.074  49.656  62.747  1.00  0.00     0.006 C 
ENDROOT
BRANCH   1   2
ATOM      2  C   UNL     1      50.100  49.197  61.283  1.00  0.00     0.053 C 
BRANCH   2   3
ATOM      3  C   UNL     1      51.131  48.131  61.089  1.00  0.00     0.041 C 
ATOM      4  O   UNL     1      52.163  48.364  60.407  1.00  0.00    -0.550 OA
ATOM      5  O   UNL     1      50.929  46.863  61.620  1.00  0.00    -0.550 OA
ENDBRANCH   2   3
ENDBRANCH   1   2
BRANCH   1   6
ATOM      6  C   UNL     1      50.577  51.098  62.924  1.00  0.00     0.000 C 
BRANCH   6   7
ATOM      7  C   UNL     1      50.452  51.928  61.638  1.00  0.00    -0.003 C 
ATOM      8  C   UNL     1      50.822  53.387  61.889  1.00  0.00     0.004 C 
ENDBRANCH   6   7
ENDBRANCH   1   6
TORSDOF 4
ENDMDL
MODEL 9
REMARK VINA RESULT:    -2.621      2.610      4.775
REMARK INTER + INTRA:          -3.291
REMARK INTER:                  -3.116
REMARK INTRA:                  -0.175
REMARK UNBOUND:                -0.058
REMARK SMILES CCCCCC(=O)[O-]
REMARK SMILES IDX 4 1 5 2 6 3 7 4 8 5 3 6 2 7 1 8
REMARK H PARENT
REMARK Flexibility Score: inf
ROOT
ATOM      1  C   UNL     1      52.655  52.277  48.177  1.00  0.00     0.006 C 
ENDROOT
BRANCH   1   2
ATOM      2  C   UNL     1      53.648  53.206  47.467  1.00  0.00     0.053 C 
BRANCH   2   3
ATOM      3  C   UNL     1      53.166  54.621  47.520  1.00  0.00     0.041 C 
ATOM      4  O   UNL     1      53.124  55.235  48.618  1.00  0.00    -0.550 OA
ATOM      5  O   UNL     1      52.717  55.246  46.364  1.00  0.00    -0.550 OA
ENDBRANCH   2   3
ENDBRANCH   1   2
BRANCH   1   6
ATOM      6  C   UNL     1      53.128  51.868  49.582  1.00  0.00     0.000 C 
BRANCH   6   7
ATOM      7  C   UNL     1      52.001  51.921  50.624  1.00  0.00    -0.003 C 
ATOM      8  C   UNL     1      52.000  53.256  51.363  1.00  0.00     0.004 C 
ENDBRANCH   6   7
ENDBRANCH   1   6
TORSDOF 4
ENDMDL
