MODEL 1
REMARK VINA RESULT:    -5.043      0.000      0.000
REMARK INTER + INTRA:          -5.043
REMARK INTER:                  -5.043
REMARK INTRA:                   0.000
REMARK UNBOUND:                 0.000
REMARK SMILES CC1=CC[C@@H]2[C@@H](C1)C2(C)C
REMARK SMILES IDX 1 1 2 2 3 3 4 4 5 5 6 6 7 7 8 8 9 9 10 10
REMARK H PARENT
REMARK Flexibility Score: inf
ROOT
ATOM      1  C   UNL     1      38.125  42.176  84.364  1.00  0.00     0.039 C 
ATOM      2  C   UNL     1      36.805  41.463  84.428  1.00  0.00    -0.077 C 
ATOM      3  C   UNL     1      36.772  40.139  84.762  1.00  0.00    -0.028 C 
ATOM      4  C   UNL     1      35.464  39.351  84.820  1.00  0.00     0.031 C 
ATOM      5  C   UNL     1      34.442  40.072  83.935  1.00  0.00     0.003 C 
ATOM      6  C   UNL     1      34.332  41.463  84.665  1.00  0.00     0.003 C 
ATOM      7  C   UNL     1      35.521  42.215  84.056  1.00  0.00     0.034 C 
ATOM      8  C   UNL     1      33.106  40.751  84.138  1.00  0.00    -0.029 C 
ATOM      9  C   UNL     1      32.453  41.383  82.906  1.00  0.00     0.012 C 
ATOM     10  C   UNL     1      32.184  40.100  85.174  1.00  0.00     0.012 C 
ENDROOT
TORSDOF 0
ENDMDL
MODEL 2
REMARK VINA RESULT:    -4.939      1.243      3.847
REMARK INTER + INTRA:          -4.939
REMARK INTER:                  -4.939
REMARK INTRA:                   0.000
REMARK UNBOUND:                 0.000
REMARK SMILES CC1=CC[C@@H]2[C@@H](C1)C2(C)C
REMARK SMILES IDX 1 1 2 2 3 3 4 4 5 5 6 6 7 7 8 8 9 9 10 10
REMARK H PARENT
REMARK Flexibility Score: inf
ROOT
ATOM      1  C   UNL     1      31.703  43.294  82.861  1.00  0.00     0.039 C 
ATOM      2  C   UNL     1      32.600  42.198  83.361  1.00  0.00    -0.077 C 
ATOM      3  C   UNL     1      32.096  41.250  84.205  1.00  0.00    -0.028 C 
ATOM      4  C   UNL     1      32.963  40.125  84.768  1.00  0.00     0.031 C 
ATOM      5  C   UNL     1      34.423  40.587  84.718  1.00  0.00     0.003 C 
ATOM      6  C   UNL     1      34.629  40.779  83.169  1.00  0.00     0.003 C 
ATOM      7  C   UNL     1      34.082  42.197  82.967  1.00  0.00     0.034 C 
ATOM      8  C   UNL     1      35.691  40.131  84.030  1.00  0.00    -0.029 C 
ATOM      9  C   UNL     1      36.950  40.967  84.269  1.00  0.00     0.012 C 
ATOM     10  C   UNL     1      35.861  38.615  83.896  1.00  0.00     0.012 C 
ENDROOT
TORSDOF 0
ENDMDL
MODEL 3
REMARK VINA RESULT:    -4.912      1.784      3.827
REMARK INTER + INTRA:          -4.912
REMARK INTER:                  -4.912
REMARK INTRA:                   0.000
REMARK UNBOUND:                 0.000
REMARK SMILES CC1=CC[C@@H]2[C@@H](C1)C2(C)C
REMARK SMILES IDX 1 1 2 2 3 3 4 4 5 5 6 6 7 7 8 8 9 9 10 10
REMARK H PARENT
REMARK Flexibility Score: inf
ROOT
ATOM      1  C   UNL     1      30.971  42.430  86.819  1.00  0.00     0.039 C 
ATOM      2  C   UNL     1      32.199  41.909  86.130  1.00  0.00    -0.077 C 
ATOM      3  C   UNL     1      33.431  42.189  86.650  1.00  0.00    -0.028 C 
ATOM      4  C   UNL     1      34.719  41.711  85.982  1.00  0.00     0.031 C 
ATOM      5  C   UNL     1      34.415  41.454  84.503  1.00  0.00     0.003 C 
ATOM      6  C   UNL     1      33.336  40.311  84.607  1.00  0.00     0.003 C 
ATOM      7  C   UNL     1      32.056  41.125  84.820  1.00  0.00     0.034 C 
ATOM      8  C   UNL     1      34.439  40.261  83.573  1.00  0.00    -0.029 C 
ATOM      9  C   UNL     1      34.000  40.500  82.126  1.00  0.00     0.012 C 
ATOM     10  C   UNL     1      35.572  39.258  83.813  1.00  0.00     0.012 C 
ENDROOT
TORSDOF 0
ENDMDL
MODEL 4
REMARK VINA RESULT:    -4.890      0.724      2.143
REMARK INTER + INTRA:          -4.890
REMARK INTER:                  -4.890
REMARK INTRA:                   0.000
REMARK UNBOUND:                 0.000
REMARK SMILES CC1=CC[C@@H]2[C@@H](C1)C2(C)C
REMARK SMILES IDX 1 1 2 2 3 3 4 4 5 5 6 6 7 7 8 8 9 9 10 10
REMARK H PARENT
REMARK Flexibility Score: inf
ROOT
ATOM      1  C   UNL     1      38.123  40.118  84.366  1.00  0.00     0.039 C 
ATOM      2  C   UNL     1      36.718  40.618  84.189  1.00  0.00    -0.077 C 
ATOM      3  C   UNL     1      36.507  41.927  83.859  1.00  0.00    -0.028 C 
ATOM      4  C   UNL     1      35.102  42.503  83.690  1.00  0.00     0.031 C 
ATOM      5  C   UNL     1      34.133  41.616  84.479  1.00  0.00     0.003 C 
ATOM      6  C   UNL     1      34.306  40.238  83.736  1.00  0.00     0.003 C 
ATOM      7  C   UNL     1      35.541  39.669  84.443  1.00  0.00     0.034 C 
ATOM      8  C   UNL     1      32.942  40.741  84.156  1.00  0.00    -0.029 C 
ATOM      9  C   UNL     1      32.292  39.994  85.323  1.00  0.00     0.012 C 
ATOM     10  C   UNL     1      32.023  41.260  83.046  1.00  0.00     0.012 C 
ENDROOT
TORSDOF 0
ENDMDL
MODEL 5
REMARK VINA RESULT:    -4.817      1.913      2.987
REMARK INTER + INTRA:          -4.817
REMARK INTER:                  -4.817
REMARK INTRA:                   0.000
REMARK UNBOUND:                 0.000
REMARK SMILES CC1=CC[C@@H]2[C@@H](C1)C2(C)C
REMARK SMILES IDX 1 1 2 2 3 3 4 4 5 5 6 6 7 7 8 8 9 9 10 10
REMARK H PARENT
REMARK Flexibility Score: inf
ROOT
ATOM      1  C   UNL     1      35.869  38.640  83.997  1.00  0.00     0.039 C 
ATOM      2  C   UNL     1      34.843  39.736  84.008  1.00  0.00    -0.077 C 
ATOM      3  C   UNL     1      34.787  40.614  82.962  1.00  0.00    -0.028 C 
ATOM      4  C   UNL     1      33.784  41.766  82.925  1.00  0.00     0.031 C 
ATOM      5  C   UNL     1      33.365  42.071  84.367  1.00  0.00     0.003 C 
ATOM      6  C   UNL     1      32.694  40.708  84.785  1.00  0.00     0.003 C 
ATOM      7  C   UNL     1      33.916  39.892  85.219  1.00  0.00     0.034 C 
ATOM      8  C   UNL     1      32.078  42.038  85.162  1.00  0.00    -0.029 C 
ATOM      9  C   UNL     1      32.167  42.411  86.644  1.00  0.00     0.012 C 
ATOM     10  C   UNL     1      30.819  42.461  84.398  1.00  0.00     0.012 C 
ENDROOT
TORSDOF 0
ENDMDL
MODEL 6
REMARK VINA RESULT:    -4.817      1.820      3.795
REMARK INTER + INTRA:          -4.817
REMARK INTER:                  -4.817
REMARK INTRA:                   0.000
REMARK UNBOUND:                 0.000
REMARK SMILES CC1=CC[C@@H]2[C@@H](C1)C2(C)C
REMARK SMILES IDX 1 1 2 2 3 3 4 4 5 5 6 6 7 7 8 8 9 9 10 10
REMARK H PARENT
REMARK Flexibility Score: inf
ROOT
ATOM      1  C   UNL     1      32.801  43.121  87.774  1.00  0.00     0.039 C 
ATOM      2  C   UNL     1      32.889  42.314  86.511  1.00  0.00    -0.077 C 
ATOM      3  C   UNL     1      31.741  41.908  85.891  1.00  0.00    -0.028 C 
ATOM      4  C   UNL     1      31.763  41.064  84.619  1.00  0.00     0.031 C 
ATOM      5  C   UNL     1      33.111  40.338  84.559  1.00  0.00     0.003 C 
ATOM      6  C   UNL     1      34.109  41.553  84.485  1.00  0.00     0.003 C 
ATOM      7  C   UNL     1      34.264  41.905  85.970  1.00  0.00     0.034 C 
ATOM      8  C   UNL     1      34.303  40.322  83.629  1.00  0.00    -0.029 C 
ATOM      9  C   UNL     1      35.478  39.422  84.021  1.00  0.00     0.012 C 
ATOM     10  C   UNL     1      33.981  40.456  82.138  1.00  0.00     0.012 C 
ENDROOT
TORSDOF 0
ENDMDL
MODEL 7
REMARK VINA RESULT:    -4.656      1.633      2.488
REMARK INTER + INTRA:          -4.656
REMARK INTER:                  -4.656
REMARK INTRA:                   0.000
REMARK UNBOUND:                 0.000
REMARK SMILES CC1=CC[C@@H]2[C@@H](C1)C2(C)C
REMARK SMILES IDX 1 1 2 2 3 3 4 4 5 5 6 6 7 7 8 8 9 9 10 10
REMARK H PARENT
REMARK Flexibility Score: inf
ROOT
ATOM      1  C   UNL     1      36.234  40.056  84.058  1.00  0.00     0.039 C 
ATOM      2  C   UNL     1      34.833  40.524  84.328  1.00  0.00    -0.077 C 
ATOM      3  C   UNL     1      33.954  39.688  84.957  1.00  0.00    -0.028 C 
ATOM      4  C   UNL     1      32.509  40.095  85.237  1.00  0.00     0.031 C 
ATOM      5  C   UNL     1      32.131  41.200  84.245  1.00  0.00     0.003 C 
ATOM      6  C   UNL     1      33.155  42.329  84.641  1.00  0.00     0.003 C 
ATOM      7  C   UNL     1      34.391  41.908  83.837  1.00  0.00     0.034 C 
ATOM      8  C   UNL     1      31.710  42.650  84.333  1.00  0.00    -0.029 C 
ATOM      9  C   UNL     1      31.462  43.382  83.011  1.00  0.00     0.012 C 
ATOM     10  C   UNL     1      30.810  43.006  85.520  1.00  0.00     0.012 C 
ENDROOT
TORSDOF 0
ENDMDL
MODEL 8
REMARK VINA RESULT:    -4.529      1.612      2.707
REMARK INTER + INTRA:          -4.529
REMARK INTER:                  -4.529
REMARK INTRA:                   0.000
REMARK UNBOUND:                 0.000
REMARK SMILES CC1=CC[C@@H]2[C@@H](C1)C2(C)C
REMARK SMILES IDX 1 1 2 2 3 3 4 4 5 5 6 6 7 7 8 8 9 9 10 10
REMARK H PARENT
REMARK Flexibility Score: inf
ROOT
ATOM      1  C   UNL     1      37.286  39.460  84.575  1.00  0.00     0.039 C 
ATOM      2  C   UNL     1      36.184  40.336  84.052  1.00  0.00    -0.077 C 
ATOM      3  C   UNL     1      35.115  39.766  83.420  1.00  0.00    -0.028 C 
ATOM      4  C   UNL     1      33.975  40.603  82.844  1.00  0.00     0.031 C 
ATOM      5  C   UNL     1      34.511  42.015  82.588  1.00  0.00     0.003 C 
ATOM      6  C   UNL     1      34.902  42.463  84.047  1.00  0.00     0.003 C 
ATOM      7  C   UNL     1      36.304  41.859  84.180  1.00  0.00     0.034 C 
ATOM      8  C   UNL     1      34.206  43.409  83.092  1.00  0.00    -0.029 C 
ATOM      9  C   UNL     1      35.069  44.549  82.545  1.00  0.00     0.012 C 
ATOM     10  C   UNL     1      32.728  43.705  83.363  1.00  0.00     0.012 C 
ENDROOT
TORSDOF 0
ENDMDL
MODEL 9
REMARK VINA RESULT:    -4.420      1.081      4.219
REMARK INTER + INTRA:          -4.420
REMARK INTER:                  -4.420
REMARK INTRA:                   0.000
REMARK UNBOUND:                 0.000
REMARK SMILES CC1=CC[C@@H]2[C@@H](C1)C2(C)C
REMARK SMILES IDX 1 1 2 2 3 3 4 4 5 5 6 6 7 7 8 8 9 9 10 10
REMARK H PARENT
REMARK Flexibility Score: inf
ROOT
ATOM      1  C   UNL     1      31.424  40.849  84.409  1.00  0.00     0.039 C 
ATOM      2  C   UNL     1      32.893  41.055  84.179  1.00  0.00    -0.077 C 
ATOM      3  C   UNL     1      33.307  41.855  83.151  1.00  0.00    -0.028 C 
ATOM      4  C   UNL     1      34.786  42.084  82.849  1.00  0.00     0.031 C 
ATOM      5  C   UNL     1      35.573  40.906  83.432  1.00  0.00     0.003 C 
ATOM      6  C   UNL     1      35.249  41.052  84.966  1.00  0.00     0.003 C 
ATOM      7  C   UNL     1      33.907  40.316  85.060  1.00  0.00     0.034 C 
ATOM      8  C   UNL     1      36.644  40.721  84.484  1.00  0.00    -0.029 C 
ATOM      9  C   UNL     1      37.114  39.289  84.753  1.00  0.00     0.012 C 
ATOM     10  C   UNL     1      37.689  41.837  84.567  1.00  0.00     0.012 C 
ENDROOT
TORSDOF 0
ENDMDL
