MODEL 1
REMARK VINA RESULT:    -3.172      0.000      0.000
REMARK INTER + INTRA:          -5.176
REMARK INTER:                  -4.841
REMARK INTRA:                  -0.335
REMARK UNBOUND:                -0.335
REMARK SMILES CC1=CCC[C@@H](C)C(=O)C[C@H](C(C)C)C(=O)C1
REMARK SMILES IDX 8 1 9 2 6 3 7 4 5 5 4 6 3 7 2 8 1 9 10 11 11 12 15 13 16 14
REMARK SMILES IDX 17 15 12 17 13 18 14 19
REMARK H PARENT
REMARK Flexibility Score: 70.00
ROOT
ATOM      1  C   UNL     1      66.797  67.630  41.290  1.00  0.00     0.136 C 
ATOM      2  O   UNL     1      66.443  67.206  42.382  1.00  0.00    -0.299 OA
ENDROOT
BRANCH   1   3
ATOM      3  C   UNL     1      66.152  67.081  40.032  1.00  0.00     0.053 C 
ATOM      4  C   UNL     1      64.664  67.459  39.983  1.00  0.00     0.016 C 
BRANCH   3   5
ATOM      5  C   UNL     1      66.334  65.547  39.954  1.00  0.00     0.015 C 
BRANCH   5   6
ATOM      6  C   UNL     1      67.780  65.166  39.583  1.00  0.00     0.028 C 
BRANCH   6   7
ATOM      7  C   UNL     1      68.326  65.958  38.419  1.00  0.00    -0.028 C 
ATOM      8  C   UNL     1      69.427  66.750  38.452  1.00  0.00    -0.070 CG0
ATOM      9  C   UNL     1      69.753  67.543  37.212  1.00  0.00     0.039 C 
ATOM     10  G   UNL     1      70.369  66.839  39.646  1.00  0.00     0.000 G0
ENDBRANCH   6   7
ENDBRANCH   5   6
ENDBRANCH   3   5
ENDBRANCH   1   3
BRANCH   1  11
ATOM     11  C   UNL     1      67.867  68.698  41.230  1.00  0.00     0.087 C 
BRANCH  11  12
ATOM     12  C   UNL     1      69.260  68.152  41.638  1.00  0.00     0.066 C 
BRANCH  12  13
ATOM     13  C   UNL     1      70.209  68.124  40.448  1.00  0.00     0.140 C 
ATOM     14  O   UNL     1      70.856  69.115  40.145  1.00  0.00    -0.299 OA
BRANCH  13  15
ATOM     15  C   UNL     1      70.376  66.852  39.653  1.00  0.00     0.106 CG0
ATOM     16  G   UNL     1      69.441  66.740  38.455  1.00  0.00     0.000 G0
ENDBRANCH  13  15
ENDBRANCH  12  13
BRANCH  12  17
ATOM     17  C   UNL     1      69.836  68.871  42.898  1.00  0.00    -0.006 C 
ATOM     18  C   UNL     1      69.310  70.310  43.020  1.00  0.00     0.008 C 
ATOM     19  C   UNL     1      69.628  68.111  44.221  1.00  0.00     0.008 C 
ENDBRANCH  12  17
ENDBRANCH  11  12
ENDBRANCH   1  11
TORSDOF 1
ENDMDL
MODEL 2
REMARK VINA RESULT:    -3.083      2.178      4.501
REMARK INTER + INTRA:          -5.040
REMARK INTER:                  -4.819
REMARK INTRA:                  -0.221
REMARK UNBOUND:                -0.335
REMARK SMILES CC1=CCC[C@@H](C)C(=O)C[C@H](C(C)C)C(=O)C1
REMARK SMILES IDX 8 1 9 2 6 3 7 4 5 5 4 6 3 7 2 8 1 9 10 11 11 12 15 13 16 14
REMARK SMILES IDX 17 15 12 17 13 18 14 19
REMARK H PARENT
REMARK Flexibility Score: 70.00
ROOT
ATOM      1  C   UNL     1      66.855  66.776  39.290  1.00  0.00     0.136 C 
ATOM      2  O   UNL     1      67.201  67.791  38.700  1.00  0.00    -0.299 OA
ENDROOT
BRANCH   1   3
ATOM      3  C   UNL     1      65.868  66.880  40.438  1.00  0.00     0.053 C 
ATOM      4  C   UNL     1      64.584  67.586  39.978  1.00  0.00     0.016 C 
BRANCH   3   5
ATOM      5  C   UNL     1      66.507  67.620  41.637  1.00  0.00     0.015 C 
BRANCH   5   6
ATOM      6  C   UNL     1      67.459  66.703  42.426  1.00  0.00     0.028 C 
BRANCH   6   7
ATOM      7  C   UNL     1      68.917  67.040  42.224  1.00  0.00    -0.028 C 
ATOM      8  C   UNL     1      69.828  66.254  41.598  1.00  0.00    -0.070 CG0
ATOM      9  C   UNL     1      71.262  66.721  41.588  1.00  0.00     0.039 C 
ATOM     10  G   UNL     1      69.474  64.965  40.868  1.00  0.00     0.000 G0
ENDBRANCH   6   7
ENDBRANCH   5   6
ENDBRANCH   3   5
ENDBRANCH   1   3
BRANCH   1  11
ATOM     11  C   UNL     1      67.420  65.443  38.850  1.00  0.00     0.087 C 
BRANCH  11  12
ATOM     12  C   UNL     1      68.890  65.561  38.375  1.00  0.00     0.066 C 
BRANCH  12  13
ATOM     13  C   UNL     1      69.847  64.955  39.393  1.00  0.00     0.140 C 
ATOM     14  O   UNL     1      70.918  64.486  39.038  1.00  0.00    -0.299 OA
BRANCH  13  15
ATOM     15  C   UNL     1      69.483  64.960  40.858  1.00  0.00     0.106 CG0
ATOM     16  G   UNL     1      69.815  66.262  41.575  1.00  0.00     0.000 G0
ENDBRANCH  13  15
ENDBRANCH  12  13
BRANCH  12  17
ATOM     17  C   UNL     1      69.090  65.037  36.918  1.00  0.00    -0.006 C 
ATOM     18  C   UNL     1      68.121  63.890  36.591  1.00  0.00     0.008 C 
ATOM     19  C   UNL     1      69.021  66.124  35.830  1.00  0.00     0.008 C 
ENDBRANCH  12  17
ENDBRANCH  11  12
ENDBRANCH   1  11
TORSDOF 1
ENDMDL
MODEL 3
REMARK VINA RESULT:    -2.943      7.725     10.456
REMARK INTER + INTRA:          -4.826
REMARK INTER:                  -4.786
REMARK INTRA:                  -0.040
REMARK UNBOUND:                -0.335
REMARK SMILES CC1=CCC[C@@H](C)C(=O)C[C@H](C(C)C)C(=O)C1
REMARK SMILES IDX 8 1 9 2 6 3 7 4 5 5 4 6 3 7 2 8 1 9 10 11 11 12 15 13 16 14
REMARK SMILES IDX 17 15 12 17 13 18 14 19
REMARK H PARENT
REMARK Flexibility Score: 70.00
ROOT
ATOM      1  C   UNL     1      67.703  65.690  31.489  1.00  0.00     0.136 C 
ATOM      2  O   UNL     1      66.522  65.997  31.586  1.00  0.00    -0.299 OA
ENDROOT
BRANCH   1   3
ATOM      3  C   UNL     1      68.408  65.056  32.674  1.00  0.00     0.053 C 
ATOM      4  C   UNL     1      67.444  64.921  33.862  1.00  0.00     0.016 C 
BRANCH   3   5
ATOM      5  C   UNL     1      69.656  65.881  33.067  1.00  0.00     0.015 C 
BRANCH   5   6
ATOM      6  C   UNL     1      69.267  67.263  33.626  1.00  0.00     0.028 C 
BRANCH   6   7
ATOM      7  C   UNL     1      70.137  68.383  33.109  1.00  0.00    -0.028 C 
ATOM      8  C   UNL     1      69.886  69.132  32.006  1.00  0.00    -0.070 CG0
ATOM      9  C   UNL     1      70.930  70.138  31.592  1.00  0.00     0.039 C 
ATOM     10  G   UNL     1      68.594  69.047  31.203  1.00  0.00     0.000 G0
ENDBRANCH   6   7
ENDBRANCH   5   6
ENDBRANCH   3   5
ENDBRANCH   1   3
BRANCH   1  11
ATOM     11  C   UNL     1      68.422  65.946  30.183  1.00  0.00     0.087 C 
BRANCH  11  12
ATOM     12  C   UNL     1      67.894  67.214  29.465  1.00  0.00     0.066 C 
BRANCH  12  13
ATOM     13  C   UNL     1      68.732  68.435  29.819  1.00  0.00     0.140 C 
ATOM     14  O   UNL     1      69.503  68.918  29.004  1.00  0.00    -0.299 OA
BRANCH  13  15
ATOM     15  C   UNL     1      68.584  69.075  31.178  1.00  0.00     0.106 CG0
ATOM     16  G   UNL     1      69.877  69.127  31.983  1.00  0.00     0.000 G0
ENDBRANCH  13  15
ENDBRANCH  12  13
BRANCH  12  17
ATOM     17  C   UNL     1      67.701  66.993  27.932  1.00  0.00    -0.006 C 
ATOM     18  C   UNL     1      68.625  65.887  27.397  1.00  0.00     0.008 C 
ATOM     19  C   UNL     1      66.246  66.731  27.499  1.00  0.00     0.008 C 
ENDBRANCH  12  17
ENDBRANCH  11  12
ENDBRANCH   1  11
TORSDOF 1
ENDMDL
MODEL 4
REMARK VINA RESULT:    -2.864     16.058     17.952
REMARK INTER + INTRA:          -4.706
REMARK INTER:                  -4.750
REMARK INTRA:                   0.045
REMARK UNBOUND:                -0.335
REMARK SMILES CC1=CCC[C@@H](C)C(=O)C[C@H](C(C)C)C(=O)C1
REMARK SMILES IDX 8 1 9 2 6 3 7 4 5 5 4 6 3 7 2 8 1 9 10 11 11 12 15 13 16 14
REMARK SMILES IDX 17 15 12 17 13 18 14 19
REMARK H PARENT
REMARK Flexibility Score: 70.00
ROOT
ATOM      1  C   UNL     1      53.947  69.482  32.963  1.00  0.00     0.136 C 
ATOM      2  O   UNL     1      52.980  68.915  32.473  1.00  0.00    -0.299 OA
ENDROOT
BRANCH   1   3
ATOM      3  C   UNL     1      54.556  68.945  34.245  1.00  0.00     0.053 C 
ATOM      4  C   UNL     1      53.876  67.630  34.651  1.00  0.00     0.016 C 
BRANCH   3   5
ATOM      5  C   UNL     1      54.449  69.994  35.377  1.00  0.00     0.015 C 
BRANCH   5   6
ATOM      6  C   UNL     1      52.990  70.429  35.610  1.00  0.00     0.028 C 
BRANCH   6   7
ATOM      7  C   UNL     1      52.825  71.924  35.735  1.00  0.00    -0.028 C 
ATOM      8  C   UNL     1      52.415  72.757  34.746  1.00  0.00    -0.070 CG0
ATOM      9  C   UNL     1      52.413  74.237  35.035  1.00  0.00     0.039 C 
ATOM     10  G   UNL     1      51.913  72.277  33.390  1.00  0.00     0.000 G0
ENDBRANCH   6   7
ENDBRANCH   5   6
ENDBRANCH   3   5
ENDBRANCH   1   3
BRANCH   1  11
ATOM     11  C   UNL     1      54.511  70.702  32.268  1.00  0.00     0.087 C 
BRANCH  11  12
ATOM     12  C   UNL     1      53.439  71.444  31.431  1.00  0.00     0.066 C 
BRANCH  12  13
ATOM     13  C   UNL     1      52.813  72.583  32.225  1.00  0.00     0.140 C 
ATOM     14  O   UNL     1      53.020  73.746  31.914  1.00  0.00    -0.299 OA
BRANCH  13  15
ATOM     15  C   UNL     1      51.903  72.273  33.389  1.00  0.00     0.106 CG0
ATOM     16  G   UNL     1      52.416  72.779  34.731  1.00  0.00     0.000 G0
ENDBRANCH  13  15
ENDBRANCH  12  13
BRANCH  12  17
ATOM     17  C   UNL     1      53.966  71.861  30.022  1.00  0.00    -0.006 C 
ATOM     18  C   UNL     1      55.449  72.260  30.067  1.00  0.00     0.008 C 
ATOM     19  C   UNL     1      53.724  70.821  28.913  1.00  0.00     0.008 C 
ENDBRANCH  12  17
ENDBRANCH  11  12
ENDBRANCH   1  11
TORSDOF 1
ENDMDL
MODEL 5
REMARK VINA RESULT:    -2.824      2.021      4.863
REMARK INTER + INTRA:          -4.644
REMARK INTER:                  -4.373
REMARK INTRA:                  -0.271
REMARK UNBOUND:                -0.335
REMARK SMILES CC1=CCC[C@@H](C)C(=O)C[C@H](C(C)C)C(=O)C1
REMARK SMILES IDX 8 1 9 2 6 3 7 4 5 5 4 6 3 7 2 8 1 9 10 11 11 12 15 13 16 14
REMARK SMILES IDX 17 15 12 17 13 18 14 19
REMARK H PARENT
REMARK Flexibility Score: 70.00
ROOT
ATOM      1  C   UNL     1      68.842  68.381  39.335  1.00  0.00     0.136 C 
ATOM      2  O   UNL     1      68.912  67.908  38.209  1.00  0.00    -0.299 OA
ENDROOT
BRANCH   1   3
ATOM      3  C   UNL     1      70.050  69.083  39.925  1.00  0.00     0.053 C 
ATOM      4  C   UNL     1      70.286  70.428  39.221  1.00  0.00     0.016 C 
BRANCH   3   5
ATOM      5  C   UNL     1      71.303  68.182  39.827  1.00  0.00     0.015 C 
BRANCH   5   6
ATOM      6  C   UNL     1      71.399  67.213  41.021  1.00  0.00     0.028 C 
BRANCH   6   7
ATOM      7  C   UNL     1      71.052  67.857  42.341  1.00  0.00    -0.028 C 
ATOM      8  C   UNL     1      69.953  67.582  43.088  1.00  0.00    -0.070 CG0
ATOM      9  C   UNL     1      69.729  68.408  44.330  1.00  0.00     0.039 C 
ATOM     10  G   UNL     1      68.972  66.461  42.769  1.00  0.00     0.000 G0
ENDBRANCH   6   7
ENDBRANCH   5   6
ENDBRANCH   3   5
ENDBRANCH   1   3
BRANCH   1  11
ATOM     11  C   UNL     1      67.545  68.256  40.104  1.00  0.00     0.087 C 
BRANCH  11  12
ATOM     12  C   UNL     1      67.379  66.855  40.745  1.00  0.00     0.066 C 
BRANCH  12  13
ATOM     13  C   UNL     1      67.636  66.904  42.245  1.00  0.00     0.140 C 
ATOM     14  O   UNL     1      66.764  67.279  43.014  1.00  0.00    -0.299 OA
BRANCH  13  15
ATOM     15  C   UNL     1      68.970  66.456  42.791  1.00  0.00     0.106 CG0
ATOM     16  G   UNL     1      69.941  67.595  43.075  1.00  0.00     0.000 G0
ENDBRANCH  13  15
ENDBRANCH  12  13
BRANCH  12  17
ATOM     17  C   UNL     1      66.032  66.174  40.350  1.00  0.00    -0.006 C 
ATOM     18  C   UNL     1      64.959  67.211  39.982  1.00  0.00     0.008 C 
ATOM     19  C   UNL     1      66.151  65.111  39.242  1.00  0.00     0.008 C 
ENDBRANCH  12  17
ENDBRANCH  11  12
ENDBRANCH   1  11
TORSDOF 1
ENDMDL
MODEL 6
REMARK VINA RESULT:    -2.780      2.018      4.302
REMARK INTER + INTRA:          -4.578
REMARK INTER:                  -4.228
REMARK INTRA:                  -0.350
REMARK UNBOUND:                -0.335
REMARK SMILES CC1=CCC[C@@H](C)C(=O)C[C@H](C(C)C)C(=O)C1
REMARK SMILES IDX 8 1 9 2 6 3 7 4 5 5 4 6 3 7 2 8 1 9 10 11 11 12 15 13 16 14
REMARK SMILES IDX 17 15 12 17 13 18 14 19
REMARK H PARENT
REMARK Flexibility Score: 70.00
ROOT
ATOM      1  C   UNL     1      67.466  65.782  40.907  1.00  0.00     0.136 C 
ATOM      2  O   UNL     1      67.100  64.988  40.050  1.00  0.00    -0.299 OA
ENDROOT
BRANCH   1   3
ATOM      3  C   UNL     1      66.490  66.821  41.426  1.00  0.00     0.053 C 
ATOM      4  C   UNL     1      66.219  67.885  40.353  1.00  0.00     0.016 C 
BRANCH   3   5
ATOM      5  C   UNL     1      67.027  67.469  42.723  1.00  0.00     0.015 C 
BRANCH   5   6
ATOM      6  C   UNL     1      67.598  68.876  42.458  1.00  0.00     0.028 C 
BRANCH   6   7
ATOM      7  C   UNL     1      68.776  69.217  43.338  1.00  0.00    -0.028 C 
ATOM      8  C   UNL     1      70.081  69.117  42.983  1.00  0.00    -0.070 CG0
ATOM      9  C   UNL     1      71.117  69.407  44.040  1.00  0.00     0.039 C 
ATOM     10  G   UNL     1      70.550  68.781  41.573  1.00  0.00     0.000 G0
ENDBRANCH   6   7
ENDBRANCH   5   6
ENDBRANCH   3   5
ENDBRANCH   1   3
BRANCH   1  11
ATOM     11  C   UNL     1      68.883  65.696  41.428  1.00  0.00     0.087 C 
BRANCH  11  12
ATOM     12  C   UNL     1      69.883  66.466  40.528  1.00  0.00     0.066 C 
BRANCH  12  13
ATOM     13  C   UNL     1      70.839  67.307  41.364  1.00  0.00     0.140 C 
ATOM     14  O   UNL     1      71.845  66.811  41.847  1.00  0.00    -0.299 OA
BRANCH  13  15
ATOM     15  C   UNL     1      70.557  68.776  41.571  1.00  0.00     0.106 CG0
ATOM     16  G   UNL     1      70.083  69.125  42.976  1.00  0.00     0.000 G0
ENDBRANCH  13  15
ENDBRANCH  12  13
BRANCH  12  17
ATOM     17  C   UNL     1      70.589  65.538  39.491  1.00  0.00    -0.006 C 
ATOM     18  C   UNL     1      70.625  64.078  39.970  1.00  0.00     0.008 C 
ATOM     19  C   UNL     1      70.017  65.619  38.064  1.00  0.00     0.008 C 
ENDBRANCH  12  17
ENDBRANCH  11  12
ENDBRANCH   1  11
TORSDOF 1
ENDMDL
MODEL 7
REMARK VINA RESULT:    -2.780      1.627      4.027
REMARK INTER + INTRA:          -4.578
REMARK INTER:                  -4.771
REMARK INTRA:                   0.193
REMARK UNBOUND:                -0.335
REMARK SMILES CC1=CCC[C@@H](C)C(=O)C[C@H](C(C)C)C(=O)C1
REMARK SMILES IDX 8 1 9 2 6 3 7 4 5 5 4 6 3 7 2 8 1 9 10 11 11 12 15 13 16 14
REMARK SMILES IDX 17 15 12 17 13 18 14 19
REMARK H PARENT
REMARK Flexibility Score: 70.00
ROOT
ATOM      1  C   UNL     1      68.028  67.964  42.565  1.00  0.00     0.136 C 
ATOM      2  O   UNL     1      67.470  69.054  42.557  1.00  0.00    -0.299 OA
ENDROOT
BRANCH   1   3
ATOM      3  C   UNL     1      69.062  67.664  43.634  1.00  0.00     0.053 C 
ATOM      4  C   UNL     1      69.673  68.968  44.169  1.00  0.00     0.016 C 
BRANCH   3   5
ATOM      5  C   UNL     1      70.161  66.728  43.078  1.00  0.00     0.015 C 
BRANCH   5   6
ATOM      6  C   UNL     1      71.245  67.516  42.318  1.00  0.00     0.028 C 
BRANCH   6   7
ATOM      7  C   UNL     1      71.513  66.978  40.933  1.00  0.00    -0.028 C 
ATOM      8  C   UNL     1      70.792  67.267  39.821  1.00  0.00    -0.070 CG0
ATOM      9  C   UNL     1      71.155  66.547  38.547  1.00  0.00     0.039 C 
ATOM     10  G   UNL     1      69.680  68.308  39.782  1.00  0.00     0.000 G0
ENDBRANCH   6   7
ENDBRANCH   5   6
ENDBRANCH   3   5
ENDBRANCH   1   3
BRANCH   1  11
ATOM     11  C   UNL     1      67.661  66.945  41.510  1.00  0.00     0.087 C 
BRANCH  11  12
ATOM     12  C   UNL     1      67.194  67.612  40.191  1.00  0.00     0.066 C 
BRANCH  12  13
ATOM     13  C   UNL     1      68.360  67.811  39.233  1.00  0.00     0.140 C 
ATOM     14  O   UNL     1      68.231  67.584  38.040  1.00  0.00    -0.299 OA
BRANCH  13  15
ATOM     15  C   UNL     1      69.679  68.325  39.756  1.00  0.00     0.106 CG0
ATOM     16  G   UNL     1      70.783  67.276  39.796  1.00  0.00     0.000 G0
ENDBRANCH  13  15
ENDBRANCH  12  13
BRANCH  12  17
ATOM     17  C   UNL     1      65.964  66.888  39.560  1.00  0.00    -0.006 C 
ATOM     18  C   UNL     1      66.123  65.359  39.602  1.00  0.00     0.008 C 
ATOM     19  C   UNL     1      64.603  67.301  40.150  1.00  0.00     0.008 C 
ENDBRANCH  12  17
ENDBRANCH  11  12
ENDBRANCH   1  11
TORSDOF 1
ENDMDL
MODEL 8
REMARK VINA RESULT:    -2.758      1.889      3.749
REMARK INTER + INTRA:          -4.544
REMARK INTER:                  -5.008
REMARK INTRA:                   0.464
REMARK UNBOUND:                -0.335
REMARK SMILES CC1=CCC[C@@H](C)C(=O)C[C@H](C(C)C)C(=O)C1
REMARK SMILES IDX 8 1 9 2 6 3 7 4 5 5 4 6 3 7 2 8 1 9 10 11 11 12 15 13 16 14
REMARK SMILES IDX 17 15 12 17 13 18 14 19
REMARK H PARENT
REMARK Flexibility Score: 70.00
ROOT
ATOM      1  C   UNL     1      67.949  67.715  41.605  1.00  0.00     0.136 C 
ATOM      2  O   UNL     1      67.172  68.404  42.251  1.00  0.00    -0.299 OA
ENDROOT
BRANCH   1   3
ATOM      3  C   UNL     1      68.623  66.528  42.269  1.00  0.00     0.053 C 
ATOM      4  C   UNL     1      68.248  66.463  43.757  1.00  0.00     0.016 C 
BRANCH   3   5
ATOM      5  C   UNL     1      70.157  66.605  42.088  1.00  0.00     0.015 C 
BRANCH   5   6
ATOM      6  C   UNL     1      70.708  65.346  41.391  1.00  0.00     0.028 C 
BRANCH   6   7
ATOM      7  C   UNL     1      71.210  65.610  39.993  1.00  0.00    -0.028 C 
ATOM      8  C   UNL     1      70.474  65.510  38.858  1.00  0.00    -0.070 CG0
ATOM      9  C   UNL     1      71.184  65.713  37.543  1.00  0.00     0.039 C 
ATOM     10  G   UNL     1      68.971  65.256  38.845  1.00  0.00     0.000 G0
ENDBRANCH   6   7
ENDBRANCH   5   6
ENDBRANCH   3   5
ENDBRANCH   1   3
BRANCH   1  11
ATOM     11  C   UNL     1      68.210  68.065  40.156  1.00  0.00     0.087 C 
BRANCH  11  12
ATOM     12  C   UNL     1      67.307  67.257  39.189  1.00  0.00     0.066 C 
BRANCH  12  13
ATOM     13  C   UNL     1      68.140  66.389  38.256  1.00  0.00     0.140 C 
ATOM     14  O   UNL     1      68.174  66.620  37.057  1.00  0.00    -0.299 OA
BRANCH  13  15
ATOM     15  C   UNL     1      68.956  65.253  38.820  1.00  0.00     0.106 CG0
ATOM     16  G   UNL     1      70.455  65.524  38.861  1.00  0.00     0.000 G0
ENDBRANCH  13  15
ENDBRANCH  12  13
BRANCH  12  17
ATOM     17  C   UNL     1      66.173  66.488  39.936  1.00  0.00    -0.006 C 
ATOM     18  C   UNL     1      64.850  67.271  39.919  1.00  0.00     0.008 C 
ATOM     19  C   UNL     1      65.947  65.045  39.448  1.00  0.00     0.008 C 
ENDBRANCH  12  17
ENDBRANCH  11  12
ENDBRANCH   1  11
TORSDOF 1
ENDMDL
MODEL 9
REMARK VINA RESULT:    -2.736      2.046      4.035
REMARK INTER + INTRA:          -4.511
REMARK INTER:                  -4.595
REMARK INTRA:                   0.085
REMARK UNBOUND:                -0.335
REMARK SMILES CC1=CCC[C@@H](C)C(=O)C[C@H](C(C)C)C(=O)C1
REMARK SMILES IDX 8 1 9 2 6 3 7 4 5 5 4 6 3 7 2 8 1 9 10 11 11 12 15 13 16 14
REMARK SMILES IDX 17 15 12 17 13 18 14 19
REMARK H PARENT
REMARK Flexibility Score: 70.00
ROOT
ATOM      1  C   UNL     1      68.390  67.280  43.168  1.00  0.00     0.136 C 
ATOM      2  O   UNL     1      68.709  66.523  44.074  1.00  0.00    -0.299 OA
ENDROOT
BRANCH   1   3
ATOM      3  C   UNL     1      69.147  68.582  42.982  1.00  0.00     0.053 C 
ATOM      4  C   UNL     1      68.175  69.772  42.988  1.00  0.00     0.016 C 
BRANCH   3   5
ATOM      5  C   UNL     1      69.971  68.549  41.674  1.00  0.00     0.015 C 
BRANCH   5   6
ATOM      6  C   UNL     1      71.080  67.480  41.731  1.00  0.00     0.028 C 
BRANCH   6   7
ATOM      7  C   UNL     1      71.241  66.719  40.437  1.00  0.00    -0.028 C 
ATOM      8  C   UNL     1      70.705  65.502  40.166  1.00  0.00    -0.070 CG0
ATOM      9  C   UNL     1      71.067  64.857  38.852  1.00  0.00     0.039 C 
ATOM     10  G   UNL     1      69.727  64.785  41.088  1.00  0.00     0.000 G0
ENDBRANCH   6   7
ENDBRANCH   5   6
ENDBRANCH   3   5
ENDBRANCH   1   3
BRANCH   1  11
ATOM     11  C   UNL     1      67.250  66.889  42.253  1.00  0.00     0.087 C 
BRANCH  11  12
ATOM     12  C   UNL     1      67.745  66.508  40.834  1.00  0.00     0.066 C 
BRANCH  12  13
ATOM     13  C   UNL     1      68.264  65.077  40.799  1.00  0.00     0.140 C 
ATOM     14  O   UNL     1      67.521  64.153  40.509  1.00  0.00    -0.299 OA
BRANCH  13  15
ATOM     15  C   UNL     1      69.719  64.802  41.095  1.00  0.00     0.106 CG0
ATOM     16  G   UNL     1      70.688  65.491  40.144  1.00  0.00     0.000 G0
ENDBRANCH  13  15
ENDBRANCH  12  13
BRANCH  12  17
ATOM     17  C   UNL     1      66.693  66.834  39.729  1.00  0.00    -0.006 C 
ATOM     18  C   UNL     1      65.458  67.540  40.312  1.00  0.00     0.008 C 
ATOM     19  C   UNL     1      67.246  67.625  38.529  1.00  0.00     0.008 C 
ENDBRANCH  12  17
ENDBRANCH  11  12
ENDBRANCH   1  11
TORSDOF 1
ENDMDL
