MODEL 1
REMARK VINA RESULT:    -4.346      0.000      0.000
REMARK INTER + INTRA:          -5.134
REMARK INTER:                  -5.108
REMARK INTRA:                  -0.026
REMARK UNBOUND:                -0.026
REMARK SMILES CCCCC(=O)[O-]
REMARK SMILES IDX 4 1 5 2 6 3 7 4 3 5 2 6 1 7
REMARK H PARENT
REMARK Flexibility Score: inf
ROOT
ATOM      1  C   UNL     1      18.778  22.053  41.711  1.00  0.00     0.053 C 
ENDROOT
BRANCH   1   2
ATOM      2  C   UNL     1      19.533  23.343  41.643  1.00  0.00     0.041 C 
ATOM      3  O   UNL     1      19.352  24.230  42.518  1.00  0.00    -0.550 OA
ATOM      4  O   UNL     1      20.474  23.547  40.641  1.00  0.00    -0.550 OA
ENDBRANCH   1   2
BRANCH   1   5
ATOM      5  C   UNL     1      18.162  21.865  43.100  1.00  0.00     0.006 C 
BRANCH   5   6
ATOM      6  C   UNL     1      17.043  20.818  43.067  1.00  0.00    -0.003 C 
ATOM      7  C   UNL     1      17.611  19.406  42.966  1.00  0.00     0.004 C 
ENDBRANCH   5   6
ENDBRANCH   1   5
TORSDOF 3
ENDMDL
MODEL 2
REMARK VINA RESULT:    -4.247      2.770      3.923
REMARK INTER + INTRA:          -5.017
REMARK INTER:                  -4.930
REMARK INTRA:                  -0.087
REMARK UNBOUND:                -0.026
REMARK SMILES CCCCC(=O)[O-]
REMARK SMILES IDX 4 1 5 2 6 3 7 4 3 5 2 6 1 7
REMARK H PARENT
REMARK Flexibility Score: inf
ROOT
ATOM      1  C   UNL     1      17.242  21.333  43.095  1.00  0.00     0.053 C 
ENDROOT
BRANCH   1   2
ATOM      2  C   UNL     1      17.756  20.082  42.456  1.00  0.00     0.041 C 
ATOM      3  O   UNL     1      18.368  20.137  41.357  1.00  0.00    -0.550 OA
ATOM      4  O   UNL     1      17.604  18.859  43.098  1.00  0.00    -0.550 OA
ENDBRANCH   1   2
BRANCH   1   5
ATOM      5  C   UNL     1      18.394  22.135  43.707  1.00  0.00     0.006 C 
BRANCH   5   6
ATOM      6  C   UNL     1      18.419  23.566  43.158  1.00  0.00    -0.003 C 
ATOM      7  C   UNL     1      19.531  23.743  42.128  1.00  0.00     0.004 C 
ENDBRANCH   5   6
ENDBRANCH   1   5
TORSDOF 3
ENDMDL
MODEL 3
REMARK VINA RESULT:    -4.047      2.690      4.014
REMARK INTER + INTRA:          -4.783
REMARK INTER:                  -4.767
REMARK INTRA:                  -0.016
REMARK UNBOUND:                -0.026
REMARK SMILES CCCCC(=O)[O-]
REMARK SMILES IDX 4 1 5 2 6 3 7 4 3 5 2 6 1 7
REMARK H PARENT
REMARK Flexibility Score: inf
ROOT
ATOM      1  C   UNL     1      18.654  21.938  42.634  1.00  0.00     0.053 C 
ENDROOT
BRANCH   1   2
ATOM      2  C   UNL     1      17.679  20.823  42.841  1.00  0.00     0.041 C 
ATOM      3  O   UNL     1      16.522  21.064  43.276  1.00  0.00    -0.550 OA
ATOM      4  O   UNL     1      18.029  19.521  42.505  1.00  0.00    -0.550 OA
ENDBRANCH   1   2
BRANCH   1   5
ATOM      5  C   UNL     1      19.045  22.042  41.158  1.00  0.00     0.006 C 
BRANCH   5   6
ATOM      6  C   UNL     1      20.100  23.134  40.945  1.00  0.00    -0.003 C 
ATOM      7  C   UNL     1      21.145  22.698  39.922  1.00  0.00     0.004 C 
ENDBRANCH   5   6
ENDBRANCH   1   5
TORSDOF 3
ENDMDL
MODEL 4
REMARK VINA RESULT:    -3.911      1.987      2.594
REMARK INTER + INTRA:          -4.623
REMARK INTER:                  -4.587
REMARK INTRA:                  -0.036
REMARK UNBOUND:                -0.026
REMARK SMILES CCCCC(=O)[O-]
REMARK SMILES IDX 4 1 5 2 6 3 7 4 3 5 2 6 1 7
REMARK H PARENT
REMARK Flexibility Score: inf
ROOT
ATOM      1  C   UNL     1      19.856  22.790  41.200  1.00  0.00     0.053 C 
ENDROOT
BRANCH   1   2
ATOM      2  C   UNL     1      21.065  23.099  40.374  1.00  0.00     0.041 C 
ATOM      3  O   UNL     1      20.961  23.811  39.340  1.00  0.00    -0.550 OA
ATOM      4  O   UNL     1      22.315  22.644  40.773  1.00  0.00    -0.550 OA
ENDBRANCH   1   2
BRANCH   1   5
ATOM      5  C   UNL     1      19.549  23.947  42.155  1.00  0.00     0.006 C 
BRANCH   5   6
ATOM      6  C   UNL     1      18.547  23.518  43.233  1.00  0.00    -0.003 C 
ATOM      7  C   UNL     1      18.227  22.030  43.127  1.00  0.00     0.004 C 
ENDBRANCH   5   6
ENDBRANCH   1   5
TORSDOF 3
ENDMDL
MODEL 5
REMARK VINA RESULT:    -3.907      1.106      1.629
REMARK INTER + INTRA:          -4.618
REMARK INTER:                  -4.574
REMARK INTRA:                  -0.045
REMARK UNBOUND:                -0.026
REMARK SMILES CCCCC(=O)[O-]
REMARK SMILES IDX 4 1 5 2 6 3 7 4 3 5 2 6 1 7
REMARK H PARENT
REMARK Flexibility Score: inf
ROOT
ATOM      1  C   UNL     1      18.821  22.299  41.541  1.00  0.00     0.053 C 
ENDROOT
BRANCH   1   2
ATOM      2  C   UNL     1      20.062  22.683  40.798  1.00  0.00     0.041 C 
ATOM      3  O   UNL     1      20.711  23.708  41.136  1.00  0.00    -0.550 OA
ATOM      4  O   UNL     1      20.530  21.882  39.764  1.00  0.00    -0.550 OA
ENDBRANCH   1   2
BRANCH   1   5
ATOM      5  C   UNL     1      18.375  20.889  41.147  1.00  0.00     0.006 C 
BRANCH   5   6
ATOM      6  C   UNL     1      17.903  20.099  42.373  1.00  0.00    -0.003 C 
ATOM      7  C   UNL     1      17.353  21.030  43.450  1.00  0.00     0.004 C 
ENDBRANCH   5   6
ENDBRANCH   1   5
TORSDOF 3
ENDMDL
MODEL 6
REMARK VINA RESULT:    -3.900      2.162      3.982
REMARK INTER + INTRA:          -4.610
REMARK INTER:                  -4.589
REMARK INTRA:                  -0.022
REMARK UNBOUND:                -0.026
REMARK SMILES CCCCC(=O)[O-]
REMARK SMILES IDX 4 1 5 2 6 3 7 4 3 5 2 6 1 7
REMARK H PARENT
REMARK Flexibility Score: inf
ROOT
ATOM      1  C   UNL     1      19.104  22.504  41.450  1.00  0.00     0.053 C 
ENDROOT
BRANCH   1   2
ATOM      2  C   UNL     1      18.771  22.770  42.884  1.00  0.00     0.041 C 
ATOM      3  O   UNL     1      19.178  23.821  43.445  1.00  0.00    -0.550 OA
ATOM      4  O   UNL     1      17.969  21.881  43.589  1.00  0.00    -0.550 OA
ENDBRANCH   1   2
BRANCH   1   5
ATOM      5  C   UNL     1      20.327  23.320  41.023  1.00  0.00     0.006 C 
BRANCH   5   6
ATOM      6  C   UNL     1      21.066  22.637  39.866  1.00  0.00    -0.003 C 
ATOM      7  C   UNL     1      22.487  23.175  39.726  1.00  0.00     0.004 C 
ENDBRANCH   5   6
ENDBRANCH   1   5
TORSDOF 3
ENDMDL
MODEL 7
REMARK VINA RESULT:    -3.396     12.206     12.837
REMARK INTER + INTRA:          -4.017
REMARK INTER:                  -3.965
REMARK INTRA:                  -0.052
REMARK UNBOUND:                -0.026
REMARK SMILES CCCCC(=O)[O-]
REMARK SMILES IDX 4 1 5 2 6 3 7 4 3 5 2 6 1 7
REMARK H PARENT
REMARK Flexibility Score: inf
ROOT
ATOM      1  C   UNL     1      13.365  14.125  35.313  1.00  0.00     0.053 C 
ENDROOT
BRANCH   1   2
ATOM      2  C   UNL     1      14.004  13.351  34.205  1.00  0.00     0.041 C 
ATOM      3  O   UNL     1      15.253  13.384  34.047  1.00  0.00    -0.550 OA
ATOM      4  O   UNL     1      13.227  12.551  33.376  1.00  0.00    -0.550 OA
ENDBRANCH   1   2
BRANCH   1   5
ATOM      5  C   UNL     1      12.133  13.386  35.843  1.00  0.00     0.006 C 
BRANCH   5   6
ATOM      6  C   UNL     1      12.486  12.541  37.072  1.00  0.00    -0.003 C 
ATOM      7  C   UNL     1      11.259  12.296  37.944  1.00  0.00     0.004 C 
ENDBRANCH   5   6
ENDBRANCH   1   5
TORSDOF 3
ENDMDL
MODEL 8
REMARK VINA RESULT:    -3.379     12.674     13.330
REMARK INTER + INTRA:          -3.998
REMARK INTER:                  -3.958
REMARK INTRA:                  -0.040
REMARK UNBOUND:                -0.026
REMARK SMILES CCCCC(=O)[O-]
REMARK SMILES IDX 4 1 5 2 6 3 7 4 3 5 2 6 1 7
REMARK H PARENT
REMARK Flexibility Score: inf
ROOT
ATOM      1  C   UNL     1      12.084  11.991  36.641  1.00  0.00     0.053 C 
ENDROOT
BRANCH   1   2
ATOM      2  C   UNL     1      11.466  11.949  38.003  1.00  0.00     0.041 C 
ATOM      3  O   UNL     1      10.432  12.625  38.250  1.00  0.00    -0.550 OA
ATOM      4  O   UNL     1      12.001  11.125  38.985  1.00  0.00    -0.550 OA
ENDBRANCH   1   2
BRANCH   1   5
ATOM      5  C   UNL     1      13.234  13.002  36.605  1.00  0.00     0.006 C 
BRANCH   5   6
ATOM      6  C   UNL     1      13.025  14.032  35.488  1.00  0.00    -0.003 C 
ATOM      7  C   UNL     1      12.749  13.348  34.152  1.00  0.00     0.004 C 
ENDBRANCH   5   6
ENDBRANCH   1   5
TORSDOF 3
ENDMDL
MODEL 9
REMARK VINA RESULT:    -3.347     13.298     14.001
REMARK INTER + INTRA:          -3.960
REMARK INTER:                  -3.924
REMARK INTRA:                  -0.036
REMARK UNBOUND:                -0.026
REMARK SMILES CCCCC(=O)[O-]
REMARK SMILES IDX 4 1 5 2 6 3 7 4 3 5 2 6 1 7
REMARK H PARENT
REMARK Flexibility Score: inf
ROOT
ATOM      1  C   UNL     1      14.579  12.592  34.088  1.00  0.00     0.053 C 
ENDROOT
BRANCH   1   2
ATOM      2  C   UNL     1      15.044  11.483  33.198  1.00  0.00     0.041 C 
ATOM      3  O   UNL     1      14.206  10.728  32.637  1.00  0.00    -0.550 OA
ATOM      4  O   UNL     1      16.400  11.313  32.947  1.00  0.00    -0.550 OA
ENDBRANCH   1   2
BRANCH   1   5
ATOM      5  C   UNL     1      13.138  12.983  33.751  1.00  0.00     0.006 C 
BRANCH   5   6
ATOM      6  C   UNL     1      12.519  13.820  34.876  1.00  0.00    -0.003 C 
ATOM      7  C   UNL     1      12.373  13.003  36.156  1.00  0.00     0.004 C 
ENDBRANCH   5   6
ENDBRANCH   1   5
TORSDOF 3
ENDMDL
