MODEL 1
REMARK VINA RESULT:    -3.509      0.000      0.000
REMARK INTER + INTRA:          -6.006
REMARK INTER:                  -5.561
REMARK INTRA:                  -0.445
REMARK UNBOUND:                -0.445
REMARK SMILES CCCCCCCCCCCC(=O)[O-]
REMARK SMILES IDX 7 1 8 2 9 3 10 4 11 5 12 6 13 7 14 8 6 9 5 10 4 11 3 12 2 13
REMARK SMILES IDX 1 14
REMARK H PARENT
REMARK Flexibility Score: inf
ROOT
ATOM      1  C   UNL     1      45.302 -24.158  -1.688  1.00  0.00     0.000 C 
ENDROOT
BRANCH   1   2
ATOM      2  C   UNL     1      46.122 -23.947  -2.978  1.00  0.00     0.000 C 
BRANCH   2   3
ATOM      3  C   UNL     1      46.120 -25.137  -3.954  1.00  0.00     0.000 C 
BRANCH   3   4
ATOM      4  C   UNL     1      45.426 -24.816  -5.285  1.00  0.00     0.006 C 
BRANCH   4   5
ATOM      5  C   UNL     1      45.850 -23.439  -5.805  1.00  0.00     0.053 C 
BRANCH   5   6
ATOM      6  C   UNL     1      46.057 -23.480  -7.287  1.00  0.00     0.041 C 
ATOM      7  O   UNL     1      46.125 -22.409  -7.946  1.00  0.00    -0.550 OA
ATOM      8  O   UNL     1      46.125 -24.700  -7.946  1.00  0.00    -0.550 OA
ENDBRANCH   5   6
ENDBRANCH   4   5
ENDBRANCH   3   4
ENDBRANCH   2   3
ENDBRANCH   1   2
BRANCH   1   9
ATOM      9  C   UNL     1      45.505 -23.085  -0.603  1.00  0.00     0.000 C 
BRANCH   9  10
ATOM     10  C   UNL     1      46.122 -23.649   0.685  1.00  0.00    -0.000 C 
BRANCH  10  11
ATOM     11  C   UNL     1      46.068 -25.181   0.695  1.00  0.00    -0.000 C 
BRANCH  11  12
ATOM     12  C   UNL     1      45.946 -25.719   2.126  1.00  0.00    -0.000 C 
BRANCH  12  13
ATOM     13  C   UNL     1      45.059 -26.968   2.170  1.00  0.00    -0.003 C 
ATOM     14  C   UNL     1      45.854 -28.221   1.815  1.00  0.00     0.004 C 
ENDBRANCH  12  13
ENDBRANCH  11  12
ENDBRANCH  10  11
ENDBRANCH   9  10
ENDBRANCH   1   9
TORSDOF 10
ENDMDL
MODEL 2
REMARK VINA RESULT:    -3.067      0.848      1.351
REMARK INTER + INTRA:          -5.305
REMARK INTER:                  -5.004
REMARK INTRA:                  -0.301
REMARK UNBOUND:                -0.445
REMARK SMILES CCCCCCCCCCCC(=O)[O-]
REMARK SMILES IDX 7 1 8 2 9 3 10 4 11 5 12 6 13 7 14 8 6 9 5 10 4 11 3 12 2 13
REMARK SMILES IDX 1 14
REMARK H PARENT
REMARK Flexibility Score: inf
ROOT
ATOM      1  C   UNL     1      45.281 -24.650  -1.365  1.00  0.00     0.000 C 
ENDROOT
BRANCH   1   2
ATOM      2  C   UNL     1      46.125 -24.374  -2.627  1.00  0.00     0.000 C 
BRANCH   2   3
ATOM      3  C   UNL     1      45.566 -24.973  -3.930  1.00  0.00     0.000 C 
BRANCH   3   4
ATOM      4  C   UNL     1      45.829 -24.087  -5.155  1.00  0.00     0.006 C 
BRANCH   4   5
ATOM      5  C   UNL     1      45.814 -24.916  -6.443  1.00  0.00     0.053 C 
BRANCH   5   6
ATOM      6  C   UNL     1      46.017 -24.035  -7.636  1.00  0.00     0.041 C 
ATOM      7  O   UNL     1      46.045 -22.783  -7.501  1.00  0.00    -0.550 OA
ATOM      8  O   UNL     1      46.124 -24.593  -8.903  1.00  0.00    -0.550 OA
ENDBRANCH   5   6
ENDBRANCH   4   5
ENDBRANCH   3   4
ENDBRANCH   2   3
ENDBRANCH   1   2
BRANCH   1   9
ATOM      9  C   UNL     1      46.060 -24.611  -0.038  1.00  0.00     0.000 C 
BRANCH   9  10
ATOM     10  C   UNL     1      46.065 -25.962   0.691  1.00  0.00    -0.000 C 
BRANCH  10  11
ATOM     11  C   UNL     1      45.372 -25.854   2.055  1.00  0.00    -0.000 C 
BRANCH  11  12
ATOM     12  C   UNL     1      45.268 -27.226   2.731  1.00  0.00    -0.000 C 
BRANCH  12  13
ATOM     13  C   UNL     1      45.962 -28.305   1.893  1.00  0.00    -0.003 C 
ATOM     14  C   UNL     1      45.920 -29.660   2.594  1.00  0.00     0.004 C 
ENDBRANCH  12  13
ENDBRANCH  11  12
ENDBRANCH  10  11
ENDBRANCH   9  10
ENDBRANCH   1   9
TORSDOF 10
ENDMDL
MODEL 3
REMARK VINA RESULT:    -2.915      4.555      8.081
REMARK INTER + INTRA:          -5.064
REMARK INTER:                  -4.695
REMARK INTRA:                  -0.369
REMARK UNBOUND:                -0.445
REMARK SMILES CCCCCCCCCCCC(=O)[O-]
REMARK SMILES IDX 7 1 8 2 9 3 10 4 11 5 12 6 13 7 14 8 6 9 5 10 4 11 3 12 2 13
REMARK SMILES IDX 1 14
REMARK H PARENT
REMARK Flexibility Score: inf
ROOT
ATOM      1  C   UNL     1      45.095 -23.629  -0.831  1.00  0.00     0.000 C 
ENDROOT
BRANCH   1   2
ATOM      2  C   UNL     1      45.311 -24.095   0.623  1.00  0.00     0.000 C 
BRANCH   2   3
ATOM      3  C   UNL     1      46.067 -25.428   0.777  1.00  0.00     0.000 C 
BRANCH   3   4
ATOM      4  C   UNL     1      45.288 -26.465   1.598  1.00  0.00     0.006 C 
BRANCH   4   5
ATOM      5  C   UNL     1      46.124 -26.968   2.778  1.00  0.00     0.053 C 
BRANCH   5   6
ATOM      6  C   UNL     1      45.918 -28.437   2.977  1.00  0.00     0.041 C 
ATOM      7  O   UNL     1      45.969 -28.932   4.134  1.00  0.00    -0.550 OA
ATOM      8  O   UNL     1      45.719 -29.267   1.881  1.00  0.00    -0.550 OA
ENDBRANCH   5   6
ENDBRANCH   4   5
ENDBRANCH   3   4
ENDBRANCH   2   3
ENDBRANCH   1   2
BRANCH   1   9
ATOM      9  C   UNL     1      44.947 -24.761  -1.865  1.00  0.00     0.000 C 
BRANCH   9  10
ATOM     10  C   UNL     1      46.068 -24.760  -2.914  1.00  0.00    -0.000 C 
BRANCH  10  11
ATOM     11  C   UNL     1      45.507 -25.025  -4.317  1.00  0.00    -0.000 C 
BRANCH  11  12
ATOM     12  C   UNL     1      46.125 -24.071  -5.347  1.00  0.00    -0.000 C 
BRANCH  12  13
ATOM     13  C   UNL     1      45.794 -24.516  -6.775  1.00  0.00    -0.003 C 
ATOM     14  C   UNL     1      46.119 -23.418  -7.784  1.00  0.00     0.004 C 
ENDBRANCH  12  13
ENDBRANCH  11  12
ENDBRANCH  10  11
ENDBRANCH   9  10
ENDBRANCH   1   9
TORSDOF 10
ENDMDL
MODEL 4
REMARK VINA RESULT:    -2.389      6.332      9.610
REMARK INTER + INTRA:          -4.230
REMARK INTER:                  -4.007
REMARK INTRA:                  -0.223
REMARK UNBOUND:                -0.445
REMARK SMILES CCCCCCCCCCCC(=O)[O-]
REMARK SMILES IDX 7 1 8 2 9 3 10 4 11 5 12 6 13 7 14 8 6 9 5 10 4 11 3 12 2 13
REMARK SMILES IDX 1 14
REMARK H PARENT
REMARK Flexibility Score: inf
ROOT
ATOM      1  C   UNL     1      46.125 -25.599   1.466  1.00  0.00     0.000 C 
ENDROOT
BRANCH   1   2
ATOM      2  C   UNL     1      45.930 -26.923   2.233  1.00  0.00     0.000 C 
BRANCH   2   3
ATOM      3  C   UNL     1      45.180 -26.798   3.571  1.00  0.00     0.000 C 
BRANCH   3   4
ATOM      4  C   UNL     1      46.119 -26.560   4.762  1.00  0.00     0.006 C 
BRANCH   4   5
ATOM      5  C   UNL     1      46.110 -27.760   5.714  1.00  0.00     0.053 C 
BRANCH   5   6
ATOM      6  C   UNL     1      45.987 -27.302   7.133  1.00  0.00     0.041 C 
ATOM      7  O   UNL     1      45.877 -28.144   8.063  1.00  0.00    -0.550 OA
ATOM      8  O   UNL     1      45.945 -25.945   7.425  1.00  0.00    -0.550 OA
ENDBRANCH   5   6
ENDBRANCH   4   5
ENDBRANCH   3   4
ENDBRANCH   2   3
ENDBRANCH   1   2
BRANCH   1   9
ATOM      9  C   UNL     1      45.154 -25.375   0.292  1.00  0.00     0.000 C 
BRANCH   9  10
ATOM     10  C   UNL     1      45.737 -24.466  -0.799  1.00  0.00    -0.000 C 
BRANCH  10  11
ATOM     11  C   UNL     1      45.698 -25.156  -2.168  1.00  0.00    -0.000 C 
BRANCH  11  12
ATOM     12  C   UNL     1      46.045 -24.172  -3.291  1.00  0.00    -0.000 C 
BRANCH  12  13
ATOM     13  C   UNL     1      46.025 -24.868  -4.657  1.00  0.00    -0.003 C 
ATOM     14  C   UNL     1      46.067 -23.851  -5.794  1.00  0.00     0.004 C 
ENDBRANCH  12  13
ENDBRANCH  11  12
ENDBRANCH  10  11
ENDBRANCH   9  10
ENDBRANCH   1   9
TORSDOF 10
ENDMDL
MODEL 5
REMARK VINA RESULT:    -2.185      8.264     11.694
REMARK INTER + INTRA:          -3.908
REMARK INTER:                  -3.492
REMARK INTRA:                  -0.416
REMARK UNBOUND:                -0.445
REMARK SMILES CCCCCCCCCCCC(=O)[O-]
REMARK SMILES IDX 7 1 8 2 9 3 10 4 11 5 12 6 13 7 14 8 6 9 5 10 4 11 3 12 2 13
REMARK SMILES IDX 1 14
REMARK H PARENT
REMARK Flexibility Score: inf
ROOT
ATOM      1  C   UNL     1      46.064 -26.518   5.429  1.00  0.00     0.000 C 
ENDROOT
BRANCH   1   2
ATOM      2  C   UNL     1      46.125 -27.488   6.627  1.00  0.00     0.000 C 
BRANCH   2   3
ATOM      3  C   UNL     1      46.059 -28.982   6.263  1.00  0.00     0.000 C 
BRANCH   3   4
ATOM      4  C   UNL     1      45.962 -29.893   7.494  1.00  0.00     0.006 C 
BRANCH   4   5
ATOM      5  C   UNL     1      45.204 -29.200   8.630  1.00  0.00     0.053 C 
BRANCH   5   6
ATOM      6  C   UNL     1      45.423 -29.920   9.923  1.00  0.00     0.041 C 
ATOM      7  O   UNL     1      45.736 -29.279  10.960  1.00  0.00    -0.550 OA
ATOM      8  O   UNL     1      45.330 -31.305   9.972  1.00  0.00    -0.550 OA
ENDBRANCH   5   6
ENDBRANCH   4   5
ENDBRANCH   3   4
ENDBRANCH   2   3
ENDBRANCH   1   2
BRANCH   1   9
ATOM      9  C   UNL     1      46.110 -27.189   4.044  1.00  0.00     0.000 C 
BRANCH   9  10
ATOM     10  C   UNL     1      45.613 -26.268   2.919  1.00  0.00    -0.000 C 
BRANCH  10  11
ATOM     11  C   UNL     1      46.109 -26.755   1.552  1.00  0.00    -0.000 C 
BRANCH  11  12
ATOM     12  C   UNL     1      45.799 -25.728   0.456  1.00  0.00    -0.000 C 
BRANCH  12  13
ATOM     13  C   UNL     1      45.938 -24.298   0.989  1.00  0.00    -0.003 C 
ATOM     14  C   UNL     1      45.510 -23.275  -0.059  1.00  0.00     0.004 C 
ENDBRANCH  12  13
ENDBRANCH  11  12
ENDBRANCH  10  11
ENDBRANCH   9  10
ENDBRANCH   1   9
TORSDOF 10
ENDMDL
MODEL 6
REMARK VINA RESULT:    -2.088      4.127      6.329
REMARK INTER + INTRA:          -3.754
REMARK INTER:                  -3.398
REMARK INTRA:                  -0.356
REMARK UNBOUND:                -0.445
REMARK SMILES CCCCCCCCCCCC(=O)[O-]
REMARK SMILES IDX 7 1 8 2 9 3 10 4 11 5 12 6 13 7 14 8 6 9 5 10 4 11 3 12 2 13
REMARK SMILES IDX 1 14
REMARK H PARENT
REMARK Flexibility Score: inf
ROOT
ATOM      1  C   UNL     1      45.388 -27.654   2.801  1.00  0.00     0.000 C 
ENDROOT
BRANCH   1   2
ATOM      2  C   UNL     1      44.959 -26.324   2.148  1.00  0.00     0.000 C 
BRANCH   2   3
ATOM      3  C   UNL     1      46.072 -25.267   2.028  1.00  0.00     0.000 C 
BRANCH   3   4
ATOM      4  C   UNL     1      46.114 -24.600   0.647  1.00  0.00     0.006 C 
BRANCH   4   5
ATOM      5  C   UNL     1      45.963 -25.638  -0.468  1.00  0.00     0.053 C 
BRANCH   5   6
ATOM      6  C   UNL     1      45.945 -24.971  -1.808  1.00  0.00     0.041 C 
ATOM      7  O   UNL     1      46.061 -25.656  -2.858  1.00  0.00    -0.550 OA
ATOM      8  O   UNL     1      45.850 -23.588  -1.894  1.00  0.00    -0.550 OA
ENDBRANCH   5   6
ENDBRANCH   4   5
ENDBRANCH   3   4
ENDBRANCH   2   3
ENDBRANCH   1   2
BRANCH   1   9
ATOM      9  C   UNL     1      45.793 -27.554   4.283  1.00  0.00     0.000 C 
BRANCH   9  10
ATOM     10  C   UNL     1      46.112 -28.920   4.908  1.00  0.00    -0.000 C 
BRANCH  10  11
ATOM     11  C   UNL     1      46.125 -28.834   6.439  1.00  0.00    -0.000 C 
BRANCH  11  12
ATOM     12  C   UNL     1      45.589 -30.126   7.067  1.00  0.00    -0.000 C 
BRANCH  12  13
ATOM     13  C   UNL     1      45.612 -30.044   8.597  1.00  0.00    -0.003 C 
ATOM     14  C   UNL     1      45.947 -28.632   9.068  1.00  0.00     0.004 C 
ENDBRANCH  12  13
ENDBRANCH  11  12
ENDBRANCH  10  11
ENDBRANCH   9  10
ENDBRANCH   1   9
TORSDOF 10
ENDMDL
