MODEL 1
REMARK VINA RESULT:    -5.120      0.000      0.000
REMARK INTER + INTRA:         -11.219
REMARK INTER:                  -9.909
REMARK INTRA:                  -1.311
REMARK UNBOUND:                -1.311
REMARK SMILES CCCCCCCCCCCCCCCCCC(=O)[O-]
REMARK SMILES IDX 10 1 11 2 12 3 13 4 14 5 15 6 16 7 17 8 18 9 19 10 20 11
REMARK SMILES IDX 9 12 8 13 7 14 6 15 5 16 4 17 3 18 2 19 1 20
REMARK H PARENT
REMARK Flexibility Score: inf
ROOT
ATOM      1  C   UNL     1       5.377  56.150  21.641  1.00  0.00     0.000 C 
ENDROOT
BRANCH   1   2
ATOM      2  C   UNL     1       5.249  57.489  20.894  1.00  0.00     0.000 C 
BRANCH   2   3
ATOM      3  C   UNL     1       3.845  58.123  20.999  1.00  0.00     0.000 C 
BRANCH   3   4
ATOM      4  C   UNL     1       3.782  59.505  20.326  1.00  0.00     0.000 C 
BRANCH   4   5
ATOM      5  C   UNL     1       3.082  60.558  21.199  1.00  0.00     0.000 C 
BRANCH   5   6
ATOM      6  C   UNL     1       2.408  59.947  22.437  1.00  0.00     0.000 C 
BRANCH   6   7
ATOM      7  C   UNL     1       0.923  60.340  22.503  1.00  0.00     0.006 C 
BRANCH   7   8
ATOM      8  C   UNL     1       0.267  60.366  21.117  1.00  0.00     0.053 C 
BRANCH   8   9
ATOM      9  C   UNL     1      -0.905  61.299  21.073  1.00  0.00     0.041 C 
ATOM     10  O   UNL     1      -1.486  61.535  19.981  1.00  0.00    -0.550 OA
ATOM     11  O   UNL     1      -1.332  61.936  22.231  1.00  0.00    -0.550 OA
ENDBRANCH   8   9
ENDBRANCH   7   8
ENDBRANCH   6   7
ENDBRANCH   5   6
ENDBRANCH   4   5
ENDBRANCH   3   4
ENDBRANCH   2   3
ENDBRANCH   1   2
BRANCH   1  12
ATOM     12  C   UNL     1       6.802  55.581  21.609  1.00  0.00     0.000 C 
BRANCH  12  13
ATOM     13  C   UNL     1       7.628  56.227  20.490  1.00  0.00    -0.000 C 
BRANCH  13  14
ATOM     14  C   UNL     1       8.863  55.377  20.158  1.00  0.00    -0.000 C 
BRANCH  14  15
ATOM     15  C   UNL     1       8.918  54.070  20.966  1.00  0.00    -0.000 C 
BRANCH  15  16
ATOM     16  C   UNL     1      10.346  53.696  21.389  1.00  0.00    -0.000 C 
BRANCH  16  17
ATOM     17  C   UNL     1      10.391  53.284  22.866  1.00  0.00    -0.000 C 
BRANCH  17  18
ATOM     18  C   UNL     1      10.609  54.505  23.772  1.00  0.00    -0.000 C 
BRANCH  18  19
ATOM     19  C   UNL     1       9.447  54.730  24.751  1.00  0.00    -0.003 C 
ATOM     20  C   UNL     1       8.272  53.785  24.500  1.00  0.00     0.004 C 
ENDBRANCH  18  19
ENDBRANCH  17  18
ENDBRANCH  16  17
ENDBRANCH  15  16
ENDBRANCH  14  15
ENDBRANCH  13  14
ENDBRANCH  12  13
ENDBRANCH   1  12
TORSDOF 16
ENDMDL
MODEL 2
REMARK VINA RESULT:    -5.112      7.598     11.758
REMARK INTER + INTRA:         -11.204
REMARK INTER:                  -9.950
REMARK INTRA:                  -1.254
REMARK UNBOUND:                -1.311
REMARK SMILES CCCCCCCCCCCCCCCCCC(=O)[O-]
REMARK SMILES IDX 10 1 11 2 12 3 13 4 14 5 15 6 16 7 17 8 18 9 19 10 20 11
REMARK SMILES IDX 9 12 8 13 7 14 6 15 5 16 4 17 3 18 2 19 1 20
REMARK H PARENT
REMARK Flexibility Score: inf
ROOT
ATOM      1  C   UNL     1      11.007  53.581  22.128  1.00  0.00     0.000 C 
ENDROOT
BRANCH   1   2
ATOM      2  C   UNL     1      10.520  52.143  21.876  1.00  0.00     0.000 C 
BRANCH   2   3
ATOM      3  C   UNL     1      10.602  51.236  23.122  1.00  0.00     0.000 C 
BRANCH   3   4
ATOM      4  C   UNL     1      10.662  49.744  22.750  1.00  0.00     0.000 C 
BRANCH   4   5
ATOM      5  C   UNL     1      11.969  49.073  23.200  1.00  0.00     0.000 C 
BRANCH   5   6
ATOM      6  C   UNL     1      11.893  47.540  23.157  1.00  0.00     0.000 C 
BRANCH   6   7
ATOM      7  C   UNL     1      10.463  47.052  23.439  1.00  0.00     0.006 C 
BRANCH   7   8
ATOM      8  C   UNL     1      10.437  45.839  24.377  1.00  0.00     0.053 C 
BRANCH   8   9
ATOM      9  C   UNL     1       9.045  45.329  24.592  1.00  0.00     0.041 C 
ATOM     10  O   UNL     1       8.745  44.735  25.661  1.00  0.00    -0.550 OA
ATOM     11  O   UNL     1       8.088  45.477  23.596  1.00  0.00    -0.550 OA
ENDBRANCH   8   9
ENDBRANCH   7   8
ENDBRANCH   6   7
ENDBRANCH   5   6
ENDBRANCH   4   5
ENDBRANCH   3   4
ENDBRANCH   2   3
ENDBRANCH   1   2
BRANCH   1  12
ATOM     12  C   UNL     1      10.887  54.005  23.597  1.00  0.00     0.000 C 
BRANCH  12  13
ATOM     13  C   UNL     1       9.767  55.036  23.784  1.00  0.00    -0.000 C 
BRANCH  13  14
ATOM     14  C   UNL     1       8.512  54.382  24.381  1.00  0.00    -0.000 C 
BRANCH  14  15
ATOM     15  C   UNL     1       7.584  53.790  23.308  1.00  0.00    -0.000 C 
BRANCH  15  16
ATOM     16  C   UNL     1       7.238  54.800  22.203  1.00  0.00    -0.000 C 
BRANCH  16  17
ATOM     17  C   UNL     1       7.787  54.340  20.847  1.00  0.00    -0.000 C 
BRANCH  17  18
ATOM     18  C   UNL     1       7.048  55.032  19.691  1.00  0.00    -0.000 C 
BRANCH  18  19
ATOM     19  C   UNL     1       7.177  54.267  18.366  1.00  0.00    -0.003 C 
ATOM     20  C   UNL     1       7.120  55.185  17.145  1.00  0.00     0.004 C 
ENDBRANCH  18  19
ENDBRANCH  17  18
ENDBRANCH  16  17
ENDBRANCH  15  16
ENDBRANCH  14  15
ENDBRANCH  13  14
ENDBRANCH  12  13
ENDBRANCH   1  12
TORSDOF 16
ENDMDL
MODEL 3
REMARK VINA RESULT:    -5.085      2.440      2.946
REMARK INTER + INTRA:         -11.151
REMARK INTER:                  -9.998
REMARK INTRA:                  -1.153
REMARK UNBOUND:                -1.311
REMARK SMILES CCCCCCCCCCCCCCCCCC(=O)[O-]
REMARK SMILES IDX 10 1 11 2 12 3 13 4 14 5 15 6 16 7 17 8 18 9 19 10 20 11
REMARK SMILES IDX 9 12 8 13 7 14 6 15 5 16 4 17 3 18 2 19 1 20
REMARK H PARENT
REMARK Flexibility Score: inf
ROOT
ATOM      1  C   UNL     1       5.335  56.443  21.781  1.00  0.00     0.000 C 
ENDROOT
BRANCH   1   2
ATOM      2  C   UNL     1       5.108  57.688  20.906  1.00  0.00     0.000 C 
BRANCH   2   3
ATOM      3  C   UNL     1       3.633  58.138  20.842  1.00  0.00     0.000 C 
BRANCH   3   4
ATOM      4  C   UNL     1       3.379  59.411  21.669  1.00  0.00     0.000 C 
BRANCH   4   5
ATOM      5  C   UNL     1       3.034  60.626  20.795  1.00  0.00     0.000 C 
BRANCH   5   6
ATOM      6  C   UNL     1       1.968  60.312  19.736  1.00  0.00     0.000 C 
BRANCH   6   7
ATOM      7  C   UNL     1       2.580  60.308  18.326  1.00  0.00     0.006 C 
BRANCH   7   8
ATOM      8  C   UNL     1       1.559  59.911  17.251  1.00  0.00     0.053 C 
BRANCH   8   9
ATOM      9  C   UNL     1       1.804  60.629  15.959  1.00  0.00     0.041 C 
ATOM     10  O   UNL     1       2.732  60.257  15.193  1.00  0.00    -0.550 OA
ATOM     11  O   UNL     1       1.031  61.731  15.617  1.00  0.00    -0.550 OA
ENDBRANCH   8   9
ENDBRANCH   7   8
ENDBRANCH   6   7
ENDBRANCH   5   6
ENDBRANCH   4   5
ENDBRANCH   3   4
ENDBRANCH   2   3
ENDBRANCH   1   2
BRANCH   1  12
ATOM     12  C   UNL     1       6.502  55.575  21.296  1.00  0.00     0.000 C 
BRANCH  12  13
ATOM     13  C   UNL     1       7.413  56.359  20.342  1.00  0.00    -0.000 C 
BRANCH  13  14
ATOM     14  C   UNL     1       8.736  55.615  20.111  1.00  0.00    -0.000 C 
BRANCH  14  15
ATOM     15  C   UNL     1       8.828  54.306  20.911  1.00  0.00    -0.000 C 
BRANCH  15  16
ATOM     16  C   UNL     1      10.271  53.948  21.297  1.00  0.00    -0.000 C 
BRANCH  16  17
ATOM     17  C   UNL     1      10.366  53.574  22.782  1.00  0.00    -0.000 C 
BRANCH  17  18
ATOM     18  C   UNL     1      10.280  54.823  23.671  1.00  0.00    -0.000 C 
BRANCH  18  19
ATOM     19  C   UNL     1       9.208  54.697  24.764  1.00  0.00    -0.003 C 
ATOM     20  C   UNL     1       8.084  53.735  24.382  1.00  0.00     0.004 C 
ENDBRANCH  18  19
ENDBRANCH  17  18
ENDBRANCH  16  17
ENDBRANCH  15  16
ENDBRANCH  14  15
ENDBRANCH  13  14
ENDBRANCH  12  13
ENDBRANCH   1  12
TORSDOF 16
ENDMDL
MODEL 4
REMARK VINA RESULT:    -5.083      1.823      2.468
REMARK INTER + INTRA:         -11.148
REMARK INTER:                  -9.996
REMARK INTRA:                  -1.152
REMARK UNBOUND:                -1.311
REMARK SMILES CCCCCCCCCCCCCCCCCC(=O)[O-]
REMARK SMILES IDX 10 1 11 2 12 3 13 4 14 5 15 6 16 7 17 8 18 9 19 10 20 11
REMARK SMILES IDX 9 12 8 13 7 14 6 15 5 16 4 17 3 18 2 19 1 20
REMARK H PARENT
REMARK Flexibility Score: inf
ROOT
ATOM      1  C   UNL     1       5.261  57.364  20.600  1.00  0.00     0.000 C 
ENDROOT
BRANCH   1   2
ATOM      2  C   UNL     1       4.116  58.184  21.219  1.00  0.00     0.000 C 
BRANCH   2   3
ATOM      3  C   UNL     1       3.660  59.369  20.341  1.00  0.00     0.000 C 
BRANCH   3   4
ATOM      4  C   UNL     1       2.646  60.271  21.067  1.00  0.00     0.000 C 
BRANCH   4   5
ATOM      5  C   UNL     1       2.338  59.789  22.493  1.00  0.00     0.000 C 
BRANCH   5   6
ATOM      6  C   UNL     1       1.039  60.387  23.053  1.00  0.00     0.000 C 
BRANCH   6   7
ATOM      7  C   UNL     1      -0.191  59.716  22.421  1.00  0.00     0.006 C 
BRANCH   7   8
ATOM      8  C   UNL     1      -0.597  58.434  23.158  1.00  0.00     0.053 C 
BRANCH   8   9
ATOM      9  C   UNL     1      -0.565  58.612  24.646  1.00  0.00     0.041 C 
ATOM     10  O   UNL     1      -1.412  59.351  25.213  1.00  0.00    -0.550 OA
ATOM     11  O   UNL     1       0.423  57.993  25.400  1.00  0.00    -0.550 OA
ENDBRANCH   8   9
ENDBRANCH   7   8
ENDBRANCH   6   7
ENDBRANCH   5   6
ENDBRANCH   4   5
ENDBRANCH   3   4
ENDBRANCH   2   3
ENDBRANCH   1   2
BRANCH   1  12
ATOM     12  C   UNL     1       5.928  56.415  21.603  1.00  0.00     0.000 C 
BRANCH  12  13
ATOM     13  C   UNL     1       7.457  56.516  21.526  1.00  0.00    -0.000 C 
BRANCH  13  14
ATOM     14  C   UNL     1       7.960  56.173  20.117  1.00  0.00    -0.000 C 
BRANCH  14  15
ATOM     15  C   UNL     1       8.406  54.708  19.987  1.00  0.00    -0.000 C 
BRANCH  15  16
ATOM     16  C   UNL     1       8.714  54.061  21.346  1.00  0.00    -0.000 C 
BRANCH  16  17
ATOM     17  C   UNL     1      10.192  53.661  21.442  1.00  0.00    -0.000 C 
BRANCH  17  18
ATOM     18  C   UNL     1      10.691  53.748  22.892  1.00  0.00    -0.000 C 
BRANCH  18  19
ATOM     19  C   UNL     1      10.200  55.013  23.611  1.00  0.00    -0.003 C 
ATOM     20  C   UNL     1       9.458  54.705  24.911  1.00  0.00     0.004 C 
ENDBRANCH  18  19
ENDBRANCH  17  18
ENDBRANCH  16  17
ENDBRANCH  15  16
ENDBRANCH  14  15
ENDBRANCH  13  14
ENDBRANCH  12  13
ENDBRANCH   1  12
TORSDOF 16
ENDMDL
MODEL 5
REMARK VINA RESULT:    -5.029      2.411      3.810
REMARK INTER + INTRA:         -11.044
REMARK INTER:                  -9.636
REMARK INTRA:                  -1.408
REMARK UNBOUND:                -1.311
REMARK SMILES CCCCCCCCCCCCCCCCCC(=O)[O-]
REMARK SMILES IDX 10 1 11 2 12 3 13 4 14 5 15 6 16 7 17 8 18 9 19 10 20 11
REMARK SMILES IDX 9 12 8 13 7 14 6 15 5 16 4 17 3 18 2 19 1 20
REMARK H PARENT
REMARK Flexibility Score: inf
ROOT
ATOM      1  C   UNL     1       3.223  58.545  20.918  1.00  0.00     0.000 C 
ENDROOT
BRANCH   1   2
ATOM      2  C   UNL     1       3.126  59.540  22.087  1.00  0.00     0.000 C 
BRANCH   2   3
ATOM      3  C   UNL     1       1.703  59.675  22.668  1.00  0.00     0.000 C 
BRANCH   3   4
ATOM      4  C   UNL     1       0.621  59.585  21.577  1.00  0.00     0.000 C 
BRANCH   4   5
ATOM      5  C   UNL     1       0.388  60.924  20.861  1.00  0.00     0.000 C 
BRANCH   5   6
ATOM      6  C   UNL     1       0.310  60.774  19.334  1.00  0.00     0.000 C 
BRANCH   6   7
ATOM      7  C   UNL     1       1.657  61.120  18.679  1.00  0.00     0.006 C 
BRANCH   7   8
ATOM      8  C   UNL     1       2.174  59.988  17.781  1.00  0.00     0.053 C 
BRANCH   8   9
ATOM      9  C   UNL     1       1.918  60.266  16.332  1.00  0.00     0.041 C 
ATOM     10  O   UNL     1       0.764  60.109  15.850  1.00  0.00    -0.550 OA
ATOM     11  O   UNL     1       2.961  60.661  15.503  1.00  0.00    -0.550 OA
ENDBRANCH   8   9
ENDBRANCH   7   8
ENDBRANCH   6   7
ENDBRANCH   5   6
ENDBRANCH   4   5
ENDBRANCH   3   4
ENDBRANCH   2   3
ENDBRANCH   1   2
BRANCH   1  12
ATOM     12  C   UNL     1       4.665  58.123  20.609  1.00  0.00     0.000 C 
BRANCH  12  13
ATOM     13  C   UNL     1       5.046  56.855  21.383  1.00  0.00    -0.000 C 
BRANCH  13  14
ATOM     14  C   UNL     1       6.572  56.697  21.461  1.00  0.00    -0.000 C 
BRANCH  14  15
ATOM     15  C   UNL     1       7.231  56.621  20.074  1.00  0.00    -0.000 C 
BRANCH  15  16
ATOM     16  C   UNL     1       8.440  55.675  20.045  1.00  0.00    -0.000 C 
BRANCH  16  17
ATOM     17  C   UNL     1       8.375  54.663  21.197  1.00  0.00    -0.000 C 
BRANCH  17  18
ATOM     18  C   UNL     1       9.718  53.939  21.369  1.00  0.00    -0.000 C 
BRANCH  18  19
ATOM     19  C   UNL     1      10.323  54.141  22.767  1.00  0.00    -0.003 C 
ATOM     20  C   UNL     1       9.683  55.303  23.526  1.00  0.00     0.004 C 
ENDBRANCH  18  19
ENDBRANCH  17  18
ENDBRANCH  16  17
ENDBRANCH  15  16
ENDBRANCH  14  15
ENDBRANCH  13  14
ENDBRANCH  12  13
ENDBRANCH   1  12
TORSDOF 16
ENDMDL
MODEL 6
REMARK VINA RESULT:    -5.018      3.027      4.778
REMARK INTER + INTRA:         -11.022
REMARK INTER:                  -9.680
REMARK INTRA:                  -1.343
REMARK UNBOUND:                -1.311
REMARK SMILES CCCCCCCCCCCCCCCCCC(=O)[O-]
REMARK SMILES IDX 10 1 11 2 12 3 13 4 14 5 15 6 16 7 17 8 18 9 19 10 20 11
REMARK SMILES IDX 9 12 8 13 7 14 6 15 5 16 4 17 3 18 2 19 1 20
REMARK H PARENT
REMARK Flexibility Score: inf
ROOT
ATOM      1  C   UNL     1       3.004  58.686  20.878  1.00  0.00     0.000 C 
ENDROOT
BRANCH   1   2
ATOM      2  C   UNL     1       2.999  59.630  22.093  1.00  0.00     0.000 C 
BRANCH   2   3
ATOM      3  C   UNL     1       1.638  60.315  22.338  1.00  0.00     0.000 C 
BRANCH   3   4
ATOM      4  C   UNL     1       0.593  59.923  21.278  1.00  0.00     0.000 C 
BRANCH   4   5
ATOM      5  C   UNL     1      -0.014  61.141  20.566  1.00  0.00     0.000 C 
BRANCH   5   6
ATOM      6  C   UNL     1      -0.020  60.992  19.037  1.00  0.00     0.000 C 
BRANCH   6   7
ATOM      7  C   UNL     1       1.390  61.190  18.460  1.00  0.00     0.006 C 
BRANCH   7   8
ATOM      8  C   UNL     1       1.923  59.921  17.782  1.00  0.00     0.053 C 
BRANCH   8   9
ATOM      9  C   UNL     1       1.719  59.954  16.298  1.00  0.00     0.041 C 
ATOM     10  O   UNL     1       2.291  60.832  15.599  1.00  0.00    -0.550 OA
ATOM     11  O   UNL     1       0.869  59.039  15.692  1.00  0.00    -0.550 OA
ENDBRANCH   8   9
ENDBRANCH   7   8
ENDBRANCH   6   7
ENDBRANCH   5   6
ENDBRANCH   4   5
ENDBRANCH   3   4
ENDBRANCH   2   3
ENDBRANCH   1   2
BRANCH   1  12
ATOM     12  C   UNL     1       4.402  58.149  20.543  1.00  0.00     0.000 C 
BRANCH  12  13
ATOM     13  C   UNL     1       4.976  57.339  21.712  1.00  0.00    -0.000 C 
BRANCH  13  14
ATOM     14  C   UNL     1       5.900  56.222  21.205  1.00  0.00    -0.000 C 
BRANCH  14  15
ATOM     15  C   UNL     1       7.383  56.627  21.223  1.00  0.00    -0.000 C 
BRANCH  15  16
ATOM     16  C   UNL     1       8.240  55.777  20.274  1.00  0.00    -0.000 C 
BRANCH  16  17
ATOM     17  C   UNL     1       7.666  54.361  20.134  1.00  0.00    -0.000 C 
BRANCH  17  18
ATOM     18  C   UNL     1       7.231  54.084  18.687  1.00  0.00    -0.000 C 
BRANCH  18  19
ATOM     19  C   UNL     1       7.589  55.233  17.733  1.00  0.00    -0.003 C 
ATOM     20  C   UNL     1       6.771  55.207  16.443  1.00  0.00     0.004 C 
ENDBRANCH  18  19
ENDBRANCH  17  18
ENDBRANCH  16  17
ENDBRANCH  15  16
ENDBRANCH  14  15
ENDBRANCH  13  14
ENDBRANCH  12  13
ENDBRANCH   1  12
TORSDOF 16
ENDMDL
MODEL 7
REMARK VINA RESULT:    -4.972      7.938     12.824
REMARK INTER + INTRA:         -10.932
REMARK INTER:                  -9.967
REMARK INTRA:                  -0.965
REMARK UNBOUND:                -1.311
REMARK SMILES CCCCCCCCCCCCCCCCCC(=O)[O-]
REMARK SMILES IDX 10 1 11 2 12 3 13 4 14 5 15 6 16 7 17 8 18 9 19 10 20 11
REMARK SMILES IDX 9 12 8 13 7 14 6 15 5 16 4 17 3 18 2 19 1 20
REMARK H PARENT
REMARK Flexibility Score: inf
ROOT
ATOM      1  C   UNL     1      10.247  51.212  22.443  1.00  0.00     0.000 C 
ENDROOT
BRANCH   1   2
ATOM      2  C   UNL     1      11.247  50.097  22.793  1.00  0.00     0.000 C 
BRANCH   2   3
ATOM      3  C   UNL     1      10.577  48.805  23.309  1.00  0.00     0.000 C 
BRANCH   3   4
ATOM      4  C   UNL     1      11.609  47.727  23.683  1.00  0.00     0.000 C 
BRANCH   4   5
ATOM      5  C   UNL     1      12.331  48.031  25.004  1.00  0.00     0.000 C 
BRANCH   5   6
ATOM      6  C   UNL     1      12.432  46.802  25.921  1.00  0.00     0.000 C 
BRANCH   6   7
ATOM      7  C   UNL     1      13.376  47.075  27.103  1.00  0.00     0.006 C 
BRANCH   7   8
ATOM      8  C   UNL     1      13.172  48.473  27.699  1.00  0.00     0.053 C 
BRANCH   8   9
ATOM      9  C   UNL     1      14.451  49.251  27.745  1.00  0.00     0.041 C 
ATOM     10  O   UNL     1      15.513  48.752  27.287  1.00  0.00    -0.550 OA
ATOM     11  O   UNL     1      14.479  50.512  28.327  1.00  0.00    -0.550 OA
ENDBRANCH   8   9
ENDBRANCH   7   8
ENDBRANCH   6   7
ENDBRANCH   5   6
ENDBRANCH   4   5
ENDBRANCH   3   4
ENDBRANCH   2   3
ENDBRANCH   1   2
BRANCH   1  12
ATOM     12  C   UNL     1      10.900  52.598  22.363  1.00  0.00     0.000 C 
BRANCH  12  13
ATOM     13  C   UNL     1      10.076  53.546  21.483  1.00  0.00    -0.000 C 
BRANCH  13  14
ATOM     14  C   UNL     1       9.438  54.660  22.324  1.00  0.00    -0.000 C 
BRANCH  14  15
ATOM     15  C   UNL     1       7.945  54.416  22.598  1.00  0.00    -0.000 C 
BRANCH  15  16
ATOM     16  C   UNL     1       7.032  55.255  21.691  1.00  0.00    -0.000 C 
BRANCH  16  17
ATOM     17  C   UNL     1       7.826  56.363  20.986  1.00  0.00    -0.000 C 
BRANCH  17  18
ATOM     18  C   UNL     1       7.651  56.280  19.462  1.00  0.00    -0.000 C 
BRANCH  18  19
ATOM     19  C   UNL     1       7.305  54.863  18.984  1.00  0.00    -0.003 C 
ATOM     20  C   UNL     1       7.261  54.747  17.461  1.00  0.00     0.004 C 
ENDBRANCH  18  19
ENDBRANCH  17  18
ENDBRANCH  16  17
ENDBRANCH  15  16
ENDBRANCH  14  15
ENDBRANCH  13  14
ENDBRANCH  12  13
ENDBRANCH   1  12
TORSDOF 16
ENDMDL
MODEL 8
REMARK VINA RESULT:    -4.963      5.677      8.136
REMARK INTER + INTRA:         -10.916
REMARK INTER:                  -9.753
REMARK INTRA:                  -1.163
REMARK UNBOUND:                -1.311
REMARK SMILES CCCCCCCCCCCCCCCCCC(=O)[O-]
REMARK SMILES IDX 10 1 11 2 12 3 13 4 14 5 15 6 16 7 17 8 18 9 19 10 20 11
REMARK SMILES IDX 9 12 8 13 7 14 6 15 5 16 4 17 3 18 2 19 1 20
REMARK H PARENT
REMARK Flexibility Score: inf
ROOT
ATOM      1  C   UNL     1      10.989  53.832  22.164  1.00  0.00     0.000 C 
ENDROOT
BRANCH   1   2
ATOM      2  C   UNL     1      10.791  54.124  23.662  1.00  0.00     0.000 C 
BRANCH   2   3
ATOM      3  C   UNL     1       9.496  54.903  23.974  1.00  0.00     0.000 C 
BRANCH   3   4
ATOM      4  C   UNL     1       8.257  53.990  23.978  1.00  0.00     0.000 C 
BRANCH   4   5
ATOM      5  C   UNL     1       7.232  54.377  22.902  1.00  0.00     0.000 C 
BRANCH   5   6
ATOM      6  C   UNL     1       7.771  55.428  21.921  1.00  0.00     0.000 C 
BRANCH   6   7
ATOM      7  C   UNL     1       7.032  55.354  20.575  1.00  0.00     0.006 C 
BRANCH   7   8
ATOM      8  C   UNL     1       7.943  55.701  19.392  1.00  0.00     0.053 C 
BRANCH   8   9
ATOM      9  C   UNL     1       7.441  55.112  18.109  1.00  0.00     0.041 C 
ATOM     10  O   UNL     1       7.170  55.858  17.132  1.00  0.00    -0.550 OA
ATOM     11  O   UNL     1       7.235  53.742  18.006  1.00  0.00    -0.550 OA
ENDBRANCH   8   9
ENDBRANCH   7   8
ENDBRANCH   6   7
ENDBRANCH   5   6
ENDBRANCH   4   5
ENDBRANCH   3   4
ENDBRANCH   2   3
ENDBRANCH   1   2
BRANCH   1  12
ATOM     12  C   UNL     1      10.496  52.438  21.757  1.00  0.00     0.000 C 
BRANCH  12  13
ATOM     13  C   UNL     1      10.551  51.465  22.941  1.00  0.00    -0.000 C 
BRANCH  13  14
ATOM     14  C   UNL     1      10.929  50.052  22.474  1.00  0.00    -0.000 C 
BRANCH  14  15
ATOM     15  C   UNL     1      10.992  49.042  23.631  1.00  0.00    -0.000 C 
BRANCH  15  16
ATOM     16  C   UNL     1      12.000  47.912  23.375  1.00  0.00    -0.000 C 
BRANCH  16  17
ATOM     17  C   UNL     1      11.325  46.538  23.488  1.00  0.00    -0.000 C 
BRANCH  17  18
ATOM     18  C   UNL     1      10.219  46.554  24.553  1.00  0.00    -0.000 C 
BRANCH  18  19
ATOM     19  C   UNL     1       9.658  45.154  24.843  1.00  0.00    -0.003 C 
ATOM     20  C   UNL     1       9.983  44.147  23.741  1.00  0.00     0.004 C 
ENDBRANCH  18  19
ENDBRANCH  17  18
ENDBRANCH  16  17
ENDBRANCH  15  16
ENDBRANCH  14  15
ENDBRANCH  13  14
ENDBRANCH  12  13
ENDBRANCH   1  12
TORSDOF 16
ENDMDL
MODEL 9
REMARK VINA RESULT:    -4.918      7.424     12.201
REMARK INTER + INTRA:         -10.829
REMARK INTER:                  -9.820
REMARK INTRA:                  -1.009
REMARK UNBOUND:                -1.311
REMARK SMILES CCCCCCCCCCCCCCCCCC(=O)[O-]
REMARK SMILES IDX 10 1 11 2 12 3 13 4 14 5 15 6 16 7 17 8 18 9 19 10 20 11
REMARK SMILES IDX 9 12 8 13 7 14 6 15 5 16 4 17 3 18 2 19 1 20
REMARK H PARENT
REMARK Flexibility Score: inf
ROOT
ATOM      1  C   UNL     1      10.628  51.191  23.113  1.00  0.00     0.000 C 
ENDROOT
BRANCH   1   2
ATOM      2  C   UNL     1      10.752  49.699  22.760  1.00  0.00     0.000 C 
BRANCH   2   3
ATOM      3  C   UNL     1      12.104  49.077  23.170  1.00  0.00     0.000 C 
BRANCH   3   4
ATOM      4  C   UNL     1      12.068  47.539  23.137  1.00  0.00     0.000 C 
BRANCH   4   5
ATOM      5  C   UNL     1      12.232  46.913  24.530  1.00  0.00     0.000 C 
BRANCH   5   6
ATOM      6  C   UNL     1      11.133  45.890  24.853  1.00  0.00     0.000 C 
BRANCH   6   7
ATOM      7  C   UNL     1      10.467  45.374  23.568  1.00  0.00     0.006 C 
BRANCH   7   8
ATOM      8  C   UNL     1       9.192  44.572  23.855  1.00  0.00     0.053 C 
BRANCH   8   9
ATOM      9  C   UNL     1       8.041  45.463  24.210  1.00  0.00     0.041 C 
ATOM     10  O   UNL     1       7.938  46.604  23.686  1.00  0.00    -0.550 OA
ATOM     11  O   UNL     1       7.103  45.050  25.148  1.00  0.00    -0.550 OA
ENDBRANCH   8   9
ENDBRANCH   7   8
ENDBRANCH   6   7
ENDBRANCH   5   6
ENDBRANCH   4   5
ENDBRANCH   3   4
ENDBRANCH   2   3
ENDBRANCH   1   2
BRANCH   1  12
ATOM     12  C   UNL     1      10.267  52.064  21.904  1.00  0.00     0.000 C 
BRANCH  12  13
ATOM     13  C   UNL     1      10.880  53.464  22.032  1.00  0.00    -0.000 C 
BRANCH  13  14
ATOM     14  C   UNL     1       9.820  54.551  21.801  1.00  0.00    -0.000 C 
BRANCH  14  15
ATOM     15  C   UNL     1       8.394  54.061  22.102  1.00  0.00    -0.000 C 
BRANCH  15  16
ATOM     16  C   UNL     1       7.322  54.867  21.352  1.00  0.00    -0.000 C 
BRANCH  16  17
ATOM     17  C   UNL     1       7.882  56.210  20.868  1.00  0.00    -0.000 C 
BRANCH  17  18
ATOM     18  C   UNL     1       7.725  56.355  19.347  1.00  0.00    -0.000 C 
BRANCH  18  19
ATOM     19  C   UNL     1       7.444  55.015  18.652  1.00  0.00    -0.003 C 
ATOM     20  C   UNL     1       7.176  55.169  17.156  1.00  0.00     0.004 C 
ENDBRANCH  18  19
ENDBRANCH  17  18
ENDBRANCH  16  17
ENDBRANCH  15  16
ENDBRANCH  14  15
ENDBRANCH  13  14
ENDBRANCH  12  13
ENDBRANCH   1  12
TORSDOF 16
ENDMDL
