MODEL 1
REMARK VINA RESULT:    -5.506      0.000      0.000
REMARK INTER + INTRA:          -8.608
REMARK INTER:                  -7.437
REMARK INTRA:                  -1.172
REMARK UNBOUND:                -1.172
REMARK SMILES O=c1c(-c2ccc(O)cc2)coc2c([C@H]3O[C@@H](CO)[C@H](O)[C@H](O)[C@H]3O)c(O)ccc12
REMARK SMILES IDX 3 1 11 2 12 3 13 4 30 5 2 6 1 7 29 8 28 9 26 10 14 11 4 12
REMARK SMILES IDX 5 13 6 14 7 15 10 16 9 17 8 18 15 20 24 21 16 22 22 23 17 24
REMARK SMILES IDX 20 25 25 26 23 28 18 30 19 31 21 33 27 35
REMARK H PARENT 8 19 25 27 23 29 19 32 21 34 27 36
REMARK Flexibility Score: inf
ROOT
ATOM      1  C   UNL     1      18.759   1.432 -22.803  1.00  0.00     0.065 A 
ATOM      2  C   UNL     1      19.973   1.606 -21.795  1.00  0.00     0.208 A 
ATOM      3  O   UNL     1      20.312   2.877 -21.492  1.00  0.00    -0.463 OA
ATOM      4  C   UNL     1      19.670   3.903 -22.166  1.00  0.00     0.147 A 
ATOM      5  C   UNL     1      19.312   3.803 -23.646  1.00  0.00     0.066 A 
ATOM      6  C   UNL     1      18.674   2.509 -24.017  1.00  0.00     0.200 A 
ATOM      7  O   UNL     1      17.890   2.305 -24.989  1.00  0.00    -0.288 OA
ATOM      8  C   UNL     1      18.600   4.860 -24.295  1.00  0.00     0.020 A 
ATOM      9  C   UNL     1      17.451   5.252 -23.519  1.00  0.00     0.047 A 
ATOM     10  C   UNL     1      17.604   5.228 -22.052  1.00  0.00     0.125 A 
ATOM     11  C   UNL     1      18.825   4.740 -21.330  1.00  0.00     0.069 A 
ENDROOT
BRANCH   1  12
ATOM     12  C   UNL     1      17.321   1.019 -22.049  1.00  0.00    -0.011 A 
ATOM     13  C   UNL     1      17.240   1.711 -20.824  1.00  0.00     0.013 A 
ATOM     14  C   UNL     1      16.029   1.840 -20.130  1.00  0.00     0.047 A 
ATOM     15  C   UNL     1      14.905   1.102 -20.604  1.00  0.00     0.115 A 
ATOM     16  C   UNL     1      16.163   0.478 -22.649  1.00  0.00     0.013 A 
ATOM     17  C   UNL     1      15.002   0.453 -21.842  1.00  0.00     0.047 A 
BRANCH  15  18
ATOM     18  O   UNL     1      13.766   1.001 -19.816  1.00  0.00    -0.508 OA
ATOM     19  H   UNL     1      13.435   0.062 -19.514  1.00  0.00     0.293 HD
ENDBRANCH  15  18
ENDBRANCH   1  12
BRANCH  11  20
ATOM     20  C   UNL     1      19.609   5.081 -19.981  1.00  0.00     0.188 C 
ATOM     21  C   UNL     1      18.931   5.543 -18.583  1.00  0.00     0.179 C 
ATOM     22  O   UNL     1      20.730   5.958 -20.288  1.00  0.00    -0.362 OA
ATOM     23  C   UNL     1      18.478   7.012 -19.075  1.00  0.00     0.177 C 
ATOM     24  C   UNL     1      20.405   7.247 -20.761  1.00  0.00     0.176 C 
ATOM     25  C   UNL     1      19.475   8.036 -19.749  1.00  0.00     0.177 C 
BRANCH  21  26
ATOM     26  O   UNL     1      17.757   4.808 -18.442  1.00  0.00    -0.387 OA
ATOM     27  H   UNL     1      18.073   3.903 -18.072  1.00  0.00     0.211 HD
ENDBRANCH  21  26
BRANCH  23  28
ATOM     28  O   UNL     1      17.755   7.712 -18.087  1.00  0.00    -0.387 OA
ATOM     29  H   UNL     1      18.339   7.846 -17.264  1.00  0.00     0.211 HD
ENDBRANCH  23  28
BRANCH  24  30
ATOM     30  C   UNL     1      20.065   7.323 -22.271  1.00  0.00     0.191 C 
BRANCH  30  31
ATOM     31  O   UNL     1      21.202   6.959 -23.037  1.00  0.00    -0.394 OA
ATOM     32  H   UNL     1      22.028   7.092 -22.464  1.00  0.00     0.210 HD
ENDBRANCH  30  31
ENDBRANCH  24  30
BRANCH  25  33
ATOM     33  O   UNL     1      20.185   8.687 -18.690  1.00  0.00    -0.388 OA
ATOM     34  H   UNL     1      21.052   8.246 -18.469  1.00  0.00     0.211 HD
ENDBRANCH  25  33
ENDBRANCH  11  20
BRANCH  10  35
ATOM     35  O   UNL     1      16.448   5.610 -21.338  1.00  0.00    -0.507 OA
ATOM     36  H   UNL     1      15.606   5.055 -21.410  1.00  0.00     0.293 HD
ENDBRANCH  10  35
TORSDOF 9
ENDMDL
MODEL 2
REMARK VINA RESULT:    -5.333      2.172      4.007
REMARK INTER + INTRA:          -8.375
REMARK INTER:                  -7.293
REMARK INTRA:                  -1.082
REMARK UNBOUND:                -1.172
REMARK SMILES O=c1c(-c2ccc(O)cc2)coc2c([C@H]3O[C@@H](CO)[C@H](O)[C@H](O)[C@H]3O)c(O)ccc12
REMARK SMILES IDX 3 1 11 2 12 3 13 4 30 5 2 6 1 7 29 8 28 9 26 10 14 11 4 12
REMARK SMILES IDX 5 13 6 14 7 15 10 16 9 17 8 18 15 20 24 21 16 22 22 23 17 24
REMARK SMILES IDX 20 25 25 26 23 28 18 30 19 31 21 33 27 35
REMARK H PARENT 8 19 25 27 23 29 19 32 21 34 27 36
REMARK Flexibility Score: inf
ROOT
ATOM      1  C   UNL     1      16.361   0.675 -22.782  1.00  0.00     0.065 A 
ATOM      2  C   UNL     1      15.532   0.756 -21.431  1.00  0.00     0.208 A 
ATOM      3  O   UNL     1      16.151   1.355 -20.392  1.00  0.00    -0.463 OA
ATOM      4  C   UNL     1      17.476   1.729 -20.548  1.00  0.00     0.147 A 
ATOM      5  C   UNL     1      18.475   0.875 -21.322  1.00  0.00     0.066 A 
ATOM      6  C   UNL     1      17.954   0.388 -22.630  1.00  0.00     0.200 A 
ATOM      7  O   UNL     1      18.639   0.075 -23.646  1.00  0.00    -0.288 OA
ATOM      8  C   UNL     1      19.821   1.321 -21.510  1.00  0.00     0.020 A 
ATOM      9  C   UNL     1      19.845   2.683 -21.978  1.00  0.00     0.047 A 
ATOM     10  C   UNL     1      18.814   3.588 -21.437  1.00  0.00     0.125 A 
ATOM     11  C   UNL     1      17.705   3.165 -20.520  1.00  0.00     0.069 A 
ENDROOT
BRANCH   1  12
ATOM     12  C   UNL     1      15.897   1.817 -23.917  1.00  0.00    -0.011 A 
ATOM     13  C   UNL     1      14.984   2.706 -23.315  1.00  0.00     0.013 A 
ATOM     14  C   UNL     1      14.678   3.947 -23.890  1.00  0.00     0.047 A 
ATOM     15  C   UNL     1      15.179   4.221 -25.196  1.00  0.00     0.115 A 
ATOM     16  C   UNL     1      16.580   2.177 -25.099  1.00  0.00     0.013 A 
ATOM     17  C   UNL     1      16.112   3.338 -25.756  1.00  0.00     0.047 A 
BRANCH  15  18
ATOM     18  O   UNL     1      14.700   5.318 -25.901  1.00  0.00    -0.508 OA
ATOM     19  H   UNL     1      14.259   6.105 -25.384  1.00  0.00     0.293 HD
ENDBRANCH  15  18
ENDBRANCH   1  12
BRANCH  11  20
ATOM     20  C   UNL     1      16.865   3.799 -19.318  1.00  0.00     0.188 C 
ATOM     21  C   UNL     1      16.569   5.377 -19.100  1.00  0.00     0.179 C 
ATOM     22  O   UNL     1      17.310   3.212 -18.062  1.00  0.00    -0.362 OA
ATOM     23  C   UNL     1      18.075   5.794 -18.697  1.00  0.00     0.177 C 
ATOM     24  C   UNL     1      18.633   3.504 -17.669  1.00  0.00     0.176 C 
ATOM     25  C   UNL     1      18.891   5.064 -17.558  1.00  0.00     0.177 C 
BRANCH  21  26
ATOM     26  O   UNL     1      16.344   5.923 -20.361  1.00  0.00    -0.387 OA
ATOM     27  H   UNL     1      17.270   5.908 -20.807  1.00  0.00     0.211 HD
ENDBRANCH  21  26
BRANCH  23  28
ATOM     28  O   UNL     1      18.214   7.183 -18.497  1.00  0.00    -0.387 OA
ATOM     29  H   UNL     1      18.499   7.628 -19.368  1.00  0.00     0.211 HD
ENDBRANCH  23  28
BRANCH  24  30
ATOM     30  C   UNL     1      19.724   2.633 -18.343  1.00  0.00     0.191 C 
BRANCH  30  31
ATOM     31  O   UNL     1      20.960   3.328 -18.339  1.00  0.00    -0.394 OA
ATOM     32  H   UNL     1      21.569   2.899 -19.027  1.00  0.00     0.210 HD
ENDBRANCH  30  31
ENDBRANCH  24  30
BRANCH  25  33
ATOM     33  O   UNL     1      18.476   5.637 -16.314  1.00  0.00    -0.388 OA
ATOM     34  H   UNL     1      18.126   4.963 -15.667  1.00  0.00     0.211 HD
ENDBRANCH  25  33
ENDBRANCH  11  20
BRANCH  10  35
ATOM     35  O   UNL     1      18.875   4.907 -21.935  1.00  0.00    -0.507 OA
ATOM     36  H   UNL     1      19.769   5.316 -22.170  1.00  0.00     0.293 HD
ENDBRANCH  10  35
TORSDOF 9
ENDMDL
MODEL 3
REMARK VINA RESULT:    -5.287      1.768      4.614
REMARK INTER + INTRA:          -8.313
REMARK INTER:                  -7.162
REMARK INTRA:                  -1.151
REMARK UNBOUND:                -1.172
REMARK SMILES O=c1c(-c2ccc(O)cc2)coc2c([C@H]3O[C@@H](CO)[C@H](O)[C@H](O)[C@H]3O)c(O)ccc12
REMARK SMILES IDX 3 1 11 2 12 3 13 4 30 5 2 6 1 7 29 8 28 9 26 10 14 11 4 12
REMARK SMILES IDX 5 13 6 14 7 15 10 16 9 17 8 18 15 20 24 21 16 22 22 23 17 24
REMARK SMILES IDX 20 25 25 26 23 28 18 30 19 31 21 33 27 35
REMARK H PARENT 8 19 25 27 23 29 19 32 21 34 27 36
REMARK Flexibility Score: inf
ROOT
ATOM      1  C   UNL     1      15.426   2.134 -23.304  1.00  0.00     0.065 A 
ATOM      2  C   UNL     1      15.225   3.703 -23.436  1.00  0.00     0.208 A 
ATOM      3  O   UNL     1      15.763   4.453 -22.451  1.00  0.00    -0.463 OA
ATOM      4  C   UNL     1      16.326   3.802 -21.367  1.00  0.00     0.147 A 
ATOM      5  C   UNL     1      15.716   2.535 -20.775  1.00  0.00     0.066 A 
ATOM      6  C   UNL     1      15.335   1.523 -21.800  1.00  0.00     0.200 A 
ATOM      7  O   UNL     1      15.247   0.273 -21.631  1.00  0.00    -0.288 OA
ATOM      8  C   UNL     1      16.357   1.858 -19.690  1.00  0.00     0.020 A 
ATOM      9  C   UNL     1      17.758   1.669 -19.963  1.00  0.00     0.047 A 
ATOM     10  C   UNL     1      18.443   2.753 -20.691  1.00  0.00     0.125 A 
ATOM     11  C   UNL     1      17.764   3.974 -21.238  1.00  0.00     0.069 A 
ENDROOT
BRANCH   1  12
ATOM     12  C   UNL     1      16.632   1.531 -24.300  1.00  0.00    -0.011 A 
ATOM     13  C   UNL     1      16.470   2.082 -25.587  1.00  0.00     0.013 A 
ATOM     14  C   UNL     1      17.497   2.041 -26.540  1.00  0.00     0.047 A 
ATOM     15  C   UNL     1      18.658   1.270 -26.238  1.00  0.00     0.115 A 
ATOM     16  C   UNL     1      17.865   0.967 -23.908  1.00  0.00     0.013 A 
ATOM     17  C   UNL     1      18.810   0.765 -24.940  1.00  0.00     0.047 A 
BRANCH  15  18
ATOM     18  O   UNL     1      19.581   0.997 -27.239  1.00  0.00    -0.508 OA
ATOM     19  H   UNL     1      20.016   0.053 -27.289  1.00  0.00     0.293 HD
ENDBRANCH  15  18
ENDBRANCH   1  12
BRANCH  11  20
ATOM     20  C   UNL     1      18.124   5.511 -21.481  1.00  0.00     0.188 C 
ATOM     21  C   UNL     1      19.606   6.104 -21.758  1.00  0.00     0.179 C 
ATOM     22  O   UNL     1      17.460   6.323 -20.470  1.00  0.00    -0.362 OA
ATOM     23  C   UNL     1      20.182   5.868 -20.269  1.00  0.00     0.177 C 
ATOM     24  C   UNL     1      17.888   6.138 -19.139  1.00  0.00     0.176 C 
ATOM     25  C   UNL     1      19.444   6.390 -18.973  1.00  0.00     0.177 C 
BRANCH  21  26
ATOM     26  O   UNL     1      20.262   5.184 -22.572  1.00  0.00    -0.387 OA
ATOM     27  H   UNL     1      21.124   5.668 -22.851  1.00  0.00     0.211 HD
ENDBRANCH  21  26
BRANCH  23  28
ATOM     28  O   UNL     1      21.542   6.221 -20.155  1.00  0.00    -0.387 OA
ATOM     29  H   UNL     1      21.763   6.424 -19.182  1.00  0.00     0.211 HD
ENDBRANCH  23  28
BRANCH  24  30
ATOM     30  C   UNL     1      17.268   4.916 -18.416  1.00  0.00     0.191 C 
BRANCH  30  31
ATOM     31  O   UNL     1      17.796   4.818 -17.103  1.00  0.00    -0.394 OA
ATOM     32  H   UNL     1      17.886   3.836 -16.869  1.00  0.00     0.210 HD
ENDBRANCH  30  31
ENDBRANCH  24  30
BRANCH  25  33
ATOM     33  O   UNL     1      19.799   7.767 -18.815  1.00  0.00    -0.388 OA
ATOM     34  H   UNL     1      19.110   8.298 -18.327  1.00  0.00     0.211 HD
ENDBRANCH  25  33
ENDBRANCH  11  20
BRANCH  10  35
ATOM     35  O   UNL     1      19.811   2.514 -20.943  1.00  0.00    -0.507 OA
ATOM     36  H   UNL     1      20.209   1.608 -20.742  1.00  0.00     0.293 HD
ENDBRANCH  10  35
TORSDOF 9
ENDMDL
MODEL 4
REMARK VINA RESULT:    -5.246      2.765      3.938
REMARK INTER + INTRA:          -8.257
REMARK INTER:                  -7.067
REMARK INTRA:                  -1.191
REMARK UNBOUND:                -1.172
REMARK SMILES O=c1c(-c2ccc(O)cc2)coc2c([C@H]3O[C@@H](CO)[C@H](O)[C@H](O)[C@H]3O)c(O)ccc12
REMARK SMILES IDX 3 1 11 2 12 3 13 4 30 5 2 6 1 7 29 8 28 9 26 10 14 11 4 12
REMARK SMILES IDX 5 13 6 14 7 15 10 16 9 17 8 18 15 20 24 21 16 22 22 23 17 24
REMARK SMILES IDX 20 25 25 26 23 28 18 30 19 31 21 33 27 35
REMARK H PARENT 8 19 25 27 23 29 19 32 21 34 27 36
REMARK Flexibility Score: inf
ROOT
ATOM      1  C   UNL     1      17.842   1.344 -18.781  1.00  0.00     0.065 A 
ATOM      2  C   UNL     1      19.385   1.530 -19.107  1.00  0.00     0.208 A 
ATOM      3  O   UNL     1      19.706   2.609 -19.853  1.00  0.00    -0.463 OA
ATOM      4  C   UNL     1      18.675   3.379 -20.365  1.00  0.00     0.147 A 
ATOM      5  C   UNL     1      17.380   2.761 -20.883  1.00  0.00     0.066 A 
ATOM      6  C   UNL     1      16.805   1.732 -19.971  1.00  0.00     0.200 A 
ATOM      7  O   UNL     1      15.590   1.395 -19.883  1.00  0.00    -0.288 OA
ATOM      8  C   UNL     1      16.315   3.592 -21.353  1.00  0.00     0.020 A 
ATOM      9  C   UNL     1      16.036   4.645 -20.411  1.00  0.00     0.047 A 
ATOM     10  C   UNL     1      17.192   5.223 -19.702  1.00  0.00     0.125 A 
ATOM     11  C   UNL     1      18.602   4.728 -19.827  1.00  0.00     0.069 A 
ENDROOT
BRANCH   1  12
ATOM     12  C   UNL     1      17.430   1.815 -17.226  1.00  0.00    -0.011 A 
ATOM     13  C   UNL     1      17.642   0.728 -16.355  1.00  0.00     0.013 A 
ATOM     14  C   UNL     1      17.712   0.901 -14.966  1.00  0.00     0.047 A 
ATOM     15  C   UNL     1      17.387   2.183 -14.434  1.00  0.00     0.115 A 
ATOM     16  C   UNL     1      17.336   3.132 -16.726  1.00  0.00     0.013 A 
ATOM     17  C   UNL     1      17.216   3.254 -15.322  1.00  0.00     0.047 A 
BRANCH  15  18
ATOM     18  O   UNL     1      17.200   2.334 -13.067  1.00  0.00    -0.508 OA
ATOM     19  H   UNL     1      17.953   2.762 -12.491  1.00  0.00     0.293 HD
ENDBRANCH  15  18
ENDBRANCH   1  12
BRANCH  11  20
ATOM     20  C   UNL     1      20.075   5.346 -19.784  1.00  0.00     0.188 C 
ATOM     21  C   UNL     1      20.572   6.539 -18.807  1.00  0.00     0.179 C 
ATOM     22  O   UNL     1      20.518   5.619 -21.144  1.00  0.00    -0.362 OA
ATOM     23  C   UNL     1      19.744   7.724 -19.524  1.00  0.00     0.177 C 
ATOM     24  C   UNL     1      19.810   6.619 -21.845  1.00  0.00     0.176 C 
ATOM     25  C   UNL     1      19.820   8.005 -21.077  1.00  0.00     0.177 C 
BRANCH  21  26
ATOM     26  O   UNL     1      19.957   6.333 -17.574  1.00  0.00    -0.387 OA
ATOM     27  H   UNL     1      20.034   5.320 -17.424  1.00  0.00     0.211 HD
ENDBRANCH  21  26
BRANCH  23  28
ATOM     28  O   UNL     1      19.887   8.960 -18.861  1.00  0.00    -0.387 OA
ATOM     29  H   UNL     1      19.268   9.650 -19.283  1.00  0.00     0.211 HD
ENDBRANCH  23  28
BRANCH  24  30
ATOM     30  C   UNL     1      18.478   6.151 -22.483  1.00  0.00     0.191 C 
BRANCH  30  31
ATOM     31  O   UNL     1      18.739   5.162 -23.465  1.00  0.00    -0.394 OA
ATOM     32  H   UNL     1      18.923   5.628 -24.346  1.00  0.00     0.210 HD
ENDBRANCH  30  31
ENDBRANCH  24  30
BRANCH  25  33
ATOM     33  O   UNL     1      20.997   8.788 -21.302  1.00  0.00    -0.388 OA
ATOM     34  H   UNL     1      20.831   9.597 -21.862  1.00  0.00     0.211 HD
ENDBRANCH  25  33
ENDBRANCH  11  20
BRANCH  10  35
ATOM     35  O   UNL     1      16.864   6.242 -18.783  1.00  0.00    -0.507 OA
ATOM     36  H   UNL     1      16.169   6.934 -19.026  1.00  0.00     0.293 HD
ENDBRANCH  10  35
TORSDOF 9
ENDMDL
MODEL 5
REMARK VINA RESULT:    -5.215      5.020      7.427
REMARK INTER + INTRA:          -8.216
REMARK INTER:                  -7.052
REMARK INTRA:                  -1.165
REMARK UNBOUND:                -1.172
REMARK SMILES O=c1c(-c2ccc(O)cc2)coc2c([C@H]3O[C@@H](CO)[C@H](O)[C@H](O)[C@H]3O)c(O)ccc12
REMARK SMILES IDX 3 1 11 2 12 3 13 4 30 5 2 6 1 7 29 8 28 9 26 10 14 11 4 12
REMARK SMILES IDX 5 13 6 14 7 15 10 16 9 17 8 18 15 20 24 21 16 22 22 23 17 24
REMARK SMILES IDX 20 25 25 26 23 28 18 30 19 31 21 33 27 35
REMARK H PARENT 8 19 25 27 23 29 19 32 21 34 27 36
REMARK Flexibility Score: inf
ROOT
ATOM      1  C   UNL     1      17.454   1.652 -25.440  1.00  0.00     0.065 A 
ATOM      2  C   UNL     1      18.828   2.352 -25.060  1.00  0.00     0.208 A 
ATOM      3  O   UNL     1      19.571   2.797 -26.095  1.00  0.00    -0.463 OA
ATOM      4  C   UNL     1      19.146   2.502 -27.380  1.00  0.00     0.147 A 
ATOM      5  C   UNL     1      18.513   1.160 -27.737  1.00  0.00     0.066 A 
ATOM      6  C   UNL     1      17.469   0.718 -26.770  1.00  0.00     0.200 A 
ATOM      7  O   UNL     1      16.498  -0.056 -27.009  1.00  0.00    -0.288 OA
ATOM      8  C   UNL     1      18.034   0.912 -29.062  1.00  0.00     0.020 A 
ATOM      9  C   UNL     1      17.210   2.002 -29.518  1.00  0.00     0.047 A 
ATOM     10  C   UNL     1      17.612   3.357 -29.098  1.00  0.00     0.125 A 
ATOM     11  C   UNL     1      18.747   3.658 -28.165  1.00  0.00     0.069 A 
ENDROOT
BRANCH   1  12
ATOM     12  C   UNL     1      16.119   2.641 -25.218  1.00  0.00    -0.011 A 
ATOM     13  C   UNL     1      15.581   2.390 -23.940  1.00  0.00     0.013 A 
ATOM     14  C   UNL     1      14.682   3.278 -23.332  1.00  0.00     0.047 A 
ATOM     15  C   UNL     1      14.184   4.363 -24.112  1.00  0.00     0.115 A 
ATOM     16  C   UNL     1      15.812   3.834 -25.908  1.00  0.00     0.013 A 
ATOM     17  C   UNL     1      14.763   4.611 -25.364  1.00  0.00     0.047 A 
BRANCH  15  18
ATOM     18  O   UNL     1      13.115   5.113 -23.643  1.00  0.00    -0.508 OA
ATOM     19  H   UNL     1      12.179   4.669 -23.552  1.00  0.00     0.293 HD
ENDBRANCH  15  18
ENDBRANCH   1  12
BRANCH  11  20
ATOM     20  C   UNL     1      19.827   4.818 -27.962  1.00  0.00     0.188 C 
ATOM     21  C   UNL     1      19.568   6.402 -28.184  1.00  0.00     0.179 C 
ATOM     22  O   UNL     1      21.069   4.435 -28.617  1.00  0.00    -0.362 OA
ATOM     23  C   UNL     1      19.451   6.347 -29.793  1.00  0.00     0.177 C 
ATOM     24  C   UNL     1      21.028   4.328 -30.024  1.00  0.00     0.176 C 
ATOM     25  C   UNL     1      20.549   5.675 -30.709  1.00  0.00     0.177 C 
BRANCH  21  26
ATOM     26  O   UNL     1      18.283   6.670 -27.716  1.00  0.00    -0.387 OA
ATOM     27  H   UNL     1      18.435   7.035 -26.768  1.00  0.00     0.211 HD
ENDBRANCH  21  26
BRANCH  23  28
ATOM     28  O   UNL     1      19.139   7.602 -30.354  1.00  0.00    -0.387 OA
ATOM     29  H   UNL     1      19.997   8.087 -30.609  1.00  0.00     0.211 HD
ENDBRANCH  23  28
BRANCH  24  30
ATOM     30  C   UNL     1      20.452   2.994 -30.562  1.00  0.00     0.191 C 
BRANCH  30  31
ATOM     31  O   UNL     1      21.386   1.949 -30.349  1.00  0.00    -0.394 OA
ATOM     32  H   UNL     1      22.295   2.263 -30.670  1.00  0.00     0.210 HD
ENDBRANCH  30  31
ENDBRANCH  24  30
BRANCH  25  33
ATOM     33  O   UNL     1      21.591   6.640 -30.889  1.00  0.00    -0.388 OA
ATOM     34  H   UNL     1      21.428   7.492 -30.396  1.00  0.00     0.211 HD
ENDBRANCH  25  33
ENDBRANCH  11  20
BRANCH  10  35
ATOM     35  O   UNL     1      16.766   4.387 -29.562  1.00  0.00    -0.507 OA
ATOM     36  H   UNL     1      17.113   5.062 -30.229  1.00  0.00     0.293 HD
ENDBRANCH  10  35
TORSDOF 9
ENDMDL
MODEL 6
REMARK VINA RESULT:    -5.168      6.542      8.502
REMARK INTER + INTRA:          -8.152
REMARK INTER:                  -7.061
REMARK INTRA:                  -1.091
REMARK UNBOUND:                -1.172
REMARK SMILES O=c1c(-c2ccc(O)cc2)coc2c([C@H]3O[C@@H](CO)[C@H](O)[C@H](O)[C@H]3O)c(O)ccc12
REMARK SMILES IDX 3 1 11 2 12 3 13 4 30 5 2 6 1 7 29 8 28 9 26 10 14 11 4 12
REMARK SMILES IDX 5 13 6 14 7 15 10 16 9 17 8 18 15 20 24 21 16 22 22 23 17 24
REMARK SMILES IDX 20 25 25 26 23 28 18 30 19 31 21 33 27 35
REMARK H PARENT 8 19 25 27 23 29 19 32 21 34 27 36
REMARK Flexibility Score: inf
ROOT
ATOM      1  C   UNL     1      17.967   4.883 -27.961  1.00  0.00     0.065 A 
ATOM      2  C   UNL     1      17.904   5.669 -26.583  1.00  0.00     0.208 A 
ATOM      3  O   UNL     1      18.635   6.801 -26.514  1.00  0.00    -0.463 OA
ATOM      4  C   UNL     1      19.461   7.112 -27.582  1.00  0.00     0.147 A 
ATOM      5  C   UNL     1      20.235   6.043 -28.347  1.00  0.00     0.066 A 
ATOM      6  C   UNL     1      19.412   4.854 -28.704  1.00  0.00     0.200 A 
ATOM      7  O   UNL     1      19.609   4.062 -29.671  1.00  0.00    -0.288 OA
ATOM      8  C   UNL     1      21.034   6.395 -29.480  1.00  0.00     0.020 A 
ATOM      9  C   UNL     1      20.292   7.234 -30.386  1.00  0.00     0.047 A 
ATOM     10  C   UNL     1      19.366   8.207 -29.779  1.00  0.00     0.125 A 
ATOM     11  C   UNL     1      19.082   8.311 -28.310  1.00  0.00     0.069 A 
ENDROOT
BRANCH   1  12
ATOM     12  C   UNL     1      16.618   5.122 -28.926  1.00  0.00    -0.011 A 
ATOM     13  C   UNL     1      15.992   3.878 -29.141  1.00  0.00     0.013 A 
ATOM     14  C   UNL     1      14.676   3.788 -29.616  1.00  0.00     0.047 A 
ATOM     15  C   UNL     1      14.038   4.988 -30.048  1.00  0.00     0.115 A 
ATOM     16  C   UNL     1      15.913   6.328 -29.131  1.00  0.00     0.013 A 
ATOM     17  C   UNL     1      14.667   6.213 -29.789  1.00  0.00     0.047 A 
BRANCH  15  18
ATOM     18  O   UNL     1      12.843   4.917 -30.752  1.00  0.00    -0.508 OA
ATOM     19  H   UNL     1      12.604   4.046 -31.267  1.00  0.00     0.293 HD
ENDBRANCH  15  18
ENDBRANCH   1  12
BRANCH  11  20
ATOM     20  C   UNL     1      18.719   9.460 -27.260  1.00  0.00     0.188 C 
ATOM     21  C   UNL     1      17.873  10.804 -27.582  1.00  0.00     0.179 C 
ATOM     22  O   UNL     1      19.914   9.810 -26.504  1.00  0.00    -0.362 OA
ATOM     23  C   UNL     1      19.006  11.527 -28.475  1.00  0.00     0.177 C 
ATOM     24  C   UNL     1      20.962  10.411 -27.232  1.00  0.00     0.176 C 
ATOM     25  C   UNL     1      20.491  11.730 -27.975  1.00  0.00     0.177 C 
BRANCH  21  26
ATOM     26  O   UNL     1      16.862  10.441 -28.468  1.00  0.00    -0.387 OA
ATOM     27  H   UNL     1      16.204   9.904 -27.889  1.00  0.00     0.211 HD
ENDBRANCH  21  26
BRANCH  23  28
ATOM     28  O   UNL     1      18.567  12.754 -29.012  1.00  0.00    -0.387 OA
ATOM     29  H   UNL     1      18.973  12.889 -29.936  1.00  0.00     0.211 HD
ENDBRANCH  23  28
BRANCH  24  30
ATOM     30  C   UNL     1      21.869   9.424 -28.009  1.00  0.00     0.191 C 
BRANCH  30  31
ATOM     31  O   UNL     1      22.119   9.928 -29.311  1.00  0.00    -0.394 OA
ATOM     32  H   UNL     1      23.109   9.833 -29.505  1.00  0.00     0.210 HD
ENDBRANCH  30  31
ENDBRANCH  24  30
BRANCH  25  33
ATOM     33  O   UNL     1      20.498  12.899 -27.148  1.00  0.00    -0.388 OA
ATOM     34  H   UNL     1      21.141  12.840 -26.388  1.00  0.00     0.211 HD
ENDBRANCH  25  33
ENDBRANCH  11  20
BRANCH  10  35
ATOM     35  O   UNL     1      18.656   8.996 -30.709  1.00  0.00    -0.507 OA
ATOM     36  H   UNL     1      18.230   8.562 -31.516  1.00  0.00     0.293 HD
ENDBRANCH  10  35
TORSDOF 9
ENDMDL
MODEL 7
REMARK VINA RESULT:    -5.144      3.099      4.138
REMARK INTER + INTRA:          -8.120
REMARK INTER:                  -6.834
REMARK INTRA:                  -1.286
REMARK UNBOUND:                -1.172
REMARK SMILES O=c1c(-c2ccc(O)cc2)coc2c([C@H]3O[C@@H](CO)[C@H](O)[C@H](O)[C@H]3O)c(O)ccc12
REMARK SMILES IDX 3 1 11 2 12 3 13 4 30 5 2 6 1 7 29 8 28 9 26 10 14 11 4 12
REMARK SMILES IDX 5 13 6 14 7 15 10 16 9 17 8 18 15 20 24 21 16 22 22 23 17 24
REMARK SMILES IDX 20 25 25 26 23 28 18 30 19 31 21 33 27 35
REMARK H PARENT 8 19 25 27 23 29 19 32 21 34 27 36
REMARK Flexibility Score: inf
ROOT
ATOM      1  C   UNL     1      13.974   3.600 -22.942  1.00  0.00     0.065 A 
ATOM      2  C   UNL     1      14.385   2.692 -21.707  1.00  0.00     0.208 A 
ATOM      3  O   UNL     1      15.665   2.800 -21.293  1.00  0.00    -0.463 OA
ATOM      4  C   UNL     1      16.530   3.582 -22.040  1.00  0.00     0.147 A 
ATOM      5  C   UNL     1      16.475   3.623 -23.564  1.00  0.00     0.066 A 
ATOM      6  C   UNL     1      15.096   3.777 -24.106  1.00  0.00     0.200 A 
ATOM      7  O   UNL     1      14.774   4.280 -25.221  1.00  0.00    -0.288 OA
ATOM      8  C   UNL     1      17.347   4.486 -24.300  1.00  0.00     0.020 A 
ATOM      9  C   UNL     1      17.327   5.818 -23.753  1.00  0.00     0.047 A 
ATOM     10  C   UNL     1      17.208   5.931 -22.288  1.00  0.00     0.125 A 
ATOM     11  C   UNL     1      17.014   4.770 -21.357  1.00  0.00     0.069 A 
ENDROOT
BRANCH   1  12
ATOM     12  C   UNL     1      13.106   4.966 -22.506  1.00  0.00    -0.011 A 
ATOM     13  C   UNL     1      11.949   4.561 -21.810  1.00  0.00     0.013 A 
ATOM     14  C   UNL     1      11.205   5.459 -21.034  1.00  0.00     0.047 A 
ATOM     15  C   UNL     1      11.545   6.842 -21.102  1.00  0.00     0.115 A 
ATOM     16  C   UNL     1      13.588   6.288 -22.395  1.00  0.00     0.013 A 
ATOM     17  C   UNL     1      12.720   7.213 -21.769  1.00  0.00     0.047 A 
BRANCH  15  18
ATOM     18  O   UNL     1      10.690   7.789 -20.554  1.00  0.00    -0.508 OA
ATOM     19  H   UNL     1      10.507   8.673 -21.071  1.00  0.00     0.293 HD
ENDBRANCH  15  18
ENDBRANCH   1  12
BRANCH  11  20
ATOM     20  C   UNL     1      17.430   4.375 -19.866  1.00  0.00     0.188 C 
ATOM     21  C   UNL     1      17.638   5.409 -18.636  1.00  0.00     0.179 C 
ATOM     22  O   UNL     1      18.552   3.448 -19.913  1.00  0.00    -0.362 OA
ATOM     23  C   UNL     1      19.000   6.079 -19.186  1.00  0.00     0.177 C 
ATOM     24  C   UNL     1      19.765   3.958 -20.422  1.00  0.00     0.176 C 
ATOM     25  C   UNL     1      20.261   5.230 -19.615  1.00  0.00     0.177 C 
BRANCH  21  26
ATOM     26  O   UNL     1      16.653   6.387 -18.760  1.00  0.00    -0.387 OA
ATOM     27  H   UNL     1      17.008   7.005 -19.500  1.00  0.00     0.211 HD
ENDBRANCH  21  26
BRANCH  23  28
ATOM     28  O   UNL     1      19.455   7.129 -18.362  1.00  0.00    -0.387 OA
ATOM     29  H   UNL     1      20.031   6.751 -17.612  1.00  0.00     0.211 HD
ENDBRANCH  23  28
BRANCH  24  30
ATOM     30  C   UNL     1      19.863   3.994 -21.968  1.00  0.00     0.191 C 
BRANCH  30  31
ATOM     31  O   UNL     1      20.564   5.158 -22.376  1.00  0.00    -0.394 OA
ATOM     32  H   UNL     1      21.512   5.099 -22.024  1.00  0.00     0.210 HD
ENDBRANCH  30  31
ENDBRANCH  24  30
BRANCH  25  33
ATOM     33  O   UNL     1      20.982   4.918 -18.419  1.00  0.00    -0.388 OA
ATOM     34  H   UNL     1      21.519   5.683 -18.072  1.00  0.00     0.211 HD
ENDBRANCH  25  33
ENDBRANCH  11  20
BRANCH  10  35
ATOM     35  O   UNL     1      17.181   7.256 -21.804  1.00  0.00    -0.507 OA
ATOM     36  H   UNL     1      16.301   7.680 -21.544  1.00  0.00     0.293 HD
ENDBRANCH  10  35
TORSDOF 9
ENDMDL
MODEL 8
REMARK VINA RESULT:    -5.126     10.819     13.788
REMARK INTER + INTRA:          -8.095
REMARK INTER:                  -6.907
REMARK INTRA:                  -1.188
REMARK UNBOUND:                -1.172
REMARK SMILES O=c1c(-c2ccc(O)cc2)coc2c([C@H]3O[C@@H](CO)[C@H](O)[C@H](O)[C@H]3O)c(O)ccc12
REMARK SMILES IDX 3 1 11 2 12 3 13 4 30 5 2 6 1 7 29 8 28 9 26 10 14 11 4 12
REMARK SMILES IDX 5 13 6 14 7 15 10 16 9 17 8 18 15 20 24 21 16 22 22 23 17 24
REMARK SMILES IDX 20 25 25 26 23 28 18 30 19 31 21 33 27 35
REMARK H PARENT 8 19 25 27 23 29 19 32 21 34 27 36
REMARK Flexibility Score: inf
ROOT
ATOM      1  C   UNL     1      14.973  17.847 -18.809  1.00  0.00     0.065 A 
ATOM      2  C   UNL     1      15.027  18.444 -20.279  1.00  0.00     0.208 A 
ATOM      3  O   UNL     1      16.255  18.747 -20.749  1.00  0.00    -0.463 OA
ATOM      4  C   UNL     1      17.332  18.632 -19.886  1.00  0.00     0.147 A 
ATOM      5  C   UNL     1      17.235  19.014 -18.412  1.00  0.00     0.066 A 
ATOM      6  C   UNL     1      16.018  18.480 -17.738  1.00  0.00     0.200 A 
ATOM      7  O   UNL     1      15.884  18.236 -16.504  1.00  0.00    -0.288 OA
ATOM      8  C   UNL     1      18.353  18.829 -17.538  1.00  0.00     0.020 A 
ATOM      9  C   UNL     1      18.902  17.505 -17.686  1.00  0.00     0.047 A 
ATOM     10  C   UNL     1      18.900  16.937 -19.047  1.00  0.00     0.125 A 
ATOM     11  C   UNL     1      18.288  17.598 -20.246  1.00  0.00     0.069 A 
ENDROOT
BRANCH   1  12
ATOM     12  C   UNL     1      14.758  16.185 -18.773  1.00  0.00    -0.011 A 
ATOM     13  C   UNL     1      13.491  15.906 -18.223  1.00  0.00     0.013 A 
ATOM     14  C   UNL     1      12.886  14.650 -18.368  1.00  0.00     0.047 A 
ATOM     15  C   UNL     1      13.661  13.597 -18.937  1.00  0.00     0.115 A 
ATOM     16  C   UNL     1      15.439  15.216 -19.543  1.00  0.00     0.013 A 
ATOM     17  C   UNL     1      14.901  13.909 -19.509  1.00  0.00     0.047 A 
BRANCH  15  18
ATOM     18  O   UNL     1      13.198  12.289 -18.871  1.00  0.00    -0.508 OA
ATOM     19  H   UNL     1      12.403  11.997 -19.474  1.00  0.00     0.293 HD
ENDBRANCH  15  18
ENDBRANCH   1  12
BRANCH  11  20
ATOM     20  C   UNL     1      18.568  17.679 -21.817  1.00  0.00     0.188 C 
ATOM     21  C   UNL     1      19.257  16.520 -22.717  1.00  0.00     0.179 C 
ATOM     22  O   UNL     1      19.185  18.961 -22.127  1.00  0.00    -0.362 OA
ATOM     23  C   UNL     1      20.745  16.676 -22.113  1.00  0.00     0.177 C 
ATOM     24  C   UNL     1      20.474  19.181 -21.596  1.00  0.00     0.176 C 
ATOM     25  C   UNL     1      21.502  18.062 -22.047  1.00  0.00     0.177 C 
BRANCH  21  26
ATOM     26  O   UNL     1      18.777  15.302 -22.240  1.00  0.00    -0.387 OA
ATOM     27  H   UNL     1      17.842  15.527 -21.878  1.00  0.00     0.211 HD
ENDBRANCH  21  26
BRANCH  23  28
ATOM     28  O   UNL     1      21.643  15.726 -22.641  1.00  0.00    -0.387 OA
ATOM     29  H   UNL     1      21.143  14.869 -22.866  1.00  0.00     0.211 HD
ENDBRANCH  23  28
BRANCH  24  30
ATOM     30  C   UNL     1      20.503  19.641 -20.117  1.00  0.00     0.191 C 
BRANCH  30  31
ATOM     31  O   UNL     1      21.648  19.108 -19.472  1.00  0.00    -0.394 OA
ATOM     32  H   UNL     1      21.367  18.750 -18.567  1.00  0.00     0.210 HD
ENDBRANCH  30  31
ENDBRANCH  24  30
BRANCH  25  33
ATOM     33  O   UNL     1      22.079  18.285 -23.338  1.00  0.00    -0.388 OA
ATOM     34  H   UNL     1      23.058  18.098 -23.369  1.00  0.00     0.211 HD
ENDBRANCH  25  33
ENDBRANCH  11  20
BRANCH  10  35
ATOM     35  O   UNL     1      19.439  15.635 -19.137  1.00  0.00    -0.507 OA
ATOM     36  H   UNL     1      19.539  15.193 -20.040  1.00  0.00     0.293 HD
ENDBRANCH  10  35
TORSDOF 9
ENDMDL
MODEL 9
REMARK VINA RESULT:    -4.970      5.468      7.565
REMARK INTER + INTRA:          -7.885
REMARK INTER:                  -6.634
REMARK INTRA:                  -1.251
REMARK UNBOUND:                -1.172
REMARK SMILES O=c1c(-c2ccc(O)cc2)coc2c([C@H]3O[C@@H](CO)[C@H](O)[C@H](O)[C@H]3O)c(O)ccc12
REMARK SMILES IDX 3 1 11 2 12 3 13 4 30 5 2 6 1 7 29 8 28 9 26 10 14 11 4 12
REMARK SMILES IDX 5 13 6 14 7 15 10 16 9 17 8 18 15 20 24 21 16 22 22 23 17 24
REMARK SMILES IDX 20 25 25 26 23 28 18 30 19 31 21 33 27 35
REMARK H PARENT 8 19 25 27 23 29 19 32 21 34 27 36
REMARK Flexibility Score: inf
ROOT
ATOM      1  C   UNL     1      16.526   4.007 -25.825  1.00  0.00     0.065 A 
ATOM      2  C   UNL     1      17.340   5.098 -25.009  1.00  0.00     0.208 A 
ATOM      3  O   UNL     1      18.122   5.921 -25.739  1.00  0.00    -0.463 OA
ATOM      4  C   UNL     1      18.245   5.672 -27.096  1.00  0.00     0.147 A 
ATOM      5  C   UNL     1      18.320   4.255 -27.657  1.00  0.00     0.066 A 
ATOM      6  C   UNL     1      17.295   3.335 -27.090  1.00  0.00     0.200 A 
ATOM      7  O   UNL     1      16.819   2.302 -27.642  1.00  0.00    -0.288 OA
ATOM      8  C   UNL     1      18.391   4.036 -29.069  1.00  0.00     0.020 A 
ATOM      9  C   UNL     1      17.383   4.803 -29.755  1.00  0.00     0.047 A 
ATOM     10  C   UNL     1      17.083   6.140 -29.210  1.00  0.00     0.125 A 
ATOM     11  C   UNL     1      17.680   6.701 -27.954  1.00  0.00     0.069 A 
ENDROOT
BRANCH   1  12
ATOM     12  C   UNL     1      14.911   4.402 -26.038  1.00  0.00    -0.011 A 
ATOM     13  C   UNL     1      14.279   4.408 -24.778  1.00  0.00     0.013 A 
ATOM     14  C   UNL     1      13.033   5.019 -24.582  1.00  0.00     0.047 A 
ATOM     15  C   UNL     1      12.330   5.486 -25.731  1.00  0.00     0.115 A 
ATOM     16  C   UNL     1      14.329   5.067 -27.139  1.00  0.00     0.013 A 
ATOM     17  C   UNL     1      12.995   5.503 -26.964  1.00  0.00     0.047 A 
BRANCH  15  18
ATOM     18  O   UNL     1      10.999   5.866 -25.616  1.00  0.00    -0.508 OA
ATOM     19  H   UNL     1      10.433   6.013 -26.476  1.00  0.00     0.293 HD
ENDBRANCH  15  18
ENDBRANCH   1  12
BRANCH  11  20
ATOM     20  C   UNL     1      18.112   8.134 -27.394  1.00  0.00     0.188 C 
ATOM     21  C   UNL     1      17.365   9.537 -27.709  1.00  0.00     0.179 C 
ATOM     22  O   UNL     1      19.548   8.301 -27.566  1.00  0.00    -0.362 OA
ATOM     23  C   UNL     1      17.816   9.644 -29.255  1.00  0.00     0.177 C 
ATOM     24  C   UNL     1      20.016   8.362 -28.896  1.00  0.00     0.176 C 
ATOM     25  C   UNL     1      19.322   9.525 -29.719  1.00  0.00     0.177 C 
BRANCH  21  26
ATOM     26  O   UNL     1      15.998   9.271 -27.726  1.00  0.00    -0.387 OA
ATOM     27  H   UNL     1      15.943   8.246 -27.686  1.00  0.00     0.211 HD
ENDBRANCH  21  26
BRANCH  23  28
ATOM     28  O   UNL     1      17.259  10.765 -29.903  1.00  0.00    -0.387 OA
ATOM     29  H   UNL     1      17.371  10.671 -30.910  1.00  0.00     0.211 HD
ENDBRANCH  23  28
BRANCH  24  30
ATOM     30  C   UNL     1      20.197   6.988 -29.590  1.00  0.00     0.191 C 
BRANCH  30  31
ATOM     31  O   UNL     1      19.893   7.106 -30.970  1.00  0.00    -0.394 OA
ATOM     32  H   UNL     1      18.908   6.903 -31.098  1.00  0.00     0.210 HD
ENDBRANCH  30  31
ENDBRANCH  24  30
BRANCH  25  33
ATOM     33  O   UNL     1      19.920  10.812 -29.530  1.00  0.00    -0.388 OA
ATOM     34  H   UNL     1      20.887  10.836 -29.774  1.00  0.00     0.211 HD
ENDBRANCH  25  33
ENDBRANCH  11  20
BRANCH  10  35
ATOM     35  O   UNL     1      16.081   6.845 -29.911  1.00  0.00    -0.507 OA
ATOM     36  H   UNL     1      16.069   6.831 -30.921  1.00  0.00     0.293 HD
ENDBRANCH  10  35
TORSDOF 9
ENDMDL
