MODEL 1
REMARK VINA RESULT:    -2.752      0.000      0.000
REMARK INTER + INTRA:          -5.219
REMARK INTER:                  -4.200
REMARK INTRA:                  -1.018
REMARK UNBOUND:                -1.018
REMARK SMILES CCCCCCCCCCC(=O)[O-]
REMARK SMILES IDX 7 1 8 2 9 3 10 4 11 5 12 6 13 7 6 8 5 9 4 10 3 11 2 12 1 13
REMARK H PARENT
REMARK Flexibility Score: inf
ROOT
ATOM      1  C   UNL     1      -8.961 -22.423  22.099  1.00  0.00     0.000 C 
ENDROOT
BRANCH   1   2
ATOM      2  C   UNL     1     -10.275 -23.020  21.582  1.00  0.00     0.000 C 
BRANCH   2   3
ATOM      3  C   UNL     1     -10.347 -22.946  20.049  1.00  0.00     0.006 C 
BRANCH   3   4
ATOM      4  C   UNL     1      -9.705 -21.665  19.498  1.00  0.00     0.053 C 
BRANCH   4   5
ATOM      5  C   UNL     1      -8.693 -21.965  18.436  1.00  0.00     0.041 C 
ATOM      6  O   UNL     1      -8.965 -21.756  17.224  1.00  0.00    -0.550 OA
ATOM      7  O   UNL     1      -7.438 -22.447  18.787  1.00  0.00    -0.550 OA
ENDBRANCH   4   5
ENDBRANCH   3   4
ENDBRANCH   2   3
ENDBRANCH   1   2
BRANCH   1   8
ATOM      8  C   UNL     1      -9.224 -21.336  23.148  1.00  0.00     0.000 C 
BRANCH   8   9
ATOM      9  C   UNL     1     -10.717 -20.982  23.211  1.00  0.00    -0.000 C 
BRANCH   9  10
ATOM     10  C   UNL     1     -11.015 -19.567  22.690  1.00  0.00    -0.000 C 
BRANCH  10  11
ATOM     11  C   UNL     1      -9.757 -18.683  22.628  1.00  0.00    -0.000 C 
BRANCH  11  12
ATOM     12  C   UNL     1      -9.790 -17.697  21.450  1.00  0.00    -0.003 C 
ATOM     13  C   UNL     1     -10.832 -18.067  20.395  1.00  0.00     0.004 C 
ENDBRANCH  11  12
ENDBRANCH  10  11
ENDBRANCH   9  10
ENDBRANCH   8   9
ENDBRANCH   1   8
TORSDOF 9
ENDMDL
MODEL 2
REMARK VINA RESULT:    -2.694      1.274      2.810
REMARK INTER + INTRA:          -5.130
REMARK INTER:                  -4.150
REMARK INTRA:                  -0.980
REMARK UNBOUND:                -1.018
REMARK SMILES CCCCCCCCCCC(=O)[O-]
REMARK SMILES IDX 7 1 8 2 9 3 10 4 11 5 12 6 13 7 6 8 5 9 4 10 3 11 2 12 1 13
REMARK H PARENT
REMARK Flexibility Score: inf
ROOT
ATOM      1  C   UNL     1     -10.053 -20.435  19.275  1.00  0.00     0.000 C 
ENDROOT
BRANCH   1   2
ATOM      2  C   UNL     1     -10.628 -21.833  19.532  1.00  0.00     0.000 C 
BRANCH   2   3
ATOM      3  C   UNL     1      -9.680 -22.922  19.008  1.00  0.00     0.006 C 
BRANCH   3   4
ATOM      4  C   UNL     1      -8.249 -22.748  19.534  1.00  0.00     0.053 C 
BRANCH   4   5
ATOM      5  C   UNL     1      -7.258 -22.632  18.417  1.00  0.00     0.041 C 
ATOM      6  O   UNL     1      -7.653 -22.465  17.233  1.00  0.00    -0.550 OA
ATOM      7  O   UNL     1      -5.896 -22.678  18.689  1.00  0.00    -0.550 OA
ENDBRANCH   4   5
ENDBRANCH   3   4
ENDBRANCH   2   3
ENDBRANCH   1   2
BRANCH   1   8
ATOM      8  C   UNL     1     -11.046 -19.344  19.694  1.00  0.00     0.000 C 
BRANCH   8   9
ATOM      9  C   UNL     1     -10.364 -18.287  20.575  1.00  0.00    -0.000 C 
BRANCH   9  10
ATOM     10  C   UNL     1     -10.721 -18.432  22.063  1.00  0.00    -0.000 C 
BRANCH  10  11
ATOM     11  C   UNL     1      -9.680 -19.252  22.843  1.00  0.00    -0.000 C 
BRANCH  11  12
ATOM     12  C   UNL     1     -10.121 -20.709  23.057  1.00  0.00    -0.003 C 
ATOM     13  C   UNL     1      -8.942 -21.674  23.181  1.00  0.00     0.004 C 
ENDBRANCH  11  12
ENDBRANCH  10  11
ENDBRANCH   9  10
ENDBRANCH   8   9
ENDBRANCH   1   8
TORSDOF 9
ENDMDL
MODEL 3
REMARK VINA RESULT:    -2.650      3.133      5.807
REMARK INTER + INTRA:          -5.063
REMARK INTER:                  -4.622
REMARK INTRA:                  -0.441
REMARK UNBOUND:                -1.018
REMARK SMILES CCCCCCCCCCC(=O)[O-]
REMARK SMILES IDX 7 1 8 2 9 3 10 4 11 5 12 6 13 7 6 8 5 9 4 10 3 11 2 12 1 13
REMARK H PARENT
REMARK Flexibility Score: inf
ROOT
ATOM      1  C   UNL     1     -10.144 -20.513  19.348  1.00  0.00     0.000 C 
ENDROOT
BRANCH   1   2
ATOM      2  C   UNL     1     -10.818 -19.135  19.322  1.00  0.00     0.000 C 
BRANCH   2   3
ATOM      3  C   UNL     1     -11.125 -18.646  20.745  1.00  0.00     0.006 C 
BRANCH   3   4
ATOM      4  C   UNL     1     -10.057 -17.678  21.270  1.00  0.00     0.053 C 
BRANCH   4   5
ATOM      5  C   UNL     1      -9.510 -18.118  22.593  1.00  0.00     0.041 C 
ATOM      6  O   UNL     1      -9.559 -19.331  22.928  1.00  0.00    -0.550 OA
ATOM      7  O   UNL     1      -8.919 -17.192  23.443  1.00  0.00    -0.550 OA
ENDBRANCH   4   5
ENDBRANCH   3   4
ENDBRANCH   2   3
ENDBRANCH   1   2
BRANCH   1   8
ATOM      8  C   UNL     1     -10.784 -21.459  18.324  1.00  0.00     0.000 C 
BRANCH   8   9
ATOM      9  C   UNL     1      -9.823 -22.597  17.951  1.00  0.00    -0.000 C 
BRANCH   9  10
ATOM     10  C   UNL     1      -8.467 -22.086  17.437  1.00  0.00    -0.000 C 
BRANCH  10  11
ATOM     11  C   UNL     1      -7.292 -22.536  18.323  1.00  0.00    -0.000 C 
BRANCH  11  12
ATOM     12  C   UNL     1      -5.936 -22.402  17.612  1.00  0.00    -0.003 C 
ATOM     13  C   UNL     1      -6.065 -21.890  16.178  1.00  0.00     0.004 C 
ENDBRANCH  11  12
ENDBRANCH  10  11
ENDBRANCH   9  10
ENDBRANCH   8   9
ENDBRANCH   1   8
TORSDOF 9
ENDMDL
MODEL 4
REMARK VINA RESULT:    -2.646      1.438      2.026
REMARK INTER + INTRA:          -5.057
REMARK INTER:                  -4.317
REMARK INTRA:                  -0.740
REMARK UNBOUND:                -1.018
REMARK SMILES CCCCCCCCCCC(=O)[O-]
REMARK SMILES IDX 7 1 8 2 9 3 10 4 11 5 12 6 13 7 6 8 5 9 4 10 3 11 2 12 1 13
REMARK H PARENT
REMARK Flexibility Score: inf
ROOT
ATOM      1  C   UNL     1      -8.213 -23.112  21.469  1.00  0.00     0.000 C 
ENDROOT
BRANCH   1   2
ATOM      2  C   UNL     1      -9.143 -23.043  20.252  1.00  0.00     0.000 C 
BRANCH   2   3
ATOM      3  C   UNL     1      -8.466 -22.307  19.085  1.00  0.00     0.006 C 
BRANCH   3   4
ATOM      4  C   UNL     1      -7.020 -22.770  18.867  1.00  0.00     0.053 C 
BRANCH   4   5
ATOM      5  C   UNL     1      -6.522 -22.411  17.501  1.00  0.00     0.041 C 
ATOM      6  O   UNL     1      -5.291 -22.455  17.242  1.00  0.00    -0.550 OA
ATOM      7  O   UNL     1      -7.423 -22.057  16.504  1.00  0.00    -0.550 OA
ENDBRANCH   4   5
ENDBRANCH   3   4
ENDBRANCH   2   3
ENDBRANCH   1   2
BRANCH   1   8
ATOM      8  C   UNL     1      -8.967 -22.768  22.759  1.00  0.00     0.000 C 
BRANCH   8   9
ATOM      9  C   UNL     1      -8.779 -21.289  23.128  1.00  0.00    -0.000 C 
BRANCH   9  10
ATOM     10  C   UNL     1      -9.988 -20.422  22.743  1.00  0.00    -0.000 C 
BRANCH  10  11
ATOM     11  C   UNL     1      -9.654 -18.921  22.713  1.00  0.00    -0.000 C 
BRANCH  11  12
ATOM     12  C   UNL     1     -10.102 -18.245  21.407  1.00  0.00    -0.003 C 
ATOM     13  C   UNL     1     -10.314 -19.240  20.266  1.00  0.00     0.004 C 
ENDBRANCH  11  12
ENDBRANCH  10  11
ENDBRANCH   9  10
ENDBRANCH   8   9
ENDBRANCH   1   8
TORSDOF 9
ENDMDL
MODEL 5
REMARK VINA RESULT:    -2.583     15.202     17.356
REMARK INTER + INTRA:          -4.961
REMARK INTER:                  -4.043
REMARK INTRA:                  -0.918
REMARK UNBOUND:                -1.018
REMARK SMILES CCCCCCCCCCC(=O)[O-]
REMARK SMILES IDX 7 1 8 2 9 3 10 4 11 5 12 6 13 7 6 8 5 9 4 10 3 11 2 12 1 13
REMARK H PARENT
REMARK Flexibility Score: inf
ROOT
ATOM      1  C   UNL     1       6.456 -21.627  12.967  1.00  0.00     0.000 C 
ENDROOT
BRANCH   1   2
ATOM      2  C   UNL     1       6.042 -23.067  13.292  1.00  0.00     0.000 C 
BRANCH   2   3
ATOM      3  C   UNL     1       4.964 -23.096  14.387  1.00  0.00     0.006 C 
BRANCH   3   4
ATOM      4  C   UNL     1       3.545 -23.125  13.805  1.00  0.00     0.053 C 
BRANCH   4   5
ATOM      5  C   UNL     1       2.510 -22.855  14.853  1.00  0.00     0.041 C 
ATOM      6  O   UNL     1       2.857 -22.502  16.011  1.00  0.00    -0.550 OA
ATOM      7  O   UNL     1       1.161 -22.963  14.541  1.00  0.00    -0.550 OA
ENDBRANCH   4   5
ENDBRANCH   3   4
ENDBRANCH   2   3
ENDBRANCH   1   2
BRANCH   1   8
ATOM      8  C   UNL     1       7.965 -21.532  12.709  1.00  0.00     0.000 C 
BRANCH   8   9
ATOM      9  C   UNL     1       8.600 -20.424  13.563  1.00  0.00    -0.000 C 
BRANCH   9  10
ATOM     10  C   UNL     1       8.400 -20.647  15.071  1.00  0.00    -0.000 C 
BRANCH  10  11
ATOM     11  C   UNL     1       8.796 -22.065  15.516  1.00  0.00    -0.000 C 
BRANCH  11  12
ATOM     12  C   UNL     1       7.902 -22.596  16.648  1.00  0.00    -0.003 C 
ATOM     13  C   UNL     1       6.865 -21.575  17.114  1.00  0.00     0.004 C 
ENDBRANCH  11  12
ENDBRANCH  10  11
ENDBRANCH   9  10
ENDBRANCH   8   9
ENDBRANCH   1   8
TORSDOF 9
ENDMDL
MODEL 6
REMARK VINA RESULT:    -2.576      1.450      2.413
REMARK INTER + INTRA:          -4.950
REMARK INTER:                  -4.232
REMARK INTRA:                  -0.718
REMARK UNBOUND:                -1.018
REMARK SMILES CCCCCCCCCCC(=O)[O-]
REMARK SMILES IDX 7 1 8 2 9 3 10 4 11 5 12 6 13 7 6 8 5 9 4 10 3 11 2 12 1 13
REMARK H PARENT
REMARK Flexibility Score: inf
ROOT
ATOM      1  C   UNL     1      -9.669 -21.272  19.541  1.00  0.00     0.000 C 
ENDROOT
BRANCH   1   2
ATOM      2  C   UNL     1     -10.212 -22.010  18.311  1.00  0.00     0.000 C 
BRANCH   2   3
ATOM      3  C   UNL     1      -9.069 -22.631  17.494  1.00  0.00     0.006 C 
BRANCH   3   4
ATOM      4  C   UNL     1      -7.690 -22.314  18.089  1.00  0.00     0.053 C 
BRANCH   4   5
ATOM      5  C   UNL     1      -6.614 -22.355  17.049  1.00  0.00     0.041 C 
ATOM      6  O   UNL     1      -6.913 -22.335  15.825  1.00  0.00    -0.550 OA
ATOM      7  O   UNL     1      -5.279 -22.384  17.431  1.00  0.00    -0.550 OA
ENDBRANCH   4   5
ENDBRANCH   3   4
ENDBRANCH   2   3
ENDBRANCH   1   2
BRANCH   1   8
ATOM      8  C   UNL     1     -10.420 -21.691  20.811  1.00  0.00     0.000 C 
BRANCH   8   9
ATOM      9  C   UNL     1      -9.439 -22.017  21.947  1.00  0.00    -0.000 C 
BRANCH   9  10
ATOM     10  C   UNL     1      -9.550 -21.039  23.127  1.00  0.00    -0.000 C 
BRANCH  10  11
ATOM     11  C   UNL     1     -10.482 -19.853  22.826  1.00  0.00    -0.000 C 
BRANCH  11  12
ATOM     12  C   UNL     1      -9.715 -18.532  22.651  1.00  0.00    -0.003 C 
ATOM     13  C   UNL     1      -9.968 -17.875  21.294  1.00  0.00     0.004 C 
ENDBRANCH  11  12
ENDBRANCH  10  11
ENDBRANCH   9  10
ENDBRANCH   8   9
ENDBRANCH   1   8
TORSDOF 9
ENDMDL
MODEL 7
REMARK VINA RESULT:    -2.541      3.225      5.080
REMARK INTER + INTRA:          -4.897
REMARK INTER:                  -4.360
REMARK INTRA:                  -0.537
REMARK UNBOUND:                -1.018
REMARK SMILES CCCCCCCCCCC(=O)[O-]
REMARK SMILES IDX 7 1 8 2 9 3 10 4 11 5 12 6 13 7 6 8 5 9 4 10 3 11 2 12 1 13
REMARK H PARENT
REMARK Flexibility Score: inf
ROOT
ATOM      1  C   UNL     1      -9.549 -21.663  20.762  1.00  0.00     0.000 C 
ENDROOT
BRANCH   1   2
ATOM      2  C   UNL     1     -10.473 -21.646  21.986  1.00  0.00     0.000 C 
BRANCH   2   3
ATOM      3  C   UNL     1     -10.035 -20.569  22.991  1.00  0.00     0.006 C 
BRANCH   3   4
ATOM      4  C   UNL     1     -10.793 -19.249  22.795  1.00  0.00     0.053 C 
BRANCH   4   5
ATOM      5  C   UNL     1      -9.886 -18.153  22.328  1.00  0.00     0.041 C 
ATOM      6  O   UNL     1      -9.936 -17.752  21.135  1.00  0.00    -0.550 OA
ATOM      7  O   UNL     1      -9.007 -17.552  23.220  1.00  0.00    -0.550 OA
ENDBRANCH   4   5
ENDBRANCH   3   4
ENDBRANCH   2   3
ENDBRANCH   1   2
BRANCH   1   8
ATOM      8  C   UNL     1     -10.283 -21.166  19.511  1.00  0.00     0.000 C 
BRANCH   8   9
ATOM      9  C   UNL     1     -11.079 -22.302  18.852  1.00  0.00    -0.000 C 
BRANCH   9  10
ATOM     10  C   UNL     1     -11.124 -22.186  17.320  1.00  0.00    -0.000 C 
BRANCH  10  11
ATOM     11  C   UNL     1     -10.137 -21.138  16.778  1.00  0.00    -0.000 C 
BRANCH  11  12
ATOM     12  C   UNL     1     -10.823 -20.094  15.882  1.00  0.00    -0.003 C 
ATOM     13  C   UNL     1     -10.287 -20.095  14.451  1.00  0.00     0.004 C 
ENDBRANCH  11  12
ENDBRANCH  10  11
ENDBRANCH   9  10
ENDBRANCH   8   9
ENDBRANCH   1   8
TORSDOF 9
ENDMDL
MODEL 8
REMARK VINA RESULT:    -2.517      2.278      3.531
REMARK INTER + INTRA:          -4.860
REMARK INTER:                  -4.276
REMARK INTRA:                  -0.584
REMARK UNBOUND:                -1.018
REMARK SMILES CCCCCCCCCCC(=O)[O-]
REMARK SMILES IDX 7 1 8 2 9 3 10 4 11 5 12 6 13 7 6 8 5 9 4 10 3 11 2 12 1 13
REMARK H PARENT
REMARK Flexibility Score: inf
ROOT
ATOM      1  C   UNL     1      -9.298 -21.773  17.723  1.00  0.00     0.000 C 
ENDROOT
BRANCH   1   2
ATOM      2  C   UNL     1      -8.312 -22.126  18.843  1.00  0.00     0.000 C 
BRANCH   2   3
ATOM      3  C   UNL     1      -7.253 -23.124  18.349  1.00  0.00     0.006 C 
BRANCH   3   4
ATOM      4  C   UNL     1      -7.077 -23.076  16.825  1.00  0.00     0.053 C 
BRANCH   4   5
ATOM      5  C   UNL     1      -5.796 -22.406  16.436  1.00  0.00     0.041 C 
ATOM      6  O   UNL     1      -4.690 -22.894  16.789  1.00  0.00    -0.550 OA
ATOM      7  O   UNL     1      -5.823 -21.257  15.655  1.00  0.00    -0.550 OA
ENDBRANCH   4   5
ENDBRANCH   3   4
ENDBRANCH   2   3
ENDBRANCH   1   2
BRANCH   1   8
ATOM      8  C   UNL     1     -10.448 -20.908  18.254  1.00  0.00     0.000 C 
BRANCH   8   9
ATOM      9  C   UNL     1     -10.641 -21.116  19.763  1.00  0.00    -0.000 C 
BRANCH   9  10
ATOM     10  C   UNL     1     -11.087 -19.836  20.488  1.00  0.00    -0.000 C 
BRANCH  10  11
ATOM     11  C   UNL     1     -10.129 -18.656  20.244  1.00  0.00    -0.000 C 
BRANCH  11  12
ATOM     12  C   UNL     1     -10.032 -17.719  21.458  1.00  0.00    -0.003 C 
ATOM     13  C   UNL     1      -9.587 -18.439  22.731  1.00  0.00     0.004 C 
ENDBRANCH  11  12
ENDBRANCH  10  11
ENDBRANCH   9  10
ENDBRANCH   8   9
ENDBRANCH   1   8
TORSDOF 9
ENDMDL
MODEL 9
REMARK VINA RESULT:    -2.393     17.446     19.737
REMARK INTER + INTRA:          -4.670
REMARK INTER:                  -3.797
REMARK INTRA:                  -0.873
REMARK UNBOUND:                -1.018
REMARK SMILES CCCCCCCCCCC(=O)[O-]
REMARK SMILES IDX 7 1 8 2 9 3 10 4 11 5 12 6 13 7 6 8 5 9 4 10 3 11 2 12 1 13
REMARK H PARENT
REMARK Flexibility Score: inf
ROOT
ATOM      1  C   UNL     1       8.307 -19.785  12.437  1.00  0.00     0.000 C 
ENDROOT
BRANCH   1   2
ATOM      2  C   UNL     1       9.125 -19.752  13.733  1.00  0.00     0.000 C 
BRANCH   2   3
ATOM      3  C   UNL     1       8.924 -21.042  14.543  1.00  0.00     0.006 C 
BRANCH   3   4
ATOM      4  C   UNL     1       7.716 -20.955  15.485  1.00  0.00     0.053 C 
BRANCH   4   5
ATOM      5  C   UNL     1       7.818 -21.937  16.610  1.00  0.00     0.041 C 
ATOM      6  O   UNL     1       6.977 -21.918  17.548  1.00  0.00    -0.550 OA
ATOM      7  O   UNL     1       8.824 -22.895  16.607  1.00  0.00    -0.550 OA
ENDBRANCH   4   5
ENDBRANCH   3   4
ENDBRANCH   2   3
ENDBRANCH   1   2
BRANCH   1   8
ATOM      8  C   UNL     1       9.124 -20.378  11.283  1.00  0.00     0.000 C 
BRANCH   8   9
ATOM      9  C   UNL     1       8.993 -21.908  11.246  1.00  0.00    -0.000 C 
BRANCH   9  10
ATOM     10  C   UNL     1       7.980 -22.393  10.197  1.00  0.00    -0.000 C 
BRANCH  10  11
ATOM     11  C   UNL     1       6.662 -22.875  10.826  1.00  0.00    -0.000 C 
BRANCH  11  12
ATOM     12  C   UNL     1       6.790 -23.124  12.337  1.00  0.00    -0.003 C 
ATOM     13  C   UNL     1       5.509 -22.794  13.104  1.00  0.00     0.004 C 
ENDBRANCH  11  12
ENDBRANCH  10  11
ENDBRANCH   9  10
ENDBRANCH   8   9
ENDBRANCH   1   8
TORSDOF 9
ENDMDL
