MODEL 1
REMARK VINA RESULT:    -3.430      0.000      0.000
REMARK INTER + INTRA:          -4.363
REMARK INTER:                  -4.132
REMARK INTRA:                  -0.231
REMARK UNBOUND:                -0.231
REMARK SMILES C=CCc1ccc(O)c(OC)c1
REMARK SMILES IDX 9 1 7 2 6 3 5 4 4 5 12 6 10 7 11 8 8 9 3 11 2 12 1 13
REMARK H PARENT 8 10
REMARK Flexibility Score: inf
ROOT
ATOM      1  C   UNL     1     108.187 107.891 106.378  1.00  0.00     0.160 A 
ATOM      2  C   UNL     1     107.823 107.249 105.180  1.00  0.00     0.157 A 
ATOM      3  C   UNL     1     107.576 108.003 104.029  1.00  0.00     0.050 A 
ATOM      4  C   UNL     1     107.686 109.394 104.057  1.00  0.00     0.008 A 
ATOM      5  C   UNL     1     108.038 110.050 105.245  1.00  0.00    -0.040 A 
ATOM      6  C   UNL     1     108.296 109.296 106.400  1.00  0.00     0.054 A 
ENDROOT
BRANCH   1   7
ATOM      7  O   UNL     1     108.433 107.109 107.518  1.00  0.00    -0.493 OA
ATOM      8  C   UNL     1     107.472 106.832 108.531  1.00  0.00     0.278 C 
ENDBRANCH   1   7
BRANCH   2   9
ATOM      9  O   UNL     1     107.702 105.861 105.114  1.00  0.00    -0.504 OA
ATOM     10  H   UNL     1     108.497 105.257 104.945  1.00  0.00     0.293 HD
ENDBRANCH   2   9
BRANCH   5  11
ATOM     11  C   UNL     1     108.186 111.549 105.271  1.00  0.00     0.062 C 
BRANCH  11  12
ATOM     12  C   UNL     1     106.871 112.210 105.575  1.00  0.00    -0.030 C 
ATOM     13  C   UNL     1     106.658 112.850 106.729  1.00  0.00     0.004 C 
ENDBRANCH  11  12
ENDBRANCH   5  11
TORSDOF 4
ENDMDL
MODEL 2
REMARK VINA RESULT:    -3.419      3.804      4.723
REMARK INTER + INTRA:          -4.349
REMARK INTER:                  -4.117
REMARK INTRA:                  -0.232
REMARK UNBOUND:                -0.231
REMARK SMILES C=CCc1ccc(O)c(OC)c1
REMARK SMILES IDX 9 1 7 2 6 3 5 4 4 5 12 6 10 7 11 8 8 9 3 11 2 12 1 13
REMARK H PARENT 8 10
REMARK Flexibility Score: inf
ROOT
ATOM      1  C   UNL     1     112.122 108.375 106.260  1.00  0.00     0.160 A 
ATOM      2  C   UNL     1     112.792 107.861 105.134  1.00  0.00     0.157 A 
ATOM      3  C   UNL     1     112.065 107.454 104.012  1.00  0.00     0.050 A 
ATOM      4  C   UNL     1     110.672 107.550 103.997  1.00  0.00     0.008 A 
ATOM      5  C   UNL     1     109.988 108.050 105.115  1.00  0.00    -0.040 A 
ATOM      6  C   UNL     1     110.715 108.469 106.239  1.00  0.00     0.054 A 
ENDROOT
BRANCH   1   7
ATOM      7  O   UNL     1     112.878 108.780 107.371  1.00  0.00    -0.493 OA
ATOM      8  C   UNL     1     113.168 107.956 108.496  1.00  0.00     0.278 C 
ENDBRANCH   1   7
BRANCH   2   9
ATOM      9  O   UNL     1     114.182 107.750 105.112  1.00  0.00    -0.504 OA
ATOM     10  H   UNL     1     114.786 108.433 105.553  1.00  0.00     0.293 HD
ENDBRANCH   2   9
BRANCH   5  11
ATOM     11  C   UNL     1     108.488 108.182 105.091  1.00  0.00     0.062 C 
BRANCH  11  12
ATOM     12  C   UNL     1     107.833 106.897 105.512  1.00  0.00    -0.030 C 
ATOM     13  C   UNL     1     107.223 106.775 106.695  1.00  0.00     0.004 C 
ENDBRANCH  11  12
ENDBRANCH   5  11
TORSDOF 4
ENDMDL
MODEL 3
REMARK VINA RESULT:    -3.383      3.657      4.647
REMARK INTER + INTRA:          -4.306
REMARK INTER:                  -4.067
REMARK INTRA:                  -0.239
REMARK UNBOUND:                -0.231
REMARK SMILES C=CCc1ccc(O)c(OC)c1
REMARK SMILES IDX 9 1 7 2 6 3 5 4 4 5 12 6 10 7 11 8 8 9 3 11 2 12 1 13
REMARK H PARENT 8 10
REMARK Flexibility Score: inf
ROOT
ATOM      1  C   UNL     1     108.007 111.674 106.389  1.00  0.00     0.160 A 
ATOM      2  C   UNL     1     107.301 112.206 105.294  1.00  0.00     0.157 A 
ATOM      3  C   UNL     1     107.989 112.604 104.144  1.00  0.00     0.050 A 
ATOM      4  C   UNL     1     109.378 112.482 104.072  1.00  0.00     0.008 A 
ATOM      5  C   UNL     1     110.098 111.963 105.157  1.00  0.00    -0.040 A 
ATOM      6  C   UNL     1     109.410 111.553 106.310  1.00  0.00     0.054 A 
ENDROOT
BRANCH   1   7
ATOM      7  O   UNL     1     107.290 111.278 107.529  1.00  0.00    -0.493 OA
ATOM      8  C   UNL     1     107.019 112.119 108.646  1.00  0.00     0.278 C 
ENDBRANCH   1   7
BRANCH   2   9
ATOM      9  O   UNL     1     105.914 112.345 105.330  1.00  0.00    -0.504 OA
ATOM     10  H   UNL     1     105.301 111.807 104.730  1.00  0.00     0.293 HD
ENDBRANCH   2   9
BRANCH   5  11
ATOM     11  C   UNL     1     111.593 111.802 105.072  1.00  0.00     0.062 C 
BRANCH  11  12
ATOM     12  C   UNL     1     112.286 113.107 105.341  1.00  0.00    -0.030 C 
ATOM     13  C   UNL     1     112.789 113.400 106.545  1.00  0.00     0.004 C 
ENDBRANCH  11  12
ENDBRANCH   5  11
TORSDOF 4
ENDMDL
MODEL 4
REMARK VINA RESULT:    -3.376      2.808      4.566
REMARK INTER + INTRA:          -4.297
REMARK INTER:                  -4.055
REMARK INTRA:                  -0.243
REMARK UNBOUND:                -0.231
REMARK SMILES C=CCc1ccc(O)c(OC)c1
REMARK SMILES IDX 9 1 7 2 6 3 5 4 4 5 12 6 10 7 11 8 8 9 3 11 2 12 1 13
REMARK H PARENT 8 10
REMARK Flexibility Score: inf
ROOT
ATOM      1  C   UNL     1     107.616 111.359 106.683  1.00  0.00     0.160 A 
ATOM      2  C   UNL     1     106.750 112.066 105.829  1.00  0.00     0.157 A 
ATOM      3  C   UNL     1     106.713 111.766 104.464  1.00  0.00     0.050 A 
ATOM      4  C   UNL     1     107.533 110.767 103.937  1.00  0.00     0.008 A 
ATOM      5  C   UNL     1     108.410 110.060 104.772  1.00  0.00    -0.040 A 
ATOM      6  C   UNL     1     108.443 110.352 106.144  1.00  0.00     0.054 A 
ENDROOT
BRANCH   1   7
ATOM      7  O   UNL     1     107.630 111.679 108.050  1.00  0.00    -0.493 OA
ATOM      8  C   UNL     1     108.565 112.560 108.665  1.00  0.00     0.278 C 
ENDBRANCH   1   7
BRANCH   2   9
ATOM      9  O   UNL     1     105.917 113.071 106.320  1.00  0.00    -0.504 OA
ATOM     10  H   UNL     1     105.031 112.868 106.767  1.00  0.00     0.293 HD
ENDBRANCH   2   9
BRANCH   5  11
ATOM     11  C   UNL     1     109.276 108.962 104.211  1.00  0.00     0.062 C 
BRANCH  11  12
ATOM     12  C   UNL     1     108.834 107.620 104.723  1.00  0.00    -0.030 C 
ATOM     13  C   UNL     1     108.187 106.749 103.942  1.00  0.00     0.004 C 
ENDBRANCH  11  12
ENDBRANCH   5  11
TORSDOF 4
ENDMDL
MODEL 5
REMARK VINA RESULT:    -3.371      5.188      6.702
REMARK INTER + INTRA:          -4.292
REMARK INTER:                  -4.067
REMARK INTRA:                  -0.225
REMARK UNBOUND:                -0.231
REMARK SMILES C=CCc1ccc(O)c(OC)c1
REMARK SMILES IDX 9 1 7 2 6 3 5 4 4 5 12 6 10 7 11 8 8 9 3 11 2 12 1 13
REMARK H PARENT 8 10
REMARK Flexibility Score: inf
ROOT
ATOM      1  C   UNL     1     111.858 112.026 106.152  1.00  0.00     0.160 A 
ATOM      2  C   UNL     1     112.312 112.661 104.980  1.00  0.00     0.157 A 
ATOM      3  C   UNL     1     112.698 111.897 103.875  1.00  0.00     0.050 A 
ATOM      4  C   UNL     1     112.641 110.503 103.923  1.00  0.00     0.008 A 
ATOM      5  C   UNL     1     112.200 109.854 105.086  1.00  0.00    -0.040 A 
ATOM      6  C   UNL     1     111.802 110.618 106.193  1.00  0.00     0.054 A 
ENDROOT
BRANCH   1   7
ATOM      7  O   UNL     1     111.472 112.818 107.245  1.00  0.00    -0.493 OA
ATOM      8  C   UNL     1     112.323 113.163 108.333  1.00  0.00     0.278 C 
ENDBRANCH   1   7
BRANCH   2   9
ATOM      9  O   UNL     1     112.385 114.051 104.896  1.00  0.00    -0.504 OA
ATOM     10  H   UNL     1     112.952 114.602 105.529  1.00  0.00     0.293 HD
ENDBRANCH   2   9
BRANCH   5  11
ATOM     11  C   UNL     1     112.108 108.351 105.130  1.00  0.00     0.062 C 
BRANCH  11  12
ATOM     12  C   UNL     1     113.363 107.758 105.707  1.00  0.00    -0.030 C 
ATOM     13  C   UNL     1     113.356 107.093 106.867  1.00  0.00     0.004 C 
ENDBRANCH  11  12
ENDBRANCH   5  11
TORSDOF 4
ENDMDL
MODEL 6
REMARK VINA RESULT:    -3.336      2.629      3.530
REMARK INTER + INTRA:          -4.250
REMARK INTER:                  -4.004
REMARK INTRA:                  -0.246
REMARK UNBOUND:                -0.231
REMARK SMILES C=CCc1ccc(O)c(OC)c1
REMARK SMILES IDX 9 1 7 2 6 3 5 4 4 5 12 6 10 7 11 8 8 9 3 11 2 12 1 13
REMARK H PARENT 8 10
REMARK Flexibility Score: inf
ROOT
ATOM      1  C   UNL     1     108.560 107.681 106.614  1.00  0.00     0.160 A 
ATOM      2  C   UNL     1     107.899 106.755 105.787  1.00  0.00     0.157 A 
ATOM      3  C   UNL     1     108.230 106.665 104.432  1.00  0.00     0.050 A 
ATOM      4  C   UNL     1     109.213 107.492 103.886  1.00  0.00     0.008 A 
ATOM      5  C   UNL     1     109.875 108.428 104.694  1.00  0.00    -0.040 A 
ATOM      6  C   UNL     1     109.553 108.514 106.057  1.00  0.00     0.054 A 
ENDROOT
BRANCH   1   7
ATOM      7  O   UNL     1     108.211 107.747 107.972  1.00  0.00    -0.493 OA
ATOM      8  C   UNL     1     109.056 107.341 109.044  1.00  0.00     0.278 C 
ENDBRANCH   1   7
BRANCH   2   9
ATOM      9  O   UNL     1     106.911 105.913 106.296  1.00  0.00    -0.504 OA
ATOM     10  H   UNL     1     106.743 105.815 107.290  1.00  0.00     0.293 HD
ENDBRANCH   2   9
BRANCH   5  11
ATOM     11  C   UNL     1     110.957 109.302 104.116  1.00  0.00     0.062 C 
BRANCH  11  12
ATOM     12  C   UNL     1     112.293 108.963 104.715  1.00  0.00    -0.030 C 
ATOM     13  C   UNL     1     113.189 108.220 104.058  1.00  0.00     0.004 C 
ENDBRANCH  11  12
ENDBRANCH   5  11
TORSDOF 4
ENDMDL
MODEL 7
REMARK VINA RESULT:    -3.332      4.469      4.941
REMARK INTER + INTRA:          -4.245
REMARK INTER:                  -4.011
REMARK INTRA:                  -0.235
REMARK UNBOUND:                -0.231
REMARK SMILES C=CCc1ccc(O)c(OC)c1
REMARK SMILES IDX 9 1 7 2 6 3 5 4 4 5 12 6 10 7 11 8 8 9 3 11 2 12 1 13
REMARK H PARENT 8 10
REMARK Flexibility Score: inf
ROOT
ATOM      1  C   UNL     1     112.610 108.772 106.652  1.00  0.00     0.160 A 
ATOM      2  C   UNL     1     113.369 107.985 105.766  1.00  0.00     0.157 A 
ATOM      3  C   UNL     1     113.263 108.185 104.386  1.00  0.00     0.050 A 
ATOM      4  C   UNL     1     112.406 109.161 103.876  1.00  0.00     0.008 A 
ATOM      5  C   UNL     1     111.635 109.947 104.744  1.00  0.00    -0.040 A 
ATOM      6  C   UNL     1     111.746 109.756 106.130  1.00  0.00     0.054 A 
ENDROOT
BRANCH   1   7
ATOM      7  O   UNL     1     112.739 108.552 108.033  1.00  0.00    -0.493 OA
ATOM      8  C   UNL     1     112.514 109.541 109.033  1.00  0.00     0.278 C 
ENDBRANCH   1   7
BRANCH   2   9
ATOM      9  O   UNL     1     114.235 107.000 106.239  1.00  0.00    -0.504 OA
ATOM     10  H   UNL     1     113.953 106.032 106.334  1.00  0.00     0.293 HD
ENDBRANCH   2   9
BRANCH   5  11
ATOM     11  C   UNL     1     110.731 111.021 104.198  1.00  0.00     0.062 C 
BRANCH  11  12
ATOM     12  C   UNL     1     111.113 112.368 104.743  1.00  0.00    -0.030 C 
ATOM     13  C   UNL     1     111.922 113.193 104.071  1.00  0.00     0.004 C 
ENDBRANCH  11  12
ENDBRANCH   5  11
TORSDOF 4
ENDMDL
MODEL 8
REMARK VINA RESULT:    -3.287      4.322      5.618
REMARK INTER + INTRA:          -4.191
REMARK INTER:                  -3.944
REMARK INTRA:                  -0.247
REMARK UNBOUND:                -0.231
REMARK SMILES C=CCc1ccc(O)c(OC)c1
REMARK SMILES IDX 9 1 7 2 6 3 5 4 4 5 12 6 10 7 11 8 8 9 3 11 2 12 1 13
REMARK H PARENT 8 10
REMARK Flexibility Score: inf
ROOT
ATOM      1  C   UNL     1     111.537 112.622 106.980  1.00  0.00     0.160 A 
ATOM      2  C   UNL     1     112.288 113.361 106.048  1.00  0.00     0.157 A 
ATOM      3  C   UNL     1     111.923 113.365 104.699  1.00  0.00     0.050 A 
ATOM      4  C   UNL     1     110.816 112.635 104.263  1.00  0.00     0.008 A 
ATOM      5  C   UNL     1     110.061 111.885 105.177  1.00  0.00    -0.040 A 
ATOM      6  C   UNL     1     110.419 111.887 106.534  1.00  0.00     0.054 A 
ENDROOT
BRANCH   1   7
ATOM      7  O   UNL     1     111.923 112.640 108.330  1.00  0.00    -0.493 OA
ATOM      8  C   UNL     1     112.663 111.607 108.972  1.00  0.00     0.278 C 
ENDBRANCH   1   7
BRANCH   2   9
ATOM      9  O   UNL     1     113.402 114.101 106.446  1.00  0.00    -0.504 OA
ATOM     10  H   UNL     1     113.929 113.877 107.281  1.00  0.00     0.293 HD
ENDBRANCH   2   9
BRANCH   5  11
ATOM     11  C   UNL     1     108.848 111.120 104.716  1.00  0.00     0.062 C 
BRANCH  11  12
ATOM     12  C   UNL     1     107.653 112.026 104.616  1.00  0.00    -0.030 C 
ATOM     13  C   UNL     1     106.827 112.213 105.650  1.00  0.00     0.004 C 
ENDBRANCH  11  12
ENDBRANCH   5  11
TORSDOF 4
ENDMDL
MODEL 9
REMARK VINA RESULT:    -3.263      2.715      4.491
REMARK INTER + INTRA:          -4.161
REMARK INTER:                  -3.904
REMARK INTRA:                  -0.257
REMARK UNBOUND:                -0.231
REMARK SMILES C=CCc1ccc(O)c(OC)c1
REMARK SMILES IDX 9 1 7 2 6 3 5 4 4 5 12 6 10 7 11 8 8 9 3 11 2 12 1 13
REMARK H PARENT 8 10
REMARK Flexibility Score: inf
ROOT
ATOM      1  C   UNL     1     107.720 111.323 106.042  1.00  0.00     0.160 A 
ATOM      2  C   UNL     1     107.401 111.400 104.673  1.00  0.00     0.157 A 
ATOM      3  C   UNL     1     107.457 110.254 103.875  1.00  0.00     0.050 A 
ATOM      4  C   UNL     1     107.831 109.026 104.425  1.00  0.00     0.008 A 
ATOM      5  C   UNL     1     108.162 108.933 105.784  1.00  0.00    -0.040 A 
ATOM      6  C   UNL     1     108.098 110.080 106.590  1.00  0.00     0.054 A 
ENDROOT
BRANCH   1   7
ATOM      7  O   UNL     1     107.651 112.489 106.820  1.00  0.00    -0.493 OA
ATOM      8  C   UNL     1     106.630 112.765 107.773  1.00  0.00     0.278 C 
ENDBRANCH   1   7
BRANCH   2   9
ATOM      9  O   UNL     1     107.024 112.609 104.089  1.00  0.00    -0.504 OA
ATOM     10  H   UNL     1     106.155 112.716 103.581  1.00  0.00     0.293 HD
ENDBRANCH   2   9
BRANCH   5  11
ATOM     11  C   UNL     1     108.538 107.605 106.387  1.00  0.00     0.062 C 
BRANCH  11  12
ATOM     12  C   UNL     1     107.382 106.647 106.329  1.00  0.00    -0.030 C 
ATOM     13  C   UNL     1     106.639 106.376 107.407  1.00  0.00     0.004 C 
ENDBRANCH  11  12
ENDBRANCH   5  11
TORSDOF 4
ENDMDL
