MODEL 1
REMARK VINA RESULT:    -4.408      0.000      0.000
REMARK INTER + INTRA:          -7.138
REMARK INTER:                  -6.727
REMARK INTRA:                  -0.411
REMARK UNBOUND:                -0.411
REMARK SMILES O=C([O-])CCCCCCCCC(=O)[O-]
REMARK SMILES IDX 7 1 6 2 5 3 4 4 2 5 1 6 3 7 8 8 9 9 10 10 11 11 12 12 13 13
REMARK SMILES IDX 14 14
REMARK H PARENT
REMARK Flexibility Score: inf
ROOT
ATOM      1  C   UNL     1    -118.600 -98.714  47.241  1.00  0.00     0.000 C 
ENDROOT
BRANCH   1   2
ATOM      2  C   UNL     1    -117.578 -98.510  48.370  1.00  0.00     0.000 C 
BRANCH   2   3
ATOM      3  C   UNL     1    -117.719 -97.139  49.055  1.00  0.00     0.006 C 
BRANCH   3   4
ATOM      4  C   UNL     1    -118.982 -96.394  48.603  1.00  0.00     0.053 C 
BRANCH   4   5
ATOM      5  C   UNL     1    -118.651 -95.135  47.864  1.00  0.00     0.041 C 
ATOM      6  O   UNL     1    -118.264 -95.185  46.666  1.00  0.00    -0.550 OA
ATOM      7  O   UNL     1    -118.803 -93.902  48.486  1.00  0.00    -0.550 OA
ENDBRANCH   4   5
ENDBRANCH   3   4
ENDBRANCH   2   3
ENDBRANCH   1   2
BRANCH   1   8
ATOM      8  C   UNL     1    -117.970 -99.336  45.981  1.00  0.00     0.000 C 
BRANCH   8   9
ATOM      9  C   UNL     1    -118.055 -98.409  44.758  1.00  0.00     0.000 C 
BRANCH   9  10
ATOM     10  C   UNL     1    -117.298 -98.967  43.540  1.00  0.00     0.006 C 
BRANCH  10  11
ATOM     11  C   UNL     1    -117.728 -98.289  42.232  1.00  0.00     0.053 C 
BRANCH  11  12
ATOM     12  C   UNL     1    -116.965 -98.815  41.055  1.00  0.00     0.041 C 
ATOM     13  O   UNL     1    -117.397 -98.631  39.886  1.00  0.00    -0.550 OA
ATOM     14  O   UNL     1    -115.792 -99.534  41.250  1.00  0.00    -0.550 OA
ENDBRANCH  11  12
ENDBRANCH  10  11
ENDBRANCH   9  10
ENDBRANCH   8   9
ENDBRANCH   1   8
TORSDOF 9
ENDMDL
MODEL 2
REMARK VINA RESULT:    -4.379      0.829      6.486
REMARK INTER + INTRA:          -7.094
REMARK INTER:                  -6.702
REMARK INTRA:                  -0.392
REMARK UNBOUND:                -0.411
REMARK SMILES O=C([O-])CCCCCCCCC(=O)[O-]
REMARK SMILES IDX 7 1 6 2 5 3 4 4 2 5 1 6 3 7 8 8 9 9 10 10 11 11 12 12 13 13
REMARK SMILES IDX 14 14
REMARK H PARENT
REMARK Flexibility Score: inf
ROOT
ATOM      1  C   UNL     1    -118.087 -98.872  46.224  1.00  0.00     0.000 C 
ENDROOT
BRANCH   1   2
ATOM      2  C   UNL     1    -118.308 -99.961  45.162  1.00  0.00     0.000 C 
BRANCH   2   3
ATOM      3  C   UNL     1    -118.264 -99.405  43.727  1.00  0.00     0.006 C 
BRANCH   3   4
ATOM      4  C   UNL     1    -116.871 -98.884  43.351  1.00  0.00     0.053 C 
BRANCH   4   5
ATOM      5  C   UNL     1    -116.680 -98.828  41.867  1.00  0.00     0.041 C 
ATOM      6  O   UNL     1    -117.344 -98.014  41.172  1.00  0.00    -0.550 OA
ATOM      7  O   UNL     1    -115.742 -99.650  41.255  1.00  0.00    -0.550 OA
ENDBRANCH   4   5
ENDBRANCH   3   4
ENDBRANCH   2   3
ENDBRANCH   1   2
BRANCH   1   8
ATOM      8  C   UNL     1    -117.614 -99.449  47.571  1.00  0.00     0.000 C 
BRANCH   8   9
ATOM      9  C   UNL     1    -117.976 -98.546  48.760  1.00  0.00     0.000 C 
BRANCH   9  10
ATOM     10  C   UNL     1    -117.399 -97.126  48.621  1.00  0.00     0.006 C 
BRANCH  10  11
ATOM     11  C   UNL     1    -118.412 -96.047  49.025  1.00  0.00     0.053 C 
BRANCH  11  12
ATOM     12  C   UNL     1    -118.529 -94.975  47.986  1.00  0.00     0.041 C 
ATOM     13  O   UNL     1    -118.728 -93.780  48.329  1.00  0.00    -0.550 OA
ATOM     14  O   UNL     1    -118.448 -95.299  46.638  1.00  0.00    -0.550 OA
ENDBRANCH  11  12
ENDBRANCH  10  11
ENDBRANCH   9  10
ENDBRANCH   8   9
ENDBRANCH   1   8
TORSDOF 9
ENDMDL
MODEL 3
REMARK VINA RESULT:    -4.031      1.183      6.983
REMARK INTER + INTRA:          -6.562
REMARK INTER:                  -6.417
REMARK INTRA:                  -0.145
REMARK UNBOUND:                -0.411
REMARK SMILES O=C([O-])CCCCCCCCC(=O)[O-]
REMARK SMILES IDX 7 1 6 2 5 3 4 4 2 5 1 6 3 7 8 8 9 9 10 10 11 11 12 12 13 13
REMARK SMILES IDX 14 14
REMARK H PARENT
REMARK Flexibility Score: inf
ROOT
ATOM      1  C   UNL     1    -117.954 -99.679  44.026  1.00  0.00     0.000 C 
ENDROOT
BRANCH   1   2
ATOM      2  C   UNL     1    -117.463 -98.409  43.314  1.00  0.00     0.000 C 
BRANCH   2   3
ATOM      3  C   UNL     1    -116.378 -98.704  42.262  1.00  0.00     0.006 C 
BRANCH   3   4
ATOM      4  C   UNL     1    -116.816 -99.787  41.268  1.00  0.00     0.053 C 
BRANCH   4   5
ATOM      5  C   UNL     1    -117.497 -99.200  40.071  1.00  0.00     0.041 C 
ATOM      6  O   UNL     1    -118.684 -98.787  40.155  1.00  0.00    -0.550 OA
ATOM      7  O   UNL     1    -116.808 -99.073  38.871  1.00  0.00    -0.550 OA
ENDBRANCH   4   5
ENDBRANCH   3   4
ENDBRANCH   2   3
ENDBRANCH   1   2
BRANCH   1   8
ATOM      8  C   UNL     1    -117.984 -99.522  45.558  1.00  0.00     0.000 C 
BRANCH   8   9
ATOM      9  C   UNL     1    -118.284 -98.080  45.998  1.00  0.00     0.000 C 
BRANCH   9  10
ATOM     10  C   UNL     1    -118.491 -97.957  47.518  1.00  0.00     0.006 C 
BRANCH  10  11
ATOM     11  C   UNL     1    -117.643 -96.833  48.128  1.00  0.00     0.053 C 
BRANCH  11  12
ATOM     12  C   UNL     1    -118.246 -95.484  47.882  1.00  0.00     0.041 C 
ATOM     13  O   UNL     1    -118.366 -95.049  46.707  1.00  0.00    -0.550 OA
ATOM     14  O   UNL     1    -118.648 -94.695  48.952  1.00  0.00    -0.550 OA
ENDBRANCH  11  12
ENDBRANCH  10  11
ENDBRANCH   9  10
ENDBRANCH   8   9
ENDBRANCH   1   8
TORSDOF 9
ENDMDL
MODEL 4
REMARK VINA RESULT:    -3.899      0.972      1.571
REMARK INTER + INTRA:          -6.361
REMARK INTER:                  -6.010
REMARK INTRA:                  -0.351
REMARK UNBOUND:                -0.411
REMARK SMILES O=C([O-])CCCCCCCCC(=O)[O-]
REMARK SMILES IDX 7 1 6 2 5 3 4 4 2 5 1 6 3 7 8 8 9 9 10 10 11 11 12 12 13 13
REMARK SMILES IDX 14 14
REMARK H PARENT
REMARK Flexibility Score: inf
ROOT
ATOM      1  C   UNL     1    -118.463 -98.373  46.622  1.00  0.00     0.000 C 
ENDROOT
BRANCH   1   2
ATOM      2  C   UNL     1    -117.607 -98.491  47.893  1.00  0.00     0.000 C 
BRANCH   2   3
ATOM      3  C   UNL     1    -117.856 -97.338  48.882  1.00  0.00     0.006 C 
BRANCH   3   4
ATOM      4  C   UNL     1    -119.062 -96.480  48.478  1.00  0.00     0.053 C 
BRANCH   4   5
ATOM      5  C   UNL     1    -118.661 -95.074  48.155  1.00  0.00     0.041 C 
ATOM      6  O   UNL     1    -118.799 -94.162  49.013  1.00  0.00    -0.550 OA
ATOM      7  O   UNL     1    -118.100 -94.777  46.919  1.00  0.00    -0.550 OA
ENDBRANCH   4   5
ENDBRANCH   3   4
ENDBRANCH   2   3
ENDBRANCH   1   2
BRANCH   1   8
ATOM      8  C   UNL     1    -117.883 -99.177  45.444  1.00  0.00     0.000 C 
BRANCH   8   9
ATOM      9  C   UNL     1    -118.912 -99.413  44.327  1.00  0.00     0.000 C 
BRANCH   9  10
ATOM     10  C   UNL     1    -118.300 -99.277  42.921  1.00  0.00     0.006 C 
BRANCH  10  11
ATOM     11  C   UNL     1    -118.496 -97.871  42.338  1.00  0.00     0.053 C 
BRANCH  11  12
ATOM     12  C   UNL     1    -118.031 -97.787  40.917  1.00  0.00     0.041 C 
ATOM     13  O   UNL     1    -117.292 -98.688  40.438  1.00  0.00    -0.550 OA
ATOM     14  O   UNL     1    -118.388 -96.700  40.130  1.00  0.00    -0.550 OA
ENDBRANCH  11  12
ENDBRANCH  10  11
ENDBRANCH   9  10
ENDBRANCH   8   9
ENDBRANCH   1   8
TORSDOF 9
ENDMDL
MODEL 5
REMARK VINA RESULT:    -3.567      2.072      2.833
REMARK INTER + INTRA:          -5.854
REMARK INTER:                  -5.394
REMARK INTRA:                  -0.461
REMARK UNBOUND:                -0.411
REMARK SMILES O=C([O-])CCCCCCCCC(=O)[O-]
REMARK SMILES IDX 7 1 6 2 5 3 4 4 2 5 1 6 3 7 8 8 9 9 10 10 11 11 12 12 13 13
REMARK SMILES IDX 14 14
REMARK H PARENT
REMARK Flexibility Score: inf
ROOT
ATOM      1  C   UNL     1    -118.231 -96.691  46.116  1.00  0.00     0.000 C 
ENDROOT
BRANCH   1   2
ATOM      2  C   UNL     1    -119.123 -95.991  47.154  1.00  0.00     0.000 C 
BRANCH   2   3
ATOM      3  C   UNL     1    -118.817 -96.440  48.594  1.00  0.00     0.006 C 
BRANCH   3   4
ATOM      4  C   UNL     1    -117.577 -97.340  48.668  1.00  0.00     0.053 C 
BRANCH   4   5
ATOM      5  C   UNL     1    -117.947 -98.787  48.783  1.00  0.00     0.041 C 
ATOM      6  O   UNL     1    -119.125 -99.119  49.084  1.00  0.00    -0.550 OA
ATOM      7  O   UNL     1    -117.001 -99.770  48.523  1.00  0.00    -0.550 OA
ENDBRANCH   4   5
ENDBRANCH   3   4
ENDBRANCH   2   3
ENDBRANCH   1   2
BRANCH   1   8
ATOM      8  C   UNL     1    -119.006 -97.721  45.273  1.00  0.00     0.000 C 
BRANCH   8   9
ATOM      9  C   UNL     1    -118.296 -99.083  45.207  1.00  0.00     0.000 C 
BRANCH   9  10
ATOM     10  C   UNL     1    -118.040 -99.546  43.762  1.00  0.00     0.006 C 
BRANCH  10  11
ATOM     11  C   UNL     1    -117.198 -98.537  42.971  1.00  0.00     0.053 C 
BRANCH  11  12
ATOM     12  C   UNL     1    -116.864 -99.041  41.601  1.00  0.00     0.041 C 
ATOM     13  O   UNL     1    -116.156-100.073  41.461  1.00  0.00    -0.550 OA
ATOM     14  O   UNL     1    -117.311 -98.357  40.478  1.00  0.00    -0.550 OA
ENDBRANCH  11  12
ENDBRANCH  10  11
ENDBRANCH   9  10
ENDBRANCH   8   9
ENDBRANCH   1   8
TORSDOF 9
ENDMDL
MODEL 6
REMARK VINA RESULT:    -3.372      6.730     12.254
REMARK INTER + INTRA:          -5.558
REMARK INTER:                  -5.246
REMARK INTRA:                  -0.312
REMARK UNBOUND:                -0.411
REMARK SMILES O=C([O-])CCCCCCCCC(=O)[O-]
REMARK SMILES IDX 7 1 6 2 5 3 4 4 2 5 1 6 3 7 8 8 9 9 10 10 11 11 12 12 13 13
REMARK SMILES IDX 14 14
REMARK H PARENT
REMARK Flexibility Score: inf
ROOT
ATOM      1  C   UNL     1    -115.602 -98.126  34.658  1.00  0.00     0.000 C 
ENDROOT
BRANCH   1   2
ATOM      2  C   UNL     1    -115.968 -98.214  33.167  1.00  0.00     0.000 C 
BRANCH   2   3
ATOM      3  C   UNL     1    -116.634 -96.928  32.646  1.00  0.00     0.006 C 
BRANCH   3   4
ATOM      4  C   UNL     1    -118.132 -97.121  32.377  1.00  0.00     0.053 C 
BRANCH   4   5
ATOM      5  C   UNL     1    -118.381 -97.741  31.038  1.00  0.00     0.041 C 
ATOM      6  O   UNL     1    -118.375 -97.030  29.998  1.00  0.00    -0.550 OA
ATOM      7  O   UNL     1    -118.584 -99.112  30.932  1.00  0.00    -0.550 OA
ENDBRANCH   4   5
ENDBRANCH   3   4
ENDBRANCH   2   3
ENDBRANCH   1   2
BRANCH   1   8
ATOM      8  C   UNL     1    -115.200 -99.491  35.247  1.00  0.00     0.000 C 
BRANCH   8   9
ATOM      9  C   UNL     1    -116.256-100.050  36.213  1.00  0.00     0.000 C 
BRANCH   9  10
ATOM     10  C   UNL     1    -116.524 -99.113  37.404  1.00  0.00     0.006 C 
BRANCH  10  11
ATOM     11  C   UNL     1    -117.239 -99.830  38.557  1.00  0.00     0.053 C 
BRANCH  11  12
ATOM     12  C   UNL     1    -117.222 -99.018  39.815  1.00  0.00     0.041 C 
ATOM     13  O   UNL     1    -117.966 -98.008  39.927  1.00  0.00    -0.550 OA
ATOM     14  O   UNL     1    -116.364 -99.358  40.852  1.00  0.00    -0.550 OA
ENDBRANCH  11  12
ENDBRANCH  10  11
ENDBRANCH   9  10
ENDBRANCH   8   9
ENDBRANCH   1   8
TORSDOF 9
ENDMDL
MODEL 7
REMARK VINA RESULT:    -3.329      9.400     13.290
REMARK INTER + INTRA:          -5.491
REMARK INTER:                  -4.922
REMARK INTRA:                  -0.569
REMARK UNBOUND:                -0.411
REMARK SMILES O=C([O-])CCCCCCCCC(=O)[O-]
REMARK SMILES IDX 7 1 6 2 5 3 4 4 2 5 1 6 3 7 8 8 9 9 10 10 11 11 12 12 13 13
REMARK SMILES IDX 14 14
REMARK H PARENT
REMARK Flexibility Score: inf
ROOT
ATOM      1  C   UNL     1    -115.761 -97.246  33.387  1.00  0.00     0.000 C 
ENDROOT
BRANCH   1   2
ATOM      2  C   UNL     1    -116.926 -96.366  32.906  1.00  0.00     0.000 C 
BRANCH   2   3
ATOM      3  C   UNL     1    -117.416 -96.753  31.499  1.00  0.00     0.006 C 
BRANCH   3   4
ATOM      4  C   UNL     1    -118.867 -97.251  31.508  1.00  0.00     0.053 C 
BRANCH   4   5
ATOM      5  C   UNL     1    -119.008 -98.567  30.808  1.00  0.00     0.041 C 
ATOM      6  O   UNL     1    -118.987 -98.622  29.550  1.00  0.00    -0.550 OA
ATOM      7  O   UNL     1    -119.125 -99.739  31.546  1.00  0.00    -0.550 OA
ENDBRANCH   4   5
ENDBRANCH   3   4
ENDBRANCH   2   3
ENDBRANCH   1   2
BRANCH   1   8
ATOM      8  C   UNL     1    -115.678 -98.582  32.627  1.00  0.00     0.000 C 
BRANCH   8   9
ATOM      9  C   UNL     1    -116.212 -99.764  33.452  1.00  0.00     0.000 C 
BRANCH   9  10
ATOM     10  C   UNL     1    -117.310 -99.344  34.445  1.00  0.00     0.006 C 
BRANCH  10  11
ATOM     11  C   UNL     1    -117.189-100.078  35.787  1.00  0.00     0.053 C 
BRANCH  11  12
ATOM     12  C   UNL     1    -116.197 -99.420  36.695  1.00  0.00     0.041 C 
ATOM     13  O   UNL     1    -114.999 -99.283  36.332  1.00  0.00    -0.550 OA
ATOM     14  O   UNL     1    -116.587 -98.985  37.955  1.00  0.00    -0.550 OA
ENDBRANCH  11  12
ENDBRANCH  10  11
ENDBRANCH   9  10
ENDBRANCH   8   9
ENDBRANCH   1   8
TORSDOF 9
ENDMDL
MODEL 8
REMARK VINA RESULT:    -3.199      5.862     11.224
REMARK INTER + INTRA:          -5.294
REMARK INTER:                  -4.954
REMARK INTRA:                  -0.340
REMARK UNBOUND:                -0.411
REMARK SMILES O=C([O-])CCCCCCCCC(=O)[O-]
REMARK SMILES IDX 7 1 6 2 5 3 4 4 2 5 1 6 3 7 8 8 9 9 10 10 11 11 12 12 13 13
REMARK SMILES IDX 14 14
REMARK H PARENT
REMARK Flexibility Score: inf
ROOT
ATOM      1  C   UNL     1    -115.715 -98.966  35.501  1.00  0.00     0.000 C 
ENDROOT
BRANCH   1   2
ATOM      2  C   UNL     1    -115.324 -99.846  34.303  1.00  0.00     0.000 C 
BRANCH   2   3
ATOM      3  C   UNL     1    -115.814 -99.269  32.962  1.00  0.00     0.006 C 
BRANCH   3   4
ATOM      4  C   UNL     1    -117.128 -98.492  33.112  1.00  0.00     0.053 C 
BRANCH   4   5
ATOM      5  C   UNL     1    -116.999 -97.082  32.627  1.00  0.00     0.041 C 
ATOM      6  O   UNL     1    -117.616 -96.707  31.595  1.00  0.00    -0.550 OA
ATOM      7  O   UNL     1    -116.225 -96.170  33.335  1.00  0.00    -0.550 OA
ENDBRANCH   4   5
ENDBRANCH   3   4
ENDBRANCH   2   3
ENDBRANCH   1   2
BRANCH   1   8
ATOM      8  C   UNL     1    -116.400 -99.767  36.623  1.00  0.00     0.000 C 
BRANCH   8   9
ATOM      9  C   UNL     1    -116.675 -98.917  37.873  1.00  0.00     0.000 C 
BRANCH   9  10
ATOM     10  C   UNL     1    -117.273 -99.740  39.027  1.00  0.00     0.006 C 
BRANCH  10  11
ATOM     11  C   UNL     1    -117.092 -99.049  40.386  1.00  0.00     0.053 C 
BRANCH  11  12
ATOM     12  C   UNL     1    -118.254 -98.167  40.723  1.00  0.00     0.041 C 
ATOM     13  O   UNL     1    -119.123 -98.552  41.548  1.00  0.00    -0.550 OA
ATOM     14  O   UNL     1    -118.393 -96.932  40.103  1.00  0.00    -0.550 OA
ENDBRANCH  11  12
ENDBRANCH  10  11
ENDBRANCH   9  10
ENDBRANCH   8   9
ENDBRANCH   1   8
TORSDOF 9
ENDMDL
MODEL 9
REMARK VINA RESULT:    -3.172      6.395     10.314
REMARK INTER + INTRA:          -5.252
REMARK INTER:                  -4.823
REMARK INTRA:                  -0.429
REMARK UNBOUND:                -0.411
REMARK SMILES O=C([O-])CCCCCCCCC(=O)[O-]
REMARK SMILES IDX 7 1 6 2 5 3 4 4 2 5 1 6 3 7 8 8 9 9 10 10 11 11 12 12 13 13
REMARK SMILES IDX 14 14
REMARK H PARENT
REMARK Flexibility Score: inf
ROOT
ATOM      1  C   UNL     1    -115.483 -99.741  35.585  1.00  0.00     0.000 C 
ENDROOT
BRANCH   1   2
ATOM      2  C   UNL     1    -116.642-100.031  36.553  1.00  0.00     0.000 C 
BRANCH   2   3
ATOM      3  C   UNL     1    -116.640 -99.093  37.773  1.00  0.00     0.006 C 
BRANCH   3   4
ATOM      4  C   UNL     1    -117.245 -99.759  39.015  1.00  0.00     0.053 C 
BRANCH   4   5
ATOM      5  C   UNL     1    -117.462 -98.776  40.124  1.00  0.00     0.041 C 
ATOM      6  O   UNL     1    -117.105 -99.056  41.299  1.00  0.00    -0.550 OA
ATOM      7  O   UNL     1    -118.024 -97.535  39.853  1.00  0.00    -0.550 OA
ENDBRANCH   4   5
ENDBRANCH   3   4
ENDBRANCH   2   3
ENDBRANCH   1   2
BRANCH   1   8
ATOM      8  C   UNL     1    -115.358 -98.245  35.245  1.00  0.00     0.000 C 
BRANCH   8   9
ATOM      9  C   UNL     1    -115.762 -97.932  33.796  1.00  0.00     0.000 C 
BRANCH   9  10
ATOM     10  C   UNL     1    -117.289 -97.902  33.602  1.00  0.00     0.006 C 
BRANCH  10  11
ATOM     11  C   UNL     1    -117.702 -98.341  32.191  1.00  0.00     0.053 C 
BRANCH  11  12
ATOM     12  C   UNL     1    -118.039 -97.171  31.319  1.00  0.00     0.041 C 
ATOM     13  O   UNL     1    -118.359 -97.350  30.114  1.00  0.00    -0.550 OA
ATOM     14  O   UNL     1    -117.971 -95.881  31.828  1.00  0.00    -0.550 OA
ENDBRANCH  11  12
ENDBRANCH  10  11
ENDBRANCH   9  10
ENDBRANCH   8   9
ENDBRANCH   1   8
TORSDOF 9
ENDMDL
