MODEL 1
REMARK VINA RESULT:    -4.579      0.000      0.000
REMARK INTER + INTRA:          -5.775
REMARK INTER:                  -5.516
REMARK INTRA:                  -0.259
REMARK UNBOUND:                -0.259
REMARK SMILES NC(=O)C[C@H]([NH3+])C(=O)[O-]
REMARK SMILES IDX 4 1 5 2 6 3 7 7 8 8 9 9 2 10 3 11 1 12
REMARK H PARENT 6 4 6 5 6 6 1 13 1 14
REMARK Flexibility Score: inf
ROOT
ATOM      1  C   UNL     1     149.555 167.083 152.006  1.00  0.00     0.171 C 
ENDROOT
BRANCH   1   2
ATOM      2  C   UNL     1     148.696 167.362 150.756  1.00  0.00     0.237 C 
BRANCH   2   3
ATOM      3  N   UNL     1     147.541 166.456 150.683  1.00  0.00    -0.350 N 
ATOM      4  H   UNL     1     147.117 166.344 151.633  1.00  0.00     0.345 HD
ATOM      5  H   UNL     1     146.816 166.830 150.026  1.00  0.00     0.345 HD
ATOM      6  H   UNL     1     147.846 165.511 150.355  1.00  0.00     0.345 HD
ENDBRANCH   2   3
BRANCH   2   7
ATOM      7  C   UNL     1     149.540 167.230 149.516  1.00  0.00     0.100 C 
ATOM      8  O   UNL     1     149.025 167.371 148.375  1.00  0.00    -0.544 OA
ATOM      9  O   UNL     1     150.893 166.934 149.625  1.00  0.00    -0.544 OA
ENDBRANCH   2   7
ENDBRANCH   1   2
BRANCH   1  10
ATOM     10  C   UNL     1     148.721 167.029 153.252  1.00  0.00     0.223 C 
ATOM     11  O   UNL     1     148.038 166.001 153.504  1.00  0.00    -0.275 OA
ATOM     12  N   UNL     1     148.722 168.120 154.173  1.00  0.00    -0.369 N 
ATOM     13  H   UNL     1     148.149 168.074 155.044  1.00  0.00     0.159 HD
ATOM     14  H   UNL     1     149.300 168.971 153.993  1.00  0.00     0.159 HD
ENDBRANCH   1  10
TORSDOF 4
ENDMDL
MODEL 2
REMARK VINA RESULT:    -4.560      2.145      4.026
REMARK INTER + INTRA:          -5.753
REMARK INTER:                  -5.452
REMARK INTRA:                  -0.301
REMARK UNBOUND:                -0.259
REMARK SMILES NC(=O)C[C@H]([NH3+])C(=O)[O-]
REMARK SMILES IDX 4 1 5 2 6 3 7 7 8 8 9 9 2 10 3 11 1 12
REMARK H PARENT 6 4 6 5 6 6 1 13 1 14
REMARK Flexibility Score: inf
ROOT
ATOM      1  C   UNL     1     147.996 167.188 150.970  1.00  0.00     0.171 C 
ENDROOT
BRANCH   1   2
ATOM      2  C   UNL     1     149.181 167.495 151.909  1.00  0.00     0.237 C 
BRANCH   2   3
ATOM      3  N   UNL     1     150.439 166.943 151.388  1.00  0.00    -0.350 N 
ATOM      4  H   UNL     1     151.215 167.629 151.532  1.00  0.00     0.345 HD
ATOM      5  H   UNL     1     150.681 166.046 151.872  1.00  0.00     0.345 HD
ATOM      6  H   UNL     1     150.355 166.766 150.361  1.00  0.00     0.345 HD
ENDBRANCH   2   3
BRANCH   2   7
ATOM      7  C   UNL     1     148.900 166.943 153.283  1.00  0.00     0.100 C 
ATOM      8  O   UNL     1     149.513 167.391 154.288  1.00  0.00    -0.544 OA
ATOM      9  O   UNL     1     147.974 165.921 153.444  1.00  0.00    -0.544 OA
ENDBRANCH   2   7
ENDBRANCH   1   2
BRANCH   1  10
ATOM     10  C   UNL     1     148.370 166.192 149.913  1.00  0.00     0.223 C 
ATOM     11  O   UNL     1     148.378 164.962 150.187  1.00  0.00    -0.275 OA
ATOM     12  N   UNL     1     148.684 166.623 148.588  1.00  0.00    -0.369 N 
ATOM     13  H   UNL     1     148.933 165.926 147.853  1.00  0.00     0.159 HD
ATOM     14  H   UNL     1     148.660 167.636 148.337  1.00  0.00     0.159 HD
ENDBRANCH   1  10
TORSDOF 4
ENDMDL
MODEL 3
REMARK VINA RESULT:    -4.507      2.326      4.071
REMARK INTER + INTRA:          -5.688
REMARK INTER:                  -5.424
REMARK INTRA:                  -0.265
REMARK UNBOUND:                -0.259
REMARK SMILES NC(=O)C[C@H]([NH3+])C(=O)[O-]
REMARK SMILES IDX 4 1 5 2 6 3 7 7 8 8 9 9 2 10 3 11 1 12
REMARK H PARENT 6 4 6 5 6 6 1 13 1 14
REMARK Flexibility Score: inf
ROOT
ATOM      1  C   UNL     1     149.509 166.835 150.154  1.00  0.00     0.171 C 
ENDROOT
BRANCH   1   2
ATOM      2  C   UNL     1     148.366 165.940 150.676  1.00  0.00     0.237 C 
BRANCH   2   3
ATOM      3  N   UNL     1     147.269 165.844 149.702  1.00  0.00    -0.350 N 
ATOM      4  H   UNL     1     147.208 164.869 149.330  1.00  0.00     0.345 HD
ATOM      5  H   UNL     1     146.355 166.098 150.147  1.00  0.00     0.345 HD
ATOM      6  H   UNL     1     147.448 166.484 148.896  1.00  0.00     0.345 HD
ENDBRANCH   2   3
BRANCH   2   7
ATOM      7  C   UNL     1     147.855 166.476 151.987  1.00  0.00     0.100 C 
ATOM      8  O   UNL     1     147.583 167.700 152.113  1.00  0.00    -0.544 OA
ATOM      9  O   UNL     1     147.697 165.623 153.071  1.00  0.00    -0.544 OA
ENDBRANCH   2   7
ENDBRANCH   1   2
BRANCH   1  10
ATOM     10  C   UNL     1     150.170 166.242 148.944  1.00  0.00     0.223 C 
ATOM     11  O   UNL     1     149.941 165.043 148.630  1.00  0.00    -0.275 OA
ATOM     12  N   UNL     1     151.031 167.035 148.126  1.00  0.00    -0.369 N 
ATOM     13  H   UNL     1     151.480 166.622 147.280  1.00  0.00     0.159 HD
ATOM     14  H   UNL     1     151.214 168.036 148.358  1.00  0.00     0.159 HD
ENDBRANCH   1  10
TORSDOF 4
ENDMDL
MODEL 4
REMARK VINA RESULT:    -4.492     20.274     21.150
REMARK INTER + INTRA:          -5.671
REMARK INTER:                  -5.380
REMARK INTRA:                  -0.291
REMARK UNBOUND:                -0.259
REMARK SMILES NC(=O)C[C@H]([NH3+])C(=O)[O-]
REMARK SMILES IDX 4 1 5 2 6 3 7 7 8 8 9 9 2 10 3 11 1 12
REMARK H PARENT 6 4 6 5 6 6 1 13 1 14
REMARK Flexibility Score: inf
ROOT
ATOM      1  C   UNL     1     166.926 166.504 164.180  1.00  0.00     0.171 C 
ENDROOT
BRANCH   1   2
ATOM      2  C   UNL     1     165.978 167.275 163.239  1.00  0.00     0.237 C 
BRANCH   2   3
ATOM      3  N   UNL     1     164.571 167.091 163.623  1.00  0.00    -0.350 N 
ATOM      4  H   UNL     1     164.305 166.085 163.524  1.00  0.00     0.345 HD
ATOM      5  H   UNL     1     164.414 167.391 164.613  1.00  0.00     0.345 HD
ATOM      6  H   UNL     1     163.952 167.650 162.992  1.00  0.00     0.345 HD
ENDBRANCH   2   3
BRANCH   2   7
ATOM      7  C   UNL     1     166.193 166.827 161.817  1.00  0.00     0.100 C 
ATOM      8  O   UNL     1     167.024 165.919 161.553  1.00  0.00    -0.544 OA
ATOM      9  O   UNL     1     165.485 167.430 160.785  1.00  0.00    -0.544 OA
ENDBRANCH   2   7
ENDBRANCH   1   2
BRANCH   1  10
ATOM     10  C   UNL     1     166.309 166.283 165.530  1.00  0.00     0.223 C 
ATOM     11  O   UNL     1     165.933 167.271 166.215  1.00  0.00    -0.275 OA
ATOM     12  N   UNL     1     166.114 164.960 166.029  1.00  0.00    -0.369 N 
ATOM     13  H   UNL     1     165.674 164.810 166.964  1.00  0.00     0.159 HD
ATOM     14  H   UNL     1     166.398 164.128 165.465  1.00  0.00     0.159 HD
ENDBRANCH   1  10
TORSDOF 4
ENDMDL
MODEL 5
REMARK VINA RESULT:    -4.398      2.101      3.367
REMARK INTER + INTRA:          -5.558
REMARK INTER:                  -5.173
REMARK INTRA:                  -0.384
REMARK UNBOUND:                -0.259
REMARK SMILES NC(=O)C[C@H]([NH3+])C(=O)[O-]
REMARK SMILES IDX 4 1 5 2 6 3 7 7 8 8 9 9 2 10 3 11 1 12
REMARK H PARENT 6 4 6 5 6 6 1 13 1 14
REMARK Flexibility Score: inf
ROOT
ATOM      1  C   UNL     1     149.503 168.112 151.771  1.00  0.00     0.171 C 
ENDROOT
BRANCH   1   2
ATOM      2  C   UNL     1     148.365 167.426 152.553  1.00  0.00     0.237 C 
BRANCH   2   3
ATOM      3  N   UNL     1     148.795 167.044 153.906  1.00  0.00    -0.350 N 
ATOM      4  H   UNL     1     148.105 166.377 154.322  1.00  0.00     0.345 HD
ATOM      5  H   UNL     1     149.738 166.590 153.882  1.00  0.00     0.345 HD
ATOM      6  H   UNL     1     148.835 167.888 154.522  1.00  0.00     0.345 HD
ENDBRANCH   2   3
BRANCH   2   7
ATOM      7  C   UNL     1     147.884 166.215 151.798  1.00  0.00     0.100 C 
ATOM      8  O   UNL     1     147.671 165.130 152.401  1.00  0.00    -0.544 OA
ATOM      9  O   UNL     1     147.690 166.286 150.425  1.00  0.00    -0.544 OA
ENDBRANCH   2   7
ENDBRANCH   1   2
BRANCH   1  10
ATOM     10  C   UNL     1     150.627 167.161 151.479  1.00  0.00     0.223 C 
ATOM     11  O   UNL     1     151.283 166.657 152.429  1.00  0.00    -0.275 OA
ATOM     12  N   UNL     1     150.936 166.797 150.133  1.00  0.00    -0.369 N 
ATOM     13  H   UNL     1     151.711 166.126 149.935  1.00  0.00     0.159 HD
ATOM     14  H   UNL     1     150.388 167.187 149.335  1.00  0.00     0.159 HD
ENDBRANCH   1  10
TORSDOF 4
ENDMDL
MODEL 6
REMARK VINA RESULT:    -4.373     20.484     21.404
REMARK INTER + INTRA:          -5.527
REMARK INTER:                  -5.268
REMARK INTRA:                  -0.258
REMARK UNBOUND:                -0.259
REMARK SMILES NC(=O)C[C@H]([NH3+])C(=O)[O-]
REMARK SMILES IDX 4 1 5 2 6 3 7 7 8 8 9 9 2 10 3 11 1 12
REMARK H PARENT 6 4 6 5 6 6 1 13 1 14
REMARK Flexibility Score: inf
ROOT
ATOM      1  C   UNL     1     163.807 166.265 165.877  1.00  0.00     0.171 C 
ENDROOT
BRANCH   1   2
ATOM      2  C   UNL     1     165.317 166.365 165.583  1.00  0.00     0.237 C 
BRANCH   2   3
ATOM      3  N   UNL     1     166.034 167.053 166.667  1.00  0.00    -0.350 N 
ATOM      4  H   UNL     1     165.378 167.685 167.180  1.00  0.00     0.345 HD
ATOM      5  H   UNL     1     166.440 166.361 167.340  1.00  0.00     0.345 HD
ATOM      6  H   UNL     1     166.802 167.641 166.272  1.00  0.00     0.345 HD
ENDBRANCH   2   3
BRANCH   2   7
ATOM      7  C   UNL     1     165.536 167.084 164.277  1.00  0.00     0.100 C 
ATOM      8  O   UNL     1     166.243 168.125 164.232  1.00  0.00    -0.544 OA
ATOM      9  O   UNL     1     164.941 166.608 163.115  1.00  0.00    -0.544 OA
ENDBRANCH   2   7
ENDBRANCH   1   2
BRANCH   1  10
ATOM     10  C   UNL     1     163.500 165.144 166.827  1.00  0.00     0.223 C 
ATOM     11  O   UNL     1     164.277 164.910 167.791  1.00  0.00    -0.275 OA
ATOM     12  N   UNL     1     162.317 164.361 166.667  1.00  0.00    -0.369 N 
ATOM     13  H   UNL     1     162.102 163.589 167.336  1.00  0.00     0.159 HD
ATOM     14  H   UNL     1     161.650 164.555 165.887  1.00  0.00     0.159 HD
ENDBRANCH   1  10
TORSDOF 4
ENDMDL
MODEL 7
REMARK VINA RESULT:    -4.323      1.843      2.144
REMARK INTER + INTRA:          -5.467
REMARK INTER:                  -5.104
REMARK INTRA:                  -0.364
REMARK UNBOUND:                -0.259
REMARK SMILES NC(=O)C[C@H]([NH3+])C(=O)[O-]
REMARK SMILES IDX 4 1 5 2 6 3 7 7 8 8 9 9 2 10 3 11 1 12
REMARK H PARENT 6 4 6 5 6 6 1 13 1 14
REMARK Flexibility Score: inf
ROOT
ATOM      1  C   UNL     1     149.241 167.708 150.067  1.00  0.00     0.171 C 
ENDROOT
BRANCH   1   2
ATOM      2  C   UNL     1     149.394 166.643 148.962  1.00  0.00     0.237 C 
BRANCH   2   3
ATOM      3  N   UNL     1     148.555 165.465 149.229  1.00  0.00    -0.350 N 
ATOM      4  H   UNL     1     148.763 165.091 150.183  1.00  0.00     0.345 HD
ATOM      5  H   UNL     1     147.539 165.713 149.172  1.00  0.00     0.345 HD
ATOM      6  H   UNL     1     148.765 164.712 148.536  1.00  0.00     0.345 HD
ENDBRANCH   2   3
BRANCH   2   7
ATOM      7  C   UNL     1     150.839 166.236 148.841  1.00  0.00     0.100 C 
ATOM      8  O   UNL     1     151.223 165.524 147.875  1.00  0.00    -0.544 OA
ATOM      9  O   UNL     1     151.755 166.631 149.808  1.00  0.00    -0.544 OA
ENDBRANCH   2   7
ENDBRANCH   1   2
BRANCH   1  10
ATOM     10  C   UNL     1     148.545 167.157 151.277  1.00  0.00     0.223 C 
ATOM     11  O   UNL     1     149.119 166.291 151.990  1.00  0.00    -0.275 OA
ATOM     12  N   UNL     1     147.249 167.630 151.646  1.00  0.00    -0.369 N 
ATOM     13  H   UNL     1     146.772 167.252 152.494  1.00  0.00     0.159 HD
ATOM     14  H   UNL     1     146.767 168.364 151.080  1.00  0.00     0.159 HD
ENDBRANCH   1  10
TORSDOF 4
ENDMDL
MODEL 8
REMARK VINA RESULT:    -4.219      2.249      4.197
REMARK INTER + INTRA:          -5.342
REMARK INTER:                  -4.957
REMARK INTRA:                  -0.384
REMARK UNBOUND:                -0.259
REMARK SMILES NC(=O)C[C@H]([NH3+])C(=O)[O-]
REMARK SMILES IDX 4 1 5 2 6 3 7 7 8 8 9 9 2 10 3 11 1 12
REMARK H PARENT 6 4 6 5 6 6 1 13 1 14
REMARK Flexibility Score: inf
ROOT
ATOM      1  C   UNL     1     149.423 167.029 148.756  1.00  0.00     0.171 C 
ENDROOT
BRANCH   1   2
ATOM      2  C   UNL     1     149.022 167.175 150.238  1.00  0.00     0.237 C 
BRANCH   2   3
ATOM      3  N   UNL     1     150.201 167.198 151.116  1.00  0.00    -0.350 N 
ATOM      4  H   UNL     1     150.536 166.222 151.286  1.00  0.00     0.345 HD
ATOM      5  H   UNL     1     150.974 167.755 150.683  1.00  0.00     0.345 HD
ATOM      6  H   UNL     1     149.951 167.618 152.040  1.00  0.00     0.345 HD
ENDBRANCH   2   3
BRANCH   2   7
ATOM      7  C   UNL     1     148.102 166.049 150.631  1.00  0.00     0.100 C 
ATOM      8  O   UNL     1     147.353 165.507 149.776  1.00  0.00    -0.544 OA
ATOM      9  O   UNL     1     148.063 165.614 151.950  1.00  0.00    -0.544 OA
ENDBRANCH   2   7
ENDBRANCH   1   2
BRANCH   1  10
ATOM     10  C   UNL     1     150.368 165.882 148.547  1.00  0.00     0.223 C 
ATOM     11  O   UNL     1     151.562 165.976 148.939  1.00  0.00    -0.275 OA
ATOM     12  N   UNL     1     149.917 164.672 147.939  1.00  0.00    -0.369 N 
ATOM     13  H   UNL     1     150.575 163.873 147.806  1.00  0.00     0.159 HD
ATOM     14  H   UNL     1     148.926 164.567 147.629  1.00  0.00     0.159 HD
ENDBRANCH   1  10
TORSDOF 4
ENDMDL
