MODEL 1
REMARK VINA RESULT:    -5.900      0.000      0.000
REMARK INTER + INTRA:         -12.474
REMARK INTER:                 -10.384
REMARK INTRA:                  -2.090
REMARK UNBOUND:                -2.090
REMARK SMILES CCCCCCC=CCCCCCCCC(=O)[O-]
REMARK SMILES IDX 10 1 11 2 12 3 13 4 14 5 15 6 16 7 17 8 18 9 9 10 8 11 7 12
REMARK SMILES IDX 6 13 5 14 4 15 3 16 2 17 1 18
REMARK H PARENT
REMARK Flexibility Score: inf
ROOT
ATOM      1  C   UNL     1     -41.275 -39.611 107.898  1.00  0.00     0.004 C 
ENDROOT
BRANCH   1   2
ATOM      2  C   UNL     1     -40.854 -40.414 106.655  1.00  0.00     0.000 C 
BRANCH   2   3
ATOM      3  C   UNL     1     -40.623 -39.521 105.427  1.00  0.00     0.000 C 
BRANCH   3   4
ATOM      4  C   UNL     1     -41.297 -40.074 104.159  1.00  0.00     0.000 C 
BRANCH   4   5
ATOM      5  C   UNL     1     -40.306 -40.261 102.998  1.00  0.00     0.006 C 
BRANCH   5   6
ATOM      6  C   UNL     1     -40.867 -41.153 101.883  1.00  0.00     0.053 C 
BRANCH   6   7
ATOM      7  C   UNL     1     -40.415 -42.567 102.069  1.00  0.00     0.041 C 
ATOM      8  O   UNL     1     -39.211 -42.878 101.875  1.00  0.00    -0.550 OA
ATOM      9  O   UNL     1     -41.313 -43.533 102.506  1.00  0.00    -0.550 OA
ENDBRANCH   6   7
ENDBRANCH   5   6
ENDBRANCH   4   5
ENDBRANCH   3   4
ENDBRANCH   2   3
ENDBRANCH   1   2
BRANCH   1  10
ATOM     10  C   UNL     1     -42.549 -40.174 108.547  1.00  0.00     0.027 C 
BRANCH  10  11
ATOM     11  C   UNL     1     -43.520 -39.080 108.920  1.00  0.00    -0.031 C 
ATOM     12  C   UNL     1     -44.651 -38.800 108.247  1.00  0.00    -0.031 C 
BRANCH  12  13
ATOM     13  C   UNL     1     -45.074 -39.469 106.965  1.00  0.00     0.027 C 
BRANCH  13  14
ATOM     14  C   UNL     1     -44.449 -38.766 105.754  1.00  0.00     0.004 C 
BRANCH  14  15
ATOM     15  C   UNL     1     -44.348 -37.253 105.990  1.00  0.00     0.000 C 
BRANCH  15  16
ATOM     16  C   UNL     1     -42.955 -36.689 105.662  1.00  0.00    -0.000 C 
BRANCH  16  17
ATOM     17  C   UNL     1     -42.245 -36.053 106.876  1.00  0.00    -0.003 C 
ATOM     18  C   UNL     1     -43.194 -35.215 107.731  1.00  0.00     0.004 C 
ENDBRANCH  16  17
ENDBRANCH  15  16
ENDBRANCH  14  15
ENDBRANCH  13  14
ENDBRANCH  12  13
ENDBRANCH  10  11
ENDBRANCH   1  10
TORSDOF 13
ENDMDL
MODEL 2
REMARK VINA RESULT:    -5.840      3.468      6.135
REMARK INTER + INTRA:         -12.369
REMARK INTER:                 -10.266
REMARK INTRA:                  -2.103
REMARK UNBOUND:                -2.090
REMARK SMILES CCCCCCC=CCCCCCCCC(=O)[O-]
REMARK SMILES IDX 10 1 11 2 12 3 13 4 14 5 15 6 16 7 17 8 18 9 9 10 8 11 7 12
REMARK SMILES IDX 6 13 5 14 4 15 3 16 2 17 1 18
REMARK H PARENT
REMARK Flexibility Score: inf
ROOT
ATOM      1  C   UNL     1     -44.010 -41.007 106.082  1.00  0.00     0.004 C 
ENDROOT
BRANCH   1   2
ATOM      2  C   UNL     1     -45.019 -39.927 106.509  1.00  0.00     0.000 C 
BRANCH   2   3
ATOM      3  C   UNL     1     -44.665 -39.292 107.862  1.00  0.00     0.000 C 
BRANCH   3   4
ATOM      4  C   UNL     1     -43.990 -37.917 107.711  1.00  0.00     0.000 C 
BRANCH   4   5
ATOM      5  C   UNL     1     -44.631 -37.064 106.604  1.00  0.00     0.006 C 
BRANCH   5   6
ATOM      6  C   UNL     1     -43.591 -36.315 105.761  1.00  0.00     0.053 C 
BRANCH   6   7
ATOM      7  C   UNL     1     -42.669 -35.533 106.643  1.00  0.00     0.041 C 
ATOM      8  O   UNL     1     -43.105 -34.557 107.307  1.00  0.00    -0.550 OA
ATOM      9  O   UNL     1     -41.339 -35.913 106.770  1.00  0.00    -0.550 OA
ENDBRANCH   6   7
ENDBRANCH   5   6
ENDBRANCH   4   5
ENDBRANCH   3   4
ENDBRANCH   2   3
ENDBRANCH   1   2
BRANCH   1  10
ATOM     10  C   UNL     1     -43.535 -40.814 104.634  1.00  0.00     0.027 C 
BRANCH  10  11
ATOM     11  C   UNL     1     -42.787 -39.515 104.456  1.00  0.00    -0.031 C 
ATOM     12  C   UNL     1     -41.446 -39.404 104.417  1.00  0.00    -0.031 C 
BRANCH  12  13
ATOM     13  C   UNL     1     -40.485 -40.543 104.641  1.00  0.00     0.027 C 
BRANCH  13  14
ATOM     14  C   UNL     1     -39.774 -40.395 105.992  1.00  0.00     0.004 C 
BRANCH  14  15
ATOM     15  C   UNL     1     -40.636 -40.956 107.130  1.00  0.00     0.000 C 
BRANCH  15  16
ATOM     16  C   UNL     1     -40.915 -39.921 108.234  1.00  0.00    -0.000 C 
BRANCH  16  17
ATOM     17  C   UNL     1     -41.233 -40.553 109.606  1.00  0.00    -0.003 C 
ATOM     18  C   UNL     1     -40.050 -41.338 110.172  1.00  0.00     0.004 C 
ENDBRANCH  16  17
ENDBRANCH  15  16
ENDBRANCH  14  15
ENDBRANCH  13  14
ENDBRANCH  12  13
ENDBRANCH  10  11
ENDBRANCH   1  10
TORSDOF 13
ENDMDL
MODEL 3
REMARK VINA RESULT:    -5.833      1.118      1.819
REMARK INTER + INTRA:         -12.356
REMARK INTER:                 -10.200
REMARK INTRA:                  -2.155
REMARK UNBOUND:                -2.090
REMARK SMILES CCCCCCC=CCCCCCCCC(=O)[O-]
REMARK SMILES IDX 10 1 11 2 12 3 13 4 14 5 15 6 16 7 17 8 18 9 9 10 8 11 7 12
REMARK SMILES IDX 6 13 5 14 4 15 3 16 2 17 1 18
REMARK H PARENT
REMARK Flexibility Score: inf
ROOT
ATOM      1  C   UNL     1     -42.214 -40.100 108.997  1.00  0.00     0.004 C 
ENDROOT
BRANCH   1   2
ATOM      2  C   UNL     1     -40.902 -39.898 108.218  1.00  0.00     0.000 C 
BRANCH   2   3
ATOM      3  C   UNL     1     -40.927 -40.573 106.838  1.00  0.00     0.000 C 
BRANCH   3   4
ATOM      4  C   UNL     1     -39.662 -40.276 106.013  1.00  0.00     0.000 C 
BRANCH   4   5
ATOM      5  C   UNL     1     -39.859 -40.547 104.513  1.00  0.00     0.006 C 
BRANCH   5   6
ATOM      6  C   UNL     1     -41.176 -39.968 103.978  1.00  0.00     0.053 C 
BRANCH   6   7
ATOM      7  C   UNL     1     -41.888 -40.981 103.139  1.00  0.00     0.041 C 
ATOM      8  O   UNL     1     -43.124 -40.873 102.927  1.00  0.00    -0.550 OA
ATOM      9  O   UNL     1     -41.177 -42.019 102.548  1.00  0.00    -0.550 OA
ENDBRANCH   6   7
ENDBRANCH   5   6
ENDBRANCH   4   5
ENDBRANCH   3   4
ENDBRANCH   2   3
ENDBRANCH   1   2
BRANCH   1  10
ATOM     10  C   UNL     1     -43.166 -38.904 108.846  1.00  0.00     0.027 C 
BRANCH  10  11
ATOM     11  C   UNL     1     -44.570 -39.342 108.507  1.00  0.00    -0.031 C 
ATOM     12  C   UNL     1     -45.019 -39.572 107.260  1.00  0.00    -0.031 C 
BRANCH  12  13
ATOM     13  C   UNL     1     -44.220 -39.335 106.004  1.00  0.00     0.027 C 
BRANCH  13  14
ATOM     14  C   UNL     1     -44.738 -38.101 105.256  1.00  0.00     0.004 C 
BRANCH  14  15
ATOM     15  C   UNL     1     -44.152 -36.814 105.850  1.00  0.00     0.000 C 
BRANCH  15  16
ATOM     16  C   UNL     1     -42.614 -36.829 105.910  1.00  0.00    -0.000 C 
BRANCH  16  17
ATOM     17  C   UNL     1     -42.027 -35.819 106.918  1.00  0.00    -0.003 C 
ATOM     18  C   UNL     1     -43.089 -35.250 107.858  1.00  0.00     0.004 C 
ENDBRANCH  16  17
ENDBRANCH  15  16
ENDBRANCH  14  15
ENDBRANCH  13  14
ENDBRANCH  12  13
ENDBRANCH  10  11
ENDBRANCH   1  10
TORSDOF 13
ENDMDL
MODEL 4
REMARK VINA RESULT:    -5.822      1.468      2.577
REMARK INTER + INTRA:         -12.337
REMARK INTER:                 -10.703
REMARK INTRA:                  -1.634
REMARK UNBOUND:                -2.090
REMARK SMILES CCCCCCC=CCCCCCCCC(=O)[O-]
REMARK SMILES IDX 10 1 11 2 12 3 13 4 14 5 15 6 16 7 17 8 18 9 9 10 8 11 7 12
REMARK SMILES IDX 6 13 5 14 4 15 3 16 2 17 1 18
REMARK H PARENT
REMARK Flexibility Score: inf
ROOT
ATOM      1  C   UNL     1     -40.879 -39.710 105.146  1.00  0.00     0.004 C 
ENDROOT
BRANCH   1   2
ATOM      2  C   UNL     1     -40.112 -40.681 104.231  1.00  0.00     0.000 C 
BRANCH   2   3
ATOM      3  C   UNL     1     -40.284 -40.347 102.741  1.00  0.00     0.000 C 
BRANCH   3   4
ATOM      4  C   UNL     1     -40.518 -41.599 101.878  1.00  0.00     0.000 C 
BRANCH   4   5
ATOM      5  C   UNL     1     -41.122 -42.763 102.679  1.00  0.00     0.006 C 
BRANCH   5   6
ATOM      6  C   UNL     1     -40.569 -44.127 102.245  1.00  0.00     0.053 C 
BRANCH   6   7
ATOM      7  C   UNL     1     -39.450 -44.546 103.144  1.00  0.00     0.041 C 
ATOM      8  O   UNL     1     -38.302 -44.050 103.000  1.00  0.00    -0.550 OA
ATOM      9  O   UNL     1     -39.685 -45.449 104.174  1.00  0.00    -0.550 OA
ENDBRANCH   6   7
ENDBRANCH   5   6
ENDBRANCH   4   5
ENDBRANCH   3   4
ENDBRANCH   2   3
ENDBRANCH   1   2
BRANCH   1  10
ATOM     10  C   UNL     1     -42.389 -39.721 104.866  1.00  0.00     0.027 C 
BRANCH  10  11
ATOM     11  C   UNL     1     -43.051 -40.969 105.400  1.00  0.00    -0.031 C 
ATOM     12  C   UNL     1     -44.215 -40.987 106.075  1.00  0.00    -0.031 C 
BRANCH  12  13
ATOM     13  C   UNL     1     -44.987 -39.760 106.485  1.00  0.00     0.027 C 
BRANCH  13  14
ATOM     14  C   UNL     1     -44.563 -39.294 107.883  1.00  0.00     0.004 C 
BRANCH  14  15
ATOM     15  C   UNL     1     -44.009 -37.864 107.840  1.00  0.00     0.000 C 
BRANCH  15  16
ATOM     16  C   UNL     1     -44.392 -37.113 106.552  1.00  0.00    -0.000 C 
BRANCH  16  17
ATOM     17  C   UNL     1     -43.256 -36.232 105.991  1.00  0.00    -0.003 C 
ATOM     18  C   UNL     1     -42.552 -35.426 107.083  1.00  0.00     0.004 C 
ENDBRANCH  16  17
ENDBRANCH  15  16
ENDBRANCH  14  15
ENDBRANCH  13  14
ENDBRANCH  12  13
ENDBRANCH  10  11
ENDBRANCH   1  10
TORSDOF 13
ENDMDL
MODEL 5
REMARK VINA RESULT:    -5.776      3.246      4.841
REMARK INTER + INTRA:         -12.256
REMARK INTER:                  -9.927
REMARK INTRA:                  -2.329
REMARK UNBOUND:                -2.090
REMARK SMILES CCCCCCC=CCCCCCCCC(=O)[O-]
REMARK SMILES IDX 10 1 11 2 12 3 13 4 14 5 15 6 16 7 17 8 18 9 9 10 8 11 7 12
REMARK SMILES IDX 6 13 5 14 4 15 3 16 2 17 1 18
REMARK H PARENT
REMARK Flexibility Score: inf
ROOT
ATOM      1  C   UNL     1     -41.601 -40.021 104.155  1.00  0.00     0.004 C 
ENDROOT
BRANCH   1   2
ATOM      2  C   UNL     1     -40.481 -39.822 105.190  1.00  0.00     0.000 C 
BRANCH   2   3
ATOM      3  C   UNL     1     -40.911 -38.920 106.357  1.00  0.00     0.000 C 
BRANCH   3   4
ATOM      4  C   UNL     1     -40.305 -39.364 107.700  1.00  0.00     0.000 C 
BRANCH   4   5
ATOM      5  C   UNL     1     -40.895 -40.690 108.205  1.00  0.00     0.006 C 
BRANCH   5   6
ATOM      6  C   UNL     1     -40.972 -40.757 109.736  1.00  0.00     0.053 C 
BRANCH   6   7
ATOM      7  C   UNL     1     -39.661 -41.199 110.305  1.00  0.00     0.041 C 
ATOM      8  O   UNL     1     -38.802 -40.347 110.653  1.00  0.00    -0.550 OA
ATOM      9  O   UNL     1     -39.405 -42.551 110.498  1.00  0.00    -0.550 OA
ENDBRANCH   6   7
ENDBRANCH   5   6
ENDBRANCH   4   5
ENDBRANCH   3   4
ENDBRANCH   2   3
ENDBRANCH   1   2
BRANCH   1  10
ATOM     10  C   UNL     1     -42.840 -39.170 104.472  1.00  0.00     0.027 C 
BRANCH  10  11
ATOM     11  C   UNL     1     -44.115 -39.971 104.366  1.00  0.00    -0.031 C 
ATOM     12  C   UNL     1     -44.783 -40.488 105.415  1.00  0.00    -0.031 C 
BRANCH  12  13
ATOM     13  C   UNL     1     -44.310 -40.429 106.845  1.00  0.00     0.027 C 
BRANCH  13  14
ATOM     14  C   UNL     1     -45.004 -39.289 107.598  1.00  0.00     0.004 C 
BRANCH  14  15
ATOM     15  C   UNL     1     -44.042 -38.619 108.588  1.00  0.00     0.000 C 
BRANCH  15  16
ATOM     16  C   UNL     1     -43.507 -37.269 108.079  1.00  0.00    -0.000 C 
BRANCH  16  17
ATOM     17  C   UNL     1     -44.264 -36.728 106.848  1.00  0.00    -0.003 C 
ATOM     18  C   UNL     1     -43.826 -35.314 106.470  1.00  0.00     0.004 C 
ENDBRANCH  16  17
ENDBRANCH  15  16
ENDBRANCH  14  15
ENDBRANCH  13  14
ENDBRANCH  12  13
ENDBRANCH  10  11
ENDBRANCH   1  10
TORSDOF 13
ENDMDL
MODEL 6
REMARK VINA RESULT:    -5.760      2.113      3.792
REMARK INTER + INTRA:         -12.228
REMARK INTER:                 -11.105
REMARK INTRA:                  -1.123
REMARK UNBOUND:                -2.090
REMARK SMILES CCCCCCC=CCCCCCCCC(=O)[O-]
REMARK SMILES IDX 10 1 11 2 12 3 13 4 14 5 15 6 16 7 17 8 18 9 9 10 8 11 7 12
REMARK SMILES IDX 6 13 5 14 4 15 3 16 2 17 1 18
REMARK H PARENT
REMARK Flexibility Score: inf
ROOT
ATOM      1  C   UNL     1     -40.263 -40.254 102.989  1.00  0.00     0.004 C 
ENDROOT
BRANCH   1   2
ATOM      2  C   UNL     1     -39.910 -41.254 101.875  1.00  0.00     0.000 C 
BRANCH   2   3
ATOM      3  C   UNL     1     -38.511 -41.865 102.054  1.00  0.00     0.000 C 
BRANCH   3   4
ATOM      4  C   UNL     1     -38.549 -43.399 102.177  1.00  0.00     0.000 C 
BRANCH   4   5
ATOM      5  C   UNL     1     -39.965 -43.970 102.004  1.00  0.00     0.006 C 
BRANCH   5   6
ATOM      6  C   UNL     1     -40.031 -45.477 102.288  1.00  0.00     0.053 C 
BRANCH   6   7
ATOM      7  C   UNL     1     -39.208 -45.818 103.489  1.00  0.00     0.041 C 
ATOM      8  O   UNL     1     -38.136 -46.465 103.359  1.00  0.00    -0.550 OA
ATOM      9  O   UNL     1     -39.597 -45.378 104.748  1.00  0.00    -0.550 OA
ENDBRANCH   6   7
ENDBRANCH   5   6
ENDBRANCH   4   5
ENDBRANCH   3   4
ENDBRANCH   2   3
ENDBRANCH   1   2
BRANCH   1  10
ATOM     10  C   UNL     1     -40.160 -40.884 104.387  1.00  0.00     0.027 C 
BRANCH  10  11
ATOM     11  C   UNL     1     -41.361 -41.741 104.707  1.00  0.00    -0.031 C 
ATOM     12  C   UNL     1     -42.495 -41.287 105.271  1.00  0.00    -0.031 C 
BRANCH  12  13
ATOM     13  C   UNL     1     -42.706 -39.875 105.757  1.00  0.00     0.027 C 
BRANCH  13  14
ATOM     14  C   UNL     1     -44.016 -39.762 106.543  1.00  0.00     0.004 C 
BRANCH  14  15
ATOM     15  C   UNL     1     -44.624 -38.361 106.400  1.00  0.00     0.000 C 
BRANCH  15  16
ATOM     16  C   UNL     1     -43.855 -37.476 105.403  1.00  0.00    -0.000 C 
BRANCH  16  17
ATOM     17  C   UNL     1     -43.549 -36.062 105.943  1.00  0.00    -0.003 C 
ATOM     18  C   UNL     1     -44.265 -35.776 107.263  1.00  0.00     0.004 C 
ENDBRANCH  16  17
ENDBRANCH  15  16
ENDBRANCH  14  15
ENDBRANCH  13  14
ENDBRANCH  12  13
ENDBRANCH  10  11
ENDBRANCH   1  10
TORSDOF 13
ENDMDL
MODEL 7
REMARK VINA RESULT:    -5.726      3.373      7.130
REMARK INTER + INTRA:         -12.167
REMARK INTER:                 -10.221
REMARK INTRA:                  -1.946
REMARK UNBOUND:                -2.090
REMARK SMILES CCCCCCC=CCCCCCCCC(=O)[O-]
REMARK SMILES IDX 10 1 11 2 12 3 13 4 14 5 15 6 16 7 17 8 18 9 9 10 8 11 7 12
REMARK SMILES IDX 6 13 5 14 4 15 3 16 2 17 1 18
REMARK H PARENT
REMARK Flexibility Score: inf
ROOT
ATOM      1  C   UNL     1     -41.088 -40.008 105.725  1.00  0.00     0.004 C 
ENDROOT
BRANCH   1   2
ATOM      2  C   UNL     1     -42.223 -40.983 106.082  1.00  0.00     0.000 C 
BRANCH   2   3
ATOM      3  C   UNL     1     -43.601 -40.475 105.629  1.00  0.00     0.000 C 
BRANCH   3   4
ATOM      4  C   UNL     1     -43.552 -39.034 105.093  1.00  0.00     0.000 C 
BRANCH   4   5
ATOM      5  C   UNL     1     -44.436 -38.073 105.903  1.00  0.00     0.006 C 
BRANCH   5   6
ATOM      6  C   UNL     1     -44.730 -38.593 107.317  1.00  0.00     0.053 C 
BRANCH   6   7
ATOM      7  C   UNL     1     -43.804 -37.961 108.308  1.00  0.00     0.041 C 
ATOM      8  O   UNL     1     -43.600 -36.719 108.281  1.00  0.00    -0.550 OA
ATOM      9  O   UNL     1     -43.205 -38.735 109.293  1.00  0.00    -0.550 OA
ENDBRANCH   6   7
ENDBRANCH   5   6
ENDBRANCH   4   5
ENDBRANCH   3   4
ENDBRANCH   2   3
ENDBRANCH   1   2
BRANCH   1  10
ATOM     10  C   UNL     1     -40.112 -40.606 104.700  1.00  0.00     0.027 C 
BRANCH  10  11
ATOM     11  C   UNL     1     -40.547 -40.327 103.282  1.00  0.00    -0.031 C 
ATOM     12  C   UNL     1     -41.207 -41.200 102.499  1.00  0.00    -0.031 C 
BRANCH  12  13
ATOM     13  C   UNL     1     -41.530 -42.621 102.882  1.00  0.00     0.027 C 
BRANCH  13  14
ATOM     14  C   UNL     1     -40.879 -43.607 101.906  1.00  0.00     0.004 C 
BRANCH  14  15
ATOM     15  C   UNL     1     -40.155 -44.730 102.660  1.00  0.00     0.000 C 
BRANCH  15  16
ATOM     16  C   UNL     1     -38.835 -44.266 103.300  1.00  0.00    -0.000 C 
BRANCH  16  17
ATOM     17  C   UNL     1     -38.007 -43.329 102.396  1.00  0.00    -0.003 C 
ATOM     18  C   UNL     1     -37.166 -42.338 103.200  1.00  0.00     0.004 C 
ENDBRANCH  16  17
ENDBRANCH  15  16
ENDBRANCH  14  15
ENDBRANCH  13  14
ENDBRANCH  12  13
ENDBRANCH  10  11
ENDBRANCH   1  10
TORSDOF 13
ENDMDL
MODEL 8
REMARK VINA RESULT:    -5.716      1.783      2.828
REMARK INTER + INTRA:         -12.150
REMARK INTER:                 -10.236
REMARK INTRA:                  -1.914
REMARK UNBOUND:                -2.090
REMARK SMILES CCCCCCC=CCCCCCCCC(=O)[O-]
REMARK SMILES IDX 10 1 11 2 12 3 13 4 14 5 15 6 16 7 17 8 18 9 9 10 8 11 7 12
REMARK SMILES IDX 6 13 5 14 4 15 3 16 2 17 1 18
REMARK H PARENT
REMARK Flexibility Score: inf
ROOT
ATOM      1  C   UNL     1     -39.975 -39.902 105.944  1.00  0.00     0.004 C 
ENDROOT
BRANCH   1   2
ATOM      2  C   UNL     1     -40.200 -41.385 106.285  1.00  0.00     0.000 C 
BRANCH   2   3
ATOM      3  C   UNL     1     -39.453 -42.330 105.330  1.00  0.00     0.000 C 
BRANCH   3   4
ATOM      4  C   UNL     1     -40.407 -43.197 104.490  1.00  0.00     0.000 C 
BRANCH   4   5
ATOM      5  C   UNL     1     -40.495 -42.731 103.028  1.00  0.00     0.006 C 
BRANCH   5   6
ATOM      6  C   UNL     1     -39.944 -43.771 102.044  1.00  0.00     0.053 C 
BRANCH   6   7
ATOM      7  C   UNL     1     -38.516 -44.083 102.361  1.00  0.00     0.041 C 
ATOM      8  O   UNL     1     -37.651 -43.168 102.356  1.00  0.00    -0.550 OA
ATOM      9  O   UNL     1     -38.147 -45.376 102.710  1.00  0.00    -0.550 OA
ENDBRANCH   6   7
ENDBRANCH   5   6
ENDBRANCH   4   5
ENDBRANCH   3   4
ENDBRANCH   2   3
ENDBRANCH   1   2
BRANCH   1  10
ATOM     10  C   UNL     1     -41.298 -39.142 105.766  1.00  0.00     0.027 C 
BRANCH  10  11
ATOM     11  C   UNL     1     -42.052 -39.605 104.542  1.00  0.00    -0.031 C 
ATOM     12  C   UNL     1     -43.192 -40.320 104.572  1.00  0.00    -0.031 C 
BRANCH  12  13
ATOM     13  C   UNL     1     -43.839 -40.850 105.825  1.00  0.00     0.027 C 
BRANCH  13  14
ATOM     14  C   UNL     1     -45.063 -40.009 106.202  1.00  0.00     0.004 C 
BRANCH  14  15
ATOM     15  C   UNL     1     -44.887 -39.369 107.585  1.00  0.00     0.000 C 
BRANCH  15  16
ATOM     16  C   UNL     1     -44.205 -37.991 107.524  1.00  0.00    -0.000 C 
BRANCH  16  17
ATOM     17  C   UNL     1     -44.544 -37.191 106.249  1.00  0.00    -0.003 C 
ATOM     18  C   UNL     1     -43.889 -35.810 106.237  1.00  0.00     0.004 C 
ENDBRANCH  16  17
ENDBRANCH  15  16
ENDBRANCH  14  15
ENDBRANCH  13  14
ENDBRANCH  12  13
ENDBRANCH  10  11
ENDBRANCH   1  10
TORSDOF 13
ENDMDL
MODEL 9
REMARK VINA RESULT:    -5.586      3.627      7.242
REMARK INTER + INTRA:         -11.921
REMARK INTER:                 -10.842
REMARK INTRA:                  -1.079
REMARK UNBOUND:                -2.090
REMARK SMILES CCCCCCC=CCCCCCCCC(=O)[O-]
REMARK SMILES IDX 10 1 11 2 12 3 13 4 14 5 15 6 16 7 17 8 18 9 9 10 8 11 7 12
REMARK SMILES IDX 6 13 5 14 4 15 3 16 2 17 1 18
REMARK H PARENT
REMARK Flexibility Score: inf
ROOT
ATOM      1  C   UNL     1     -42.091 -39.580 107.865  1.00  0.00     0.004 C 
ENDROOT
BRANCH   1   2
ATOM      2  C   UNL     1     -43.571 -39.840 108.192  1.00  0.00     0.000 C 
BRANCH   2   3
ATOM      3  C   UNL     1     -44.496 -38.738 107.651  1.00  0.00     0.000 C 
BRANCH   3   4
ATOM      4  C   UNL     1     -44.463 -38.640 106.116  1.00  0.00     0.000 C 
BRANCH   4   5
ATOM      5  C   UNL     1     -44.013 -37.255 105.623  1.00  0.00     0.006 C 
BRANCH   5   6
ATOM      6  C   UNL     1     -44.376 -36.134 106.606  1.00  0.00     0.053 C 
BRANCH   6   7
ATOM      7  C   UNL     1     -43.145 -35.403 107.041  1.00  0.00     0.041 C 
ATOM      8  O   UNL     1     -42.015 -35.752 106.607  1.00  0.00    -0.550 OA
ATOM      9  O   UNL     1     -43.248 -34.305 107.886  1.00  0.00    -0.550 OA
ENDBRANCH   6   7
ENDBRANCH   5   6
ENDBRANCH   4   5
ENDBRANCH   3   4
ENDBRANCH   2   3
ENDBRANCH   1   2
BRANCH   1  10
ATOM     10  C   UNL     1     -41.517 -40.634 106.905  1.00  0.00     0.027 C 
BRANCH  10  11
ATOM     11  C   UNL     1     -40.919 -40.004 105.670  1.00  0.00    -0.031 C 
ATOM     12  C   UNL     1     -40.782 -40.626 104.485  1.00  0.00    -0.031 C 
BRANCH  12  13
ATOM     13  C   UNL     1     -41.114 -42.075 104.233  1.00  0.00     0.027 C 
BRANCH  13  14
ATOM     14  C   UNL     1     -41.738 -42.255 102.845  1.00  0.00     0.004 C 
BRANCH  14  15
ATOM     15  C   UNL     1     -41.379 -43.625 102.256  1.00  0.00     0.000 C 
BRANCH  15  16
ATOM     16  C   UNL     1     -39.863 -43.887 102.232  1.00  0.00    -0.000 C 
BRANCH  16  17
ATOM     17  C   UNL     1     -39.495 -45.344 101.882  1.00  0.00    -0.003 C 
ATOM     18  C   UNL     1     -39.476 -46.251 103.112  1.00  0.00     0.004 C 
ENDBRANCH  16  17
ENDBRANCH  15  16
ENDBRANCH  14  15
ENDBRANCH  13  14
ENDBRANCH  12  13
ENDBRANCH  10  11
ENDBRANCH   1  10
TORSDOF 13
ENDMDL
