MODEL 1
REMARK VINA RESULT:    -3.949      0.000      0.000
REMARK INTER + INTRA:          -3.949
REMARK INTER:                  -3.949
REMARK INTRA:                   0.000
REMARK UNBOUND:                 0.000
REMARK SMILES C=C1CCC[C@]2(C)C=C3OC(=O)C(C)=C3C[C@@H]12
REMARK SMILES IDX 14 1 13 2 15 3 16 4 17 5 2 6 1 7 3 8 4 9 5 10 6 11 8 12 9 13
REMARK SMILES IDX 10 14 11 15 12 16 7 17
REMARK H PARENT
REMARK Flexibility Score: inf
ROOT
ATOM      1  C   UNL     1     -95.294  27.246 -39.646  1.00  0.00     0.053 C 
ATOM      2  C   UNL     1     -96.087  26.960 -38.410  1.00  0.00     0.041 C 
ATOM      3  C   UNL     1     -97.403  27.088 -38.266  1.00  0.00     0.005 C 
ATOM      4  C   UNL     1     -98.434  27.465 -39.285  1.00  0.00     0.049 C 
ATOM      5  C   UNL     1     -99.723  27.950 -38.559  1.00  0.00     0.029 C 
ATOM      6  C   UNL     1    -100.918  28.213 -39.475  1.00  0.00    -0.073 C 
ATOM      7  C   UNL     1    -100.825  28.282 -40.815  1.00  0.00     0.008 C 
ATOM      8  C   UNL     1    -102.268  28.446 -38.832  1.00  0.00     0.031 C 
ATOM      9  C   UNL     1    -102.138  28.719 -37.330  1.00  0.00     0.005 C 
ATOM     10  C   UNL     1    -101.351  27.625 -36.577  1.00  0.00     0.012 C 
ATOM     11  C   UNL     1    -100.157  26.998 -37.376  1.00  0.00    -0.004 C 
ATOM     12  C   UNL     1     -98.986  26.766 -36.425  1.00  0.00     0.027 C 
ATOM     13  C   UNL     1     -97.739  26.769 -36.891  1.00  0.00     0.131 C 
ATOM     14  O   UNL     1     -96.591  26.480 -36.169  1.00  0.00    -0.423 OA
ATOM     15  C   UNL     1     -95.559  26.598 -37.092  1.00  0.00     0.339 C 
ATOM     16  O   UNL     1     -94.345  26.420 -36.813  1.00  0.00    -0.246 OA
ATOM     17  C   UNL     1    -100.578  25.608 -37.918  1.00  0.00     0.016 C 
ENDROOT
TORSDOF 0
ENDMDL
MODEL 2
REMARK VINA RESULT:    -3.869      1.926      2.660
REMARK INTER + INTRA:          -3.869
REMARK INTER:                  -3.869
REMARK INTRA:                   0.000
REMARK UNBOUND:                 0.000
REMARK SMILES C=C1CCC[C@]2(C)C=C3OC(=O)C(C)=C3C[C@@H]12
REMARK SMILES IDX 14 1 13 2 15 3 16 4 17 5 2 6 1 7 3 8 4 9 5 10 6 11 8 12 9 13
REMARK SMILES IDX 10 14 11 15 12 16 7 17
REMARK H PARENT
REMARK Flexibility Score: inf
ROOT
ATOM      1  C   UNL     1     -95.219  24.583 -40.027  1.00  0.00     0.053 C 
ATOM      2  C   UNL     1     -95.831  25.866 -39.564  1.00  0.00     0.041 C 
ATOM      3  C   UNL     1     -97.121  26.190 -39.608  1.00  0.00     0.005 C 
ATOM      4  C   UNL     1     -98.289  25.363 -40.045  1.00  0.00     0.049 C 
ATOM      5  C   UNL     1     -99.487  26.299 -40.379  1.00  0.00     0.029 C 
ATOM      6  C   UNL     1    -100.802  25.579 -40.682  1.00  0.00    -0.073 C 
ATOM      7  C   UNL     1    -100.889  24.256 -40.907  1.00  0.00     0.008 C 
ATOM      8  C   UNL     1    -102.063  26.412 -40.773  1.00  0.00     0.031 C 
ATOM      9  C   UNL     1    -101.745  27.907 -40.880  1.00  0.00     0.005 C 
ATOM     10  C   UNL     1    -100.827  28.419 -39.749  1.00  0.00     0.012 C 
ATOM     11  C   UNL     1     -99.727  27.406 -39.278  1.00  0.00    -0.004 C 
ATOM     12  C   UNL     1     -98.434  28.167 -39.000  1.00  0.00     0.027 C 
ATOM     13  C   UNL     1     -97.261  27.550 -39.119  1.00  0.00     0.131 C 
ATOM     14  O   UNL     1     -96.018  28.080 -38.809  1.00  0.00    -0.423 OA
ATOM     15  C   UNL     1     -95.121  27.054 -39.083  1.00  0.00     0.339 C 
ATOM     16  O   UNL     1     -93.875  27.154 -38.936  1.00  0.00    -0.246 OA
ATOM     17  C   UNL     1    -100.167  26.761 -37.938  1.00  0.00     0.016 C 
ENDROOT
TORSDOF 0
ENDMDL
MODEL 3
REMARK VINA RESULT:    -3.860      7.489      9.182
REMARK INTER + INTRA:          -3.860
REMARK INTER:                  -3.860
REMARK INTRA:                   0.000
REMARK UNBOUND:                 0.000
REMARK SMILES C=C1CCC[C@]2(C)C=C3OC(=O)C(C)=C3C[C@@H]12
REMARK SMILES IDX 14 1 13 2 15 3 16 4 17 5 2 6 1 7 3 8 4 9 5 10 6 11 8 12 9 13
REMARK SMILES IDX 10 14 11 15 12 16 7 17
REMARK H PARENT
REMARK Flexibility Score: inf
ROOT
ATOM      1  C   UNL     1    -101.877  35.761 -37.611  1.00  0.00     0.053 C 
ATOM      2  C   UNL     1    -101.697  34.831 -36.453  1.00  0.00     0.041 C 
ATOM      3  C   UNL     1    -100.571  34.613 -35.779  1.00  0.00     0.005 C 
ATOM      4  C   UNL     1     -99.235  35.270 -35.934  1.00  0.00     0.049 C 
ATOM      5  C   UNL     1     -98.140  34.371 -35.289  1.00  0.00     0.029 C 
ATOM      6  C   UNL     1     -96.746  34.995 -35.228  1.00  0.00    -0.073 C 
ATOM      7  C   UNL     1     -96.403  36.111 -35.896  1.00  0.00     0.008 C 
ATOM      8  C   UNL     1     -95.690  34.294 -34.401  1.00  0.00     0.031 C 
ATOM      9  C   UNL     1     -96.115  32.869 -34.034  1.00  0.00     0.005 C 
ATOM     10  C   UNL     1     -97.491  32.803 -33.339  1.00  0.00     0.012 C 
ATOM     11  C   UNL     1     -98.548  33.836 -33.860  1.00  0.00    -0.004 C 
ATOM     12  C   UNL     1     -99.917  33.165 -33.915  1.00  0.00     0.027 C 
ATOM     13  C   UNL     1    -100.833  33.590 -34.784  1.00  0.00     0.131 C 
ATOM     14  O   UNL     1    -102.142  33.145 -34.883  1.00  0.00    -0.423 OA
ATOM     15  C   UNL     1    -102.691  33.898 -35.914  1.00  0.00     0.339 C 
ATOM     16  O   UNL     1    -103.877  33.777 -36.317  1.00  0.00    -0.246 OA
ATOM     17  C   UNL     1     -98.661  35.006 -32.849  1.00  0.00     0.016 C 
ENDROOT
TORSDOF 0
ENDMDL
MODEL 4
REMARK VINA RESULT:    -3.844      7.360      8.237
REMARK INTER + INTRA:          -3.844
REMARK INTER:                  -3.844
REMARK INTRA:                   0.000
REMARK UNBOUND:                 0.000
REMARK SMILES C=C1CCC[C@]2(C)C=C3OC(=O)C(C)=C3C[C@@H]12
REMARK SMILES IDX 14 1 13 2 15 3 16 4 17 5 2 6 1 7 3 8 4 9 5 10 6 11 8 12 9 13
REMARK SMILES IDX 10 14 11 15 12 16 7 17
REMARK H PARENT
REMARK Flexibility Score: inf
ROOT
ATOM      1  C   UNL     1     -96.327  33.366 -33.776  1.00  0.00     0.053 C 
ATOM      2  C   UNL     1     -97.082  34.329 -34.636  1.00  0.00     0.041 C 
ATOM      3  C   UNL     1     -98.397  34.348 -34.838  1.00  0.00     0.005 C 
ATOM      4  C   UNL     1     -99.460  33.491 -34.224  1.00  0.00     0.049 C 
ATOM      5  C   UNL     1    -100.741  33.546 -35.108  1.00  0.00     0.029 C 
ATOM      6  C   UNL     1    -101.964  32.847 -34.514  1.00  0.00    -0.073 C 
ATOM      7  C   UNL     1    -101.906  32.025 -33.451  1.00  0.00     0.008 C 
ATOM      8  C   UNL     1    -103.302  33.064 -35.187  1.00  0.00     0.031 C 
ATOM      9  C   UNL     1    -103.140  33.690 -36.576  1.00  0.00     0.005 C 
ATOM     10  C   UNL     1    -102.311  34.992 -36.566  1.00  0.00     0.012 C 
ATOM     11  C   UNL     1    -101.124  35.015 -35.542  1.00  0.00    -0.004 C 
ATOM     12  C   UNL     1     -99.926  35.710 -36.182  1.00  0.00     0.027 C 
ATOM     13  C   UNL     1     -98.692  35.403 -35.790  1.00  0.00     0.131 C 
ATOM     14  O   UNL     1     -97.520  36.015 -36.209  1.00  0.00    -0.423 OA
ATOM     15  C   UNL     1     -96.514  35.360 -35.509  1.00  0.00     0.339 C 
ATOM     16  O   UNL     1     -95.289  35.627 -35.626  1.00  0.00    -0.246 OA
ATOM     17  C   UNL     1    -101.530  35.863 -34.308  1.00  0.00     0.016 C 
ENDROOT
TORSDOF 0
ENDMDL
MODEL 5
REMARK VINA RESULT:    -3.780      4.078      5.466
REMARK INTER + INTRA:          -3.780
REMARK INTER:                  -3.780
REMARK INTRA:                   0.000
REMARK UNBOUND:                 0.000
REMARK SMILES C=C1CCC[C@]2(C)C=C3OC(=O)C(C)=C3C[C@@H]12
REMARK SMILES IDX 14 1 13 2 15 3 16 4 17 5 2 6 1 7 3 8 4 9 5 10 6 11 8 12 9 13
REMARK SMILES IDX 10 14 11 15 12 16 7 17
REMARK H PARENT
REMARK Flexibility Score: inf
ROOT
ATOM      1  C   UNL     1     -98.761  22.812 -43.375  1.00  0.00     0.053 C 
ATOM      2  C   UNL     1     -97.465  23.211 -42.745  1.00  0.00     0.041 C 
ATOM      3  C   UNL     1     -97.301  24.079 -41.750  1.00  0.00     0.005 C 
ATOM      4  C   UNL     1     -98.336  24.816 -40.959  1.00  0.00     0.049 C 
ATOM      5  C   UNL     1     -97.677  26.045 -40.267  1.00  0.00     0.029 C 
ATOM      6  C   UNL     1     -98.582  26.798 -39.292  1.00  0.00    -0.073 C 
ATOM      7  C   UNL     1     -99.911  26.603 -39.212  1.00  0.00     0.008 C 
ATOM      8  C   UNL     1     -97.951  27.845 -38.400  1.00  0.00     0.031 C 
ATOM      9  C   UNL     1     -96.542  28.215 -38.875  1.00  0.00     0.005 C 
ATOM     10  C   UNL     1     -95.611  26.993 -39.035  1.00  0.00     0.012 C 
ATOM     11  C   UNL     1     -96.309  25.692 -39.561  1.00  0.00    -0.004 C 
ATOM     12  C   UNL     1     -95.375  24.984 -40.537  1.00  0.00     0.027 C 
ATOM     13  C   UNL     1     -95.878  24.213 -41.499  1.00  0.00     0.131 C 
ATOM     14  O   UNL     1     -95.156  23.437 -42.393  1.00  0.00    -0.423 OA
ATOM     15  C   UNL     1     -96.121  22.813 -43.174  1.00  0.00     0.339 C 
ATOM     16  O   UNL     1     -95.857  22.024 -44.118  1.00  0.00    -0.246 OA
ATOM     17  C   UNL     1     -96.540  24.721 -38.374  1.00  0.00     0.016 C 
ENDROOT
TORSDOF 0
ENDMDL
MODEL 6
REMARK VINA RESULT:    -3.741      9.717     11.479
REMARK INTER + INTRA:          -3.741
REMARK INTER:                  -3.741
REMARK INTRA:                   0.000
REMARK UNBOUND:                 0.000
REMARK SMILES C=C1CCC[C@]2(C)C=C3OC(=O)C(C)=C3C[C@@H]12
REMARK SMILES IDX 14 1 13 2 15 3 16 4 17 5 2 6 1 7 3 8 4 9 5 10 6 11 8 12 9 13
REMARK SMILES IDX 10 14 11 15 12 16 7 17
REMARK H PARENT
REMARK Flexibility Score: inf
ROOT
ATOM      1  C   UNL     1     -97.860  28.721 -24.751  1.00  0.00     0.053 C 
ATOM      2  C   UNL     1     -96.965  27.689 -25.359  1.00  0.00     0.041 C 
ATOM      3  C   UNL     1     -97.297  26.804 -26.295  1.00  0.00     0.005 C 
ATOM      4  C   UNL     1     -98.591  26.649 -27.032  1.00  0.00     0.049 C 
ATOM      5  C   UNL     1     -98.666  25.220 -27.645  1.00  0.00     0.029 C 
ATOM      6  C   UNL     1     -99.862  24.975 -28.565  1.00  0.00    -0.073 C 
ATOM      7  C   UNL     1    -100.914  25.809 -28.652  1.00  0.00     0.008 C 
ATOM      8  C   UNL     1     -99.877  23.706 -29.390  1.00  0.00     0.031 C 
ATOM      9  C   UNL     1     -98.829  22.702 -28.898  1.00  0.00     0.005 C 
ATOM     10  C   UNL     1     -97.405  23.293 -28.822  1.00  0.00     0.012 C 
ATOM     11  C   UNL     1     -97.333  24.796 -28.379  1.00  0.00    -0.004 C 
ATOM     12  C   UNL     1     -96.134  24.987 -27.455  1.00  0.00     0.027 C 
ATOM     13  C   UNL     1     -96.145  25.957 -26.544  1.00  0.00     0.131 C 
ATOM     14  O   UNL     1     -95.098  26.310 -25.706  1.00  0.00    -0.423 OA
ATOM     15  C   UNL     1     -95.589  27.377 -24.962  1.00  0.00     0.339 C 
ATOM     16  O   UNL     1     -94.929  27.974 -24.073  1.00  0.00    -0.246 OA
ATOM     17  C   UNL     1     -97.087  25.684 -29.626  1.00  0.00     0.016 C 
ENDROOT
TORSDOF 0
ENDMDL
MODEL 7
REMARK VINA RESULT:    -3.717      4.669      7.445
REMARK INTER + INTRA:          -3.717
REMARK INTER:                  -3.717
REMARK INTRA:                   0.000
REMARK UNBOUND:                 0.000
REMARK SMILES C=C1CCC[C@]2(C)C=C3OC(=O)C(C)=C3C[C@@H]12
REMARK SMILES IDX 14 1 13 2 15 3 16 4 17 5 2 6 1 7 3 8 4 9 5 10 6 11 8 12 9 13
REMARK SMILES IDX 10 14 11 15 12 16 7 17
REMARK H PARENT
REMARK Flexibility Score: inf
ROOT
ATOM      1  C   UNL     1    -106.336  30.206 -41.048  1.00  0.00     0.053 C 
ATOM      2  C   UNL     1    -105.207  29.499 -41.728  1.00  0.00     0.041 C 
ATOM      3  C   UNL     1    -104.144  28.956 -41.141  1.00  0.00     0.005 C 
ATOM      4  C   UNL     1    -103.829  28.835 -39.682  1.00  0.00     0.049 C 
ATOM      5  C   UNL     1    -102.303  28.583 -39.504  1.00  0.00     0.029 C 
ATOM      6  C   UNL     1    -101.863  28.275 -38.073  1.00  0.00    -0.073 C 
ATOM      7  C   UNL     1    -102.653  28.456 -36.999  1.00  0.00     0.008 C 
ATOM      8  C   UNL     1    -100.450  27.779 -37.855  1.00  0.00     0.031 C 
ATOM      9  C   UNL     1     -99.579  27.996 -39.096  1.00  0.00     0.005 C 
ATOM     10  C   UNL     1    -100.183  27.390 -40.380  1.00  0.00     0.012 C 
ATOM     11  C   UNL     1    -101.745  27.475 -40.483  1.00  0.00    -0.004 C 
ATOM     12  C   UNL     1    -102.134  27.796 -41.923  1.00  0.00     0.027 C 
ATOM     13  C   UNL     1    -103.272  28.436 -42.178  1.00  0.00     0.131 C 
ATOM     14  O   UNL     1    -103.800  28.709 -43.431  1.00  0.00    -0.423 OA
ATOM     15  C   UNL     1    -104.994  29.370 -43.172  1.00  0.00     0.339 C 
ATOM     16  O   UNL     1    -105.769  29.796 -44.068  1.00  0.00    -0.246 OA
ATOM     17  C   UNL     1    -102.356  26.090 -40.149  1.00  0.00     0.016 C 
ENDROOT
TORSDOF 0
ENDMDL
MODEL 8
REMARK VINA RESULT:    -3.692      2.187      5.256
REMARK INTER + INTRA:          -3.692
REMARK INTER:                  -3.692
REMARK INTRA:                   0.000
REMARK UNBOUND:                 0.000
REMARK SMILES C=C1CCC[C@]2(C)C=C3OC(=O)C(C)=C3C[C@@H]12
REMARK SMILES IDX 14 1 13 2 15 3 16 4 17 5 2 6 1 7 3 8 4 9 5 10 6 11 8 12 9 13
REMARK SMILES IDX 10 14 11 15 12 16 7 17
REMARK H PARENT
REMARK Flexibility Score: inf
ROOT
ATOM      1  C   UNL     1    -101.137  28.621 -39.604  1.00  0.00     0.053 C 
ATOM      2  C   UNL     1    -100.555  27.518 -38.778  1.00  0.00     0.041 C 
ATOM      3  C   UNL     1     -99.263  27.286 -38.564  1.00  0.00     0.005 C 
ATOM      4  C   UNL     1     -98.073  28.080 -39.009  1.00  0.00     0.049 C 
ATOM      5  C   UNL     1     -96.803  27.182 -38.948  1.00  0.00     0.029 C 
ATOM      6  C   UNL     1     -95.486  27.910 -39.218  1.00  0.00    -0.073 C 
ATOM      7  C   UNL     1     -95.417  29.154 -39.725  1.00  0.00     0.008 C 
ATOM      8  C   UNL     1     -94.195  27.172 -38.938  1.00  0.00     0.031 C 
ATOM      9  C   UNL     1     -94.435  25.671 -38.745  1.00  0.00     0.005 C 
ATOM     10  C   UNL     1     -95.496  25.355 -37.669  1.00  0.00     0.012 C 
ATOM     11  C   UNL     1     -96.693  26.365 -37.601  1.00  0.00    -0.004 C 
ATOM     12  C   UNL     1     -97.983  25.592 -37.343  1.00  0.00     0.027 C 
ATOM     13  C   UNL     1     -99.148  26.082 -37.763  1.00  0.00     0.131 C 
ATOM     14  O   UNL     1    -100.402  25.544 -37.519  1.00  0.00    -0.423 OA
ATOM     15  C   UNL     1    -101.285  26.417 -38.144  1.00  0.00     0.339 C 
ATOM     16  O   UNL     1    -102.534  26.263 -38.156  1.00  0.00    -0.246 OA
ATOM     17  C   UNL     1     -96.490  27.318 -36.396  1.00  0.00     0.016 C 
ENDROOT
TORSDOF 0
ENDMDL
MODEL 9
REMARK VINA RESULT:    -3.632      3.965      5.960
REMARK INTER + INTRA:          -3.632
REMARK INTER:                  -3.632
REMARK INTRA:                   0.000
REMARK UNBOUND:                 0.000
REMARK SMILES C=C1CCC[C@]2(C)C=C3OC(=O)C(C)=C3C[C@@H]12
REMARK SMILES IDX 14 1 13 2 15 3 16 4 17 5 2 6 1 7 3 8 4 9 5 10 6 11 8 12 9 13
REMARK SMILES IDX 10 14 11 15 12 16 7 17
REMARK H PARENT
REMARK Flexibility Score: inf
ROOT
ATOM      1  C   UNL     1     -95.092  21.554 -40.778  1.00  0.00     0.053 C 
ATOM      2  C   UNL     1     -95.402  22.987 -41.072  1.00  0.00     0.041 C 
ATOM      3  C   UNL     1     -95.451  23.985 -40.193  1.00  0.00     0.005 C 
ATOM      4  C   UNL     1     -95.143  23.969 -38.728  1.00  0.00     0.049 C 
ATOM      5  C   UNL     1     -95.798  25.208 -38.051  1.00  0.00     0.029 C 
ATOM      6  C   UNL     1     -95.428  25.409 -36.581  1.00  0.00    -0.073 C 
ATOM      7  C   UNL     1     -94.808  24.476 -35.837  1.00  0.00     0.008 C 
ATOM      8  C   UNL     1     -95.820  26.715 -35.922  1.00  0.00     0.031 C 
ATOM      9  C   UNL     1     -96.837  27.489 -36.766  1.00  0.00     0.005 C 
ATOM     10  C   UNL     1     -96.373  27.723 -38.220  1.00  0.00     0.012 C 
ATOM     11  C   UNL     1     -95.550  26.547 -38.851  1.00  0.00    -0.004 C 
ATOM     12  C   UNL     1     -95.961  26.377 -40.310  1.00  0.00     0.027 C 
ATOM     13  C   UNL     1     -95.851  25.188 -40.898  1.00  0.00     0.131 C 
ATOM     14  O   UNL     1     -96.093  24.906 -42.234  1.00  0.00    -0.423 OA
ATOM     15  C   UNL     1     -95.825  23.548 -42.359  1.00  0.00     0.339 C 
ATOM     16  O   UNL     1     -95.941  22.906 -43.435  1.00  0.00    -0.246 OA
ATOM     17  C   UNL     1     -94.044  26.917 -38.847  1.00  0.00     0.016 C 
ENDROOT
TORSDOF 0
ENDMDL
