MODEL 1
REMARK VINA RESULT:    -5.253      0.000      0.000
REMARK INTER + INTRA:          -8.781
REMARK INTER:                  -8.017
REMARK INTRA:                  -0.764
REMARK UNBOUND:                -0.764
REMARK SMILES CCCCCCCCCC=CC(=O)[O-]
REMARK SMILES IDX 7 1 8 2 9 3 10 4 11 5 12 6 13 7 14 8 6 9 5 10 4 11 3 12 2 13
REMARK SMILES IDX 1 14
REMARK H PARENT
REMARK Flexibility Score: inf
ROOT
ATOM      1  C   UNL     1       9.384  -0.313   2.392  1.00  0.00     0.000 C 
ENDROOT
BRANCH   1   2
ATOM      2  C   UNL     1       8.923   1.130   2.625  1.00  0.00     0.004 C 
BRANCH   2   3
ATOM      3  C   UNL     1       7.820   1.522   1.633  1.00  0.00     0.027 C 
BRANCH   3   4
ATOM      4  C   UNL     1       7.857   2.994   1.327  1.00  0.00    -0.025 C 
ATOM      5  C   UNL     1       7.274   3.598   0.278  1.00  0.00     0.020 C 
BRANCH   5   6
ATOM      6  C   UNL     1       6.445   2.952  -0.761  1.00  0.00     0.064 C 
ATOM      7  O   UNL     1       5.192   3.057  -0.692  1.00  0.00    -0.545 OA
ATOM      8  O   UNL     1       6.998   2.210  -1.797  1.00  0.00    -0.545 OA
ENDBRANCH   5   6
ENDBRANCH   3   4
ENDBRANCH   2   3
ENDBRANCH   1   2
BRANCH   1   9
ATOM      9  C   UNL     1       9.784  -0.985   3.710  1.00  0.00     0.000 C 
BRANCH   9  10
ATOM     10  C   UNL     1       8.825  -2.134   4.055  1.00  0.00     0.000 C 
BRANCH  10  11
ATOM     11  C   UNL     1       7.346  -1.726   3.950  1.00  0.00    -0.000 C 
BRANCH  11  12
ATOM     12  C   UNL     1       6.567  -2.580   2.936  1.00  0.00    -0.000 C 
BRANCH  12  13
ATOM     13  C   UNL     1       5.952  -1.738   1.808  1.00  0.00    -0.003 C 
ATOM     14  C   UNL     1       5.229  -2.585   0.761  1.00  0.00     0.004 C 
ENDBRANCH  12  13
ENDBRANCH  11  12
ENDBRANCH  10  11
ENDBRANCH   9  10
ENDBRANCH   1   9
TORSDOF 9
ENDMDL
MODEL 2
REMARK VINA RESULT:    -5.109      1.145      3.015
REMARK INTER + INTRA:          -8.560
REMARK INTER:                  -7.417
REMARK INTRA:                  -1.143
REMARK UNBOUND:                -0.764
REMARK SMILES CCCCCCCCCC=CC(=O)[O-]
REMARK SMILES IDX 7 1 8 2 9 3 10 4 11 5 12 6 13 7 14 8 6 9 5 10 4 11 3 12 2 13
REMARK SMILES IDX 1 14
REMARK H PARENT
REMARK Flexibility Score: inf
ROOT
ATOM      1  C   UNL     1       5.552  -1.395   1.287  1.00  0.00     0.000 C 
ENDROOT
BRANCH   1   2
ATOM      2  C   UNL     1       5.498  -0.138   2.164  1.00  0.00     0.004 C 
BRANCH   2   3
ATOM      3  C   UNL     1       5.587   1.133   1.309  1.00  0.00     0.027 C 
BRANCH   3   4
ATOM      4  C   UNL     1       6.956   1.751   1.389  1.00  0.00    -0.025 C 
ATOM      5  C   UNL     1       7.468   2.651   0.533  1.00  0.00     0.020 C 
BRANCH   5   6
ATOM      6  C   UNL     1       6.782   3.248  -0.632  1.00  0.00     0.064 C 
ATOM      7  O   UNL     1       6.649   2.559  -1.678  1.00  0.00    -0.545 OA
ATOM      8  O   UNL     1       6.303   4.551  -0.624  1.00  0.00    -0.545 OA
ENDBRANCH   5   6
ENDBRANCH   3   4
ENDBRANCH   2   3
ENDBRANCH   1   2
BRANCH   1   9
ATOM      9  C   UNL     1       6.038  -2.607   2.089  1.00  0.00     0.000 C 
BRANCH   9  10
ATOM     10  C   UNL     1       6.607  -2.175   3.449  1.00  0.00     0.000 C 
BRANCH  10  11
ATOM     11  C   UNL     1       7.998  -2.767   3.727  1.00  0.00    -0.000 C 
BRANCH  11  12
ATOM     12  C   UNL     1       8.955  -1.750   4.372  1.00  0.00    -0.000 C 
BRANCH  12  13
ATOM     13  C   UNL     1       8.948  -0.394   3.648  1.00  0.00    -0.003 C 
ATOM     14  C   UNL     1       9.806  -0.392   2.383  1.00  0.00     0.004 C 
ENDBRANCH  12  13
ENDBRANCH  11  12
ENDBRANCH  10  11
ENDBRANCH   9  10
ENDBRANCH   1   9
TORSDOF 9
ENDMDL
MODEL 3
REMARK VINA RESULT:    -5.043      4.770      6.473
REMARK INTER + INTRA:          -8.460
REMARK INTER:                  -7.206
REMARK INTRA:                  -1.254
REMARK UNBOUND:                -0.764
REMARK SMILES CCCCCCCCCC=CC(=O)[O-]
REMARK SMILES IDX 7 1 8 2 9 3 10 4 11 5 12 6 13 7 14 8 6 9 5 10 4 11 3 12 2 13
REMARK SMILES IDX 1 14
REMARK H PARENT
REMARK Flexibility Score: inf
ROOT
ATOM      1  C   UNL     1       9.649  -1.206   4.200  1.00  0.00     0.000 C 
ENDROOT
BRANCH   1   2
ATOM      2  C   UNL     1       9.819  -2.723   4.343  1.00  0.00     0.004 C 
BRANCH   2   3
ATOM      3  C   UNL     1       8.553  -3.463   3.891  1.00  0.00     0.027 C 
BRANCH   3   4
ATOM      4  C   UNL     1       7.350  -3.021   4.679  1.00  0.00    -0.025 C 
ATOM      5  C   UNL     1       6.879  -3.602   5.795  1.00  0.00     0.020 C 
BRANCH   5   6
ATOM      6  C   UNL     1       7.467  -4.760   6.500  1.00  0.00     0.064 C 
ATOM      7  O   UNL     1       8.288  -4.553   7.431  1.00  0.00    -0.545 OA
ATOM      8  O   UNL     1       7.164  -6.071   6.155  1.00  0.00    -0.545 OA
ENDBRANCH   5   6
ENDBRANCH   3   4
ENDBRANCH   2   3
ENDBRANCH   1   2
BRANCH   1   9
ATOM      9  C   UNL     1       9.982  -0.746   2.776  1.00  0.00     0.000 C 
BRANCH   9  10
ATOM     10  C   UNL     1       9.119   0.459   2.371  1.00  0.00     0.000 C 
BRANCH  10  11
ATOM     11  C   UNL     1       7.631   0.262   2.702  1.00  0.00    -0.000 C 
BRANCH  11  12
ATOM     12  C   UNL     1       6.813  -0.217   1.491  1.00  0.00    -0.000 C 
BRANCH  12  13
ATOM     13  C   UNL     1       5.635  -1.117   1.895  1.00  0.00    -0.003 C 
ATOM     14  C   UNL     1       5.626  -2.453   1.152  1.00  0.00     0.004 C 
ENDBRANCH  12  13
ENDBRANCH  11  12
ENDBRANCH  10  11
ENDBRANCH   9  10
ENDBRANCH   1   9
TORSDOF 9
ENDMDL
MODEL 4
REMARK VINA RESULT:    -5.009      2.752      5.626
REMARK INTER + INTRA:          -8.408
REMARK INTER:                  -7.406
REMARK INTRA:                  -1.001
REMARK UNBOUND:                -0.764
REMARK SMILES CCCCCCCCCC=CC(=O)[O-]
REMARK SMILES IDX 7 1 8 2 9 3 10 4 11 5 12 6 13 7 14 8 6 9 5 10 4 11 3 12 2 13
REMARK SMILES IDX 1 14
REMARK H PARENT
REMARK Flexibility Score: inf
ROOT
ATOM      1  C   UNL     1       8.573   1.106   1.966  1.00  0.00     0.000 C 
ENDROOT
BRANCH   1   2
ATOM      2  C   UNL     1       9.420  -0.008   2.595  1.00  0.00     0.004 C 
BRANCH   2   3
ATOM      3  C   UNL     1       8.740  -0.575   3.847  1.00  0.00     0.027 C 
BRANCH   3   4
ATOM      4  C   UNL     1       8.763  -2.079   3.849  1.00  0.00    -0.025 C 
ATOM      5  C   UNL     1       7.700  -2.886   3.698  1.00  0.00     0.020 C 
BRANCH   5   6
ATOM      6  C   UNL     1       6.303  -2.467   3.457  1.00  0.00     0.064 C 
ATOM      7  O   UNL     1       5.656  -1.939   4.399  1.00  0.00    -0.545 OA
ATOM      8  O   UNL     1       5.670  -2.659   2.236  1.00  0.00    -0.545 OA
ENDBRANCH   5   6
ENDBRANCH   3   4
ENDBRANCH   2   3
ENDBRANCH   1   2
BRANCH   1   9
ATOM      9  C   UNL     1       7.125   1.046   2.467  1.00  0.00     0.000 C 
BRANCH   9  10
ATOM     10  C   UNL     1       6.136   1.058   1.291  1.00  0.00     0.000 C 
BRANCH  10  11
ATOM     11  C   UNL     1       6.745   1.647   0.008  1.00  0.00    -0.000 C 
BRANCH  11  12
ATOM     12  C   UNL     1       5.920   2.815  -0.557  1.00  0.00    -0.000 C 
BRANCH  12  13
ATOM     13  C   UNL     1       6.721   4.125  -0.618  1.00  0.00    -0.003 C 
ATOM     14  C   UNL     1       7.468   4.425   0.682  1.00  0.00     0.004 C 
ENDBRANCH  12  13
ENDBRANCH  11  12
ENDBRANCH  10  11
ENDBRANCH   9  10
ENDBRANCH   1   9
TORSDOF 9
ENDMDL
MODEL 5
REMARK VINA RESULT:    -4.937      2.464      4.283
REMARK INTER + INTRA:          -8.298
REMARK INTER:                  -6.925
REMARK INTRA:                  -1.373
REMARK UNBOUND:                -0.764
REMARK SMILES CCCCCCCCCC=CC(=O)[O-]
REMARK SMILES IDX 7 1 8 2 9 3 10 4 11 5 12 6 13 7 14 8 6 9 5 10 4 11 3 12 2 13
REMARK SMILES IDX 1 14
REMARK H PARENT
REMARK Flexibility Score: inf
ROOT
ATOM      1  C   UNL     1       8.368  -3.645   3.894  1.00  0.00     0.000 C 
ENDROOT
BRANCH   1   2
ATOM      2  C   UNL     1       7.183  -3.132   4.722  1.00  0.00     0.004 C 
BRANCH   2   3
ATOM      3  C   UNL     1       6.357  -2.113   3.926  1.00  0.00     0.027 C 
BRANCH   3   4
ATOM      4  C   UNL     1       6.117  -2.584   2.518  1.00  0.00    -0.025 C 
ATOM      5  C   UNL     1       5.726  -1.820   1.485  1.00  0.00     0.020 C 
BRANCH   5   6
ATOM      6  C   UNL     1       5.494  -0.360   1.507  1.00  0.00     0.064 C 
ATOM      7  O   UNL     1       4.421   0.077   2.002  1.00  0.00    -0.545 OA
ATOM      8  O   UNL     1       6.404   0.545   0.978  1.00  0.00    -0.545 OA
ENDBRANCH   5   6
ENDBRANCH   3   4
ENDBRANCH   2   3
ENDBRANCH   1   2
BRANCH   1   9
ATOM      9  C   UNL     1       9.701  -3.190   4.498  1.00  0.00     0.000 C 
BRANCH   9  10
ATOM     10  C   UNL     1       9.477  -2.137   5.595  1.00  0.00     0.000 C 
BRANCH  10  11
ATOM     11  C   UNL     1      10.102  -0.776   5.249  1.00  0.00    -0.000 C 
BRANCH  11  12
ATOM     12  C   UNL     1       9.051   0.339   5.109  1.00  0.00    -0.000 C 
BRANCH  12  13
ATOM     13  C   UNL     1       8.633   0.572   3.649  1.00  0.00    -0.003 C 
ATOM     14  C   UNL     1       9.599  -0.059   2.646  1.00  0.00     0.004 C 
ENDBRANCH  12  13
ENDBRANCH  11  12
ENDBRANCH  10  11
ENDBRANCH   9  10
ENDBRANCH   1   9
TORSDOF 9
ENDMDL
MODEL 6
REMARK VINA RESULT:    -4.923      1.373      2.209
REMARK INTER + INTRA:          -8.276
REMARK INTER:                  -6.965
REMARK INTRA:                  -1.311
REMARK UNBOUND:                -0.764
REMARK SMILES CCCCCCCCCC=CC(=O)[O-]
REMARK SMILES IDX 7 1 8 2 9 3 10 4 11 5 12 6 13 7 14 8 6 9 5 10 4 11 3 12 2 13
REMARK SMILES IDX 1 14
REMARK H PARENT
REMARK Flexibility Score: inf
ROOT
ATOM      1  C   UNL     1       9.314  -1.247   4.351  1.00  0.00     0.000 C 
ENDROOT
BRANCH   1   2
ATOM      2  C   UNL     1      10.073  -0.976   3.046  1.00  0.00     0.004 C 
BRANCH   2   3
ATOM      3  C   UNL     1       9.400   0.144   2.242  1.00  0.00     0.027 C 
BRANCH   3   4
ATOM      4  C   UNL     1       8.259   0.758   3.006  1.00  0.00    -0.025 C 
ATOM      5  C   UNL     1       7.514   1.802   2.610  1.00  0.00     0.020 C 
BRANCH   5   6
ATOM      6  C   UNL     1       7.629   2.532   1.329  1.00  0.00     0.064 C 
ATOM      7  O   UNL     1       6.792   2.298   0.419  1.00  0.00    -0.545 OA
ATOM      8  O   UNL     1       8.645   3.447   1.086  1.00  0.00    -0.545 OA
ENDBRANCH   5   6
ENDBRANCH   3   4
ENDBRANCH   2   3
ENDBRANCH   1   2
BRANCH   1   9
ATOM      9  C   UNL     1       8.797  -2.689   4.399  1.00  0.00     0.000 C 
BRANCH   9  10
ATOM     10  C   UNL     1       7.378  -2.745   4.985  1.00  0.00     0.000 C 
BRANCH  10  11
ATOM     11  C   UNL     1       6.298  -2.340   3.968  1.00  0.00    -0.000 C 
BRANCH  11  12
ATOM     12  C   UNL     1       6.702  -2.659   2.518  1.00  0.00    -0.000 C 
BRANCH  12  13
ATOM     13  C   UNL     1       5.586  -2.336   1.513  1.00  0.00    -0.003 C 
ATOM     14  C   UNL     1       5.373  -0.834   1.323  1.00  0.00     0.004 C 
ENDBRANCH  12  13
ENDBRANCH  11  12
ENDBRANCH  10  11
ENDBRANCH   9  10
ENDBRANCH   1   9
TORSDOF 9
ENDMDL
MODEL 7
REMARK VINA RESULT:    -4.912      4.436      6.915
REMARK INTER + INTRA:          -8.260
REMARK INTER:                  -7.263
REMARK INTRA:                  -0.997
REMARK UNBOUND:                -0.764
REMARK SMILES CCCCCCCCCC=CC(=O)[O-]
REMARK SMILES IDX 7 1 8 2 9 3 10 4 11 5 12 6 13 7 14 8 6 9 5 10 4 11 3 12 2 13
REMARK SMILES IDX 1 14
REMARK H PARENT
REMARK Flexibility Score: inf
ROOT
ATOM      1  C   UNL     1       6.004  -2.640   2.438  1.00  0.00     0.000 C 
ENDROOT
BRANCH   1   2
ATOM      2  C   UNL     1       7.094  -2.200   3.423  1.00  0.00     0.004 C 
BRANCH   2   3
ATOM      3  C   UNL     1       8.080  -3.342   3.699  1.00  0.00     0.027 C 
BRANCH   3   4
ATOM      4  C   UNL     1       8.707  -3.207   5.059  1.00  0.00    -0.025 C 
ATOM      5  C   UNL     1       8.275  -3.791   6.189  1.00  0.00     0.020 C 
BRANCH   5   6
ATOM      6  C   UNL     1       7.129  -4.715   6.322  1.00  0.00     0.064 C 
ATOM      7  O   UNL     1       5.980  -4.235   6.504  1.00  0.00    -0.545 OA
ATOM      8  O   UNL     1       7.280  -6.095   6.279  1.00  0.00    -0.545 OA
ENDBRANCH   5   6
ENDBRANCH   3   4
ENDBRANCH   2   3
ENDBRANCH   1   2
BRANCH   1   9
ATOM      9  C   UNL     1       5.620  -1.496   1.493  1.00  0.00     0.000 C 
BRANCH   9  10
ATOM     10  C   UNL     1       5.730  -0.138   2.200  1.00  0.00     0.000 C 
BRANCH  10  11
ATOM     11  C   UNL     1       6.010   1.019   1.227  1.00  0.00    -0.000 C 
BRANCH  11  12
ATOM     12  C   UNL     1       7.514   1.258   1.009  1.00  0.00    -0.000 C 
BRANCH  12  13
ATOM     13  C   UNL     1       8.331   1.074   2.297  1.00  0.00    -0.003 C 
ATOM     14  C   UNL     1       9.497   0.101   2.126  1.00  0.00     0.004 C 
ENDBRANCH  12  13
ENDBRANCH  11  12
ENDBRANCH  10  11
ENDBRANCH   9  10
ENDBRANCH   1   9
TORSDOF 9
ENDMDL
MODEL 8
REMARK VINA RESULT:    -4.900      3.663      5.608
REMARK INTER + INTRA:          -8.242
REMARK INTER:                  -7.190
REMARK INTRA:                  -1.052
REMARK UNBOUND:                -0.764
REMARK SMILES CCCCCCCCCC=CC(=O)[O-]
REMARK SMILES IDX 7 1 8 2 9 3 10 4 11 5 12 6 13 7 14 8 6 9 5 10 4 11 3 12 2 13
REMARK SMILES IDX 1 14
REMARK H PARENT
REMARK Flexibility Score: inf
ROOT
ATOM      1  C   UNL     1       9.137  -0.007   1.928  1.00  0.00     0.000 C 
ENDROOT
BRANCH   1   2
ATOM      2  C   UNL     1       9.724  -0.737   3.142  1.00  0.00     0.004 C 
BRANCH   2   3
ATOM      3  C   UNL     1       8.617  -1.399   3.973  1.00  0.00     0.027 C 
BRANCH   3   4
ATOM      4  C   UNL     1       8.787  -2.893   4.018  1.00  0.00    -0.025 C 
ATOM      5  C   UNL     1       8.000  -3.757   4.680  1.00  0.00     0.020 C 
BRANCH   5   6
ATOM      6  C   UNL     1       6.789  -3.427   5.460  1.00  0.00     0.064 C 
ATOM      7  O   UNL     1       6.877  -3.341   6.713  1.00  0.00    -0.545 OA
ATOM      8  O   UNL     1       5.550  -3.234   4.862  1.00  0.00    -0.545 OA
ENDBRANCH   5   6
ENDBRANCH   3   4
ENDBRANCH   2   3
ENDBRANCH   1   2
BRANCH   1   9
ATOM      9  C   UNL     1       8.588   1.369   2.323  1.00  0.00     0.000 C 
BRANCH   9  10
ATOM     10  C   UNL     1       7.190   1.594   1.729  1.00  0.00     0.000 C 
BRANCH  10  11
ATOM     11  C   UNL     1       6.101   0.777   2.444  1.00  0.00    -0.000 C 
BRANCH  11  12
ATOM     12  C   UNL     1       5.412  -0.234   1.511  1.00  0.00    -0.000 C 
BRANCH  12  13
ATOM     13  C   UNL     1       5.791  -1.687   1.837  1.00  0.00    -0.003 C 
ATOM     14  C   UNL     1       5.378  -2.669   0.739  1.00  0.00     0.004 C 
ENDBRANCH  12  13
ENDBRANCH  11  12
ENDBRANCH  10  11
ENDBRANCH   9  10
ENDBRANCH   1   9
TORSDOF 9
ENDMDL
MODEL 9
REMARK VINA RESULT:    -4.861      2.460      3.097
REMARK INTER + INTRA:          -8.183
REMARK INTER:                  -6.853
REMARK INTRA:                  -1.330
REMARK UNBOUND:                -0.764
REMARK SMILES CCCCCCCCCC=CC(=O)[O-]
REMARK SMILES IDX 7 1 8 2 9 3 10 4 11 5 12 6 13 7 14 8 6 9 5 10 4 11 3 12 2 13
REMARK SMILES IDX 1 14
REMARK H PARENT
REMARK Flexibility Score: inf
ROOT
ATOM      1  C   UNL     1       9.309  -0.163   4.400  1.00  0.00     0.000 C 
ENDROOT
BRANCH   1   2
ATOM      2  C   UNL     1       8.296   0.620   3.557  1.00  0.00     0.004 C 
BRANCH   2   3
ATOM      3  C   UNL     1       8.207   0.050   2.135  1.00  0.00     0.027 C 
BRANCH   3   4
ATOM      4  C   UNL     1       7.385   0.936   1.241  1.00  0.00    -0.025 C 
ATOM      5  C   UNL     1       6.056   0.861   1.060  1.00  0.00     0.020 C 
BRANCH   5   6
ATOM      6  C   UNL     1       5.127  -0.072   1.730  1.00  0.00     0.064 C 
ATOM      7  O   UNL     1       5.050  -1.258   1.314  1.00  0.00    -0.545 OA
ATOM      8  O   UNL     1       4.315   0.319   2.787  1.00  0.00    -0.545 OA
ENDBRANCH   5   6
ENDBRANCH   3   4
ENDBRANCH   2   3
ENDBRANCH   1   2
BRANCH   1   9
ATOM      9  C   UNL     1       9.754  -1.442   3.683  1.00  0.00     0.000 C 
BRANCH   9  10
ATOM     10  C   UNL     1       9.497  -2.680   4.556  1.00  0.00     0.000 C 
BRANCH  10  11
ATOM     11  C   UNL     1       8.503  -3.663   3.916  1.00  0.00    -0.000 C 
BRANCH  11  12
ATOM     12  C   UNL     1       7.147  -3.010   3.599  1.00  0.00    -0.000 C 
BRANCH  12  13
ATOM     13  C   UNL     1       6.201  -3.002   4.810  1.00  0.00    -0.003 C 
ATOM     14  C   UNL     1       5.948  -1.597   5.357  1.00  0.00     0.004 C 
ENDBRANCH  12  13
ENDBRANCH  11  12
ENDBRANCH  10  11
ENDBRANCH   9  10
ENDBRANCH   1   9
TORSDOF 9
ENDMDL
