MODEL 1
REMARK VINA RESULT:    -2.593      0.000      0.000
REMARK INTER + INTRA:          -6.188
REMARK INTER:                  -4.412
REMARK INTRA:                  -1.776
REMARK UNBOUND:                -1.776
REMARK SMILES CCCCCCCCCCCCCC(=O)[O-]
REMARK SMILES IDX 8 1 9 2 10 3 11 4 12 5 13 6 14 7 15 8 16 9 7 10 6 11 5 12
REMARK SMILES IDX 4 13 3 14 2 15 1 16
REMARK H PARENT
REMARK Flexibility Score: inf
ROOT
ATOM      1  C   UNL     1       7.137  -6.938  -5.632  1.00  0.00     0.000 C 
ENDROOT
BRANCH   1   2
ATOM      2  C   UNL     1       6.388  -8.268  -5.443  1.00  0.00     0.000 C 
BRANCH   2   3
ATOM      3  C   UNL     1       7.006  -9.415  -6.261  1.00  0.00     0.000 C 
BRANCH   3   4
ATOM      4  C   UNL     1       6.005 -10.046  -7.245  1.00  0.00     0.000 C 
BRANCH   4   5
ATOM      5  C   UNL     1       5.217  -8.994  -8.040  1.00  0.00     0.006 C 
BRANCH   5   6
ATOM      6  C   UNL     1       5.867  -8.662  -9.390  1.00  0.00     0.053 C 
BRANCH   6   7
ATOM      7  C   UNL     1       6.682  -7.413  -9.283  1.00  0.00     0.041 C 
ATOM      8  O   UNL     1       6.146  -6.336  -8.914  1.00  0.00    -0.550 OA
ATOM      9  O   UNL     1       8.025  -7.427  -9.638  1.00  0.00    -0.550 OA
ENDBRANCH   6   7
ENDBRANCH   5   6
ENDBRANCH   4   5
ENDBRANCH   3   4
ENDBRANCH   2   3
ENDBRANCH   1   2
BRANCH   1  10
ATOM     10  C   UNL     1       8.612  -7.140  -6.016  1.00  0.00     0.000 C 
BRANCH  10  11
ATOM     11  C   UNL     1       9.575  -6.381  -5.086  1.00  0.00    -0.000 C 
BRANCH  11  12
ATOM     12  C   UNL     1       8.962  -6.098  -3.705  1.00  0.00    -0.000 C 
BRANCH  12  13
ATOM     13  C   UNL     1       9.908  -6.454  -2.549  1.00  0.00    -0.000 C 
BRANCH  13  14
ATOM     14  C   UNL     1       9.983  -7.975  -2.351  1.00  0.00    -0.000 C 
BRANCH  14  15
ATOM     15  C   UNL     1       8.597  -8.639  -2.340  1.00  0.00    -0.003 C 
ATOM     16  C   UNL     1       8.596 -10.018  -3.000  1.00  0.00     0.004 C 
ENDBRANCH  14  15
ENDBRANCH  13  14
ENDBRANCH  12  13
ENDBRANCH  11  12
ENDBRANCH  10  11
ENDBRANCH   1  10
TORSDOF 12
ENDMDL
MODEL 2
REMARK VINA RESULT:    -2.400      2.758      5.486
REMARK INTER + INTRA:          -5.860
REMARK INTER:                  -4.014
REMARK INTRA:                  -1.845
REMARK UNBOUND:                -1.776
REMARK SMILES CCCCCCCCCCCCCC(=O)[O-]
REMARK SMILES IDX 8 1 9 2 10 3 11 4 12 5 13 6 14 7 15 8 16 9 7 10 6 11 5 12
REMARK SMILES IDX 4 13 3 14 2 15 1 16
REMARK H PARENT
REMARK Flexibility Score: inf
ROOT
ATOM      1  C   UNL     1       6.358  -8.169  -6.244  1.00  0.00     0.000 C 
ENDROOT
BRANCH   1   2
ATOM      2  C   UNL     1       6.884  -9.406  -5.498  1.00  0.00     0.000 C 
BRANCH   2   3
ATOM      3  C   UNL     1       8.338  -9.745  -5.867  1.00  0.00     0.000 C 
BRANCH   3   4
ATOM      4  C   UNL     1       9.341  -9.310  -4.784  1.00  0.00     0.000 C 
BRANCH   4   5
ATOM      5  C   UNL     1       8.749  -9.385  -3.368  1.00  0.00     0.006 C 
BRANCH   5   6
ATOM      6  C   UNL     1       9.417  -8.405  -2.393  1.00  0.00     0.053 C 
BRANCH   6   7
ATOM      7  C   UNL     1       9.162  -6.994  -2.817  1.00  0.00     0.041 C 
ATOM      8  O   UNL     1      10.069  -6.128  -2.715  1.00  0.00    -0.550 OA
ATOM      9  O   UNL     1       7.905  -6.622  -3.278  1.00  0.00    -0.550 OA
ENDBRANCH   6   7
ENDBRANCH   5   6
ENDBRANCH   4   5
ENDBRANCH   3   4
ENDBRANCH   2   3
ENDBRANCH   1   2
BRANCH   1  10
ATOM     10  C   UNL     1       6.336  -8.363  -7.769  1.00  0.00     0.000 C 
BRANCH  10  11
ATOM     11  C   UNL     1       6.316  -7.029  -8.536  1.00  0.00    -0.000 C 
BRANCH  11  12
ATOM     12  C   UNL     1       7.617  -6.778  -9.316  1.00  0.00    -0.000 C 
BRANCH  12  13
ATOM     13  C   UNL     1       8.640  -7.912  -9.149  1.00  0.00    -0.000 C 
BRANCH  13  14
ATOM     14  C   UNL     1       9.914  -7.402  -8.460  1.00  0.00    -0.000 C 
BRANCH  14  15
ATOM     15  C   UNL     1       9.744  -5.994  -7.868  1.00  0.00    -0.003 C 
ATOM     16  C   UNL     1       9.593  -6.006  -6.347  1.00  0.00     0.004 C 
ENDBRANCH  14  15
ENDBRANCH  13  14
ENDBRANCH  12  13
ENDBRANCH  11  12
ENDBRANCH  10  11
ENDBRANCH   1  10
TORSDOF 12
ENDMDL
MODEL 3
REMARK VINA RESULT:    -2.363      2.188      5.526
REMARK INTER + INTRA:          -5.796
REMARK INTER:                  -4.532
REMARK INTRA:                  -1.264
REMARK UNBOUND:                -1.776
REMARK SMILES CCCCCCCCCCCCCC(=O)[O-]
REMARK SMILES IDX 8 1 9 2 10 3 11 4 12 5 13 6 14 7 15 8 16 9 7 10 6 11 5 12
REMARK SMILES IDX 4 13 3 14 2 15 1 16
REMARK H PARENT
REMARK Flexibility Score: inf
ROOT
ATOM      1  C   UNL     1       9.774  -6.520  -5.283  1.00  0.00     0.000 C 
ENDROOT
BRANCH   1   2
ATOM      2  C   UNL     1       9.384  -6.201  -3.830  1.00  0.00     0.000 C 
BRANCH   2   3
ATOM      3  C   UNL     1       9.702  -7.355  -2.864  1.00  0.00     0.000 C 
BRANCH   3   4
ATOM      4  C   UNL     1      10.071  -8.656  -3.599  1.00  0.00     0.000 C 
BRANCH   4   5
ATOM      5  C   UNL     1       8.999  -9.746  -3.444  1.00  0.00     0.006 C 
BRANCH   5   6
ATOM      6  C   UNL     1       8.070  -9.841  -4.661  1.00  0.00     0.053 C 
BRANCH   6   7
ATOM      7  C   UNL     1       6.820  -9.054  -4.426  1.00  0.00     0.041 C 
ATOM      8  O   UNL     1       6.434  -8.814  -3.252  1.00  0.00    -0.550 OA
ATOM      9  O   UNL     1       6.054  -8.627  -5.503  1.00  0.00    -0.550 OA
ENDBRANCH   6   7
ENDBRANCH   5   6
ENDBRANCH   4   5
ENDBRANCH   3   4
ENDBRANCH   2   3
ENDBRANCH   1   2
BRANCH   1  10
ATOM     10  C   UNL     1       8.613  -6.300  -6.268  1.00  0.00     0.000 C 
BRANCH  10  11
ATOM     11  C   UNL     1       8.605  -7.329  -7.412  1.00  0.00    -0.000 C 
BRANCH  11  12
ATOM     12  C   UNL     1       8.911  -6.694  -8.778  1.00  0.00    -0.000 C 
BRANCH  12  13
ATOM     13  C   UNL     1       7.650  -6.465  -9.625  1.00  0.00    -0.000 C 
BRANCH  13  14
ATOM     14  C   UNL     1       6.385  -6.822  -8.830  1.00  0.00    -0.000 C 
BRANCH  14  15
ATOM     15  C   UNL     1       5.420  -7.715  -9.625  1.00  0.00    -0.003 C 
ATOM     16  C   UNL     1       4.759  -8.789  -8.761  1.00  0.00     0.004 C 
ENDBRANCH  14  15
ENDBRANCH  13  14
ENDBRANCH  12  13
ENDBRANCH  11  12
ENDBRANCH  10  11
ENDBRANCH   1  10
TORSDOF 12
ENDMDL
MODEL 4
REMARK VINA RESULT:    -2.345      1.294      4.434
REMARK INTER + INTRA:          -5.765
REMARK INTER:                  -4.091
REMARK INTRA:                  -1.675
REMARK UNBOUND:                -1.776
REMARK SMILES CCCCCCCCCCCCCC(=O)[O-]
REMARK SMILES IDX 8 1 9 2 10 3 11 4 12 5 13 6 14 7 15 8 16 9 7 10 6 11 5 12
REMARK SMILES IDX 4 13 3 14 2 15 1 16
REMARK H PARENT
REMARK Flexibility Score: inf
ROOT
ATOM      1  C   UNL     1       8.249  -7.372  -3.080  1.00  0.00     0.000 C 
ENDROOT
BRANCH   1   2
ATOM      2  C   UNL     1       9.756  -7.244  -3.360  1.00  0.00     0.000 C 
BRANCH   2   3
ATOM      3  C   UNL     1      10.055  -6.404  -4.613  1.00  0.00     0.000 C 
BRANCH   3   4
ATOM      4  C   UNL     1       8.891  -6.408  -5.620  1.00  0.00     0.000 C 
BRANCH   4   5
ATOM      5  C   UNL     1       9.217  -7.201  -6.895  1.00  0.00     0.006 C 
BRANCH   5   6
ATOM      6  C   UNL     1       9.183  -6.332  -8.159  1.00  0.00     0.053 C 
BRANCH   6   7
ATOM      7  C   UNL     1       8.263  -6.928  -9.176  1.00  0.00     0.041 C 
ATOM      8  O   UNL     1       7.193  -6.340  -9.484  1.00  0.00    -0.550 OA
ATOM      9  O   UNL     1       8.562  -8.157  -9.750  1.00  0.00    -0.550 OA
ENDBRANCH   6   7
ENDBRANCH   5   6
ENDBRANCH   4   5
ENDBRANCH   3   4
ENDBRANCH   2   3
ENDBRANCH   1   2
BRANCH   1  10
ATOM     10  C   UNL     1       7.843  -8.800  -2.679  1.00  0.00     0.000 C 
BRANCH  10  11
ATOM     11  C   UNL     1       6.904  -9.459  -3.707  1.00  0.00    -0.000 C 
BRANCH  11  12
ATOM     12  C   UNL     1       7.661 -10.020  -4.922  1.00  0.00    -0.000 C 
BRANCH  12  13
ATOM     13  C   UNL     1       6.791 -10.085  -6.187  1.00  0.00    -0.000 C 
BRANCH  13  14
ATOM     14  C   UNL     1       6.025  -8.769  -6.392  1.00  0.00    -0.000 C 
BRANCH  14  15
ATOM     15  C   UNL     1       5.269  -8.728  -7.729  1.00  0.00    -0.003 C 
ATOM     16  C   UNL     1       5.693  -9.844  -8.684  1.00  0.00     0.004 C 
ENDBRANCH  14  15
ENDBRANCH  13  14
ENDBRANCH  12  13
ENDBRANCH  11  12
ENDBRANCH  10  11
ENDBRANCH   1  10
TORSDOF 12
ENDMDL
MODEL 5
REMARK VINA RESULT:    -2.249      2.812      5.949
REMARK INTER + INTRA:          -5.602
REMARK INTER:                  -4.222
REMARK INTRA:                  -1.380
REMARK UNBOUND:                -1.776
REMARK SMILES CCCCCCCCCCCCCC(=O)[O-]
REMARK SMILES IDX 8 1 9 2 10 3 11 4 12 5 13 6 14 7 15 8 16 9 7 10 6 11 5 12
REMARK SMILES IDX 4 13 3 14 2 15 1 16
REMARK H PARENT
REMARK Flexibility Score: inf
ROOT
ATOM      1  C   UNL     1       8.388  -7.094  -9.144  1.00  0.00     0.000 C 
ENDROOT
BRANCH   1   2
ATOM      2  C   UNL     1       9.251  -5.828  -9.286  1.00  0.00     0.000 C 
BRANCH   2   3
ATOM      3  C   UNL     1      10.125  -5.567  -8.047  1.00  0.00     0.000 C 
BRANCH   3   4
ATOM      4  C   UNL     1      10.033  -6.699  -7.009  1.00  0.00     0.000 C 
BRANCH   4   5
ATOM      5  C   UNL     1       9.649  -6.187  -5.612  1.00  0.00     0.006 C 
BRANCH   5   6
ATOM      6  C   UNL     1       9.865  -7.239  -4.515  1.00  0.00     0.053 C 
BRANCH   6   7
ATOM      7  C   UNL     1       9.217  -6.804  -3.240  1.00  0.00     0.041 C 
ATOM      8  O   UNL     1       8.023  -7.120  -2.995  1.00  0.00    -0.550 OA
ATOM      9  O   UNL     1       9.915  -6.006  -2.342  1.00  0.00    -0.550 OA
ENDBRANCH   6   7
ENDBRANCH   5   6
ENDBRANCH   4   5
ENDBRANCH   3   4
ENDBRANCH   2   3
ENDBRANCH   1   2
BRANCH   1  10
ATOM     10  C   UNL     1       7.127  -7.051 -10.023  1.00  0.00     0.000 C 
BRANCH  10  11
ATOM     11  C   UNL     1       6.326  -8.364  -9.975  1.00  0.00    -0.000 C 
BRANCH  11  12
ATOM     12  C   UNL     1       5.030  -8.235  -9.159  1.00  0.00    -0.000 C 
BRANCH  12  13
ATOM     13  C   UNL     1       4.926  -9.280  -8.037  1.00  0.00    -0.000 C 
BRANCH  13  14
ATOM     14  C   UNL     1       6.314  -9.819  -7.661  1.00  0.00    -0.000 C 
BRANCH  14  15
ATOM     15  C   UNL     1       6.762  -9.374  -6.260  1.00  0.00    -0.003 C 
ATOM     16  C   UNL     1       6.372  -7.929  -5.945  1.00  0.00     0.004 C 
ENDBRANCH  14  15
ENDBRANCH  13  14
ENDBRANCH  12  13
ENDBRANCH  11  12
ENDBRANCH  10  11
ENDBRANCH   1  10
TORSDOF 12
ENDMDL
MODEL 6
REMARK VINA RESULT:    -2.048      2.744      5.816
REMARK INTER + INTRA:          -5.260
REMARK INTER:                  -3.844
REMARK INTRA:                  -1.416
REMARK UNBOUND:                -1.776
REMARK SMILES CCCCCCCCCCCCCC(=O)[O-]
REMARK SMILES IDX 8 1 9 2 10 3 11 4 12 5 13 6 14 7 15 8 16 9 7 10 6 11 5 12
REMARK SMILES IDX 4 13 3 14 2 15 1 16
REMARK H PARENT
REMARK Flexibility Score: inf
ROOT
ATOM      1  C   UNL     1       6.914  -8.132  -5.464  1.00  0.00     0.000 C 
ENDROOT
BRANCH   1   2
ATOM      2  C   UNL     1       6.594  -8.636  -4.046  1.00  0.00     0.000 C 
BRANCH   2   3
ATOM      3  C   UNL     1       7.137 -10.052  -3.786  1.00  0.00     0.000 C 
BRANCH   3   4
ATOM      4  C   UNL     1       8.529 -10.040  -3.129  1.00  0.00     0.000 C 
BRANCH   4   5
ATOM      5  C   UNL     1       8.774  -8.776  -2.290  1.00  0.00     0.006 C 
BRANCH   5   6
ATOM      6  C   UNL     1      10.124  -8.113  -2.597  1.00  0.00     0.053 C 
BRANCH   6   7
ATOM      7  C   UNL     1       9.917  -6.727  -3.119  1.00  0.00     0.041 C 
ATOM      8  O   UNL     1       9.815  -5.758  -2.322  1.00  0.00    -0.550 OA
ATOM      9  O   UNL     1       9.787  -6.510  -4.485  1.00  0.00    -0.550 OA
ENDBRANCH   6   7
ENDBRANCH   5   6
ENDBRANCH   4   5
ENDBRANCH   3   4
ENDBRANCH   2   3
ENDBRANCH   1   2
BRANCH   1  10
ATOM     10  C   UNL     1       7.325  -9.268  -6.416  1.00  0.00     0.000 C 
BRANCH  10  11
ATOM     11  C   UNL     1       8.705  -9.033  -7.056  1.00  0.00    -0.000 C 
BRANCH  11  12
ATOM     12  C   UNL     1       8.781  -9.550  -8.502  1.00  0.00    -0.000 C 
BRANCH  12  13
ATOM     13  C   UNL     1       9.113  -8.443  -9.513  1.00  0.00    -0.000 C 
BRANCH  13  14
ATOM     14  C   UNL     1       8.857  -7.054  -8.908  1.00  0.00    -0.000 C 
BRANCH  14  15
ATOM     15  C   UNL     1       7.667  -6.334  -9.561  1.00  0.00    -0.003 C 
ATOM     16  C   UNL     1       6.326  -6.724  -8.938  1.00  0.00     0.004 C 
ENDBRANCH  14  15
ENDBRANCH  13  14
ENDBRANCH  12  13
ENDBRANCH  11  12
ENDBRANCH  10  11
ENDBRANCH   1  10
TORSDOF 12
ENDMDL
MODEL 7
REMARK VINA RESULT:    -1.913      2.352      5.961
REMARK INTER + INTRA:          -5.031
REMARK INTER:                  -3.965
REMARK INTRA:                  -1.065
REMARK UNBOUND:                -1.776
REMARK SMILES CCCCCCCCCCCCCC(=O)[O-]
REMARK SMILES IDX 8 1 9 2 10 3 11 4 12 5 13 6 14 7 15 8 16 9 7 10 6 11 5 12
REMARK SMILES IDX 4 13 3 14 2 15 1 16
REMARK H PARENT
REMARK Flexibility Score: inf
ROOT
ATOM      1  C   UNL     1       6.648  -8.834  -5.260  1.00  0.00     0.000 C 
ENDROOT
BRANCH   1   2
ATOM      2  C   UNL     1       6.764 -10.125  -4.431  1.00  0.00     0.000 C 
BRANCH   2   3
ATOM      3  C   UNL     1       7.646  -9.949  -3.184  1.00  0.00     0.000 C 
BRANCH   3   4
ATOM      4  C   UNL     1       7.929  -8.471  -2.862  1.00  0.00     0.000 C 
BRANCH   4   5
ATOM      5  C   UNL     1       9.408  -8.210  -2.539  1.00  0.00     0.006 C 
BRANCH   5   6
ATOM      6  C   UNL     1      10.124  -7.414  -3.638  1.00  0.00     0.053 C 
BRANCH   6   7
ATOM      7  C   UNL     1       9.347  -6.182  -3.979  1.00  0.00     0.041 C 
ATOM      8  O   UNL     1       9.051  -5.931  -5.177  1.00  0.00    -0.550 OA
ATOM      9  O   UNL     1       8.993  -5.284  -2.980  1.00  0.00    -0.550 OA
ENDBRANCH   6   7
ENDBRANCH   5   6
ENDBRANCH   4   5
ENDBRANCH   3   4
ENDBRANCH   2   3
ENDBRANCH   1   2
BRANCH   1  10
ATOM     10  C   UNL     1       6.847  -9.078  -6.765  1.00  0.00     0.000 C 
BRANCH  10  11
ATOM     11  C   UNL     1       7.879  -8.122  -7.389  1.00  0.00    -0.000 C 
BRANCH  11  12
ATOM     12  C   UNL     1       7.242  -7.126  -8.371  1.00  0.00    -0.000 C 
BRANCH  12  13
ATOM     13  C   UNL     1       6.764  -7.793  -9.669  1.00  0.00    -0.000 C 
BRANCH  13  14
ATOM     14  C   UNL     1       5.266  -7.536  -9.897  1.00  0.00    -0.000 C 
BRANCH  14  15
ATOM     15  C   UNL     1       4.378  -8.624  -9.274  1.00  0.00    -0.003 C 
ATOM     16  C   UNL     1       4.677 -10.019  -9.824  1.00  0.00     0.004 C 
ENDBRANCH  14  15
ENDBRANCH  13  14
ENDBRANCH  12  13
ENDBRANCH  11  12
ENDBRANCH  10  11
ENDBRANCH   1  10
TORSDOF 12
ENDMDL
