MODEL 1
REMARK VINA RESULT:    -3.080      0.000      0.000
REMARK INTER + INTRA:          -3.907
REMARK INTER:                  -3.800
REMARK INTRA:                  -0.107
REMARK UNBOUND:                -0.107
REMARK SMILES CCCCCC(=O)[O-]
REMARK SMILES IDX 4 1 5 2 6 3 7 4 8 5 3 6 2 7 1 8
REMARK H PARENT
REMARK Flexibility Score: inf
ROOT
ATOM      1  C   UNL     1     -17.014  21.722  43.361  1.00  0.00     0.006 C 
ENDROOT
BRANCH   1   2
ATOM      2  C   UNL     1     -18.063  22.437  42.499  1.00  0.00     0.053 C 
BRANCH   2   3
ATOM      3  C   UNL     1     -17.788  23.905  42.388  1.00  0.00     0.041 C 
ATOM      4  O   UNL     1     -16.628  24.350  42.599  1.00  0.00    -0.550 OA
ATOM      5  O   UNL     1     -18.804  24.780  42.024  1.00  0.00    -0.550 OA
ENDBRANCH   2   3
ENDBRANCH   1   2
BRANCH   1   6
ATOM      6  C   UNL     1     -17.646  20.687  44.307  1.00  0.00     0.000 C 
BRANCH   6   7
ATOM      7  C   UNL     1     -18.812  21.269  45.122  1.00  0.00    -0.003 C 
ATOM      8  C   UNL     1     -19.491  20.225  46.010  1.00  0.00     0.004 C 
ENDBRANCH   6   7
ENDBRANCH   1   6
TORSDOF 4
ENDMDL
MODEL 2
REMARK VINA RESULT:    -3.026      1.275      1.731
REMARK INTER + INTRA:          -3.841
REMARK INTER:                  -3.685
REMARK INTRA:                  -0.156
REMARK UNBOUND:                -0.107
REMARK SMILES CCCCCC(=O)[O-]
REMARK SMILES IDX 4 1 5 2 6 3 7 4 8 5 3 6 2 7 1 8
REMARK H PARENT
REMARK Flexibility Score: inf
ROOT
ATOM      1  C   UNL     1     -18.062  22.387  42.506  1.00  0.00     0.006 C 
ENDROOT
BRANCH   1   2
ATOM      2  C   UNL     1     -17.725  23.863  42.256  1.00  0.00     0.053 C 
BRANCH   2   3
ATOM      3  C   UNL     1     -18.881  24.761  42.573  1.00  0.00     0.041 C 
ATOM      4  O   UNL     1     -19.558  24.576  43.620  1.00  0.00    -0.550 OA
ATOM      5  O   UNL     1     -19.194  25.819  41.731  1.00  0.00    -0.550 OA
ENDBRANCH   2   3
ENDBRANCH   1   2
BRANCH   1   6
ATOM      6  C   UNL     1     -17.038  21.705  43.430  1.00  0.00     0.000 C 
BRANCH   6   7
ATOM      7  C   UNL     1     -17.682  20.667  44.361  1.00  0.00    -0.003 C 
ATOM      8  C   UNL     1     -18.856  21.237  45.158  1.00  0.00     0.004 C 
ENDBRANCH   6   7
ENDBRANCH   1   6
TORSDOF 4
ENDMDL
MODEL 3
REMARK VINA RESULT:    -2.893      1.703      2.559
REMARK INTER + INTRA:          -3.677
REMARK INTER:                  -3.555
REMARK INTRA:                  -0.122
REMARK UNBOUND:                -0.107
REMARK SMILES CCCCCC(=O)[O-]
REMARK SMILES IDX 4 1 5 2 6 3 7 4 8 5 3 6 2 7 1 8
REMARK H PARENT
REMARK Flexibility Score: inf
ROOT
ATOM      1  C   UNL     1     -17.684  20.502  44.383  1.00  0.00     0.006 C 
ENDROOT
BRANCH   1   2
ATOM      2  C   UNL     1     -17.502  21.619  43.347  1.00  0.00     0.053 C 
BRANCH   2   3
ATOM      3  C   UNL     1     -16.097  22.136  43.325  1.00  0.00     0.041 C 
ATOM      4  O   UNL     1     -15.868  23.337  43.020  1.00  0.00    -0.550 OA
ATOM      5  O   UNL     1     -15.041  21.302  43.671  1.00  0.00    -0.550 OA
ENDBRANCH   2   3
ENDBRANCH   1   2
BRANCH   1   6
ATOM      6  C   UNL     1     -18.885  20.760  45.310  1.00  0.00     0.000 C 
BRANCH   6   7
ATOM      7  C   UNL     1     -19.373  22.215  45.251  1.00  0.00    -0.003 C 
ATOM      8  C   UNL     1     -20.709  22.420  45.966  1.00  0.00     0.004 C 
ENDBRANCH   6   7
ENDBRANCH   1   6
TORSDOF 4
ENDMDL
MODEL 4
REMARK VINA RESULT:    -2.870      1.657      2.236
REMARK INTER + INTRA:          -3.648
REMARK INTER:                  -3.522
REMARK INTRA:                  -0.127
REMARK UNBOUND:                -0.107
REMARK SMILES CCCCCC(=O)[O-]
REMARK SMILES IDX 4 1 5 2 6 3 7 4 8 5 3 6 2 7 1 8
REMARK H PARENT
REMARK Flexibility Score: inf
ROOT
ATOM      1  C   UNL     1     -18.440  22.236  44.308  1.00  0.00     0.006 C 
ENDROOT
BRANCH   1   2
ATOM      2  C   UNL     1     -17.548  21.693  43.183  1.00  0.00     0.053 C 
BRANCH   2   3
ATOM      3  C   UNL     1     -16.167  22.270  43.238  1.00  0.00     0.041 C 
ATOM      4  O   UNL     1     -15.182  21.533  43.508  1.00  0.00    -0.550 OA
ATOM      5  O   UNL     1     -15.962  23.616  42.963  1.00  0.00    -0.550 OA
ENDBRANCH   2   3
ENDBRANCH   1   2
BRANCH   1   6
ATOM      6  C   UNL     1     -18.946  21.119  45.237  1.00  0.00     0.000 C 
BRANCH   6   7
ATOM      7  C   UNL     1     -18.158  19.811  45.071  1.00  0.00    -0.003 C 
ATOM      8  C   UNL     1     -18.663  18.696  45.988  1.00  0.00     0.004 C 
ENDBRANCH   6   7
ENDBRANCH   1   6
TORSDOF 4
ENDMDL
MODEL 5
REMARK VINA RESULT:    -2.732      2.552      4.066
REMARK INTER + INTRA:          -3.478
REMARK INTER:                  -3.368
REMARK INTRA:                  -0.110
REMARK UNBOUND:                -0.107
REMARK SMILES CCCCCC(=O)[O-]
REMARK SMILES IDX 4 1 5 2 6 3 7 4 8 5 3 6 2 7 1 8
REMARK H PARENT
REMARK Flexibility Score: inf
ROOT
ATOM      1  C   UNL     1     -18.173  22.183  43.860  1.00  0.00     0.006 C 
ENDROOT
BRANCH   1   2
ATOM      2  C   UNL     1     -17.278  20.939  43.938  1.00  0.00     0.053 C 
BRANCH   2   3
ATOM      3  C   UNL     1     -15.852  21.295  44.227  1.00  0.00     0.041 C 
ATOM      4  O   UNL     1     -15.040  21.476  43.281  1.00  0.00    -0.550 OA
ATOM      5  O   UNL     1     -15.426  21.457  45.539  1.00  0.00    -0.550 OA
ENDBRANCH   2   3
ENDBRANCH   1   2
BRANCH   1   6
ATOM      6  C   UNL     1     -18.185  22.802  42.451  1.00  0.00     0.000 C 
BRANCH   6   7
ATOM      7  C   UNL     1     -17.834  24.298  42.462  1.00  0.00    -0.003 C 
ATOM      8  C   UNL     1     -19.025  25.188  42.104  1.00  0.00     0.004 C 
ENDBRANCH   6   7
ENDBRANCH   1   6
TORSDOF 4
ENDMDL
MODEL 6
REMARK VINA RESULT:    -2.730      1.360      1.980
REMARK INTER + INTRA:          -3.476
REMARK INTER:                  -3.326
REMARK INTRA:                  -0.150
REMARK UNBOUND:                -0.107
REMARK SMILES CCCCCC(=O)[O-]
REMARK SMILES IDX 4 1 5 2 6 3 7 4 8 5 3 6 2 7 1 8
REMARK H PARENT
REMARK Flexibility Score: inf
ROOT
ATOM      1  C   UNL     1     -18.573  23.196  44.738  1.00  0.00     0.006 C 
ENDROOT
BRANCH   1   2
ATOM      2  C   UNL     1     -19.369  24.247  43.954  1.00  0.00     0.053 C 
BRANCH   2   3
ATOM      3  C   UNL     1     -18.789  24.484  42.593  1.00  0.00     0.041 C 
ATOM      4  O   UNL     1     -17.965  23.666  42.104  1.00  0.00    -0.550 OA
ATOM      5  O   UNL     1     -19.181  25.591  41.851  1.00  0.00    -0.550 OA
ENDBRANCH   2   3
ENDBRANCH   1   2
BRANCH   1   6
ATOM      6  C   UNL     1     -19.486  22.144  45.392  1.00  0.00     0.000 C 
BRANCH   6   7
ATOM      7  C   UNL     1     -18.889  20.730  45.338  1.00  0.00    -0.003 C 
ATOM      8  C   UNL     1     -17.727  20.616  44.352  1.00  0.00     0.004 C 
ENDBRANCH   6   7
ENDBRANCH   1   6
TORSDOF 4
ENDMDL
MODEL 7
REMARK VINA RESULT:    -2.665      1.269      2.151
REMARK INTER + INTRA:          -3.395
REMARK INTER:                  -3.232
REMARK INTRA:                  -0.163
REMARK UNBOUND:                -0.107
REMARK SMILES CCCCCC(=O)[O-]
REMARK SMILES IDX 4 1 5 2 6 3 7 4 8 5 3 6 2 7 1 8
REMARK H PARENT
REMARK Flexibility Score: inf
ROOT
ATOM      1  C   UNL     1     -18.181  21.953  43.958  1.00  0.00     0.006 C 
ENDROOT
BRANCH   1   2
ATOM      2  C   UNL     1     -18.006  22.400  42.500  1.00  0.00     0.053 C 
BRANCH   2   3
ATOM      3  C   UNL     1     -17.800  23.880  42.391  1.00  0.00     0.041 C 
ATOM      4  O   UNL     1     -16.677  24.384  42.659  1.00  0.00    -0.550 OA
ATOM      5  O   UNL     1     -18.837  24.699  41.966  1.00  0.00    -0.550 OA
ENDBRANCH   2   3
ENDBRANCH   1   2
BRANCH   1   6
ATOM      6  C   UNL     1     -17.151  20.885  44.365  1.00  0.00     0.000 C 
BRANCH   6   7
ATOM      7  C   UNL     1     -15.714  21.280  43.994  1.00  0.00    -0.003 C 
ATOM      8  C   UNL     1     -14.891  21.725  45.203  1.00  0.00     0.004 C 
ENDBRANCH   6   7
ENDBRANCH   1   6
TORSDOF 4
ENDMDL
MODEL 8
REMARK VINA RESULT:    -2.662      2.516      4.065
REMARK INTER + INTRA:          -3.392
REMARK INTER:                  -3.308
REMARK INTRA:                  -0.085
REMARK UNBOUND:                -0.107
REMARK SMILES CCCCCC(=O)[O-]
REMARK SMILES IDX 4 1 5 2 6 3 7 4 8 5 3 6 2 7 1 8
REMARK H PARENT
REMARK Flexibility Score: inf
ROOT
ATOM      1  C   UNL     1     -18.408  23.772  43.193  1.00  0.00     0.006 C 
ENDROOT
BRANCH   1   2
ATOM      2  C   UNL     1     -18.046  22.455  42.495  1.00  0.00     0.053 C 
BRANCH   2   3
ATOM      3  C   UNL     1     -17.147  21.604  43.340  1.00  0.00     0.041 C 
ATOM      4  O   UNL     1     -17.618  20.628  43.982  1.00  0.00    -0.550 OA
ATOM      5  O   UNL     1     -15.785  21.870  43.395  1.00  0.00    -0.550 OA
ENDBRANCH   2   3
ENDBRANCH   1   2
BRANCH   1   6
ATOM      6  C   UNL     1     -18.877  24.847  42.197  1.00  0.00     0.000 C 
BRANCH   6   7
ATOM      7  C   UNL     1     -19.748  25.925  42.860  1.00  0.00    -0.003 C 
ATOM      8  C   UNL     1     -20.726  25.348  43.885  1.00  0.00     0.004 C 
ENDBRANCH   6   7
ENDBRANCH   1   6
TORSDOF 4
ENDMDL
MODEL 9
REMARK VINA RESULT:    -2.639      2.191      3.564
REMARK INTER + INTRA:          -3.363
REMARK INTER:                  -3.164
REMARK INTRA:                  -0.199
REMARK UNBOUND:                -0.107
REMARK SMILES CCCCCC(=O)[O-]
REMARK SMILES IDX 4 1 5 2 6 3 7 4 8 5 3 6 2 7 1 8
REMARK H PARENT
REMARK Flexibility Score: inf
ROOT
ATOM      1  C   UNL     1     -16.197  21.972  44.238  1.00  0.00     0.006 C 
ENDROOT
BRANCH   1   2
ATOM      2  C   UNL     1     -14.897  21.604  43.511  1.00  0.00     0.053 C 
BRANCH   2   3
ATOM      3  C   UNL     1     -14.228  22.808  42.921  1.00  0.00     0.041 C 
ATOM      4  O   UNL     1     -14.909  23.818  42.600  1.00  0.00    -0.550 OA
ATOM      5  O   UNL     1     -12.849  22.827  42.754  1.00  0.00    -0.550 OA
ENDBRANCH   2   3
ENDBRANCH   1   2
BRANCH   1   6
ATOM      6  C   UNL     1     -17.439  21.404  43.530  1.00  0.00     0.000 C 
BRANCH   6   7
ATOM      7  C   UNL     1     -18.038  22.388  42.512  1.00  0.00    -0.003 C 
ATOM      8  C   UNL     1     -18.468  23.709  43.149  1.00  0.00     0.004 C 
ENDBRANCH   6   7
ENDBRANCH   1   6
TORSDOF 4
ENDMDL
