MODEL 1
REMARK VINA RESULT:    -6.196      0.000      0.000
REMARK INTER + INTRA:          -6.802
REMARK INTER:                  -6.558
REMARK INTRA:                  -0.243
REMARK UNBOUND:                -0.243
REMARK SMILES O=c1cc(-c2ccccc2)oc2ccccc12
REMARK SMILES IDX 4 1 3 2 2 3 1 4 17 5 16 6 15 7 14 8 13 9 12 10 11 11 5 12
REMARK SMILES IDX 8 13 7 14 9 15 6 16 10 17
REMARK H PARENT
REMARK Flexibility Score: inf
ROOT
ATOM      1  C   UNL     1       4.406  -0.716  -3.088  1.00  0.00     0.138 A 
ATOM      2  C   UNL     1       5.676  -0.610  -3.694  1.00  0.00     0.100 A 
ATOM      3  C   UNL     1       6.041   0.582  -4.323  1.00  0.00     0.193 A 
ATOM      4  O   UNL     1       7.176   0.677  -4.865  1.00  0.00    -0.289 OA
ATOM      5  C   UNL     1       5.141   1.656  -4.342  1.00  0.00     0.065 A 
ATOM      6  C   UNL     1       5.446   2.883  -4.959  1.00  0.00     0.016 A 
ATOM      7  C   UNL     1       4.510   3.923  -4.949  1.00  0.00     0.001 A 
ATOM      8  C   UNL     1       3.270   3.748  -4.329  1.00  0.00     0.004 A 
ATOM      9  C   UNL     1       2.958   2.532  -3.714  1.00  0.00     0.048 A 
ATOM     10  C   UNL     1       3.888   1.485  -3.718  1.00  0.00     0.138 A 
ATOM     11  O   UNL     1       3.582   0.332  -3.131  1.00  0.00    -0.456 OA
ENDROOT
BRANCH   1  12
ATOM     12  C   UNL     1       3.937  -1.955  -2.394  1.00  0.00     0.017 A 
ATOM     13  C   UNL     1       3.138  -4.298  -1.037  1.00  0.00     0.000 A 
ATOM     14  C   UNL     1       2.267  -3.678  -1.933  1.00  0.00     0.001 A 
ATOM     15  C   UNL     1       4.404  -3.759  -0.813  1.00  0.00     0.001 A 
ATOM     16  C   UNL     1       2.657  -2.517  -2.607  1.00  0.00     0.012 A 
ATOM     17  C   UNL     1       4.802  -2.598  -1.483  1.00  0.00     0.012 A 
ENDBRANCH   1  12
TORSDOF 1
ENDMDL
MODEL 2
REMARK VINA RESULT:    -6.151      1.311      5.899
REMARK INTER + INTRA:          -6.754
REMARK INTER:                  -6.516
REMARK INTRA:                  -0.238
REMARK UNBOUND:                -0.243
REMARK SMILES O=c1cc(-c2ccccc2)oc2ccccc12
REMARK SMILES IDX 4 1 3 2 2 3 1 4 17 5 16 6 15 7 14 8 13 9 12 10 11 11 5 12
REMARK SMILES IDX 8 13 7 14 9 15 6 16 10 17
REMARK H PARENT
REMARK Flexibility Score: inf
ROOT
ATOM      1  C   UNL     1       4.328  -0.107  -3.331  1.00  0.00     0.138 A 
ATOM      2  C   UNL     1       5.590  -0.540  -2.870  1.00  0.00     0.100 A 
ATOM      3  C   UNL     1       5.705  -1.785  -2.248  1.00  0.00     0.193 A 
ATOM      4  O   UNL     1       6.832  -2.172  -1.837  1.00  0.00    -0.289 OA
ATOM      5  C   UNL     1       4.565  -2.585  -2.091  1.00  0.00     0.065 A 
ATOM      6  C   UNL     1       4.613  -3.849  -1.473  1.00  0.00     0.016 A 
ATOM      7  C   UNL     1       3.444  -4.608  -1.342  1.00  0.00     0.001 A 
ATOM      8  C   UNL     1       2.228  -4.115  -1.822  1.00  0.00     0.004 A 
ATOM      9  C   UNL     1       2.172  -2.861  -2.437  1.00  0.00     0.048 A 
ATOM     10  C   UNL     1       3.335  -2.093  -2.574  1.00  0.00     0.138 A 
ATOM     11  O   UNL     1       3.272  -0.902  -3.159  1.00  0.00    -0.456 OA
ENDROOT
BRANCH   1  12
ATOM     12  C   UNL     1       4.118   1.211  -4.007  1.00  0.00     0.017 A 
ATOM     13  C   UNL     1       3.650   3.719  -5.215  1.00  0.00     0.000 A 
ATOM     14  C   UNL     1       4.617   2.860  -5.738  1.00  0.00     0.001 A 
ATOM     15  C   UNL     1       2.915   3.336  -4.094  1.00  0.00     0.001 A 
ATOM     16  C   UNL     1       4.854   1.617  -5.143  1.00  0.00     0.012 A 
ATOM     17  C   UNL     1       3.144   2.095  -3.494  1.00  0.00     0.012 A 
ENDBRANCH   1  12
TORSDOF 1
ENDMDL
MODEL 3
REMARK VINA RESULT:    -6.053      1.665      2.621
REMARK INTER + INTRA:          -6.650
REMARK INTER:                  -6.423
REMARK INTRA:                  -0.227
REMARK UNBOUND:                -0.243
REMARK SMILES O=c1cc(-c2ccccc2)oc2ccccc12
REMARK SMILES IDX 4 1 3 2 2 3 1 4 17 5 16 6 15 7 14 8 13 9 12 10 11 11 5 12
REMARK SMILES IDX 8 13 7 14 9 15 6 16 10 17
REMARK H PARENT
REMARK Flexibility Score: inf
ROOT
ATOM      1  C   UNL     1       3.953   0.296  -3.765  1.00  0.00     0.138 A 
ATOM      2  C   UNL     1       3.353   1.508  -3.362  1.00  0.00     0.100 A 
ATOM      3  C   UNL     1       3.542   2.658  -4.132  1.00  0.00     0.193 A 
ATOM      4  O   UNL     1       3.006   3.741  -3.772  1.00  0.00    -0.289 OA
ATOM      5  C   UNL     1       4.324   2.591  -5.293  1.00  0.00     0.065 A 
ATOM      6  C   UNL     1       4.554   3.712  -6.112  1.00  0.00     0.016 A 
ATOM      7  C   UNL     1       5.343   3.589  -7.261  1.00  0.00     0.001 A 
ATOM      8  C   UNL     1       5.906   2.355  -7.600  1.00  0.00     0.004 A 
ATOM      9  C   UNL     1       5.683   1.237  -6.791  1.00  0.00     0.048 A 
ATOM     10  C   UNL     1       4.895   1.348  -5.640  1.00  0.00     0.138 A 
ATOM     11  O   UNL     1       4.689   0.280  -4.877  1.00  0.00    -0.456 OA
ENDROOT
BRANCH   1  12
ATOM     12  C   UNL     1       3.802  -0.980  -2.999  1.00  0.00     0.017 A 
ATOM     13  C   UNL     1       3.611  -3.381  -1.527  1.00  0.00     0.000 A 
ATOM     14  C   UNL     1       2.500  -2.893  -2.216  1.00  0.00     0.001 A 
ATOM     15  C   UNL     1       4.815  -2.680  -1.567  1.00  0.00     0.001 A 
ATOM     16  C   UNL     1       2.589  -1.704  -2.946  1.00  0.00     0.012 A 
ATOM     17  C   UNL     1       4.913  -1.491  -2.296  1.00  0.00     0.012 A 
ENDBRANCH   1  12
TORSDOF 1
ENDMDL
MODEL 4
REMARK VINA RESULT:    -5.799      1.428      6.196
REMARK INTER + INTRA:          -6.382
REMARK INTER:                  -6.149
REMARK INTRA:                  -0.232
REMARK UNBOUND:                -0.243
REMARK SMILES O=c1cc(-c2ccccc2)oc2ccccc12
REMARK SMILES IDX 4 1 3 2 2 3 1 4 17 5 16 6 15 7 14 8 13 9 12 10 11 11 5 12
REMARK SMILES IDX 8 13 7 14 9 15 6 16 10 17
REMARK H PARENT
REMARK Flexibility Score: inf
ROOT
ATOM      1  C   UNL     1       4.040  -0.139  -3.420  1.00  0.00     0.138 A 
ATOM      2  C   UNL     1       2.867  -0.908  -3.263  1.00  0.00     0.100 A 
ATOM      3  C   UNL     1       2.929  -2.124  -2.580  1.00  0.00     0.193 A 
ATOM      4  O   UNL     1       1.881  -2.812  -2.439  1.00  0.00    -0.289 OA
ATOM      5  C   UNL     1       4.154  -2.562  -2.059  1.00  0.00     0.065 A 
ATOM      6  C   UNL     1       4.284  -3.777  -1.361  1.00  0.00     0.016 A 
ATOM      7  C   UNL     1       5.532  -4.167  -0.863  1.00  0.00     0.001 A 
ATOM      8  C   UNL     1       6.652  -3.354  -1.055  1.00  0.00     0.004 A 
ATOM      9  C   UNL     1       6.532  -2.146  -1.748  1.00  0.00     0.048 A 
ATOM     10  C   UNL     1       5.288  -1.746  -2.251  1.00  0.00     0.138 A 
ATOM     11  O   UNL     1       5.183  -0.596  -2.908  1.00  0.00    -0.456 OA
ENDROOT
BRANCH   1  12
ATOM     12  C   UNL     1       4.062   1.174  -4.137  1.00  0.00     0.017 A 
ATOM     13  C   UNL     1       4.037   3.685  -5.425  1.00  0.00     0.000 A 
ATOM     14  C   UNL     1       4.839   2.655  -5.917  1.00  0.00     0.001 A 
ATOM     15  C   UNL     1       3.248   3.472  -4.296  1.00  0.00     0.001 A 
ATOM     16  C   UNL     1       4.856   1.409  -5.283  1.00  0.00     0.012 A 
ATOM     17  C   UNL     1       3.257   2.229  -3.657  1.00  0.00     0.012 A 
ENDBRANCH   1  12
TORSDOF 1
ENDMDL
MODEL 5
REMARK VINA RESULT:    -5.610      1.435      5.800
REMARK INTER + INTRA:          -6.181
REMARK INTER:                  -5.916
REMARK INTRA:                  -0.265
REMARK UNBOUND:                -0.243
REMARK SMILES O=c1cc(-c2ccccc2)oc2ccccc12
REMARK SMILES IDX 4 1 3 2 2 3 1 4 17 5 16 6 15 7 14 8 13 9 12 10 11 11 5 12
REMARK SMILES IDX 8 13 7 14 9 15 6 16 10 17
REMARK H PARENT
REMARK Flexibility Score: inf
ROOT
ATOM      1  C   UNL     1       5.342   0.073  -3.876  1.00  0.00     0.138 A 
ATOM      2  C   UNL     1       6.558  -0.395  -4.416  1.00  0.00     0.100 A 
ATOM      3  C   UNL     1       7.085  -1.611  -3.974  1.00  0.00     0.193 A 
ATOM      4  O   UNL     1       8.172  -2.030  -4.458  1.00  0.00    -0.289 OA
ATOM      5  C   UNL     1       6.397  -2.348  -3.001  1.00  0.00     0.065 A 
ATOM      6  C   UNL     1       6.872  -3.580  -2.513  1.00  0.00     0.016 A 
ATOM      7  C   UNL     1       6.146  -4.274  -1.541  1.00  0.00     0.001 A 
ATOM      8  C   UNL     1       4.946  -3.750  -1.050  1.00  0.00     0.004 A 
ATOM      9  C   UNL     1       4.467  -2.528  -1.529  1.00  0.00     0.048 A 
ATOM     10  C   UNL     1       5.186  -1.824  -2.502  1.00  0.00     0.138 A 
ATOM     11  O   UNL     1       4.722  -0.662  -2.951  1.00  0.00    -0.456 OA
ENDROOT
BRANCH   1  12
ATOM     12  C   UNL     1       4.709   1.363  -4.293  1.00  0.00     0.017 A 
ATOM     13  C   UNL     1       3.450   3.786  -5.006  1.00  0.00     0.000 A 
ATOM     14  C   UNL     1       4.551   3.331  -5.731  1.00  0.00     0.001 A 
ATOM     15  C   UNL     1       2.974   3.043  -3.927  1.00  0.00     0.001 A 
ATOM     16  C   UNL     1       5.179   2.131  -5.382  1.00  0.00     0.012 A 
ATOM     17  C   UNL     1       3.595   1.842  -3.572  1.00  0.00     0.012 A 
ENDBRANCH   1  12
TORSDOF 1
ENDMDL
MODEL 6
REMARK VINA RESULT:    -5.510      2.247      6.181
REMARK INTER + INTRA:          -6.076
REMARK INTER:                  -5.815
REMARK INTRA:                  -0.260
REMARK UNBOUND:                -0.243
REMARK SMILES O=c1cc(-c2ccccc2)oc2ccccc12
REMARK SMILES IDX 4 1 3 2 2 3 1 4 17 5 16 6 15 7 14 8 13 9 12 10 11 11 5 12
REMARK SMILES IDX 8 13 7 14 9 15 6 16 10 17
REMARK H PARENT
REMARK Flexibility Score: inf
ROOT
ATOM      1  C   UNL     1       5.254  -0.492  -3.308  1.00  0.00     0.138 A 
ATOM      2  C   UNL     1       4.636  -1.214  -2.265  1.00  0.00     0.100 A 
ATOM      3  C   UNL     1       5.111  -2.484  -1.932  1.00  0.00     0.193 A 
ATOM      4  O   UNL     1       4.559  -3.129  -1.000  1.00  0.00    -0.289 OA
ATOM      5  C   UNL     1       6.195  -3.023  -2.639  1.00  0.00     0.065 A 
ATOM      6  C   UNL     1       6.722  -4.296  -2.353  1.00  0.00     0.016 A 
ATOM      7  C   UNL     1       7.806  -4.786  -3.090  1.00  0.00     0.001 A 
ATOM      8  C   UNL     1       8.369  -4.015  -4.111  1.00  0.00     0.004 A 
ATOM      9  C   UNL     1       7.851  -2.749  -4.401  1.00  0.00     0.048 A 
ATOM     10  C   UNL     1       6.767  -2.249  -3.670  1.00  0.00     0.138 A 
ATOM     11  O   UNL     1       6.282  -1.045  -3.954  1.00  0.00    -0.456 OA
ENDROOT
BRANCH   1  12
ATOM     12  C   UNL     1       4.807   0.873  -3.729  1.00  0.00     0.017 A 
ATOM     13  C   UNL     1       3.876   3.429  -4.481  1.00  0.00     0.000 A 
ATOM     14  C   UNL     1       5.180   3.041  -4.790  1.00  0.00     0.001 A 
ATOM     15  C   UNL     1       3.034   2.552  -3.800  1.00  0.00     0.001 A 
ATOM     16  C   UNL     1       5.647   1.776  -4.419  1.00  0.00     0.012 A 
ATOM     17  C   UNL     1       3.492   1.285  -3.426  1.00  0.00     0.012 A 
ENDBRANCH   1  12
TORSDOF 1
ENDMDL
MODEL 7
REMARK VINA RESULT:    -5.387      2.522      7.195
REMARK INTER + INTRA:          -5.945
REMARK INTER:                  -5.725
REMARK INTRA:                  -0.220
REMARK UNBOUND:                -0.243
REMARK SMILES O=c1cc(-c2ccccc2)oc2ccccc12
REMARK SMILES IDX 4 1 3 2 2 3 1 4 17 5 16 6 15 7 14 8 13 9 12 10 11 11 5 12
REMARK SMILES IDX 8 13 7 14 9 15 6 16 10 17
REMARK H PARENT
REMARK Flexibility Score: inf
ROOT
ATOM      1  C   UNL     1       5.695   3.648  -4.813  1.00  0.00     0.138 A 
ATOM      2  C   UNL     1       4.362   4.036  -4.559  1.00  0.00     0.100 A 
ATOM      3  C   UNL     1       3.463   3.106  -4.034  1.00  0.00     0.193 A 
ATOM      4  O   UNL     1       2.272   3.453  -3.807  1.00  0.00    -0.289 OA
ATOM      5  C   UNL     1       3.897   1.801  -3.767  1.00  0.00     0.065 A 
ATOM      6  C   UNL     1       3.042   0.816  -3.238  1.00  0.00     0.016 A 
ATOM      7  C   UNL     1       3.527  -0.472  -2.991  1.00  0.00     0.001 A 
ATOM      8  C   UNL     1       4.861  -0.787  -3.266  1.00  0.00     0.004 A 
ATOM      9  C   UNL     1       5.717   0.185  -3.792  1.00  0.00     0.048 A 
ATOM     10  C   UNL     1       5.242   1.478  -4.043  1.00  0.00     0.138 A 
ATOM     11  O   UNL     1       6.063   2.395  -4.543  1.00  0.00    -0.456 OA
ENDROOT
BRANCH   1  12
ATOM     12  C   UNL     1       6.721   4.581  -5.373  1.00  0.00     0.017 A 
ATOM     13  C   UNL     1       8.630   6.314  -6.523  1.00  0.00     0.000 A 
ATOM     14  C   UNL     1       8.509   6.228  -5.136  1.00  0.00     0.001 A 
ATOM     15  C   UNL     1       7.806   5.542  -7.341  1.00  0.00     0.001 A 
ATOM     16  C   UNL     1       7.565   5.372  -4.561  1.00  0.00     0.012 A 
ATOM     17  C   UNL     1       6.860   4.682  -6.774  1.00  0.00     0.012 A 
ENDBRANCH   1  12
TORSDOF 1
ENDMDL
MODEL 8
REMARK VINA RESULT:    -5.381      1.326      1.955
REMARK INTER + INTRA:          -5.939
REMARK INTER:                  -5.673
REMARK INTRA:                  -0.265
REMARK UNBOUND:                -0.243
REMARK SMILES O=c1cc(-c2ccccc2)oc2ccccc12
REMARK SMILES IDX 4 1 3 2 2 3 1 4 17 5 16 6 15 7 14 8 13 9 12 10 11 11 5 12
REMARK SMILES IDX 8 13 7 14 9 15 6 16 10 17
REMARK H PARENT
REMARK Flexibility Score: inf
ROOT
ATOM      1  C   UNL     1       5.681  -0.529  -3.584  1.00  0.00     0.138 A 
ATOM      2  C   UNL     1       6.609  -0.029  -4.522  1.00  0.00     0.100 A 
ATOM      3  C   UNL     1       6.383   1.212  -5.119  1.00  0.00     0.193 A 
ATOM      4  O   UNL     1       7.212   1.660  -5.957  1.00  0.00    -0.289 OA
ATOM      5  C   UNL     1       5.237   1.944  -4.778  1.00  0.00     0.065 A 
ATOM      6  C   UNL     1       4.950   3.200  -5.342  1.00  0.00     0.016 A 
ATOM      7  C   UNL     1       3.791   3.888  -4.966  1.00  0.00     0.001 A 
ATOM      8  C   UNL     1       2.915   3.332  -4.029  1.00  0.00     0.004 A 
ATOM      9  C   UNL     1       3.193   2.084  -3.464  1.00  0.00     0.048 A 
ATOM     10  C   UNL     1       4.350   1.387  -3.833  1.00  0.00     0.138 A 
ATOM     11  O   UNL     1       4.605   0.201  -3.291  1.00  0.00    -0.456 OA
ENDROOT
BRANCH   1  12
ATOM     12  C   UNL     1       5.848  -1.849  -2.899  1.00  0.00     0.017 A 
ATOM     13  C   UNL     1       6.085  -4.316  -1.548  1.00  0.00     0.000 A 
ATOM     14  C   UNL     1       6.963  -3.999  -2.585  1.00  0.00     0.001 A 
ATOM     15  C   UNL     1       5.090  -3.411  -1.180  1.00  0.00     0.001 A 
ATOM     16  C   UNL     1       6.850  -2.779  -3.258  1.00  0.00     0.012 A 
ATOM     17  C   UNL     1       4.970  -2.189  -1.847  1.00  0.00     0.012 A 
ENDBRANCH   1  12
TORSDOF 1
ENDMDL
MODEL 9
REMARK VINA RESULT:    -5.337      1.981      3.576
REMARK INTER + INTRA:          -5.892
REMARK INTER:                  -5.626
REMARK INTRA:                  -0.266
REMARK UNBOUND:                -0.243
REMARK SMILES O=c1cc(-c2ccccc2)oc2ccccc12
REMARK SMILES IDX 4 1 3 2 2 3 1 4 17 5 16 6 15 7 14 8 13 9 12 10 11 11 5 12
REMARK SMILES IDX 8 13 7 14 9 15 6 16 10 17
REMARK H PARENT
REMARK Flexibility Score: inf
ROOT
ATOM      1  C   UNL     1       5.700  -0.705  -3.533  1.00  0.00     0.138 A 
ATOM      2  C   UNL     1       4.392  -0.921  -3.051  1.00  0.00     0.100 A 
ATOM      3  C   UNL     1       3.461   0.119  -3.100  1.00  0.00     0.193 A 
ATOM      4  O   UNL     1       2.291  -0.074  -2.670  1.00  0.00    -0.289 OA
ATOM      5  C   UNL     1       3.839   1.361  -3.628  1.00  0.00     0.065 A 
ATOM      6  C   UNL     1       2.950   2.448  -3.706  1.00  0.00     0.016 A 
ATOM      7  C   UNL     1       3.381   3.667  -4.242  1.00  0.00     0.001 A 
ATOM      8  C   UNL     1       4.693   3.809  -4.702  1.00  0.00     0.004 A 
ATOM      9  C   UNL     1       5.583   2.734  -4.627  1.00  0.00     0.048 A 
ATOM     10  C   UNL     1       5.163   1.510  -4.093  1.00  0.00     0.138 A 
ATOM     11  O   UNL     1       6.016   0.494  -4.026  1.00  0.00    -0.456 OA
ENDROOT
BRANCH   1  12
ATOM     12  C   UNL     1       6.758  -1.763  -3.517  1.00  0.00     0.017 A 
ATOM     13  C   UNL     1       8.815  -3.696  -3.532  1.00  0.00     0.000 A 
ATOM     14  C   UNL     1       7.569  -4.005  -2.987  1.00  0.00     0.001 A 
ATOM     15  C   UNL     1       9.043  -2.430  -4.070  1.00  0.00     0.001 A 
ATOM     16  C   UNL     1       6.546  -3.051  -2.976  1.00  0.00     0.012 A 
ATOM     17  C   UNL     1       8.026  -1.471  -4.064  1.00  0.00     0.012 A 
ENDBRANCH   1  12
TORSDOF 1
ENDMDL
