MODEL 1
REMARK VINA RESULT:    -3.936      0.000      0.000
REMARK INTER + INTRA:          -4.987
REMARK INTER:                  -4.857
REMARK INTRA:                  -0.130
REMARK UNBOUND:                -0.130
REMARK SMILES CCCCCC(=O)[O-]
REMARK SMILES IDX 4 1 5 2 6 3 7 4 8 5 3 6 2 7 1 8
REMARK H PARENT
REMARK Flexibility Score: inf
ROOT
ATOM      1  C   UNL     1      21.862  15.014   3.014  1.00  0.00     0.006 C 
ENDROOT
BRANCH   1   2
ATOM      2  C   UNL     1      23.038  14.333   3.723  1.00  0.00     0.053 C 
BRANCH   2   3
ATOM      3  C   UNL     1      22.784  12.865   3.864  1.00  0.00     0.041 C 
ATOM      4  O   UNL     1      23.419  12.191   4.717  1.00  0.00    -0.550 OA
ATOM      5  O   UNL     1      21.811  12.250   3.085  1.00  0.00    -0.550 OA
ENDBRANCH   2   3
ENDBRANCH   1   2
BRANCH   1   6
ATOM      6  C   UNL     1      22.317  16.043   1.968  1.00  0.00     0.000 C 
BRANCH   6   7
ATOM      7  C   UNL     1      21.297  16.224   0.834  1.00  0.00    -0.003 C 
ATOM      8  C   UNL     1      20.315  15.056   0.786  1.00  0.00     0.004 C 
ENDBRANCH   6   7
ENDBRANCH   1   6
TORSDOF 4
ENDMDL
MODEL 2
REMARK VINA RESULT:    -3.917      1.619      2.296
REMARK INTER + INTRA:          -4.963
REMARK INTER:                  -4.714
REMARK INTRA:                  -0.249
REMARK UNBOUND:                -0.130
REMARK SMILES CCCCCC(=O)[O-]
REMARK SMILES IDX 4 1 5 2 6 3 7 4 8 5 3 6 2 7 1 8
REMARK H PARENT
REMARK Flexibility Score: inf
ROOT
ATOM      1  C   UNL     1      22.141  14.972   2.733  1.00  0.00     0.006 C 
ENDROOT
BRANCH   1   2
ATOM      2  C   UNL     1      22.843  14.537   4.025  1.00  0.00     0.053 C 
BRANCH   2   3
ATOM      3  C   UNL     1      22.593  13.086   4.291  1.00  0.00     0.041 C 
ATOM      4  O   UNL     1      22.072  12.360   3.404  1.00  0.00    -0.550 OA
ATOM      5  O   UNL     1      22.979  12.524   5.502  1.00  0.00    -0.550 OA
ENDBRANCH   2   3
ENDBRANCH   1   2
BRANCH   1   6
ATOM      6  C   UNL     1      23.130  15.301   1.604  1.00  0.00     0.000 C 
BRANCH   6   7
ATOM      7  C   UNL     1      23.291  14.147   0.604  1.00  0.00    -0.003 C 
ATOM      8  C   UNL     1      24.583  13.374   0.858  1.00  0.00     0.004 C 
ENDBRANCH   6   7
ENDBRANCH   1   6
TORSDOF 4
ENDMDL
MODEL 3
REMARK VINA RESULT:    -3.875      8.722     10.011
REMARK INTER + INTRA:          -4.911
REMARK INTER:                  -4.780
REMARK INTRA:                  -0.131
REMARK UNBOUND:                -0.130
REMARK SMILES CCCCCC(=O)[O-]
REMARK SMILES IDX 4 1 5 2 6 3 7 4 8 5 3 6 2 7 1 8
REMARK H PARENT
REMARK Flexibility Score: inf
ROOT
ATOM      1  C   UNL     1      15.293  22.098   0.940  1.00  0.00     0.006 C 
ENDROOT
BRANCH   1   2
ATOM      2  C   UNL     1      16.045  20.859   1.440  1.00  0.00     0.053 C 
BRANCH   2   3
ATOM      3  C   UNL     1      16.424  19.979   0.291  1.00  0.00     0.041 C 
ATOM      4  O   UNL     1      16.588  18.743   0.467  1.00  0.00    -0.550 OA
ATOM      5  O   UNL     1      16.547  20.515  -0.984  1.00  0.00    -0.550 OA
ENDBRANCH   2   3
ENDBRANCH   1   2
BRANCH   1   6
ATOM      6  C   UNL     1      15.714  23.382   1.673  1.00  0.00     0.000 C 
BRANCH   6   7
ATOM      7  C   UNL     1      16.227  23.110   3.095  1.00  0.00    -0.003 C 
ATOM      8  C   UNL     1      15.148  23.402   4.134  1.00  0.00     0.004 C 
ENDBRANCH   6   7
ENDBRANCH   1   6
TORSDOF 4
ENDMDL
MODEL 4
REMARK VINA RESULT:    -3.843      8.532      9.700
REMARK INTER + INTRA:          -4.871
REMARK INTER:                  -4.688
REMARK INTRA:                  -0.183
REMARK UNBOUND:                -0.130
REMARK SMILES CCCCCC(=O)[O-]
REMARK SMILES IDX 4 1 5 2 6 3 7 4 8 5 3 6 2 7 1 8
REMARK H PARENT
REMARK Flexibility Score: inf
ROOT
ATOM      1  C   UNL     1      16.369  20.805  -0.776  1.00  0.00     0.006 C 
ENDROOT
BRANCH   1   2
ATOM      2  C   UNL     1      16.489  20.013   0.531  1.00  0.00     0.053 C 
BRANCH   2   3
ATOM      3  C   UNL     1      15.422  18.967   0.608  1.00  0.00     0.041 C 
ATOM      4  O   UNL     1      14.948  18.468  -0.446  1.00  0.00    -0.550 OA
ATOM      5  O   UNL     1      14.985  18.509   1.844  1.00  0.00    -0.550 OA
ENDBRANCH   2   3
ENDBRANCH   1   2
BRANCH   1   6
ATOM      6  C   UNL     1      15.775  22.206  -0.567  1.00  0.00     0.000 C 
BRANCH   6   7
ATOM      7  C   UNL     1      14.609  22.503  -1.522  1.00  0.00    -0.003 C 
ATOM      8  C   UNL     1      14.211  21.257  -2.307  1.00  0.00     0.004 C 
ENDBRANCH   6   7
ENDBRANCH   1   6
TORSDOF 4
ENDMDL
MODEL 5
REMARK VINA RESULT:    -3.825      8.611      9.875
REMARK INTER + INTRA:          -4.850
REMARK INTER:                  -4.751
REMARK INTRA:                  -0.099
REMARK UNBOUND:                -0.130
REMARK SMILES CCCCCC(=O)[O-]
REMARK SMILES IDX 4 1 5 2 6 3 7 4 8 5 3 6 2 7 1 8
REMARK H PARENT
REMARK Flexibility Score: inf
ROOT
ATOM      1  C   UNL     1      13.637  19.907   1.897  1.00  0.00     0.006 C 
ENDROOT
BRANCH   1   2
ATOM      2  C   UNL     1      14.626  18.749   1.723  1.00  0.00     0.053 C 
BRANCH   2   3
ATOM      3  C   UNL     1      15.374  18.891   0.434  1.00  0.00     0.041 C 
ATOM      4  O   UNL     1      16.632  18.918   0.432  1.00  0.00    -0.550 OA
ATOM      5  O   UNL     1      14.681  18.944  -0.769  1.00  0.00    -0.550 OA
ENDBRANCH   2   3
ENDBRANCH   1   2
BRANCH   1   6
ATOM      6  C   UNL     1      13.942  20.766   3.134  1.00  0.00     0.000 C 
BRANCH   6   7
ATOM      7  C   UNL     1      15.016  21.831   2.865  1.00  0.00    -0.003 C 
ATOM      8  C   UNL     1      14.938  22.962   3.886  1.00  0.00     0.004 C 
ENDBRANCH   6   7
ENDBRANCH   1   6
TORSDOF 4
ENDMDL
MODEL 6
REMARK VINA RESULT:    -3.818      8.824     10.315
REMARK INTER + INTRA:          -4.840
REMARK INTER:                  -4.751
REMARK INTRA:                  -0.089
REMARK UNBOUND:                -0.130
REMARK SMILES CCCCCC(=O)[O-]
REMARK SMILES IDX 4 1 5 2 6 3 7 4 8 5 3 6 2 7 1 8
REMARK H PARENT
REMARK Flexibility Score: inf
ROOT
ATOM      1  C   UNL     1      14.003  19.603  -1.255  1.00  0.00     0.006 C 
ENDROOT
BRANCH   1   2
ATOM      2  C   UNL     1      14.516  20.138   0.087  1.00  0.00     0.053 C 
BRANCH   2   3
ATOM      3  C   UNL     1      15.333  19.098   0.786  1.00  0.00     0.041 C 
ATOM      4  O   UNL     1      16.481  18.803   0.361  1.00  0.00    -0.550 OA
ATOM      5  O   UNL     1      14.847  18.488   1.936  1.00  0.00    -0.550 OA
ENDBRANCH   2   3
ENDBRANCH   1   2
BRANCH   1   6
ATOM      6  C   UNL     1      13.206  20.652  -2.045  1.00  0.00     0.000 C 
BRANCH   6   7
ATOM      7  C   UNL     1      12.145  20.023  -2.959  1.00  0.00    -0.003 C 
ATOM      8  C   UNL     1      11.912  18.557  -2.605  1.00  0.00     0.004 C 
ENDBRANCH   6   7
ENDBRANCH   1   6
TORSDOF 4
ENDMDL
MODEL 7
REMARK VINA RESULT:    -3.815      5.298      6.270
REMARK INTER + INTRA:          -4.837
REMARK INTER:                  -4.700
REMARK INTRA:                  -0.137
REMARK UNBOUND:                -0.130
REMARK SMILES CCCCCC(=O)[O-]
REMARK SMILES IDX 4 1 5 2 6 3 7 4 8 5 3 6 2 7 1 8
REMARK H PARENT
REMARK Flexibility Score: inf
ROOT
ATOM      1  C   UNL     1      21.294  12.033  -2.657  1.00  0.00     0.006 C 
ENDROOT
BRANCH   1   2
ATOM      2  C   UNL     1      19.988  12.837  -2.668  1.00  0.00     0.053 C 
BRANCH   2   3
ATOM      3  C   UNL     1      19.386  12.871  -1.299  1.00  0.00     0.041 C 
ATOM      4  O   UNL     1      18.680  13.851  -0.942  1.00  0.00    -0.550 OA
ATOM      5  O   UNL     1      19.563  11.799  -0.434  1.00  0.00    -0.550 OA
ENDBRANCH   2   3
ENDBRANCH   1   2
BRANCH   1   6
ATOM      6  C   UNL     1      22.526  12.910  -2.384  1.00  0.00     0.000 C 
BRANCH   6   7
ATOM      7  C   UNL     1      23.253  13.326  -3.671  1.00  0.00    -0.003 C 
ATOM      8  C   UNL     1      23.106  12.261  -4.755  1.00  0.00     0.004 C 
ENDBRANCH   6   7
ENDBRANCH   1   6
TORSDOF 4
ENDMDL
MODEL 8
REMARK VINA RESULT:    -3.782      3.333      4.671
REMARK INTER + INTRA:          -4.796
REMARK INTER:                  -4.585
REMARK INTRA:                  -0.212
REMARK UNBOUND:                -0.130
REMARK SMILES CCCCCC(=O)[O-]
REMARK SMILES IDX 4 1 5 2 6 3 7 4 8 5 3 6 2 7 1 8
REMARK H PARENT
REMARK Flexibility Score: inf
ROOT
ATOM      1  C   UNL     1      19.942  15.495   0.378  1.00  0.00     0.006 C 
ENDROOT
BRANCH   1   2
ATOM      2  C   UNL     1      19.485  14.069   0.052  1.00  0.00     0.053 C 
BRANCH   2   3
ATOM      3  C   UNL     1      20.033  13.635  -1.271  1.00  0.00     0.041 C 
ATOM      4  O   UNL     1      19.284  13.583  -2.282  1.00  0.00    -0.550 OA
ATOM      5  O   UNL     1      21.384  13.335  -1.400  1.00  0.00    -0.550 OA
ENDBRANCH   2   3
ENDBRANCH   1   2
BRANCH   1   6
ATOM      6  C   UNL     1      21.018  15.536   1.474  1.00  0.00     0.000 C 
BRANCH   6   7
ATOM      7  C   UNL     1      22.389  15.978   0.941  1.00  0.00    -0.003 C 
ATOM      8  C   UNL     1      23.449  14.909   1.195  1.00  0.00     0.004 C 
ENDBRANCH   6   7
ENDBRANCH   1   6
TORSDOF 4
ENDMDL
MODEL 9
REMARK VINA RESULT:    -3.773      4.280      5.788
REMARK INTER + INTRA:          -4.785
REMARK INTER:                  -4.527
REMARK INTRA:                  -0.259
REMARK UNBOUND:                -0.130
REMARK SMILES CCCCCC(=O)[O-]
REMARK SMILES IDX 4 1 5 2 6 3 7 4 8 5 3 6 2 7 1 8
REMARK H PARENT
REMARK Flexibility Score: inf
ROOT
ATOM      1  C   UNL     1      21.771  12.186  -2.651  1.00  0.00     0.006 C 
ENDROOT
BRANCH   1   2
ATOM      2  C   UNL     1      20.429  12.889  -2.884  1.00  0.00     0.053 C 
BRANCH   2   3
ATOM      3  C   UNL     1      19.549  12.747  -1.682  1.00  0.00     0.041 C 
ATOM      4  O   UNL     1      18.454  13.364  -1.622  1.00  0.00    -0.550 OA
ATOM      5  O   UNL     1      19.917  11.893  -0.649  1.00  0.00    -0.550 OA
ENDBRANCH   2   3
ENDBRANCH   1   2
BRANCH   1   6
ATOM      6  C   UNL     1      22.905  13.169  -2.319  1.00  0.00     0.000 C 
BRANCH   6   7
ATOM      7  C   UNL     1      23.318  13.118  -0.841  1.00  0.00    -0.003 C 
ATOM      8  C   UNL     1      22.639  14.228  -0.042  1.00  0.00     0.004 C 
ENDBRANCH   6   7
ENDBRANCH   1   6
TORSDOF 4
ENDMDL
