MODEL 1
REMARK VINA RESULT:    -7.368      0.000      0.000
REMARK INTER + INTRA:          -9.060
REMARK INTER:                  -8.875
REMARK INTRA:                  -0.184
REMARK UNBOUND:                -0.184
REMARK SMILES O=c1c(O)c(-c2ccc(O)c(O)c2)oc2cc(O)cc(O)c12
REMARK SMILES IDX 5 1 3 2 2 3 1 4 22 5 20 6 19 7 17 8 16 9 15 10 14 11 6 12
REMARK SMILES IDX 7 13 8 14 9 15 13 16 11 17 10 18 12 20 4 22 21 24 18 26
REMARK H PARENT 10 19 12 21 4 23 21 25 18 27
REMARK Flexibility Score: inf
ROOT
ATOM      1  C   UNL     1     -17.189  -4.118 -44.243  1.00  0.00     0.180 A 
ATOM      2  C   UNL     1     -18.497  -3.985 -44.746  1.00  0.00     0.208 A 
ATOM      3  C   UNL     1     -18.854  -2.797 -45.404  1.00  0.00     0.238 A 
ATOM      4  O   UNL     1     -20.026  -2.663 -45.848  1.00  0.00    -0.285 OA
ATOM      5  C   UNL     1     -17.896  -1.776 -45.566  1.00  0.00     0.111 A 
ATOM      6  C   UNL     1     -18.173  -0.551 -46.221  1.00  0.00     0.134 A 
ATOM      7  C   UNL     1     -17.162   0.412 -46.350  1.00  0.00     0.093 A 
ATOM      8  C   UNL     1     -15.881   0.174 -45.840  1.00  0.00     0.123 A 
ATOM      9  C   UNL     1     -15.603  -1.031 -45.193  1.00  0.00     0.094 A 
ATOM     10  C   UNL     1     -16.597  -2.003 -45.052  1.00  0.00     0.146 A 
ATOM     11  O   UNL     1     -16.307  -3.139 -44.429  1.00  0.00    -0.452 OA
ENDROOT
BRANCH   1  12
ATOM     12  C   UNL     1     -16.743  -5.331 -43.521  1.00  0.00     0.025 A 
ATOM     13  C   UNL     1     -15.688  -6.094 -44.041  1.00  0.00     0.016 A 
ATOM     14  C   UNL     1     -15.238  -7.231 -43.366  1.00  0.00     0.051 A 
ATOM     15  C   UNL     1     -15.820  -7.618 -42.154  1.00  0.00     0.157 A 
ATOM     16  C   UNL     1     -17.314  -5.704 -42.293  1.00  0.00     0.062 A 
ATOM     17  C   UNL     1     -16.868  -6.841 -41.607  1.00  0.00     0.158 A 
BRANCH  15  18
ATOM     18  O   UNL     1     -15.329  -8.769 -41.532  1.00  0.00    -0.504 OA
ATOM     19  H   UNL     1     -15.239  -8.876 -40.533  1.00  0.00     0.293 HD
ENDBRANCH  15  18
BRANCH  17  20
ATOM     20  O   UNL     1     -17.483  -7.153 -40.393  1.00  0.00    -0.504 OA
ATOM     21  H   UNL     1     -18.406  -7.557 -40.314  1.00  0.00     0.293 HD
ENDBRANCH  17  20
ENDBRANCH   1  12
BRANCH   2  22
ATOM     22  O   UNL     1     -19.414  -5.032 -44.615  1.00  0.00    -0.502 OA
ATOM     23  H   UNL     1     -19.381  -5.858 -45.198  1.00  0.00     0.293 HD
ENDBRANCH   2  22
BRANCH   6  24
ATOM     24  O   UNL     1     -19.440  -0.286 -46.741  1.00  0.00    -0.507 OA
ATOM     25  H   UNL     1     -19.598  -0.190 -47.738  1.00  0.00     0.293 HD
ENDBRANCH   6  24
BRANCH   8  26
ATOM     26  O   UNL     1     -14.877   1.131 -45.969  1.00  0.00    -0.508 OA
ATOM     27  H   UNL     1     -14.129   1.027 -46.645  1.00  0.00     0.293 HD
ENDBRANCH   8  26
TORSDOF 6
ENDMDL
MODEL 2
REMARK VINA RESULT:    -7.254      5.917      8.168
REMARK INTER + INTRA:          -8.923
REMARK INTER:                  -8.616
REMARK INTRA:                  -0.307
REMARK UNBOUND:                -0.184
REMARK SMILES O=c1c(O)c(-c2ccc(O)c(O)c2)oc2cc(O)cc(O)c12
REMARK SMILES IDX 5 1 3 2 2 3 1 4 22 5 20 6 19 7 17 8 16 9 15 10 14 11 6 12
REMARK SMILES IDX 7 13 8 14 9 15 13 16 11 17 10 18 12 20 4 22 21 24 18 26
REMARK H PARENT 10 19 12 21 4 23 21 25 18 27
REMARK Flexibility Score: inf
ROOT
ATOM      1  C   UNL     1     -21.277  -2.690 -49.777  1.00  0.00     0.180 A 
ATOM      2  C   UNL     1     -20.770  -1.525 -50.385  1.00  0.00     0.208 A 
ATOM      3  C   UNL     1     -21.607  -0.405 -50.508  1.00  0.00     0.238 A 
ATOM      4  O   UNL     1     -21.166   0.639 -51.062  1.00  0.00    -0.285 OA
ATOM      5  C   UNL     1     -22.922  -0.459 -50.007  1.00  0.00     0.111 A 
ATOM      6  C   UNL     1     -23.828   0.627 -50.088  1.00  0.00     0.134 A 
ATOM      7  C   UNL     1     -25.119   0.497 -49.555  1.00  0.00     0.093 A 
ATOM      8  C   UNL     1     -25.521  -0.696 -48.944  1.00  0.00     0.123 A 
ATOM      9  C   UNL     1     -24.633  -1.769 -48.862  1.00  0.00     0.094 A 
ATOM     10  C   UNL     1     -23.343  -1.661 -49.388  1.00  0.00     0.146 A 
ATOM     11  O   UNL     1     -22.520  -2.699 -49.301  1.00  0.00    -0.452 OA
ENDROOT
BRANCH   1  12
ATOM     12  C   UNL     1     -20.464  -3.918 -49.627  1.00  0.00     0.025 A 
ATOM     13  C   UNL     1     -19.925  -4.239 -48.373  1.00  0.00     0.016 A 
ATOM     14  C   UNL     1     -19.171  -5.402 -48.205  1.00  0.00     0.051 A 
ATOM     15  C   UNL     1     -18.955  -6.274 -49.278  1.00  0.00     0.157 A 
ATOM     16  C   UNL     1     -20.267  -4.802 -50.701  1.00  0.00     0.062 A 
ATOM     17  C   UNL     1     -19.515  -5.973 -50.541  1.00  0.00     0.158 A 
BRANCH  15  18
ATOM     18  O   UNL     1     -18.186  -7.417 -49.045  1.00  0.00    -0.504 OA
ATOM     19  H   UNL     1     -17.423  -7.460 -48.385  1.00  0.00     0.293 HD
ENDBRANCH  15  18
BRANCH  17  20
ATOM     20  O   UNL     1     -19.359  -6.804 -51.653  1.00  0.00    -0.504 OA
ATOM     21  H   UNL     1     -18.630  -6.693 -52.343  1.00  0.00     0.293 HD
ENDBRANCH  17  20
ENDBRANCH   1  12
BRANCH   2  22
ATOM     22  O   UNL     1     -19.446  -1.481 -50.830  1.00  0.00    -0.502 OA
ATOM     23  H   UNL     1     -18.777  -2.209 -50.617  1.00  0.00     0.293 HD
ENDBRANCH   2  22
BRANCH   6  24
ATOM     24  O   UNL     1     -23.454   1.829 -50.690  1.00  0.00    -0.507 OA
ATOM     25  H   UNL     1     -22.497   2.009 -50.972  1.00  0.00     0.293 HD
ENDBRANCH   6  24
BRANCH   8  26
ATOM     26  O   UNL     1     -26.804  -0.824 -48.415  1.00  0.00    -0.508 OA
ATOM     27  H   UNL     1     -27.195  -1.731 -48.188  1.00  0.00     0.293 HD
ENDBRANCH   8  26
TORSDOF 6
ENDMDL
MODEL 3
REMARK VINA RESULT:    -7.218      2.351      2.932
REMARK INTER + INTRA:          -8.879
REMARK INTER:                  -8.661
REMARK INTRA:                  -0.218
REMARK UNBOUND:                -0.184
REMARK SMILES O=c1c(O)c(-c2ccc(O)c(O)c2)oc2cc(O)cc(O)c12
REMARK SMILES IDX 5 1 3 2 2 3 1 4 22 5 20 6 19 7 17 8 16 9 15 10 14 11 6 12
REMARK SMILES IDX 7 13 8 14 9 15 13 16 11 17 10 18 12 20 4 22 21 24 18 26
REMARK H PARENT 10 19 12 21 4 23 21 25 18 27
REMARK Flexibility Score: inf
ROOT
ATOM      1  C   UNL     1     -16.077  -3.755 -44.981  1.00  0.00     0.180 A 
ATOM      2  C   UNL     1     -16.213  -2.441 -44.493  1.00  0.00     0.208 A 
ATOM      3  C   UNL     1     -16.174  -1.373 -45.402  1.00  0.00     0.238 A 
ATOM      4  O   UNL     1     -16.283  -0.191 -44.974  1.00  0.00    -0.285 OA
ATOM      5  C   UNL     1     -16.020  -1.634 -46.778  1.00  0.00     0.111 A 
ATOM      6  C   UNL     1     -15.975  -0.614 -47.760  1.00  0.00     0.134 A 
ATOM      7  C   UNL     1     -15.829  -0.956 -49.112  1.00  0.00     0.093 A 
ATOM      8  C   UNL     1     -15.729  -2.296 -49.501  1.00  0.00     0.123 A 
ATOM      9  C   UNL     1     -15.773  -3.305 -48.537  1.00  0.00     0.094 A 
ATOM     10  C   UNL     1     -15.915  -2.985 -47.184  1.00  0.00     0.146 A 
ATOM     11  O   UNL     1     -15.949  -3.964 -46.288  1.00  0.00    -0.452 OA
ENDROOT
BRANCH   1  12
ATOM     12  C   UNL     1     -16.090  -4.933 -44.084  1.00  0.00     0.025 A 
ATOM     13  C   UNL     1     -14.896  -5.626 -43.839  1.00  0.00     0.016 A 
ATOM     14  C   UNL     1     -14.882  -6.728 -42.981  1.00  0.00     0.051 A 
ATOM     15  C   UNL     1     -16.052  -7.149 -42.340  1.00  0.00     0.157 A 
ATOM     16  C   UNL     1     -17.262  -5.340 -43.425  1.00  0.00     0.062 A 
ATOM     17  C   UNL     1     -17.257  -6.441 -42.560  1.00  0.00     0.158 A 
BRANCH  15  18
ATOM     18  O   UNL     1     -15.972  -8.262 -41.500  1.00  0.00    -0.504 OA
ATOM     19  H   UNL     1     -16.211  -9.201 -41.783  1.00  0.00     0.293 HD
ENDBRANCH  15  18
BRANCH  17  20
ATOM     20  O   UNL     1     -18.460  -6.790 -41.941  1.00  0.00    -0.504 OA
ATOM     21  H   UNL     1     -18.531  -7.106 -40.984  1.00  0.00     0.293 HD
ENDBRANCH  17  20
ENDBRANCH   1  12
BRANCH   2  22
ATOM     22  O   UNL     1     -16.414  -2.212 -43.129  1.00  0.00    -0.502 OA
ATOM     23  H   UNL     1     -15.902  -1.505 -42.616  1.00  0.00     0.293 HD
ENDBRANCH   2  22
BRANCH   6  24
ATOM     24  O   UNL     1     -16.073   0.731 -47.402  1.00  0.00    -0.507 OA
ATOM     25  H   UNL     1     -16.787   1.062 -46.763  1.00  0.00     0.293 HD
ENDBRANCH   6  24
BRANCH   8  26
ATOM     26  O   UNL     1     -15.584  -2.636 -50.844  1.00  0.00    -0.508 OA
ATOM     27  H   UNL     1     -15.153  -3.509 -51.127  1.00  0.00     0.293 HD
ENDBRANCH   8  26
TORSDOF 6
ENDMDL
MODEL 4
REMARK VINA RESULT:    -7.102      1.406      3.010
REMARK INTER + INTRA:          -8.739
REMARK INTER:                  -8.594
REMARK INTRA:                  -0.145
REMARK UNBOUND:                -0.184
REMARK SMILES O=c1c(O)c(-c2ccc(O)c(O)c2)oc2cc(O)cc(O)c12
REMARK SMILES IDX 5 1 3 2 2 3 1 4 22 5 20 6 19 7 17 8 16 9 15 10 14 11 6 12
REMARK SMILES IDX 7 13 8 14 9 15 13 16 11 17 10 18 12 20 4 22 21 24 18 26
REMARK H PARENT 10 19 12 21 4 23 21 25 18 27
REMARK Flexibility Score: inf
ROOT
ATOM      1  C   UNL     1     -17.166  -3.691 -43.794  1.00  0.00     0.180 A 
ATOM      2  C   UNL     1     -16.234  -2.682 -44.104  1.00  0.00     0.208 A 
ATOM      3  C   UNL     1     -16.694  -1.487 -44.681  1.00  0.00     0.238 A 
ATOM      4  O   UNL     1     -15.866  -0.582 -44.973  1.00  0.00    -0.285 OA
ATOM      5  C   UNL     1     -18.072  -1.313 -44.917  1.00  0.00     0.111 A 
ATOM      6  C   UNL     1     -18.617  -0.139 -45.491  1.00  0.00     0.134 A 
ATOM      7  C   UNL     1     -20.002  -0.039 -45.686  1.00  0.00     0.093 A 
ATOM      8  C   UNL     1     -20.852  -1.088 -45.318  1.00  0.00     0.123 A 
ATOM      9  C   UNL     1     -20.319  -2.248 -44.753  1.00  0.00     0.094 A 
ATOM     10  C   UNL     1     -18.941  -2.369 -44.552  1.00  0.00     0.146 A 
ATOM     11  O   UNL     1     -18.461  -3.485 -44.017  1.00  0.00    -0.452 OA
ENDROOT
BRANCH   1  12
ATOM     12  C   UNL     1     -16.757  -4.985 -43.202  1.00  0.00     0.025 A 
ATOM     13  C   UNL     1     -15.908  -5.835 -43.923  1.00  0.00     0.016 A 
ATOM     14  C   UNL     1     -15.494  -7.052 -43.375  1.00  0.00     0.051 A 
ATOM     15  C   UNL     1     -15.907  -7.434 -42.094  1.00  0.00     0.157 A 
ATOM     16  C   UNL     1     -17.156  -5.356 -41.907  1.00  0.00     0.062 A 
ATOM     17  C   UNL     1     -16.744  -6.572 -41.348  1.00  0.00     0.158 A 
BRANCH  15  18
ATOM     18  O   UNL     1     -15.464  -8.667 -41.607  1.00  0.00    -0.504 OA
ATOM     19  H   UNL     1     -15.763  -9.067 -40.730  1.00  0.00     0.293 HD
ENDBRANCH  15  18
BRANCH  17  20
ATOM     20  O   UNL     1     -17.180  -6.878 -40.056  1.00  0.00    -0.504 OA
ATOM     21  H   UNL     1     -17.259  -7.817 -39.694  1.00  0.00     0.293 HD
ENDBRANCH  17  20
ENDBRANCH   1  12
BRANCH   2  22
ATOM     22  O   UNL     1     -14.879  -2.860 -43.814  1.00  0.00    -0.502 OA
ATOM     23  H   UNL     1     -14.498  -2.717 -42.887  1.00  0.00     0.293 HD
ENDBRANCH   2  22
BRANCH   6  24
ATOM     24  O   UNL     1     -17.795   0.925 -45.866  1.00  0.00    -0.507 OA
ATOM     25  H   UNL     1     -17.312   1.493 -45.179  1.00  0.00     0.293 HD
ENDBRANCH   6  24
BRANCH   8  26
ATOM     26  O   UNL     1     -22.228  -0.988 -45.511  1.00  0.00    -0.508 OA
ATOM     27  H   UNL     1     -22.617  -0.594 -46.361  1.00  0.00     0.293 HD
ENDBRANCH   8  26
TORSDOF 6
ENDMDL
MODEL 5
REMARK VINA RESULT:    -7.083      5.707      9.645
REMARK INTER + INTRA:          -8.717
REMARK INTER:                  -8.390
REMARK INTRA:                  -0.327
REMARK UNBOUND:                -0.184
REMARK SMILES O=c1c(O)c(-c2ccc(O)c(O)c2)oc2cc(O)cc(O)c12
REMARK SMILES IDX 5 1 3 2 2 3 1 4 22 5 20 6 19 7 17 8 16 9 15 10 14 11 6 12
REMARK SMILES IDX 7 13 8 14 9 15 13 16 11 17 10 18 12 20 4 22 21 24 18 26
REMARK H PARENT 10 19 12 21 4 23 21 25 18 27
REMARK Flexibility Score: inf
ROOT
ATOM      1  C   UNL     1     -22.846  -1.971 -48.388  1.00  0.00     0.180 A 
ATOM      2  C   UNL     1     -22.292  -2.070 -47.097  1.00  0.00     0.208 A 
ATOM      3  C   UNL     1     -21.296  -3.030 -46.859  1.00  0.00     0.238 A 
ATOM      4  O   UNL     1     -20.801  -3.135 -45.704  1.00  0.00    -0.285 OA
ATOM      5  C   UNL     1     -20.858  -3.856 -47.913  1.00  0.00     0.111 A 
ATOM      6  C   UNL     1     -19.856  -4.845 -47.757  1.00  0.00     0.134 A 
ATOM      7  C   UNL     1     -19.468  -5.621 -48.859  1.00  0.00     0.093 A 
ATOM      8  C   UNL     1     -20.060  -5.428 -50.111  1.00  0.00     0.123 A 
ATOM      9  C   UNL     1     -21.048  -4.455 -50.270  1.00  0.00     0.094 A 
ATOM     10  C   UNL     1     -21.451  -3.672 -49.185  1.00  0.00     0.146 A 
ATOM     11  O   UNL     1     -22.397  -2.757 -49.362  1.00  0.00    -0.452 OA
ENDROOT
BRANCH   1  12
ATOM     12  C   UNL     1     -23.913  -0.997 -48.714  1.00  0.00     0.025 A 
ATOM     13  C   UNL     1     -23.577   0.211 -49.338  1.00  0.00     0.016 A 
ATOM     14  C   UNL     1     -24.570   1.135 -49.672  1.00  0.00     0.051 A 
ATOM     15  C   UNL     1     -25.916   0.864 -49.405  1.00  0.00     0.157 A 
ATOM     16  C   UNL     1     -25.266  -1.283 -48.464  1.00  0.00     0.062 A 
ATOM     17  C   UNL     1     -26.269  -0.365 -48.798  1.00  0.00     0.158 A 
BRANCH  15  18
ATOM     18  O   UNL     1     -26.859   1.832 -49.756  1.00  0.00    -0.504 OA
ATOM     19  H   UNL     1     -26.731   2.823 -49.614  1.00  0.00     0.293 HD
ENDBRANCH  15  18
BRANCH  17  20
ATOM     20  O   UNL     1     -27.593  -0.714 -48.519  1.00  0.00    -0.504 OA
ATOM     21  H   UNL     1     -28.362  -0.059 -48.523  1.00  0.00     0.293 HD
ENDBRANCH  17  20
ENDBRANCH   1  12
BRANCH   2  22
ATOM     22  O   UNL     1     -22.709  -1.206 -46.082  1.00  0.00    -0.502 OA
ATOM     23  H   UNL     1     -23.679  -0.946 -45.954  1.00  0.00     0.293 HD
ENDBRANCH   2  22
BRANCH   6  24
ATOM     24  O   UNL     1     -19.246  -5.060 -46.521  1.00  0.00    -0.507 OA
ATOM     25  H   UNL     1     -18.244  -4.967 -46.397  1.00  0.00     0.293 HD
ENDBRANCH   6  24
BRANCH   8  26
ATOM     26  O   UNL     1     -19.674  -6.199 -51.206  1.00  0.00    -0.508 OA
ATOM     27  H   UNL     1     -18.842  -5.980 -51.741  1.00  0.00     0.293 HD
ENDBRANCH   8  26
TORSDOF 6
ENDMDL
MODEL 6
REMARK VINA RESULT:    -7.063      6.071      7.759
REMARK INTER + INTRA:          -8.693
REMARK INTER:                  -8.401
REMARK INTRA:                  -0.291
REMARK UNBOUND:                -0.184
REMARK SMILES O=c1c(O)c(-c2ccc(O)c(O)c2)oc2cc(O)cc(O)c12
REMARK SMILES IDX 5 1 3 2 2 3 1 4 22 5 20 6 19 7 17 8 16 9 15 10 14 11 6 12
REMARK SMILES IDX 7 13 8 14 9 15 13 16 11 17 10 18 12 20 4 22 21 24 18 26
REMARK H PARENT 10 19 12 21 4 23 21 25 18 27
REMARK Flexibility Score: inf
ROOT
ATOM      1  C   UNL     1     -21.283  -2.719 -50.081  1.00  0.00     0.180 A 
ATOM      2  C   UNL     1     -22.626  -2.637 -49.668  1.00  0.00     0.208 A 
ATOM      3  C   UNL     1     -23.333  -1.445 -49.890  1.00  0.00     0.238 A 
ATOM      4  O   UNL     1     -24.533  -1.357 -49.513  1.00  0.00    -0.285 OA
ATOM      5  C   UNL     1     -22.695  -0.367 -50.537  1.00  0.00     0.111 A 
ATOM      6  C   UNL     1     -23.338   0.867 -50.802  1.00  0.00     0.134 A 
ATOM      7  C   UNL     1     -22.637   1.888 -51.460  1.00  0.00     0.093 A 
ATOM      8  C   UNL     1     -21.309   1.700 -51.857  1.00  0.00     0.123 A 
ATOM      9  C   UNL     1     -20.671   0.486 -51.597  1.00  0.00     0.094 A 
ATOM     10  C   UNL     1     -21.351  -0.544 -50.942  1.00  0.00     0.146 A 
ATOM     11  O   UNL     1     -20.718  -1.687 -50.703  1.00  0.00    -0.452 OA
ENDROOT
BRANCH   1  12
ATOM     12  C   UNL     1     -20.465  -3.935 -49.866  1.00  0.00     0.025 A 
ATOM     13  C   UNL     1     -19.922  -4.185 -48.598  1.00  0.00     0.016 A 
ATOM     14  C   UNL     1     -19.165  -5.335 -48.368  1.00  0.00     0.051 A 
ATOM     15  C   UNL     1     -18.949  -6.264 -49.391  1.00  0.00     0.157 A 
ATOM     16  C   UNL     1     -20.269  -4.877 -50.890  1.00  0.00     0.062 A 
ATOM     17  C   UNL     1     -19.514  -6.035 -50.668  1.00  0.00     0.158 A 
BRANCH  15  18
ATOM     18  O   UNL     1     -18.177  -7.391 -49.098  1.00  0.00    -0.504 OA
ATOM     19  H   UNL     1     -18.559  -8.273 -48.789  1.00  0.00     0.293 HD
ENDBRANCH  15  18
BRANCH  17  20
ATOM     20  O   UNL     1     -19.358  -6.927 -51.732  1.00  0.00    -0.504 OA
ATOM     21  H   UNL     1     -18.984  -7.860 -51.636  1.00  0.00     0.293 HD
ENDBRANCH  17  20
ENDBRANCH   1  12
BRANCH   2  22
ATOM     22  O   UNL     1     -23.250  -3.737 -49.072  1.00  0.00    -0.502 OA
ATOM     23  H   UNL     1     -22.751  -4.389 -48.480  1.00  0.00     0.293 HD
ENDBRANCH   2  22
BRANCH   6  24
ATOM     24  O   UNL     1     -24.662   1.083 -50.419  1.00  0.00    -0.507 OA
ATOM     25  H   UNL     1     -25.431   0.584 -50.852  1.00  0.00     0.293 HD
ENDBRANCH   6  24
BRANCH   8  26
ATOM     26  O   UNL     1     -20.613   2.715 -52.511  1.00  0.00    -0.508 OA
ATOM     27  H   UNL     1     -20.796   3.693 -52.318  1.00  0.00     0.293 HD
ENDBRANCH   8  26
TORSDOF 6
ENDMDL
MODEL 7
REMARK VINA RESULT:    -7.035      3.747      5.038
REMARK INTER + INTRA:          -8.658
REMARK INTER:                  -8.344
REMARK INTRA:                  -0.314
REMARK UNBOUND:                -0.184
REMARK SMILES O=c1c(O)c(-c2ccc(O)c(O)c2)oc2cc(O)cc(O)c12
REMARK SMILES IDX 5 1 3 2 2 3 1 4 22 5 20 6 19 7 17 8 16 9 15 10 14 11 6 12
REMARK SMILES IDX 7 13 8 14 9 15 13 16 11 17 10 18 12 20 4 22 21 24 18 26
REMARK H PARENT 10 19 12 21 4 23 21 25 18 27
REMARK Flexibility Score: inf
ROOT
ATOM      1  C   UNL     1     -19.320  -3.442 -44.539  1.00  0.00     0.180 A 
ATOM      2  C   UNL     1     -20.361  -4.207 -45.097  1.00  0.00     0.208 A 
ATOM      3  C   UNL     1     -20.146  -4.852 -46.326  1.00  0.00     0.238 A 
ATOM      4  O   UNL     1     -21.075  -5.531 -46.841  1.00  0.00    -0.285 OA
ATOM      5  C   UNL     1     -18.893  -4.738 -46.961  1.00  0.00     0.111 A 
ATOM      6  C   UNL     1     -18.593  -5.360 -48.198  1.00  0.00     0.134 A 
ATOM      7  C   UNL     1     -17.318  -5.206 -48.762  1.00  0.00     0.093 A 
ATOM      8  C   UNL     1     -16.339  -4.445 -48.114  1.00  0.00     0.123 A 
ATOM      9  C   UNL     1     -16.630  -3.830 -46.895  1.00  0.00     0.094 A 
ATOM     10  C   UNL     1     -17.895  -3.969 -46.317  1.00  0.00     0.146 A 
ATOM     11  O   UNL     1     -18.146  -3.370 -45.160  1.00  0.00    -0.452 OA
ENDROOT
BRANCH   1  12
ATOM     12  C   UNL     1     -19.477  -2.717 -43.257  1.00  0.00     0.025 A 
ATOM     13  C   UNL     1     -20.087  -1.456 -43.248  1.00  0.00     0.016 A 
ATOM     14  C   UNL     1     -20.262  -0.764 -42.047  1.00  0.00     0.051 A 
ATOM     15  C   UNL     1     -19.847  -1.323 -40.834  1.00  0.00     0.157 A 
ATOM     16  C   UNL     1     -19.079  -3.291 -42.038  1.00  0.00     0.062 A 
ATOM     17  C   UNL     1     -19.253  -2.607 -40.828  1.00  0.00     0.158 A 
BRANCH  15  18
ATOM     18  O   UNL     1     -20.044  -0.576 -39.670  1.00  0.00    -0.504 OA
ATOM     19  H   UNL     1     -20.156  -0.981 -38.752  1.00  0.00     0.293 HD
ENDBRANCH  15  18
BRANCH  17  20
ATOM     20  O   UNL     1     -18.832  -3.237 -39.655  1.00  0.00    -0.504 OA
ATOM     21  H   UNL     1     -18.689  -4.233 -39.569  1.00  0.00     0.293 HD
ENDBRANCH  17  20
ENDBRANCH   1  12
BRANCH   2  22
ATOM     22  O   UNL     1     -21.578  -4.344 -44.423  1.00  0.00    -0.502 OA
ATOM     23  H   UNL     1     -22.433  -3.916 -44.753  1.00  0.00     0.293 HD
ENDBRANCH   2  22
BRANCH   6  24
ATOM     24  O   UNL     1     -19.549  -6.125 -48.867  1.00  0.00    -0.507 OA
ATOM     25  H   UNL     1     -19.535  -7.138 -48.839  1.00  0.00     0.293 HD
ENDBRANCH   6  24
BRANCH   8  26
ATOM     26  O   UNL     1     -15.072  -4.293 -48.675  1.00  0.00    -0.508 OA
ATOM     27  H   UNL     1     -14.234  -4.561 -48.171  1.00  0.00     0.293 HD
ENDBRANCH   8  26
TORSDOF 6
ENDMDL
MODEL 8
REMARK VINA RESULT:    -7.015      4.061      5.713
REMARK INTER + INTRA:          -8.635
REMARK INTER:                  -8.380
REMARK INTRA:                  -0.254
REMARK UNBOUND:                -0.184
REMARK SMILES O=c1c(O)c(-c2ccc(O)c(O)c2)oc2cc(O)cc(O)c12
REMARK SMILES IDX 5 1 3 2 2 3 1 4 22 5 20 6 19 7 17 8 16 9 15 10 14 11 6 12
REMARK SMILES IDX 7 13 8 14 9 15 13 16 11 17 10 18 12 20 4 22 21 24 18 26
REMARK H PARENT 10 19 12 21 4 23 21 25 18 27
REMARK Flexibility Score: inf
ROOT
ATOM      1  C   UNL     1     -17.773  -1.188 -45.294  1.00  0.00     0.180 A 
ATOM      2  C   UNL     1     -17.079  -0.112 -45.879  1.00  0.00     0.208 A 
ATOM      3  C   UNL     1     -16.424  -0.312 -47.104  1.00  0.00     0.238 A 
ATOM      4  O   UNL     1     -15.790   0.643 -47.631  1.00  0.00    -0.285 OA
ATOM      5  C   UNL     1     -16.490  -1.572 -47.732  1.00  0.00     0.111 A 
ATOM      6  C   UNL     1     -15.861  -1.855 -48.969  1.00  0.00     0.134 A 
ATOM      7  C   UNL     1     -15.982  -3.133 -49.534  1.00  0.00     0.093 A 
ATOM      8  C   UNL     1     -16.719  -4.131 -48.887  1.00  0.00     0.123 A 
ATOM      9  C   UNL     1     -17.339  -3.858 -47.667  1.00  0.00     0.094 A 
ATOM     10  C   UNL     1     -17.230  -2.591 -47.086  1.00  0.00     0.146 A 
ATOM     11  O   UNL     1     -17.826  -2.359 -45.923  1.00  0.00    -0.452 OA
ENDROOT
BRANCH   1  12
ATOM     12  C   UNL     1     -18.472  -1.062 -43.995  1.00  0.00     0.025 A 
ATOM     13  C   UNL     1     -17.723  -0.988 -42.813  1.00  0.00     0.016 A 
ATOM     14  C   UNL     1     -18.362  -0.849 -41.579  1.00  0.00     0.051 A 
ATOM     15  C   UNL     1     -19.756  -0.764 -41.502  1.00  0.00     0.157 A 
ATOM     16  C   UNL     1     -19.871  -0.955 -43.924  1.00  0.00     0.062 A 
ATOM     17  C   UNL     1     -20.521  -0.812 -42.692  1.00  0.00     0.158 A 
BRANCH  15  18
ATOM     18  O   UNL     1     -20.334  -0.633 -40.237  1.00  0.00    -0.504 OA
ATOM     19  H   UNL     1     -20.569  -1.413 -39.641  1.00  0.00     0.293 HD
ENDBRANCH  15  18
BRANCH  17  20
ATOM     20  O   UNL     1     -21.914  -0.714 -42.696  1.00  0.00    -0.504 OA
ATOM     21  H   UNL     1     -22.462  -0.489 -43.514  1.00  0.00     0.293 HD
ENDBRANCH  17  20
ENDBRANCH   1  12
BRANCH   2  22
ATOM     22  O   UNL     1     -17.070   1.141 -45.260  1.00  0.00    -0.502 OA
ATOM     23  H   UNL     1     -17.700   1.885 -45.531  1.00  0.00     0.293 HD
ENDBRANCH   2  22
BRANCH   6  24
ATOM     24  O   UNL     1     -15.122  -0.879 -49.637  1.00  0.00    -0.507 OA
ATOM     25  H   UNL     1     -14.447  -1.119 -50.355  1.00  0.00     0.293 HD
ENDBRANCH   6  24
BRANCH   8  26
ATOM     26  O   UNL     1     -16.839  -5.401 -49.449  1.00  0.00    -0.508 OA
ATOM     27  H   UNL     1     -17.478  -6.090 -49.070  1.00  0.00     0.293 HD
ENDBRANCH   8  26
TORSDOF 6
ENDMDL
MODEL 9
REMARK VINA RESULT:    -6.997      3.566      4.351
REMARK INTER + INTRA:          -8.613
REMARK INTER:                  -8.348
REMARK INTRA:                  -0.265
REMARK UNBOUND:                -0.184
REMARK SMILES O=c1c(O)c(-c2ccc(O)c(O)c2)oc2cc(O)cc(O)c12
REMARK SMILES IDX 5 1 3 2 2 3 1 4 22 5 20 6 19 7 17 8 16 9 15 10 14 11 6 12
REMARK SMILES IDX 7 13 8 14 9 15 13 16 11 17 10 18 12 20 4 22 21 24 18 26
REMARK H PARENT 10 19 12 21 4 23 21 25 18 27
REMARK Flexibility Score: inf
ROOT
ATOM      1  C   UNL     1     -19.185  -1.022 -44.051  1.00  0.00     0.180 A 
ATOM      2  C   UNL     1     -20.324  -0.749 -44.833  1.00  0.00     0.208 A 
ATOM      3  C   UNL     1     -20.150  -0.251 -46.134  1.00  0.00     0.238 A 
ATOM      4  O   UNL     1     -21.163   0.008 -46.839  1.00  0.00    -0.285 OA
ATOM      5  C   UNL     1     -18.848  -0.055 -46.636  1.00  0.00     0.111 A 
ATOM      6  C   UNL     1     -18.587   0.439 -47.938  1.00  0.00     0.134 A 
ATOM      7  C   UNL     1     -17.261   0.597 -48.368  1.00  0.00     0.093 A 
ATOM      8  C   UNL     1     -16.194   0.271 -47.524  1.00  0.00     0.123 A 
ATOM      9  C   UNL     1     -16.447  -0.215 -46.240  1.00  0.00     0.094 A 
ATOM     10  C   UNL     1     -17.760  -0.379 -45.792  1.00  0.00     0.146 A 
ATOM     11  O   UNL     1     -17.972  -0.839 -44.564  1.00  0.00    -0.452 OA
ENDROOT
BRANCH   1  12
ATOM     12  C   UNL     1     -19.286  -1.530 -42.664  1.00  0.00     0.025 A 
ATOM     13  C   UNL     1     -18.906  -2.850 -42.384  1.00  0.00     0.016 A 
ATOM     14  C   UNL     1     -18.975  -3.343 -41.079  1.00  0.00     0.051 A 
ATOM     15  C   UNL     1     -19.408  -2.527 -40.029  1.00  0.00     0.157 A 
ATOM     16  C   UNL     1     -19.700  -0.701 -41.608  1.00  0.00     0.062 A 
ATOM     17  C   UNL     1     -19.769  -1.185 -40.296  1.00  0.00     0.158 A 
BRANCH  15  18
ATOM     18  O   UNL     1     -19.461  -3.083 -38.749  1.00  0.00    -0.504 OA
ATOM     19  H   UNL     1     -18.786  -2.893 -38.022  1.00  0.00     0.293 HD
ENDBRANCH  15  18
BRANCH  17  20
ATOM     20  O   UNL     1     -20.192  -0.306 -39.296  1.00  0.00    -0.504 OA
ATOM     21  H   UNL     1     -21.141  -0.252 -38.955  1.00  0.00     0.293 HD
ENDBRANCH  17  20
ENDBRANCH   1  12
BRANCH   2  22
ATOM     22  O   UNL     1     -21.603  -0.998 -44.328  1.00  0.00    -0.502 OA
ATOM     23  H   UNL     1     -22.440  -0.865 -44.882  1.00  0.00     0.293 HD
ENDBRANCH   2  22
BRANCH   6  24
ATOM     24  O   UNL     1     -19.630   0.771 -48.802  1.00  0.00    -0.507 OA
ATOM     25  H   UNL     1     -19.834   0.221 -49.629  1.00  0.00     0.293 HD
ENDBRANCH   6  24
BRANCH   8  26
ATOM     26  O   UNL     1     -14.877   0.428 -47.952  1.00  0.00    -0.508 OA
ATOM     27  H   UNL     1     -14.300   1.193 -47.621  1.00  0.00     0.293 HD
ENDBRANCH   8  26
TORSDOF 6
ENDMDL
