MODEL 1
REMARK VINA RESULT:    -1.197      0.000      0.000
REMARK INTER + INTRA:          -0.981
REMARK INTER:                  -1.442
REMARK INTRA:                   0.461
REMARK UNBOUND:                 0.461
REMARK SMILES O=c1c(O)c(-c2ccc(O)c(O)c2)oc2cc(O)cc(O)c12
REMARK SMILES IDX 5 1 3 2 2 3 1 4 22 5 20 6 19 7 17 8 16 9 15 10 14 11 6 12
REMARK SMILES IDX 7 13 8 14 9 15 13 16 11 17 10 18 12 20 4 22 21 24 18 26
REMARK H PARENT 10 19 12 21 4 23 21 25 18 27
REMARK Flexibility Score: inf
ROOT
ATOM      1  C   UNL     1      20.109  -1.766  -7.360  1.00  0.00     0.180 A 
ATOM      2  C   UNL     1      20.648  -1.706  -8.657  1.00  0.00     0.208 A 
ATOM      3  C   UNL     1      22.037  -1.575  -8.811  1.00  0.00     0.238 A 
ATOM      4  O   UNL     1      22.519  -1.577  -9.974  1.00  0.00    -0.285 OA
ATOM      5  C   UNL     1      22.869  -1.489  -7.669  1.00  0.00     0.111 A 
ATOM      6  C   UNL     1      24.284  -1.314  -7.707  1.00  0.00     0.134 A 
ATOM      7  C   UNL     1      25.020  -1.374  -6.516  1.00  0.00     0.093 A 
ATOM      8  C   UNL     1      24.384  -1.535  -5.283  1.00  0.00     0.123 A 
ATOM      9  C   UNL     1      22.997  -1.647  -5.230  1.00  0.00     0.094 A 
ATOM     10  C   UNL     1      22.239  -1.629  -6.403  1.00  0.00     0.146 A 
ATOM     11  O   UNL     1      20.919  -1.749  -6.309  1.00  0.00    -0.452 OA
ENDROOT
BRANCH   1  12
ATOM     12  C   UNL     1      18.653  -1.879  -7.117  1.00  0.00     0.025 A 
ATOM     13  C   UNL     1      17.730  -1.855  -8.177  1.00  0.00     0.016 A 
ATOM     14  C   UNL     1      16.358  -1.939  -7.922  1.00  0.00     0.051 A 
ATOM     15  C   UNL     1      15.888  -2.033  -6.606  1.00  0.00     0.157 A 
ATOM     16  C   UNL     1      18.175  -1.954  -5.798  1.00  0.00     0.062 A 
ATOM     17  C   UNL     1      16.802  -2.038  -5.538  1.00  0.00     0.158 A 
BRANCH  15  18
ATOM     18  O   UNL     1      14.520  -2.119  -6.355  1.00  0.00    -0.504 OA
ATOM     19  H   UNL     1      14.023  -1.385  -5.863  1.00  0.00     0.293 HD
ENDBRANCH  15  18
BRANCH  17  20
ATOM     20  O   UNL     1      16.367  -2.125  -4.217  1.00  0.00    -0.504 OA
ATOM     21  H   UNL     1      15.388  -2.237  -3.979  1.00  0.00     0.293 HD
ENDBRANCH  17  20
ENDBRANCH   1  12
BRANCH   2  22
ATOM     22  O   UNL     1      19.812  -1.816  -9.771  1.00  0.00    -0.502 OA
ATOM     23  H   UNL     1      19.979  -2.486 -10.513  1.00  0.00     0.293 HD
ENDBRANCH   2  22
BRANCH   6  24
ATOM     24  O   UNL     1      25.007  -1.053  -8.875  1.00  0.00    -0.507 OA
ATOM     25  H   UNL     1      24.768  -1.407  -9.789  1.00  0.00     0.293 HD
ENDBRANCH   6  24
BRANCH   8  26
ATOM     26  O   UNL     1      25.122  -1.577  -4.103  1.00  0.00    -0.508 OA
ATOM     27  H   UNL     1      25.178  -0.778  -3.483  1.00  0.00     0.293 HD
ENDBRANCH   8  26
TORSDOF 6
ENDMDL
MODEL 2
REMARK VINA RESULT:     0.071      1.260      2.218
REMARK INTER + INTRA:           0.547
REMARK INTER:                   0.052
REMARK INTRA:                   0.495
REMARK UNBOUND:                 0.461
REMARK SMILES O=c1c(O)c(-c2ccc(O)c(O)c2)oc2cc(O)cc(O)c12
REMARK SMILES IDX 5 1 3 2 2 3 1 4 22 5 20 6 19 7 17 8 16 9 15 10 14 11 6 12
REMARK SMILES IDX 7 13 8 14 9 15 13 16 11 17 10 18 12 20 4 22 21 24 18 26
REMARK H PARENT 10 19 12 21 4 23 21 25 18 27
REMARK Flexibility Score: inf
ROOT
ATOM      1  C   UNL     1      19.031  -1.826  -7.095  1.00  0.00     0.180 A 
ATOM      2  C   UNL     1      18.959  -1.924  -8.496  1.00  0.00     0.208 A 
ATOM      3  C   UNL     1      20.145  -1.861  -9.244  1.00  0.00     0.238 A 
ATOM      4  O   UNL     1      20.080  -2.003 -10.493  1.00  0.00    -0.285 OA
ATOM      5  C   UNL     1      21.386  -1.686  -8.586  1.00  0.00     0.111 A 
ATOM      6  C   UNL     1      22.645  -1.569  -9.247  1.00  0.00     0.134 A 
ATOM      7  C   UNL     1      23.823  -1.530  -8.489  1.00  0.00     0.093 A 
ATOM      8  C   UNL     1      23.781  -1.537  -7.093  1.00  0.00     0.123 A 
ATOM      9  C   UNL     1      22.553  -1.591  -6.438  1.00  0.00     0.094 A 
ATOM     10  C   UNL     1      21.364  -1.668  -7.166  1.00  0.00     0.146 A 
ATOM     11  O   UNL     1      20.215  -1.729  -6.503  1.00  0.00    -0.452 OA
ENDROOT
BRANCH   1  12
ATOM     12  C   UNL     1      17.823  -1.859  -6.240  1.00  0.00     0.025 A 
ATOM     13  C   UNL     1      17.913  -2.073  -4.854  1.00  0.00     0.016 A 
ATOM     14  C   UNL     1      16.757  -2.125  -4.070  1.00  0.00     0.051 A 
ATOM     15  C   UNL     1      15.495  -1.977  -4.661  1.00  0.00     0.157 A 
ATOM     16  C   UNL     1      16.554  -1.732  -6.830  1.00  0.00     0.062 A 
ATOM     17  C   UNL     1      15.394  -1.782  -6.048  1.00  0.00     0.158 A 
BRANCH  15  18
ATOM     18  O   UNL     1      14.344  -2.026  -3.876  1.00  0.00    -0.504 OA
ATOM     19  H   UNL     1      13.497  -1.540  -4.145  1.00  0.00     0.293 HD
ENDBRANCH  15  18
BRANCH  17  20
ATOM     20  O   UNL     1      14.154  -1.639  -6.668  1.00  0.00    -0.504 OA
ATOM     21  H   UNL     1      13.283  -1.787  -6.170  1.00  0.00     0.293 HD
ENDBRANCH  17  20
ENDBRANCH   1  12
BRANCH   2  22
ATOM     22  O   UNL     1      17.726  -2.119  -9.124  1.00  0.00    -0.502 OA
ATOM     23  H   UNL     1      17.547  -2.905  -9.737  1.00  0.00     0.293 HD
ENDBRANCH   2  22
BRANCH   6  24
ATOM     24  O   UNL     1      22.791  -1.460 -10.634  1.00  0.00    -0.507 OA
ATOM     25  H   UNL     1      22.394  -0.724 -11.197  1.00  0.00     0.293 HD
ENDBRANCH   6  24
BRANCH   8  26
ATOM     26  O   UNL     1      24.956  -1.482  -6.347  1.00  0.00    -0.508 OA
ATOM     27  H   UNL     1      25.251  -2.256  -5.764  1.00  0.00     0.293 HD
ENDBRANCH   8  26
TORSDOF 6
ENDMDL
