MODEL 1
REMARK VINA RESULT:    -0.003      0.000      0.000
REMARK INTER + INTRA:          -0.004
REMARK INTER:                  -0.004
REMARK INTRA:                   0.000
REMARK UNBOUND:                 0.000
REMARK SMILES Cc1cc(O)c2c(c1)C(=O)c1cc(O)cc(O)c1C2=O
REMARK SMILES IDX 1 1 2 2 8 3 7 4 6 5 4 6 3 7 19 8 20 9 18 10 11 11 9 12 10 13
REMARK SMILES IDX 12 14 13 15 15 16 16 17 5 18 17 20 14 22
REMARK H PARENT 5 19 17 21 14 23
REMARK Flexibility Score: inf
ROOT
ATOM      1  C   UNL     1       3.819  19.967  46.215  1.00  0.00     0.044 C 
ATOM      2  C   UNL     1       4.359  21.332  45.904  1.00  0.00    -0.047 A 
ATOM      3  C   UNL     1       3.540  22.293  45.302  1.00  0.00     0.016 A 
ATOM      4  C   UNL     1       4.026  23.586  45.037  1.00  0.00     0.038 A 
ATOM      5  C   UNL     1       5.346  23.928  45.400  1.00  0.00     0.076 A 
ATOM      6  C   UNL     1       6.166  22.957  46.020  1.00  0.00     0.127 A 
ATOM      7  C   UNL     1       5.665  21.673  46.273  1.00  0.00     0.050 A 
ATOM      8  C   UNL     1       5.831  25.310  45.149  1.00  0.00     0.201 C 
ATOM      9  O   UNL     1       6.841  25.736  45.772  1.00  0.00    -0.288 OA
ATOM     10  C   UNL     1       5.063  26.223  44.257  1.00  0.00     0.076 A 
ATOM     11  C   UNL     1       3.720  25.894  43.956  1.00  0.00     0.041 A 
ATOM     12  C   UNL     1       3.158  24.593  44.385  1.00  0.00     0.194 C 
ATOM     13  O   UNL     1       1.940  24.332  44.177  1.00  0.00    -0.289 OA
ATOM     14  C   UNL     1       2.920  26.803  43.241  1.00  0.00     0.059 A 
ATOM     15  C   UNL     1       3.442  28.021  42.809  1.00  0.00     0.120 A 
ATOM     16  C   UNL     1       4.780  28.330  43.060  1.00  0.00     0.093 A 
ATOM     17  C   UNL     1       5.605  27.434  43.746  1.00  0.00     0.131 A 
ENDROOT
BRANCH   6  18
ATOM     18  O   UNL     1       7.480  23.261  46.380  1.00  0.00    -0.507 OA
ATOM     19  H   UNL     1       8.216  22.564  46.347  1.00  0.00     0.293 HD
ENDBRANCH   6  18
BRANCH  17  20
ATOM     20  O   UNL     1       6.956  27.772  43.862  1.00  0.00    -0.507 OA
ATOM     21  H   UNL     1       7.298  28.522  44.445  1.00  0.00     0.293 HD
ENDBRANCH  17  20
BRANCH  15  22
ATOM     22  O   UNL     1       2.625  28.911  42.116  1.00  0.00    -0.508 OA
ATOM     23  H   UNL     1       2.131  29.659  42.592  1.00  0.00     0.293 HD
ENDBRANCH  15  22
TORSDOF 3
ENDMDL
MODEL 2
REMARK VINA RESULT:    -0.003      1.856      3.831
REMARK INTER + INTRA:          -0.003
REMARK INTER:                  -0.003
REMARK INTRA:                   0.000
REMARK UNBOUND:                 0.000
REMARK SMILES Cc1cc(O)c2c(c1)C(=O)c1cc(O)cc(O)c1C2=O
REMARK SMILES IDX 1 1 2 2 8 3 7 4 6 5 4 6 3 7 19 8 20 9 18 10 11 11 9 12 10 13
REMARK SMILES IDX 12 14 13 15 15 16 16 17 5 18 17 20 14 22
REMARK H PARENT 5 19 17 21 14 23
REMARK Flexibility Score: inf
ROOT
ATOM      1  C   UNL     1       9.901  24.986  48.102  1.00  0.00     0.044 C 
ATOM      2  C   UNL     1       8.623  24.836  47.329  1.00  0.00    -0.047 A 
ATOM      3  C   UNL     1       8.179  25.867  46.495  1.00  0.00     0.016 A 
ATOM      4  C   UNL     1       7.001  25.723  45.741  1.00  0.00     0.038 A 
ATOM      5  C   UNL     1       6.268  24.520  45.808  1.00  0.00     0.076 A 
ATOM      6  C   UNL     1       6.727  23.475  46.643  1.00  0.00     0.127 A 
ATOM      7  C   UNL     1       7.902  23.638  47.389  1.00  0.00     0.050 A 
ATOM      8  C   UNL     1       5.046  24.369  44.974  1.00  0.00     0.201 C 
ATOM      9  O   UNL     1       4.593  23.216  44.741  1.00  0.00    -0.288 OA
ATOM     10  C   UNL     1       4.432  25.560  44.323  1.00  0.00     0.076 A 
ATOM     11  C   UNL     1       5.207  26.738  44.211  1.00  0.00     0.041 A 
ATOM     12  C   UNL     1       6.530  26.826  44.872  1.00  0.00     0.194 C 
ATOM     13  O   UNL     1       7.249  27.851  44.711  1.00  0.00    -0.289 OA
ATOM     14  C   UNL     1       4.716  27.832  43.476  1.00  0.00     0.059 A 
ATOM     15  C   UNL     1       3.463  27.774  42.869  1.00  0.00     0.120 A 
ATOM     16  C   UNL     1       2.672  26.632  43.017  1.00  0.00     0.093 A 
ATOM     17  C   UNL     1       3.125  25.542  43.765  1.00  0.00     0.131 A 
ENDROOT
BRANCH   6  18
ATOM     18  O   UNL     1       6.017  22.278  46.740  1.00  0.00    -0.507 OA
ATOM     19  H   UNL     1       6.467  21.411  47.014  1.00  0.00     0.293 HD
ENDBRANCH   6  18
BRANCH  17  20
ATOM     20  O   UNL     1       2.231  24.484  43.954  1.00  0.00    -0.507 OA
ATOM     21  H   UNL     1       1.958  23.842  43.223  1.00  0.00     0.293 HD
ENDBRANCH  17  20
BRANCH  15  22
ATOM     22  O   UNL     1       3.005  28.864  42.132  1.00  0.00    -0.508 OA
ATOM     23  H   UNL     1       3.645  29.554  41.752  1.00  0.00     0.293 HD
ENDBRANCH  15  22
TORSDOF 3
ENDMDL
MODEL 3
REMARK VINA RESULT:     0.000      7.675     12.204
REMARK INTER + INTRA:           0.000
REMARK INTER:                   0.000
REMARK INTRA:                   0.000
REMARK UNBOUND:                 0.000
REMARK SMILES Cc1cc(O)c2c(c1)C(=O)c1cc(O)cc(O)c1C2=O
REMARK SMILES IDX 1 1 2 2 8 3 7 4 6 5 4 6 3 7 19 8 20 9 18 10 11 11 9 12 10 13
REMARK SMILES IDX 12 14 13 15 15 16 16 17 5 18 17 20 14 22
REMARK H PARENT 5 19 17 21 14 23
REMARK Flexibility Score: inf
ROOT
ATOM      1  C   UNL     1       4.464  18.393  45.693  1.00  0.00     0.044 C 
ATOM      2  C   UNL     1       5.087  17.830  46.936  1.00  0.00    -0.047 A 
ATOM      3  C   UNL     1       5.107  16.447  47.150  1.00  0.00     0.016 A 
ATOM      4  C   UNL     1       5.717  15.908  48.296  1.00  0.00     0.038 A 
ATOM      5  C   UNL     1       6.336  16.764  49.231  1.00  0.00     0.076 A 
ATOM      6  C   UNL     1       6.325  18.160  49.003  1.00  0.00     0.127 A 
ATOM      7  C   UNL     1       5.709  18.679  47.858  1.00  0.00     0.050 A 
ATOM      8  C   UNL     1       7.012  16.174  50.416  1.00  0.00     0.201 C 
ATOM      9  O   UNL     1       7.859  16.859  51.052  1.00  0.00    -0.288 OA
ATOM     10  C   UNL     1       6.779  14.749  50.780  1.00  0.00     0.076 A 
ATOM     11  C   UNL     1       6.214  13.892  49.806  1.00  0.00     0.041 A 
ATOM     12  C   UNL     1       5.721  14.444  48.523  1.00  0.00     0.194 C 
ATOM     13  O   UNL     1       5.283  13.668  47.628  1.00  0.00    -0.289 OA
ATOM     14  C   UNL     1       6.115  12.512  50.061  1.00  0.00     0.059 A 
ATOM     15  C   UNL     1       6.552  11.981  51.272  1.00  0.00     0.120 A 
ATOM     16  C   UNL     1       7.064  12.828  52.257  1.00  0.00     0.093 A 
ATOM     17  C   UNL     1       7.150  14.207  52.040  1.00  0.00     0.131 A 
ENDROOT
BRANCH   6  18
ATOM     18  O   UNL     1       6.918  19.034  49.916  1.00  0.00    -0.507 OA
ATOM     19  H   UNL     1       7.781  18.800  50.394  1.00  0.00     0.293 HD
ENDBRANCH   6  18
BRANCH  17  20
ATOM     20  O   UNL     1       7.573  14.995  53.113  1.00  0.00    -0.507 OA
ATOM     21  H   UNL     1       8.471  15.458  53.150  1.00  0.00     0.293 HD
ENDBRANCH  17  20
BRANCH  15  22
ATOM     22  O   UNL     1       6.458  10.609  51.495  1.00  0.00    -0.508 OA
ATOM     23  H   UNL     1       5.567  10.126  51.461  1.00  0.00     0.293 HD
ENDBRANCH  15  22
TORSDOF 3
ENDMDL
MODEL 4
REMARK VINA RESULT:     0.000     13.433     16.345
REMARK INTER + INTRA:           0.000
REMARK INTER:                   0.000
REMARK INTRA:                   0.000
REMARK UNBOUND:                 0.000
REMARK SMILES Cc1cc(O)c2c(c1)C(=O)c1cc(O)cc(O)c1C2=O
REMARK SMILES IDX 1 1 2 2 8 3 7 4 6 5 4 6 3 7 19 8 20 9 18 10 11 11 9 12 10 13
REMARK SMILES IDX 12 14 13 15 15 16 16 17 5 18 17 20 14 22
REMARK H PARENT 5 19 17 21 14 23
REMARK Flexibility Score: inf
ROOT
ATOM      1  C   UNL     1      17.982  19.612  59.613  1.00  0.00     0.044 C 
ATOM      2  C   UNL     1      16.780  19.224  58.803  1.00  0.00    -0.047 A 
ATOM      3  C   UNL     1      16.372  20.017  57.724  1.00  0.00     0.016 A 
ATOM      4  C   UNL     1      15.267  19.646  56.939  1.00  0.00     0.038 A 
ATOM      5  C   UNL     1      14.573  18.451  57.223  1.00  0.00     0.076 A 
ATOM      6  C   UNL     1      14.997  17.646  58.306  1.00  0.00     0.127 A 
ATOM      7  C   UNL     1      16.098  18.034  59.080  1.00  0.00     0.050 A 
ATOM      8  C   UNL     1      13.432  18.052  56.358  1.00  0.00     0.201 C 
ATOM      9  O   UNL     1      13.040  16.854  56.361  1.00  0.00    -0.288 OA
ATOM     10  C   UNL     1      12.832  19.032  55.410  1.00  0.00     0.076 A 
ATOM     11  C   UNL     1      13.573  20.195  55.089  1.00  0.00     0.041 A 
ATOM     12  C   UNL     1      14.832  20.498  55.809  1.00  0.00     0.194 C 
ATOM     13  O   UNL     1      15.526  21.498  55.472  1.00  0.00    -0.289 OA
ATOM     14  C   UNL     1      13.107  21.067  54.090  1.00  0.00     0.059 A 
ATOM     15  C   UNL     1      11.912  20.808  53.422  1.00  0.00     0.120 A 
ATOM     16  C   UNL     1      11.152  19.689  53.768  1.00  0.00     0.093 A 
ATOM     17  C   UNL     1      11.578  18.819  54.775  1.00  0.00     0.131 A 
ENDROOT
BRANCH   6  18
ATOM     18  O   UNL     1      14.324  16.464  58.621  1.00  0.00    -0.507 OA
ATOM     19  H   UNL     1      13.786  15.956  57.927  1.00  0.00     0.293 HD
ENDBRANCH   6  18
BRANCH  17  20
ATOM     20  O   UNL     1      10.710  17.785  55.134  1.00  0.00    -0.507 OA
ATOM     21  H   UNL     1       9.884  17.917  55.702  1.00  0.00     0.293 HD
ENDBRANCH  17  20
BRANCH  15  22
ATOM     22  O   UNL     1      11.480  21.679  52.424  1.00  0.00    -0.508 OA
ATOM     23  H   UNL     1      10.505  21.943  52.335  1.00  0.00     0.293 HD
ENDBRANCH  15  22
TORSDOF 3
ENDMDL
MODEL 5
REMARK VINA RESULT:     0.000     15.563     18.731
REMARK INTER + INTRA:           0.000
REMARK INTER:                   0.000
REMARK INTRA:                   0.000
REMARK UNBOUND:                 0.000
REMARK SMILES Cc1cc(O)c2c(c1)C(=O)c1cc(O)cc(O)c1C2=O
REMARK SMILES IDX 1 1 2 2 8 3 7 4 6 5 4 6 3 7 19 8 20 9 18 10 11 11 9 12 10 13
REMARK SMILES IDX 12 14 13 15 15 16 16 17 5 18 17 20 14 22
REMARK H PARENT 5 19 17 21 14 23
REMARK Flexibility Score: inf
ROOT
ATOM      1  C   UNL     1      18.425  16.839  61.080  1.00  0.00     0.044 C 
ATOM      2  C   UNL     1      17.223  16.451  60.270  1.00  0.00    -0.047 A 
ATOM      3  C   UNL     1      16.815  17.244  59.192  1.00  0.00     0.016 A 
ATOM      4  C   UNL     1      15.710  16.872  58.406  1.00  0.00     0.038 A 
ATOM      5  C   UNL     1      15.016  15.677  58.691  1.00  0.00     0.076 A 
ATOM      6  C   UNL     1      15.441  14.873  59.774  1.00  0.00     0.127 A 
ATOM      7  C   UNL     1      16.542  15.261  60.548  1.00  0.00     0.050 A 
ATOM      8  C   UNL     1      13.875  15.279  57.826  1.00  0.00     0.201 C 
ATOM      9  O   UNL     1      13.484  14.080  57.829  1.00  0.00    -0.288 OA
ATOM     10  C   UNL     1      13.276  16.259  56.878  1.00  0.00     0.076 A 
ATOM     11  C   UNL     1      14.016  17.421  56.557  1.00  0.00     0.041 A 
ATOM     12  C   UNL     1      15.275  17.725  57.277  1.00  0.00     0.194 C 
ATOM     13  O   UNL     1      15.969  18.725  56.940  1.00  0.00    -0.289 OA
ATOM     14  C   UNL     1      13.551  18.294  55.558  1.00  0.00     0.059 A 
ATOM     15  C   UNL     1      12.355  18.035  54.889  1.00  0.00     0.120 A 
ATOM     16  C   UNL     1      11.596  16.916  55.235  1.00  0.00     0.093 A 
ATOM     17  C   UNL     1      12.022  16.046  56.243  1.00  0.00     0.131 A 
ENDROOT
BRANCH   6  18
ATOM     18  O   UNL     1      14.767  13.691  60.088  1.00  0.00    -0.507 OA
ATOM     19  H   UNL     1      15.202  12.960  60.640  1.00  0.00     0.293 HD
ENDBRANCH   6  18
BRANCH  17  20
ATOM     20  O   UNL     1      11.153  15.012  56.602  1.00  0.00    -0.507 OA
ATOM     21  H   UNL     1      10.327  15.144  57.169  1.00  0.00     0.293 HD
ENDBRANCH  17  20
BRANCH  15  22
ATOM     22  O   UNL     1      11.923  18.906  53.892  1.00  0.00    -0.508 OA
ATOM     23  H   UNL     1      10.998  18.829  53.485  1.00  0.00     0.293 HD
ENDBRANCH  15  22
TORSDOF 3
ENDMDL
MODEL 6
REMARK VINA RESULT:     0.000     12.198     13.905
REMARK INTER + INTRA:           0.000
REMARK INTER:                   0.000
REMARK INTRA:                   0.000
REMARK UNBOUND:                 0.000
REMARK SMILES Cc1cc(O)c2c(c1)C(=O)c1cc(O)cc(O)c1C2=O
REMARK SMILES IDX 1 1 2 2 8 3 7 4 6 5 4 6 3 7 19 8 20 9 18 10 11 11 9 12 10 13
REMARK SMILES IDX 12 14 13 15 15 16 16 17 5 18 17 20 14 22
REMARK H PARENT 5 19 17 21 14 23
REMARK Flexibility Score: inf
ROOT
ATOM      1  C   UNL     1      17.815  24.985  53.852  1.00  0.00     0.044 C 
ATOM      2  C   UNL     1      17.425  24.436  52.511  1.00  0.00    -0.047 A 
ATOM      3  C   UNL     1      18.070  24.884  51.353  1.00  0.00     0.016 A 
ATOM      4  C   UNL     1      17.735  24.353  50.095  1.00  0.00     0.038 A 
ATOM      5  C   UNL     1      16.755  23.343  49.998  1.00  0.00     0.076 A 
ATOM      6  C   UNL     1      16.115  22.884  51.173  1.00  0.00     0.127 A 
ATOM      7  C   UNL     1      16.459  23.428  52.417  1.00  0.00     0.050 A 
ATOM      8  C   UNL     1      16.441  22.764  48.665  1.00  0.00     0.201 C 
ATOM      9  O   UNL     1      15.860  21.647  48.595  1.00  0.00    -0.288 OA
ATOM     10  C   UNL     1      16.914  23.439  47.425  1.00  0.00     0.076 A 
ATOM     11  C   UNL     1      17.942  24.405  47.537  1.00  0.00     0.041 A 
ATOM     12  C   UNL     1      18.411  24.843  48.872  1.00  0.00     0.194 C 
ATOM     13  O   UNL     1      19.376  25.652  48.968  1.00  0.00    -0.289 OA
ATOM     14  C   UNL     1      18.515  24.956  46.376  1.00  0.00     0.059 A 
ATOM     15  C   UNL     1      18.067  24.573  45.114  1.00  0.00     0.120 A 
ATOM     16  C   UNL     1      17.020  23.657  44.997  1.00  0.00     0.093 A 
ATOM     17  C   UNL     1      16.415  23.114  46.134  1.00  0.00     0.131 A 
ENDROOT
BRANCH   6  18
ATOM     18  O   UNL     1      15.133  21.895  51.108  1.00  0.00    -0.507 OA
ATOM     19  H   UNL     1      14.477  21.845  50.336  1.00  0.00     0.293 HD
ENDBRANCH   6  18
BRANCH  17  20
ATOM     20  O   UNL     1      15.305  22.289  45.933  1.00  0.00    -0.507 OA
ATOM     21  H   UNL     1      15.236  21.613  45.185  1.00  0.00     0.293 HD
ENDBRANCH  17  20
BRANCH  15  22
ATOM     22  O   UNL     1      18.661  25.121  43.979  1.00  0.00    -0.508 OA
ATOM     23  H   UNL     1      19.669  25.186  43.887  1.00  0.00     0.293 HD
ENDBRANCH  15  22
TORSDOF 3
ENDMDL
MODEL 7
REMARK VINA RESULT:     0.000     11.625     12.979
REMARK INTER + INTRA:           0.000
REMARK INTER:                   0.000
REMARK INTRA:                   0.000
REMARK UNBOUND:                 0.000
REMARK SMILES Cc1cc(O)c2c(c1)C(=O)c1cc(O)cc(O)c1C2=O
REMARK SMILES IDX 1 1 2 2 8 3 7 4 6 5 4 6 3 7 19 8 20 9 18 10 11 11 9 12 10 13
REMARK SMILES IDX 12 14 13 15 15 16 16 17 5 18 17 20 14 22
REMARK H PARENT 5 19 17 21 14 23
REMARK Flexibility Score: inf
ROOT
ATOM      1  C   UNL     1      16.659  26.033  52.537  1.00  0.00     0.044 C 
ATOM      2  C   UNL     1      16.470  25.726  51.081  1.00  0.00    -0.047 A 
ATOM      3  C   UNL     1      17.181  26.443  50.112  1.00  0.00     0.016 A 
ATOM      4  C   UNL     1      17.036  26.142  48.747  1.00  0.00     0.038 A 
ATOM      5  C   UNL     1      16.183  25.092  48.346  1.00  0.00     0.076 A 
ATOM      6  C   UNL     1      15.476  24.362  49.330  1.00  0.00     0.127 A 
ATOM      7  C   UNL     1      15.631  24.679  50.685  1.00  0.00     0.050 A 
ATOM      8  C   UNL     1      16.072  24.760  46.902  1.00  0.00     0.201 C 
ATOM      9  O   UNL     1      15.621  23.634  46.557  1.00  0.00    -0.288 OA
ATOM     10  C   UNL     1      16.597  25.702  45.874  1.00  0.00     0.076 A 
ATOM     11  C   UNL     1      17.501  26.710  46.287  1.00  0.00     0.041 A 
ATOM     12  C   UNL     1      17.780  26.916  47.727  1.00  0.00     0.194 C 
ATOM     13  O   UNL     1      18.640  27.767  48.087  1.00  0.00    -0.289 OA
ATOM     14  C   UNL     1      18.130  27.522  45.326  1.00  0.00     0.059 A 
ATOM     15  C   UNL     1      17.858  27.357  43.969  1.00  0.00     0.120 A 
ATOM     16  C   UNL     1      16.930  26.397  43.559  1.00  0.00     0.093 A 
ATOM     17  C   UNL     1      16.271  25.594  44.495  1.00  0.00     0.131 A 
ENDROOT
BRANCH   6  18
ATOM     18  O   UNL     1      14.615  23.326  48.964  1.00  0.00    -0.507 OA
ATOM     19  H   UNL     1      14.852  22.353  49.125  1.00  0.00     0.293 HD
ENDBRANCH   6  18
BRANCH  17  20
ATOM     20  O   UNL     1      15.281  24.735  44.011  1.00  0.00    -0.507 OA
ATOM     21  H   UNL     1      14.644  24.223  44.605  1.00  0.00     0.293 HD
ENDBRANCH  17  20
BRANCH  15  22
ATOM     22  O   UNL     1      18.506  28.163  43.036  1.00  0.00    -0.508 OA
ATOM     23  H   UNL     1      18.281  29.147  42.937  1.00  0.00     0.293 HD
ENDBRANCH  15  22
TORSDOF 3
ENDMDL
MODEL 8
REMARK VINA RESULT:     0.000     13.735     14.813
REMARK INTER + INTRA:           0.000
REMARK INTER:                   0.000
REMARK INTRA:                   0.000
REMARK UNBOUND:                 0.000
REMARK SMILES Cc1cc(O)c2c(c1)C(=O)c1cc(O)cc(O)c1C2=O
REMARK SMILES IDX 1 1 2 2 8 3 7 4 6 5 4 6 3 7 19 8 20 9 18 10 11 11 9 12 10 13
REMARK SMILES IDX 12 14 13 15 15 16 16 17 5 18 17 20 14 22
REMARK H PARENT 5 19 17 21 14 23
REMARK Flexibility Score: inf
ROOT
ATOM      1  C   UNL     1      18.333  25.133  51.409  1.00  0.00     0.044 C 
ATOM      2  C   UNL     1      18.346  25.006  49.914  1.00  0.00    -0.047 A 
ATOM      3  C   UNL     1      18.992  25.968  49.131  1.00  0.00     0.016 A 
ATOM      4  C   UNL     1      19.038  25.842  47.731  1.00  0.00     0.038 A 
ATOM      5  C   UNL     1      18.446  24.723  47.108  1.00  0.00     0.076 A 
ATOM      6  C   UNL     1      17.805  23.746  47.904  1.00  0.00     0.127 A 
ATOM      7  C   UNL     1      17.766  23.891  49.297  1.00  0.00     0.050 A 
ATOM      8  C   UNL     1      18.538  24.584  45.631  1.00  0.00     0.201 C 
ATOM      9  O   UNL     1      18.349  23.456  45.101  1.00  0.00    -0.288 OA
ATOM     10  C   UNL     1      18.966  25.740  44.794  1.00  0.00     0.076 A 
ATOM     11  C   UNL     1      19.614  26.825  45.431  1.00  0.00     0.041 A 
ATOM     12  C   UNL     1      19.711  26.873  46.908  1.00  0.00     0.194 C 
ATOM     13  O   UNL     1      20.351  27.805  47.469  1.00  0.00    -0.289 OA
ATOM     14  C   UNL     1      20.161  27.864  44.658  1.00  0.00     0.059 A 
ATOM     15  C   UNL     1      20.056  27.846  43.268  1.00  0.00     0.120 A 
ATOM     16  C   UNL     1      19.375  26.803  42.637  1.00  0.00     0.093 A 
ATOM     17  C   UNL     1      18.798  25.771  43.383  1.00  0.00     0.131 A 
ENDROOT
BRANCH   6  18
ATOM     18  O   UNL     1      17.199  22.635  47.316  1.00  0.00    -0.507 OA
ATOM     19  H   UNL     1      17.093  21.759  47.816  1.00  0.00     0.293 HD
ENDBRANCH   6  18
BRANCH  17  20
ATOM     20  O   UNL     1      18.043  24.825  42.685  1.00  0.00    -0.507 OA
ATOM     21  H   UNL     1      18.133  24.657  41.693  1.00  0.00     0.293 HD
ENDBRANCH  17  20
BRANCH  15  22
ATOM     22  O   UNL     1      20.621  28.879  42.523  1.00  0.00    -0.508 OA
ATOM     23  H   UNL     1      20.816  28.774  41.533  1.00  0.00     0.293 HD
ENDBRANCH  15  22
TORSDOF 3
ENDMDL
MODEL 9
REMARK VINA RESULT:     0.000     16.344     17.054
REMARK INTER + INTRA:           0.000
REMARK INTER:                   0.000
REMARK INTRA:                   0.000
REMARK UNBOUND:                 0.000
REMARK SMILES Cc1cc(O)c2c(c1)C(=O)c1cc(O)cc(O)c1C2=O
REMARK SMILES IDX 1 1 2 2 8 3 7 4 6 5 4 6 3 7 19 8 20 9 18 10 11 11 9 12 10 13
REMARK SMILES IDX 12 14 13 15 15 16 16 17 5 18 17 20 14 22
REMARK H PARENT 5 19 17 21 14 23
REMARK Flexibility Score: inf
ROOT
ATOM      1  C   UNL     1      20.648  23.715  53.411  1.00  0.00     0.044 C 
ATOM      2  C   UNL     1      20.629  23.291  51.972  1.00  0.00    -0.047 A 
ATOM      3  C   UNL     1      20.990  24.195  50.967  1.00  0.00     0.016 A 
ATOM      4  C   UNL     1      21.008  23.799  49.618  1.00  0.00     0.038 A 
ATOM      5  C   UNL     1      20.680  22.471  49.273  1.00  0.00     0.076 A 
ATOM      6  C   UNL     1      20.327  21.558  50.293  1.00  0.00     0.127 A 
ATOM      7  C   UNL     1      20.312  21.971  51.631  1.00  0.00     0.050 A 
ATOM      8  C   UNL     1      20.741  22.058  47.846  1.00  0.00     0.201 C 
ATOM      9  O   UNL     1      20.809  20.832  47.558  1.00  0.00    -0.288 OA
ATOM     10  C   UNL     1      20.842  23.085  46.772  1.00  0.00     0.076 A 
ATOM     11  C   UNL     1      21.234  24.396  47.132  1.00  0.00     0.041 A 
ATOM     12  C   UNL     1      21.377  24.766  48.559  1.00  0.00     0.194 C 
ATOM     13  O   UNL     1      21.795  25.915  48.875  1.00  0.00    -0.289 OA
ATOM     14  C   UNL     1      21.480  25.353  46.131  1.00  0.00     0.059 A 
ATOM     15  C   UNL     1      21.326  25.027  44.785  1.00  0.00     0.120 A 
ATOM     16  C   UNL     1      20.892  23.750  44.425  1.00  0.00     0.093 A 
ATOM     17  C   UNL     1      20.614  22.788  45.401  1.00  0.00     0.131 A 
ENDROOT
BRANCH   6  18
ATOM     18  O   UNL     1      19.985  20.241  49.981  1.00  0.00    -0.507 OA
ATOM     19  H   UNL     1      19.019  19.951  49.877  1.00  0.00     0.293 HD
ENDBRANCH   6  18
BRANCH  17  20
ATOM     20  O   UNL     1      20.082  21.572  44.963  1.00  0.00    -0.507 OA
ATOM     21  H   UNL     1      20.247  21.186  44.044  1.00  0.00     0.293 HD
ENDBRANCH  17  20
BRANCH  15  22
ATOM     22  O   UNL     1      21.592  25.987  43.811  1.00  0.00    -0.508 OA
ATOM     23  H   UNL     1      20.896  26.253  43.123  1.00  0.00     0.293 HD
ENDBRANCH  15  22
TORSDOF 3
ENDMDL
