MODEL 1
REMARK VINA RESULT:    -4.386      0.000      0.000
REMARK INTER + INTRA:          -9.149
REMARK INTER:                  -7.463
REMARK INTRA:                  -1.685
REMARK UNBOUND:                -1.685
REMARK SMILES CCCCCCCCCCCCCC(=O)[O-]
REMARK SMILES IDX 8 1 9 2 10 3 11 4 12 5 13 6 14 7 15 8 16 9 7 10 6 11 5 12
REMARK SMILES IDX 4 13 3 14 2 15 1 16
REMARK H PARENT
REMARK Flexibility Score: inf
ROOT
ATOM      1  C   UNL     1     -22.878  18.836 -21.619  1.00  0.00     0.000 C 
ENDROOT
BRANCH   1   2
ATOM      2  C   UNL     1     -22.926  20.329 -21.260  1.00  0.00     0.000 C 
BRANCH   2   3
ATOM      3  C   UNL     1     -23.886  21.127 -22.158  1.00  0.00     0.000 C 
BRANCH   3   4
ATOM      4  C   UNL     1     -23.216  22.228 -23.004  1.00  0.00     0.000 C 
BRANCH   4   5
ATOM      5  C   UNL     1     -23.106  21.881 -24.504  1.00  0.00     0.006 C 
BRANCH   5   6
ATOM      6  C   UNL     1     -21.682  22.071 -25.043  1.00  0.00     0.053 C 
BRANCH   6   7
ATOM      7  C   UNL     1     -21.479  23.480 -25.500  1.00  0.00     0.041 C 
ATOM      8  O   UNL     1     -20.338  23.872 -25.859  1.00  0.00    -0.550 OA
ATOM      9  O   UNL     1     -22.561  24.349 -25.574  1.00  0.00    -0.550 OA
ENDBRANCH   6   7
ENDBRANCH   5   6
ENDBRANCH   4   5
ENDBRANCH   3   4
ENDBRANCH   2   3
ENDBRANCH   1   2
BRANCH   1  10
ATOM     10  C   UNL     1     -24.100  18.438 -22.461  1.00  0.00     0.000 C 
BRANCH  10  11
ATOM     11  C   UNL     1     -23.737  17.525 -23.646  1.00  0.00    -0.000 C 
BRANCH  11  12
ATOM     12  C   UNL     1     -23.260  18.259 -24.916  1.00  0.00    -0.000 C 
BRANCH  12  13
ATOM     13  C   UNL     1     -21.735  18.301 -25.111  1.00  0.00    -0.000 C 
BRANCH  13  14
ATOM     14  C   UNL     1     -21.053  16.967 -24.776  1.00  0.00    -0.000 C 
BRANCH  14  15
ATOM     15  C   UNL     1     -20.024  17.143 -23.654  1.00  0.00    -0.003 C 
ATOM     16  C   UNL     1     -20.330  16.224 -22.475  1.00  0.00     0.004 C 
ENDBRANCH  14  15
ENDBRANCH  13  14
ENDBRANCH  12  13
ENDBRANCH  11  12
ENDBRANCH  10  11
ENDBRANCH   1  10
TORSDOF 12
ENDMDL
MODEL 2
REMARK VINA RESULT:    -4.351      5.772      7.933
REMARK INTER + INTRA:          -9.089
REMARK INTER:                  -7.563
REMARK INTRA:                  -1.526
REMARK UNBOUND:                -1.685
REMARK SMILES CCCCCCCCCCCCCC(=O)[O-]
REMARK SMILES IDX 8 1 9 2 10 3 11 4 12 5 13 6 14 7 15 8 16 9 7 10 6 11 5 12
REMARK SMILES IDX 4 13 3 14 2 15 1 16
REMARK H PARENT
REMARK Flexibility Score: inf
ROOT
ATOM      1  C   UNL     1     -21.039  15.527 -22.784  1.00  0.00     0.000 C 
ENDROOT
BRANCH   1   2
ATOM      2  C   UNL     1     -21.503  15.636 -21.323  1.00  0.00     0.000 C 
BRANCH   2   3
ATOM      3  C   UNL     1     -22.345  14.430 -20.874  1.00  0.00     0.000 C 
BRANCH   3   4
ATOM      4  C   UNL     1     -23.869  14.634 -20.967  1.00  0.00     0.000 C 
BRANCH   4   5
ATOM      5  C   UNL     1     -24.540  14.943 -19.611  1.00  0.00     0.006 C 
BRANCH   5   6
ATOM      6  C   UNL     1     -25.109  13.684 -18.942  1.00  0.00     0.053 C 
BRANCH   6   7
ATOM      7  C   UNL     1     -24.659  13.601 -17.518  1.00  0.00     0.041 C 
ATOM      8  O   UNL     1     -24.948  14.519 -16.707  1.00  0.00    -0.550 OA
ATOM      9  O   UNL     1     -23.961  12.485 -17.074  1.00  0.00    -0.550 OA
ENDBRANCH   6   7
ENDBRANCH   5   6
ENDBRANCH   4   5
ENDBRANCH   3   4
ENDBRANCH   2   3
ENDBRANCH   1   2
BRANCH   1  10
ATOM     10  C   UNL     1     -20.206  16.753 -23.185  1.00  0.00     0.000 C 
BRANCH  10  11
ATOM     11  C   UNL     1     -20.836  17.553 -24.339  1.00  0.00    -0.000 C 
BRANCH  11  12
ATOM     12  C   UNL     1     -22.250  17.097 -24.755  1.00  0.00    -0.000 C 
BRANCH  12  13
ATOM     13  C   UNL     1     -23.389  18.045 -24.340  1.00  0.00    -0.000 C 
BRANCH  13  14
ATOM     14  C   UNL     1     -24.181  17.531 -23.129  1.00  0.00    -0.000 C 
BRANCH  14  15
ATOM     15  C   UNL     1     -24.242  18.590 -22.022  1.00  0.00    -0.003 C 
ATOM     16  C   UNL     1     -22.849  19.104 -21.674  1.00  0.00     0.004 C 
ENDBRANCH  14  15
ENDBRANCH  13  14
ENDBRANCH  12  13
ENDBRANCH  11  12
ENDBRANCH  10  11
ENDBRANCH   1  10
TORSDOF 12
ENDMDL
MODEL 3
REMARK VINA RESULT:    -4.334      1.499      2.557
REMARK INTER + INTRA:          -9.060
REMARK INTER:                  -7.639
REMARK INTRA:                  -1.421
REMARK UNBOUND:                -1.685
REMARK SMILES CCCCCCCCCCCCCC(=O)[O-]
REMARK SMILES IDX 8 1 9 2 10 3 11 4 12 5 13 6 14 7 15 8 16 9 7 10 6 11 5 12
REMARK SMILES IDX 4 13 3 14 2 15 1 16
REMARK H PARENT
REMARK Flexibility Score: inf
ROOT
ATOM      1  C   UNL     1     -21.781  17.906 -21.932  1.00  0.00     0.000 C 
ENDROOT
BRANCH   1   2
ATOM      2  C   UNL     1     -22.889  18.960 -21.778  1.00  0.00     0.000 C 
BRANCH   2   3
ATOM      3  C   UNL     1     -23.260  19.632 -23.111  1.00  0.00     0.000 C 
BRANCH   3   4
ATOM      4  C   UNL     1     -22.937  21.137 -23.189  1.00  0.00     0.000 C 
BRANCH   4   5
ATOM      5  C   UNL     1     -22.973  21.708 -24.623  1.00  0.00     0.006 C 
BRANCH   5   6
ATOM      6  C   UNL     1     -21.567  21.947 -25.190  1.00  0.00     0.053 C 
BRANCH   6   7
ATOM      7  C   UNL     1     -21.261  23.410 -25.231  1.00  0.00     0.041 C 
ATOM      8  O   UNL     1     -22.174  24.241 -25.481  1.00  0.00    -0.550 OA
ATOM      9  O   UNL     1     -19.979  23.860 -24.945  1.00  0.00    -0.550 OA
ENDBRANCH   6   7
ENDBRANCH   5   6
ENDBRANCH   4   5
ENDBRANCH   3   4
ENDBRANCH   2   3
ENDBRANCH   1   2
BRANCH   1  10
ATOM     10  C   UNL     1     -22.270  16.719 -22.775  1.00  0.00     0.000 C 
BRANCH  10  11
ATOM     11  C   UNL     1     -21.315  16.372 -23.930  1.00  0.00    -0.000 C 
BRANCH  11  12
ATOM     12  C   UNL     1     -20.189  17.396 -24.178  1.00  0.00    -0.000 C 
BRANCH  12  13
ATOM     13  C   UNL     1     -20.491  18.449 -25.259  1.00  0.00    -0.000 C 
BRANCH  13  14
ATOM     14  C   UNL     1     -21.557  17.986 -26.261  1.00  0.00    -0.000 C 
BRANCH  14  15
ATOM     15  C   UNL     1     -21.156  18.346 -27.696  1.00  0.00    -0.003 C 
ATOM     16  C   UNL     1     -20.435  17.185 -28.376  1.00  0.00     0.004 C 
ENDBRANCH  14  15
ENDBRANCH  13  14
ENDBRANCH  12  13
ENDBRANCH  11  12
ENDBRANCH  10  11
ENDBRANCH   1  10
TORSDOF 12
ENDMDL
MODEL 4
REMARK VINA RESULT:    -4.300      1.411      2.439
REMARK INTER + INTRA:          -9.001
REMARK INTER:                  -7.309
REMARK INTRA:                  -1.692
REMARK UNBOUND:                -1.685
REMARK SMILES CCCCCCCCCCCCCC(=O)[O-]
REMARK SMILES IDX 8 1 9 2 10 3 11 4 12 5 13 6 14 7 15 8 16 9 7 10 6 11 5 12
REMARK SMILES IDX 4 13 3 14 2 15 1 16
REMARK H PARENT
REMARK Flexibility Score: inf
ROOT
ATOM      1  C   UNL     1     -23.971  17.487 -23.402  1.00  0.00     0.000 C 
ENDROOT
BRANCH   1   2
ATOM      2  C   UNL     1     -24.012  18.285 -22.090  1.00  0.00     0.000 C 
BRANCH   2   3
ATOM      3  C   UNL     1     -22.871  19.310 -21.981  1.00  0.00     0.000 C 
BRANCH   3   4
ATOM      4  C   UNL     1     -23.211  20.572 -21.164  1.00  0.00     0.000 C 
BRANCH   4   5
ATOM      5  C   UNL     1     -24.007  21.631 -21.956  1.00  0.00     0.006 C 
BRANCH   5   6
ATOM      6  C   UNL     1     -23.094  22.558 -22.771  1.00  0.00     0.053 C 
BRANCH   6   7
ATOM      7  C   UNL     1     -23.387  22.427 -24.231  1.00  0.00     0.041 C 
ATOM      8  O   UNL     1     -22.693  21.660 -24.950  1.00  0.00    -0.550 OA
ATOM      9  O   UNL     1     -24.455  23.115 -24.791  1.00  0.00    -0.550 OA
ENDBRANCH   6   7
ENDBRANCH   5   6
ENDBRANCH   4   5
ENDBRANCH   3   4
ENDBRANCH   2   3
ENDBRANCH   1   2
BRANCH   1  10
ATOM     10  C   UNL     1     -23.146  18.227 -24.466  1.00  0.00     0.000 C 
BRANCH  10  11
ATOM     11  C   UNL     1     -22.539  17.280 -25.516  1.00  0.00    -0.000 C 
BRANCH  11  12
ATOM     12  C   UNL     1     -21.228  16.587 -25.093  1.00  0.00    -0.000 C 
BRANCH  12  13
ATOM     13  C   UNL     1     -20.343  17.398 -24.131  1.00  0.00    -0.000 C 
BRANCH  13  14
ATOM     14  C   UNL     1     -20.232  16.758 -22.740  1.00  0.00    -0.000 C 
BRANCH  14  15
ATOM     15  C   UNL     1     -20.985  15.424 -22.687  1.00  0.00    -0.003 C 
ATOM     16  C   UNL     1     -21.584  15.182 -21.305  1.00  0.00     0.004 C 
ENDBRANCH  14  15
ENDBRANCH  13  14
ENDBRANCH  12  13
ENDBRANCH  11  12
ENDBRANCH  10  11
ENDBRANCH   1  10
TORSDOF 12
ENDMDL
MODEL 5
REMARK VINA RESULT:    -4.278      4.582      6.915
REMARK INTER + INTRA:          -8.965
REMARK INTER:                  -7.240
REMARK INTRA:                  -1.724
REMARK UNBOUND:                -1.685
REMARK SMILES CCCCCCCCCCCCCC(=O)[O-]
REMARK SMILES IDX 8 1 9 2 10 3 11 4 12 5 13 6 14 7 15 8 16 9 7 10 6 11 5 12
REMARK SMILES IDX 4 13 3 14 2 15 1 16
REMARK H PARENT
REMARK Flexibility Score: inf
ROOT
ATOM      1  C   UNL     1     -21.937  17.661 -25.434  1.00  0.00     0.000 C 
ENDROOT
BRANCH   1   2
ATOM      2  C   UNL     1     -20.565  18.150 -24.945  1.00  0.00     0.000 C 
BRANCH   2   3
ATOM      3  C   UNL     1     -19.939  17.215 -23.897  1.00  0.00     0.000 C 
BRANCH   3   4
ATOM      4  C   UNL     1     -20.858  16.078 -23.413  1.00  0.00     0.000 C 
BRANCH   4   5
ATOM      5  C   UNL     1     -20.569  15.616 -21.968  1.00  0.00     0.006 C 
BRANCH   5   6
ATOM      6  C   UNL     1     -20.173  14.135 -21.898  1.00  0.00     0.053 C 
BRANCH   6   7
ATOM      7  C   UNL     1     -21.033  13.409 -20.914  1.00  0.00     0.041 C 
ATOM      8  O   UNL     1     -21.185  13.863 -19.750  1.00  0.00    -0.550 OA
ATOM      9  O   UNL     1     -21.706  12.255 -21.296  1.00  0.00    -0.550 OA
ENDBRANCH   6   7
ENDBRANCH   5   6
ENDBRANCH   4   5
ENDBRANCH   3   4
ENDBRANCH   2   3
ENDBRANCH   1   2
BRANCH   1  10
ATOM     10  C   UNL     1     -23.053  18.604 -24.962  1.00  0.00     0.000 C 
BRANCH  10  11
ATOM     11  C   UNL     1     -22.516  19.852 -24.239  1.00  0.00    -0.000 C 
BRANCH  11  12
ATOM     12  C   UNL     1     -22.991  20.019 -22.781  1.00  0.00    -0.000 C 
BRANCH  12  13
ATOM     13  C   UNL     1     -22.878  18.756 -21.909  1.00  0.00    -0.000 C 
BRANCH  13  14
ATOM     14  C   UNL     1     -24.240  18.117 -21.605  1.00  0.00    -0.000 C 
BRANCH  14  15
ATOM     15  C   UNL     1     -24.256  16.638 -22.008  1.00  0.00    -0.003 C 
ATOM     16  C   UNL     1     -24.065  15.733 -20.795  1.00  0.00     0.004 C 
ENDBRANCH  14  15
ENDBRANCH  13  14
ENDBRANCH  12  13
ENDBRANCH  11  12
ENDBRANCH  10  11
ENDBRANCH   1  10
TORSDOF 12
ENDMDL
MODEL 6
REMARK VINA RESULT:    -4.270      1.051      3.262
REMARK INTER + INTRA:          -8.951
REMARK INTER:                  -7.301
REMARK INTRA:                  -1.650
REMARK UNBOUND:                -1.685
REMARK SMILES CCCCCCCCCCCCCC(=O)[O-]
REMARK SMILES IDX 8 1 9 2 10 3 11 4 12 5 13 6 14 7 15 8 16 9 7 10 6 11 5 12
REMARK SMILES IDX 4 13 3 14 2 15 1 16
REMARK H PARENT
REMARK Flexibility Score: inf
ROOT
ATOM      1  C   UNL     1     -19.960  18.460 -24.627  1.00  0.00     0.000 C 
ENDROOT
BRANCH   1   2
ATOM      2  C   UNL     1     -21.167  18.916 -25.461  1.00  0.00     0.000 C 
BRANCH   2   3
ATOM      3  C   UNL     1     -21.393  20.436 -25.399  1.00  0.00     0.000 C 
BRANCH   3   4
ATOM      4  C   UNL     1     -22.793  20.862 -24.917  1.00  0.00     0.000 C 
BRANCH   4   5
ATOM      5  C   UNL     1     -22.852  22.306 -24.374  1.00  0.00     0.006 C 
BRANCH   5   6
ATOM      6  C   UNL     1     -21.619  23.129 -24.772  1.00  0.00     0.053 C 
BRANCH   6   7
ATOM      7  C   UNL     1     -22.006  24.233 -25.703  1.00  0.00     0.041 C 
ATOM      8  O   UNL     1     -21.201  24.630 -26.585  1.00  0.00    -0.550 OA
ATOM      9  O   UNL     1     -23.275  24.794 -25.627  1.00  0.00    -0.550 OA
ENDBRANCH   6   7
ENDBRANCH   5   6
ENDBRANCH   4   5
ENDBRANCH   3   4
ENDBRANCH   2   3
ENDBRANCH   1   2
BRANCH   1  10
ATOM     10  C   UNL     1     -20.245  17.114 -23.944  1.00  0.00     0.000 C 
BRANCH  10  11
ATOM     11  C   UNL     1     -21.674  16.604 -24.202  1.00  0.00    -0.000 C 
BRANCH  11  12
ATOM     12  C   UNL     1     -22.637  16.721 -23.003  1.00  0.00    -0.000 C 
BRANCH  12  13
ATOM     13  C   UNL     1     -23.938  17.491 -23.284  1.00  0.00    -0.000 C 
BRANCH  13  14
ATOM     14  C   UNL     1     -24.202  18.609 -22.266  1.00  0.00    -0.000 C 
BRANCH  14  15
ATOM     15  C   UNL     1     -22.895  19.085 -21.622  1.00  0.00    -0.003 C 
ATOM     16  C   UNL     1     -23.007  20.532 -21.151  1.00  0.00     0.004 C 
ENDBRANCH  14  15
ENDBRANCH  13  14
ENDBRANCH  12  13
ENDBRANCH  11  12
ENDBRANCH  10  11
ENDBRANCH   1  10
TORSDOF 12
ENDMDL
MODEL 7
REMARK VINA RESULT:    -4.249      1.206      2.179
REMARK INTER + INTRA:          -8.915
REMARK INTER:                  -7.597
REMARK INTRA:                  -1.318
REMARK UNBOUND:                -1.685
REMARK SMILES CCCCCCCCCCCCCC(=O)[O-]
REMARK SMILES IDX 8 1 9 2 10 3 11 4 12 5 13 6 14 7 15 8 16 9 7 10 6 11 5 12
REMARK SMILES IDX 4 13 3 14 2 15 1 16
REMARK H PARENT
REMARK Flexibility Score: inf
ROOT
ATOM      1  C   UNL     1     -23.240  19.549 -22.701  1.00  0.00     0.000 C 
ENDROOT
BRANCH   1   2
ATOM      2  C   UNL     1     -23.260  20.969 -22.113  1.00  0.00     0.000 C 
BRANCH   2   3
ATOM      3  C   UNL     1     -23.196  22.061 -23.194  1.00  0.00     0.000 C 
BRANCH   3   4
ATOM      4  C   UNL     1     -22.887  21.549 -24.614  1.00  0.00     0.000 C 
BRANCH   4   5
ATOM      5  C   UNL     1     -21.598  22.142 -25.223  1.00  0.00     0.006 C 
BRANCH   5   6
ATOM      6  C   UNL     1     -21.498  23.659 -25.013  1.00  0.00     0.053 C 
BRANCH   6   7
ATOM      7  C   UNL     1     -20.933  24.319 -26.229  1.00  0.00     0.041 C 
ATOM      8  O   UNL     1     -19.691  24.310 -26.437  1.00  0.00    -0.550 OA
ATOM      9  O   UNL     1     -21.782  24.905 -27.160  1.00  0.00    -0.550 OA
ENDBRANCH   6   7
ENDBRANCH   5   6
ENDBRANCH   4   5
ENDBRANCH   3   4
ENDBRANCH   2   3
ENDBRANCH   1   2
BRANCH   1  10
ATOM     10  C   UNL     1     -22.493  18.583 -21.770  1.00  0.00     0.000 C 
BRANCH  10  11
ATOM     11  C   UNL     1     -22.496  17.133 -22.286  1.00  0.00    -0.000 C 
BRANCH  11  12
ATOM     12  C   UNL     1     -21.951  16.947 -23.717  1.00  0.00    -0.000 C 
BRANCH  12  13
ATOM     13  C   UNL     1     -20.475  17.335 -23.908  1.00  0.00    -0.000 C 
BRANCH  13  14
ATOM     14  C   UNL     1     -20.269  18.360 -25.033  1.00  0.00    -0.000 C 
BRANCH  14  15
ATOM     15  C   UNL     1     -21.493  18.419 -25.953  1.00  0.00    -0.003 C 
ATOM     16  C   UNL     1     -21.099  18.200 -27.411  1.00  0.00     0.004 C 
ENDBRANCH  14  15
ENDBRANCH  13  14
ENDBRANCH  12  13
ENDBRANCH  11  12
ENDBRANCH  10  11
ENDBRANCH   1  10
TORSDOF 12
ENDMDL
MODEL 8
REMARK VINA RESULT:    -4.241      4.530      6.506
REMARK INTER + INTRA:          -8.902
REMARK INTER:                  -7.087
REMARK INTRA:                  -1.815
REMARK UNBOUND:                -1.685
REMARK SMILES CCCCCCCCCCCCCC(=O)[O-]
REMARK SMILES IDX 8 1 9 2 10 3 11 4 12 5 13 6 14 7 15 8 16 9 7 10 6 11 5 12
REMARK SMILES IDX 4 13 3 14 2 15 1 16
REMARK H PARENT
REMARK Flexibility Score: inf
ROOT
ATOM      1  C   UNL     1     -23.800  18.067 -23.057  1.00  0.00     0.000 C 
ENDROOT
BRANCH   1   2
ATOM      2  C   UNL     1     -22.989  16.827 -22.652  1.00  0.00     0.000 C 
BRANCH   2   3
ATOM      3  C   UNL     1     -21.649  17.183 -21.986  1.00  0.00     0.000 C 
BRANCH   3   4
ATOM      4  C   UNL     1     -20.434  16.396 -22.515  1.00  0.00     0.000 C 
BRANCH   4   5
ATOM      5  C   UNL     1     -20.664  14.872 -22.590  1.00  0.00     0.006 C 
BRANCH   5   6
ATOM      6  C   UNL     1     -20.616  14.206 -21.208  1.00  0.00     0.053 C 
BRANCH   6   7
ATOM      7  C   UNL     1     -21.935  13.580 -20.883  1.00  0.00     0.041 C 
ATOM      8  O   UNL     1     -22.795  14.222 -20.225  1.00  0.00    -0.550 OA
ATOM      9  O   UNL     1     -22.233  12.305 -21.347  1.00  0.00    -0.550 OA
ENDBRANCH   6   7
ENDBRANCH   5   6
ENDBRANCH   4   5
ENDBRANCH   3   4
ENDBRANCH   2   3
ENDBRANCH   1   2
BRANCH   1  10
ATOM     10  C   UNL     1     -23.422  19.275 -22.187  1.00  0.00     0.000 C 
BRANCH  10  11
ATOM     11  C   UNL     1     -22.877  20.457 -23.009  1.00  0.00    -0.000 C 
BRANCH  11  12
ATOM     12  C   UNL     1     -22.876  20.246 -24.537  1.00  0.00    -0.000 C 
BRANCH  12  13
ATOM     13  C   UNL     1     -21.491  20.307 -25.203  1.00  0.00    -0.000 C 
BRANCH  13  14
ATOM     14  C   UNL     1     -20.742  18.968 -25.147  1.00  0.00    -0.000 C 
BRANCH  14  15
ATOM     15  C   UNL     1     -21.037  18.122 -26.391  1.00  0.00    -0.003 C 
ATOM     16  C   UNL     1     -21.485  16.715 -26.008  1.00  0.00     0.004 C 
ENDBRANCH  14  15
ENDBRANCH  13  14
ENDBRANCH  12  13
ENDBRANCH  11  12
ENDBRANCH  10  11
ENDBRANCH   1  10
TORSDOF 12
ENDMDL
MODEL 9
REMARK VINA RESULT:    -4.228      4.969      6.491
REMARK INTER + INTRA:          -8.879
REMARK INTER:                  -7.143
REMARK INTRA:                  -1.735
REMARK UNBOUND:                -1.685
REMARK SMILES CCCCCCCCCCCCCC(=O)[O-]
REMARK SMILES IDX 8 1 9 2 10 3 11 4 12 5 13 6 14 7 15 8 16 9 7 10 6 11 5 12
REMARK SMILES IDX 4 13 3 14 2 15 1 16
REMARK H PARENT
REMARK Flexibility Score: inf
ROOT
ATOM      1  C   UNL     1     -22.640  19.773 -22.601  1.00  0.00     0.000 C 
ENDROOT
BRANCH   1   2
ATOM      2  C   UNL     1     -23.174  18.504 -21.919  1.00  0.00     0.000 C 
BRANCH   2   3
ATOM      3  C   UNL     1     -24.322  17.846 -22.701  1.00  0.00     0.000 C 
BRANCH   3   4
ATOM      4  C   UNL     1     -24.962  16.627 -22.008  1.00  0.00     0.000 C 
BRANCH   4   5
ATOM      5  C   UNL     1     -24.087  16.013 -20.895  1.00  0.00     0.006 C 
BRANCH   5   6
ATOM      6  C   UNL     1     -24.919  15.261 -19.847  1.00  0.00     0.053 C 
BRANCH   6   7
ATOM      7  C   UNL     1     -24.275  13.955 -19.507  1.00  0.00     0.041 C 
ATOM      8  O   UNL     1     -23.915  13.715 -18.325  1.00  0.00    -0.550 OA
ATOM      9  O   UNL     1     -24.115  12.983 -20.486  1.00  0.00    -0.550 OA
ENDBRANCH   6   7
ENDBRANCH   5   6
ENDBRANCH   4   5
ENDBRANCH   3   4
ENDBRANCH   2   3
ENDBRANCH   1   2
BRANCH   1  10
ATOM     10  C   UNL     1     -22.985  19.774 -24.098  1.00  0.00     0.000 C 
BRANCH  10  11
ATOM     11  C   UNL     1     -21.763  20.050 -24.992  1.00  0.00    -0.000 C 
BRANCH  11  12
ATOM     12  C   UNL     1     -21.005  18.795 -25.469  1.00  0.00    -0.000 C 
BRANCH  12  13
ATOM     13  C   UNL     1     -21.853  17.515 -25.561  1.00  0.00    -0.000 C 
BRANCH  13  14
ATOM     14  C   UNL     1     -21.311  16.376 -24.686  1.00  0.00    -0.000 C 
BRANCH  14  15
ATOM     15  C   UNL     1     -20.295  16.902 -23.666  1.00  0.00    -0.003 C 
ATOM     16  C   UNL     1     -20.384  16.134 -22.351  1.00  0.00     0.004 C 
ENDBRANCH  14  15
ENDBRANCH  13  14
ENDBRANCH  12  13
ENDBRANCH  11  12
ENDBRANCH  10  11
ENDBRANCH   1  10
TORSDOF 12
ENDMDL
