MODEL 1
REMARK VINA RESULT:    -4.419      0.000      0.000
REMARK INTER + INTRA:          -4.821
REMARK INTER:                  -4.807
REMARK INTRA:                  -0.014
REMARK UNBOUND:                -0.014
REMARK SMILES OCc1ccco1
REMARK SMILES IDX 2 1 3 2 5 3 6 4 4 5 7 6 1 7
REMARK H PARENT 1 8
REMARK Flexibility Score: inf
ROOT
ATOM      1  C   UNL     1       3.364  22.047 -15.884  1.00  0.00     0.231 C 
ENDROOT
BRANCH   1   2
ATOM      2  C   UNL     1       2.470  22.282 -17.059  1.00  0.00     0.129 A 
ATOM      3  C   UNL     1       1.626  23.051 -18.935  1.00  0.00     0.042 A 
ATOM      4  C   UNL     1       0.847  22.035 -18.419  1.00  0.00     0.195 A 
ATOM      5  C   UNL     1       2.678  23.210 -18.059  1.00  0.00     0.048 A 
ATOM      6  O   UNL     1       1.378  21.594 -17.301  1.00  0.00    -0.467 OA
ENDBRANCH   1   2
BRANCH   1   7
ATOM      7  O   UNL     1       4.664  21.758 -16.319  1.00  0.00    -0.388 OA
ATOM      8  H   UNL     1       5.269  21.947 -15.554  1.00  0.00     0.211 HD
ENDBRANCH   1   7
TORSDOF 2
ENDMDL
MODEL 2
REMARK VINA RESULT:    -4.231      2.849      3.922
REMARK INTER + INTRA:          -4.616
REMARK INTER:                  -4.600
REMARK INTRA:                  -0.016
REMARK UNBOUND:                -0.014
REMARK SMILES OCc1ccco1
REMARK SMILES IDX 2 1 3 2 5 3 6 4 4 5 7 6 1 7
REMARK H PARENT 1 8
REMARK Flexibility Score: inf
ROOT
ATOM      1  C   UNL     1       1.661  22.722 -19.127  1.00  0.00     0.231 C 
ENDROOT
BRANCH   1   2
ATOM      2  C   UNL     1       2.172  21.499 -19.819  1.00  0.00     0.129 A 
ATOM      3  C   UNL     1       2.390  19.444 -20.563  1.00  0.00     0.042 A 
ATOM      4  C   UNL     1       3.377  20.265 -21.071  1.00  0.00     0.195 A 
ATOM      5  C   UNL     1       1.607  20.241 -19.756  1.00  0.00     0.048 A 
ATOM      6  O   UNL     1       3.218  21.484 -20.611  1.00  0.00    -0.467 OA
ENDBRANCH   1   2
BRANCH   1   7
ATOM      7  O   UNL     1       0.318  22.544 -18.767  1.00  0.00    -0.388 OA
ATOM      8  H   UNL     1       0.207  22.963 -17.873  1.00  0.00     0.211 HD
ENDBRANCH   1   7
TORSDOF 2
ENDMDL
MODEL 3
REMARK VINA RESULT:    -4.206     11.737     12.656
REMARK INTER + INTRA:          -4.589
REMARK INTER:                  -4.576
REMARK INTRA:                  -0.013
REMARK UNBOUND:                -0.014
REMARK SMILES OCc1ccco1
REMARK SMILES IDX 2 1 3 2 5 3 6 4 4 5 7 6 1 7
REMARK H PARENT 1 8
REMARK Flexibility Score: inf
ROOT
ATOM      1  C   UNL     1      -6.877  32.277 -16.322  1.00  0.00     0.231 C 
ENDROOT
BRANCH   1   2
ATOM      2  C   UNL     1      -5.742  32.033 -17.264  1.00  0.00     0.129 A 
ATOM      3  C   UNL     1      -4.566  31.621 -19.073  1.00  0.00     0.042 A 
ATOM      4  C   UNL     1      -3.745  31.866 -17.990  1.00  0.00     0.195 A 
ATOM      5  C   UNL     1      -5.858  31.732 -18.606  1.00  0.00     0.048 A 
ATOM      6  O   UNL     1      -4.476  32.111 -16.927  1.00  0.00    -0.467 OA
ENDBRANCH   1   2
BRANCH   1   7
ATOM      7  O   UNL     1      -7.203  31.095 -15.645  1.00  0.00    -0.388 OA
ATOM      8  H   UNL     1      -7.827  30.594 -16.234  1.00  0.00     0.211 HD
ENDBRANCH   1   7
TORSDOF 2
ENDMDL
MODEL 4
REMARK VINA RESULT:    -4.124      2.954      3.721
REMARK INTER + INTRA:          -4.500
REMARK INTER:                  -4.484
REMARK INTRA:                  -0.016
REMARK UNBOUND:                -0.014
REMARK SMILES OCc1ccco1
REMARK SMILES IDX 2 1 3 2 5 3 6 4 4 5 7 6 1 7
REMARK H PARENT 1 8
REMARK Flexibility Score: inf
ROOT
ATOM      1  C   UNL     1       3.248  20.180 -20.977  1.00  0.00     0.231 C 
ENDROOT
BRANCH   1   2
ATOM      2  C   UNL     1       2.489  21.082 -20.058  1.00  0.00     0.129 A 
ATOM      3  C   UNL     1       0.936  21.927 -18.755  1.00  0.00     0.042 A 
ATOM      4  C   UNL     1       2.058  22.730 -18.776  1.00  0.00     0.195 A 
ATOM      5  C   UNL     1       1.213  20.859 -19.581  1.00  0.00     0.048 A 
ATOM      6  O   UNL     1       2.968  22.198 -19.559  1.00  0.00    -0.467 OA
ENDBRANCH   1   2
BRANCH   1   7
ATOM      7  O   UNL     1       3.674  20.892 -22.106  1.00  0.00    -0.388 OA
ATOM      8  H   UNL     1       4.647  21.056 -21.988  1.00  0.00     0.211 HD
ENDBRANCH   1   7
TORSDOF 2
ENDMDL
MODEL 5
REMARK VINA RESULT:    -4.007     12.755     13.773
REMARK INTER + INTRA:          -4.373
REMARK INTER:                  -4.357
REMARK INTRA:                  -0.016
REMARK UNBOUND:                -0.014
REMARK SMILES OCc1ccco1
REMARK SMILES IDX 2 1 3 2 5 3 6 4 4 5 7 6 1 7
REMARK H PARENT 1 8
REMARK Flexibility Score: inf
ROOT
ATOM      1  C   UNL     1      -7.834  33.453 -17.909  1.00  0.00     0.231 C 
ENDROOT
BRANCH   1   2
ATOM      2  C   UNL     1      -6.583  32.634 -17.917  1.00  0.00     0.129 A 
ATOM      3  C   UNL     1      -4.837  31.474 -18.572  1.00  0.00     0.042 A 
ATOM      4  C   UNL     1      -4.850  31.621 -17.199  1.00  0.00     0.195 A 
ATOM      5  C   UNL     1      -5.955  32.131 -19.038  1.00  0.00     0.048 A 
ATOM      6  O   UNL     1      -5.902  32.320 -16.839  1.00  0.00    -0.467 OA
ENDBRANCH   1   2
BRANCH   1   7
ATOM      7  O   UNL     1      -8.397  33.483 -19.191  1.00  0.00    -0.388 OA
ATOM      8  H   UNL     1      -9.369  33.312 -19.079  1.00  0.00     0.211 HD
ENDBRANCH   1   7
TORSDOF 2
ENDMDL
MODEL 6
REMARK VINA RESULT:    -3.960      6.503      8.369
REMARK INTER + INTRA:          -4.321
REMARK INTER:                  -4.301
REMARK INTRA:                  -0.021
REMARK UNBOUND:                -0.014
REMARK SMILES OCc1ccco1
REMARK SMILES IDX 2 1 3 2 5 3 6 4 4 5 7 6 1 7
REMARK H PARENT 1 8
REMARK Flexibility Score: inf
ROOT
ATOM      1  C   UNL     1       6.246  24.957 -12.812  1.00  0.00     0.231 C 
ENDROOT
BRANCH   1   2
ATOM      2  C   UNL     1       7.112  24.355 -11.753  1.00  0.00     0.129 A 
ATOM      3  C   UNL     1       8.818  23.886 -10.451  1.00  0.00     0.042 A 
ATOM      4  C   UNL     1       7.692  23.183 -10.069  1.00  0.00     0.195 A 
ATOM      5  C   UNL     1       8.444  24.647 -11.538  1.00  0.00     0.048 A 
ATOM      6  O   UNL     1       6.691  23.487 -10.863  1.00  0.00    -0.467 OA
ENDBRANCH   1   2
BRANCH   1   7
ATOM      7  O   UNL     1       5.124  24.148 -13.033  1.00  0.00    -0.388 OA
ATOM      8  H   UNL     1       4.370  24.759 -13.245  1.00  0.00     0.211 HD
ENDBRANCH   1   7
TORSDOF 2
ENDMDL
MODEL 7
REMARK VINA RESULT:    -3.942      7.839      8.786
REMARK INTER + INTRA:          -4.302
REMARK INTER:                  -4.285
REMARK INTRA:                  -0.016
REMARK UNBOUND:                -0.014
REMARK SMILES OCc1ccco1
REMARK SMILES IDX 2 1 3 2 5 3 6 4 4 5 7 6 1 7
REMARK H PARENT 1 8
REMARK Flexibility Score: inf
ROOT
ATOM      1  C   UNL     1       7.235  22.795 -10.127  1.00  0.00     0.231 C 
ENDROOT
BRANCH   1   2
ATOM      2  C   UNL     1       7.805  23.808 -11.066  1.00  0.00     0.129 A 
ATOM      3  C   UNL     1       9.163  25.219 -12.062  1.00  0.00     0.042 A 
ATOM      4  C   UNL     1       7.965  25.116 -12.742  1.00  0.00     0.195 A 
ATOM      5  C   UNL     1       9.062  24.371 -10.980  1.00  0.00     0.048 A 
ATOM      6  O   UNL     1       7.178  24.265 -12.126  1.00  0.00    -0.467 OA
ENDBRANCH   1   2
BRANCH   1   7
ATOM      7  O   UNL     1       8.188  22.444  -9.161  1.00  0.00    -0.388 OA
ATOM      8  H   UNL     1       8.586  21.583  -9.455  1.00  0.00     0.211 HD
ENDBRANCH   1   7
TORSDOF 2
ENDMDL
MODEL 8
REMARK VINA RESULT:    -3.820     12.600     13.453
REMARK INTER + INTRA:          -4.169
REMARK INTER:                  -4.156
REMARK INTRA:                  -0.014
REMARK UNBOUND:                -0.014
REMARK SMILES OCc1ccco1
REMARK SMILES IDX 2 1 3 2 5 3 6 4 4 5 7 6 1 7
REMARK H PARENT 1 8
REMARK Flexibility Score: inf
ROOT
ATOM      1  C   UNL     1      -4.853  31.779 -19.111  1.00  0.00     0.231 C 
ENDROOT
BRANCH   1   2
ATOM      2  C   UNL     1      -5.890  32.165 -18.105  1.00  0.00     0.129 A 
ATOM      3  C   UNL     1      -7.690  32.991 -17.157  1.00  0.00     0.042 A 
ATOM      4  C   UNL     1      -6.928  32.285 -16.247  1.00  0.00     0.195 A 
ATOM      5  C   UNL     1      -7.022  32.911 -18.360  1.00  0.00     0.048 A 
ATOM      6  O   UNL     1      -5.863  31.802 -16.844  1.00  0.00    -0.467 OA
ENDBRANCH   1   2
BRANCH   1   7
ATOM      7  O   UNL     1      -4.552  32.872 -19.934  1.00  0.00    -0.388 OA
ATOM      8  H   UNL     1      -4.263  33.609 -19.333  1.00  0.00     0.211 HD
ENDBRANCH   1   7
TORSDOF 2
ENDMDL
MODEL 9
REMARK VINA RESULT:    -3.799      7.069      8.301
REMARK INTER + INTRA:          -4.146
REMARK INTER:                  -4.132
REMARK INTRA:                  -0.014
REMARK UNBOUND:                -0.014
REMARK SMILES OCc1ccco1
REMARK SMILES IDX 2 1 3 2 5 3 6 4 4 5 7 6 1 7
REMARK H PARENT 1 8
REMARK Flexibility Score: inf
ROOT
ATOM      1  C   UNL     1       6.992  24.571 -12.384  1.00  0.00     0.231 C 
ENDROOT
BRANCH   1   2
ATOM      2  C   UNL     1       7.625  25.870 -12.766  1.00  0.00     0.129 A 
ATOM      3  C   UNL     1       7.930  27.965 -13.350  1.00  0.00     0.042 A 
ATOM      4  C   UNL     1       9.136  27.326 -13.142  1.00  0.00     0.195 A 
ATOM      5  C   UNL     1       6.952  27.027 -13.104  1.00  0.00     0.048 A 
ATOM      6  O   UNL     1       8.921  26.079 -12.792  1.00  0.00    -0.467 OA
ENDBRANCH   1   2
BRANCH   1   7
ATOM      7  O   UNL     1       5.826  24.365 -13.132  1.00  0.00    -0.388 OA
ATOM      8  H   UNL     1       5.549  25.255 -13.477  1.00  0.00     0.211 HD
ENDBRANCH   1   7
TORSDOF 2
ENDMDL
