MODEL 1
REMARK VINA RESULT:    -6.015      0.000      0.000
REMARK INTER + INTRA:          -6.782
REMARK INTER:                  -7.070
REMARK INTRA:                   0.288
REMARK UNBOUND:                 0.288
REMARK SMILES O=c1c(O)c(-c2ccc(O)c(O)c2)oc2cc(O)ccc12
REMARK SMILES IDX 5 1 3 2 2 3 1 4 21 5 15 6 14 7 16 8 17 9 19 10 20 11 6 12
REMARK SMILES IDX 7 13 8 14 9 15 13 16 11 17 10 18 12 20 4 22 18 24
REMARK H PARENT 10 19 12 21 4 23 18 25
REMARK Flexibility Score: inf
ROOT
ATOM      1  C   UNL     1     -26.504  40.520 -10.480  1.00  0.00     0.180 A 
ATOM      2  C   UNL     1     -27.169  41.544 -11.186  1.00  0.00     0.208 A 
ATOM      3  C   UNL     1     -26.471  42.726 -11.479  1.00  0.00     0.235 A 
ATOM      4  O   UNL     1     -27.039  43.652 -12.119  1.00  0.00    -0.285 OA
ATOM      5  C   UNL     1     -25.142  42.868 -11.049  1.00  0.00     0.069 A 
ATOM      6  C   UNL     1     -24.556  41.807 -10.326  1.00  0.00     0.142 A 
ATOM      7  O   UNL     1     -25.248  40.700 -10.077  1.00  0.00    -0.452 OA
ATOM      8  C   UNL     1     -23.238  41.914  -9.871  1.00  0.00     0.094 A 
ATOM      9  C   UNL     1     -22.494  43.070 -10.130  1.00  0.00     0.119 A 
ATOM     10  C   UNL     1     -23.072  44.125 -10.848  1.00  0.00     0.047 A 
ATOM     11  C   UNL     1     -24.390  44.028 -11.306  1.00  0.00     0.020 A 
ENDROOT
BRANCH   1  12
ATOM     12  C   UNL     1     -27.165  39.237 -10.149  1.00  0.00     0.025 A 
ATOM     13  C   UNL     1     -26.702  38.483  -9.059  1.00  0.00     0.016 A 
ATOM     14  C   UNL     1     -27.297  37.260  -8.740  1.00  0.00     0.051 A 
ATOM     15  C   UNL     1     -28.352  36.765  -9.512  1.00  0.00     0.157 A 
ATOM     16  C   UNL     1     -28.212  38.728 -10.936  1.00  0.00     0.062 A 
ATOM     17  C   UNL     1     -28.810  37.499 -10.619  1.00  0.00     0.158 A 
BRANCH  15  18
ATOM     18  O   UNL     1     -28.928  35.543  -9.169  1.00  0.00    -0.504 OA
ATOM     19  H   UNL     1     -28.475  34.891  -8.540  1.00  0.00     0.293 HD
ENDBRANCH  15  18
BRANCH  17  20
ATOM     20  O   UNL     1     -29.852  37.004 -11.402  1.00  0.00    -0.504 OA
ATOM     21  H   UNL     1     -30.787  36.885 -11.029  1.00  0.00     0.293 HD
ENDBRANCH  17  20
ENDBRANCH   1  12
BRANCH   2  22
ATOM     22  O   UNL     1     -28.506  41.394 -11.559  1.00  0.00    -0.502 OA
ATOM     23  H   UNL     1     -29.228  41.139 -10.895  1.00  0.00     0.293 HD
ENDBRANCH   2  22
BRANCH   9  24
ATOM     24  O   UNL     1     -21.182  43.160  -9.669  1.00  0.00    -0.508 OA
ATOM     25  H   UNL     1     -20.936  43.748  -8.881  1.00  0.00     0.293 HD
ENDBRANCH   9  24
TORSDOF 5
ENDMDL
MODEL 2
REMARK VINA RESULT:    -5.859      4.872      6.945
REMARK INTER + INTRA:          -6.599
REMARK INTER:                  -6.722
REMARK INTRA:                   0.123
REMARK UNBOUND:                 0.288
REMARK SMILES O=c1c(O)c(-c2ccc(O)c(O)c2)oc2cc(O)ccc12
REMARK SMILES IDX 5 1 3 2 2 3 1 4 21 5 15 6 14 7 16 8 17 9 19 10 20 11 6 12
REMARK SMILES IDX 7 13 8 14 9 15 13 16 11 17 10 18 12 20 4 22 18 24
REMARK H PARENT 10 19 12 21 4 23 18 25
REMARK Flexibility Score: inf
ROOT
ATOM      1  C   UNL     1     -31.335  41.878 -11.303  1.00  0.00     0.180 A 
ATOM      2  C   UNL     1     -30.262  42.692 -11.721  1.00  0.00     0.208 A 
ATOM      3  C   UNL     1     -28.968  42.148 -11.739  1.00  0.00     0.235 A 
ATOM      4  O   UNL     1     -27.992  42.853 -12.119  1.00  0.00    -0.285 OA
ATOM      5  C   UNL     1     -28.771  40.821 -11.327  1.00  0.00     0.069 A 
ATOM      6  C   UNL     1     -29.893  40.079 -10.901  1.00  0.00     0.142 A 
ATOM      7  O   UNL     1     -31.103  40.629 -10.906  1.00  0.00    -0.452 OA
ATOM      8  C   UNL     1     -29.737  38.757 -10.473  1.00  0.00     0.094 A 
ATOM      9  C   UNL     1     -28.471  38.163 -10.466  1.00  0.00     0.119 A 
ATOM     10  C   UNL     1     -27.355  38.895 -10.890  1.00  0.00     0.047 A 
ATOM     11  C   UNL     1     -27.500  40.218 -11.318  1.00  0.00     0.020 A 
ENDROOT
BRANCH   1  12
ATOM     12  C   UNL     1     -32.730  42.372 -11.273  1.00  0.00     0.025 A 
ATOM     13  C   UNL     1     -33.003  43.637 -10.729  1.00  0.00     0.016 A 
ATOM     14  C   UNL     1     -34.314  44.116 -10.671  1.00  0.00     0.051 A 
ATOM     15  C   UNL     1     -35.373  43.333 -11.142  1.00  0.00     0.157 A 
ATOM     16  C   UNL     1     -33.798  41.579 -11.726  1.00  0.00     0.062 A 
ATOM     17  C   UNL     1     -35.116  42.057 -11.668  1.00  0.00     0.158 A 
BRANCH  15  18
ATOM     18  O   UNL     1     -36.671  43.838 -11.074  1.00  0.00    -0.504 OA
ATOM     19  H   UNL     1     -37.444  43.290 -10.717  1.00  0.00     0.293 HD
ENDBRANCH  15  18
BRANCH  17  20
ATOM     20  O   UNL     1     -36.169  41.265 -12.125  1.00  0.00    -0.504 OA
ATOM     21  H   UNL     1     -36.012  40.478 -12.745  1.00  0.00     0.293 HD
ENDBRANCH  17  20
ENDBRANCH   1  12
BRANCH   2  22
ATOM     22  O   UNL     1     -30.481  44.025 -12.078  1.00  0.00    -0.502 OA
ATOM     23  H   UNL     1     -29.721  44.683 -12.205  1.00  0.00     0.293 HD
ENDBRANCH   2  22
BRANCH   9  24
ATOM     24  O   UNL     1     -28.334  36.844 -10.037  1.00  0.00    -0.508 OA
ATOM     25  H   UNL     1     -27.929  36.620  -9.134  1.00  0.00     0.293 HD
ENDBRANCH   9  24
TORSDOF 5
ENDMDL
MODEL 3
REMARK VINA RESULT:    -5.578      3.569      5.119
REMARK INTER + INTRA:          -6.268
REMARK INTER:                  -6.350
REMARK INTRA:                   0.082
REMARK UNBOUND:                 0.288
REMARK SMILES O=c1c(O)c(-c2ccc(O)c(O)c2)oc2cc(O)ccc12
REMARK SMILES IDX 5 1 3 2 2 3 1 4 21 5 15 6 14 7 16 8 17 9 19 10 20 11 6 12
REMARK SMILES IDX 7 13 8 14 9 15 13 16 11 17 10 18 12 20 4 22 18 24
REMARK H PARENT 10 19 12 21 4 23 18 25
REMARK Flexibility Score: inf
ROOT
ATOM      1  C   UNL     1     -29.217  41.700 -10.796  1.00  0.00     0.180 A 
ATOM      2  C   UNL     1     -28.993  40.419 -10.250  1.00  0.00     0.208 A 
ATOM      3  C   UNL     1     -27.673  39.961 -10.120  1.00  0.00     0.235 A 
ATOM      4  O   UNL     1     -27.445  38.823  -9.625  1.00  0.00    -0.285 OA
ATOM      5  C   UNL     1     -26.614  40.777 -10.551  1.00  0.00     0.069 A 
ATOM      6  C   UNL     1     -26.923  42.036 -11.108  1.00  0.00     0.142 A 
ATOM      7  O   UNL     1     -28.186  42.436 -11.205  1.00  0.00    -0.452 OA
ATOM      8  C   UNL     1     -25.897  42.873 -11.558  1.00  0.00     0.094 A 
ATOM      9  C   UNL     1     -24.562  42.468 -11.457  1.00  0.00     0.119 A 
ATOM     10  C   UNL     1     -24.250  41.220 -10.904  1.00  0.00     0.047 A 
ATOM     11  C   UNL     1     -25.269  40.375 -10.452  1.00  0.00     0.020 A 
ENDROOT
BRANCH   1  12
ATOM     12  C   UNL     1     -30.579  42.261 -10.949  1.00  0.00     0.025 A 
ATOM     13  C   UNL     1     -30.840  43.567 -10.506  1.00  0.00     0.016 A 
ATOM     14  C   UNL     1     -32.122  44.111 -10.622  1.00  0.00     0.051 A 
ATOM     15  C   UNL     1     -33.164  43.355 -11.168  1.00  0.00     0.157 A 
ATOM     16  C   UNL     1     -31.632  41.495 -11.478  1.00  0.00     0.062 A 
ATOM     17  C   UNL     1     -32.921  42.039 -11.594  1.00  0.00     0.158 A 
BRANCH  15  18
ATOM     18  O   UNL     1     -34.432  43.924 -11.273  1.00  0.00    -0.504 OA
ATOM     19  H   UNL     1     -34.572  44.867 -11.614  1.00  0.00     0.293 HD
ENDBRANCH  15  18
BRANCH  17  20
ATOM     20  O   UNL     1     -33.958  41.274 -12.125  1.00  0.00    -0.504 OA
ATOM     21  H   UNL     1     -34.846  41.689 -12.384  1.00  0.00     0.293 HD
ENDBRANCH  17  20
ENDBRANCH   1  12
BRANCH   2  22
ATOM     22  O   UNL     1     -30.069  39.610  -9.876  1.00  0.00    -0.502 OA
ATOM     23  H   UNL     1     -31.031  39.921  -9.951  1.00  0.00     0.293 HD
ENDBRANCH   2  22
BRANCH   9  24
ATOM     24  O   UNL     1     -23.551  43.315 -11.911  1.00  0.00    -0.508 OA
ATOM     25  H   UNL     1     -23.145  44.024 -11.310  1.00  0.00     0.293 HD
ENDBRANCH   9  24
TORSDOF 5
ENDMDL
MODEL 4
REMARK VINA RESULT:    -5.288      1.084      6.542
REMARK INTER + INTRA:          -5.927
REMARK INTER:                  -6.320
REMARK INTRA:                   0.393
REMARK UNBOUND:                 0.288
REMARK SMILES O=c1c(O)c(-c2ccc(O)c(O)c2)oc2cc(O)ccc12
REMARK SMILES IDX 5 1 3 2 2 3 1 4 21 5 15 6 14 7 16 8 17 9 19 10 20 11 6 12
REMARK SMILES IDX 7 13 8 14 9 15 13 16 11 17 10 18 12 20 4 22 18 24
REMARK H PARENT 10 19 12 21 4 23 18 25
REMARK Flexibility Score: inf
ROOT
ATOM      1  C   UNL     1     -25.984  41.421 -10.373  1.00  0.00     0.180 A 
ATOM      2  C   UNL     1     -26.969  42.070 -11.147  1.00  0.00     0.208 A 
ATOM      3  C   UNL     1     -28.161  41.387 -11.434  1.00  0.00     0.235 A 
ATOM      4  O   UNL     1     -29.062  41.950 -12.116  1.00  0.00    -0.285 OA
ATOM      5  C   UNL     1     -28.337  40.077 -10.961  1.00  0.00     0.069 A 
ATOM      6  C   UNL     1     -27.295  39.490 -10.213  1.00  0.00     0.142 A 
ATOM      7  O   UNL     1     -26.185  40.173  -9.956  1.00  0.00    -0.452 OA
ATOM      8  C   UNL     1     -27.428  38.183  -9.734  1.00  0.00     0.094 A 
ATOM      9  C   UNL     1     -28.593  37.452  -9.991  1.00  0.00     0.119 A 
ATOM     10  C   UNL     1     -29.631  38.032 -10.732  1.00  0.00     0.047 A 
ATOM     11  C   UNL     1     -29.507  39.338 -11.217  1.00  0.00     0.020 A 
ENDROOT
BRANCH   1  12
ATOM     12  C   UNL     1     -24.708  42.080 -10.013  1.00  0.00     0.025 A 
ATOM     13  C   UNL     1     -24.633  43.482 -10.004  1.00  0.00     0.016 A 
ATOM     14  C   UNL     1     -23.434  44.125  -9.687  1.00  0.00     0.051 A 
ATOM     15  C   UNL     1     -22.290  43.379  -9.388  1.00  0.00     0.157 A 
ATOM     16  C   UNL     1     -23.551  41.332  -9.732  1.00  0.00     0.062 A 
ATOM     17  C   UNL     1     -22.346  41.976  -9.415  1.00  0.00     0.158 A 
BRANCH  15  18
ATOM     18  O   UNL     1     -21.108  44.048  -9.073  1.00  0.00    -0.504 OA
ATOM     19  H   UNL     1     -20.909  44.981  -9.415  1.00  0.00     0.293 HD
ENDBRANCH  15  18
BRANCH  17  20
ATOM     20  O   UNL     1     -21.205  41.227  -9.133  1.00  0.00    -0.504 OA
ATOM     21  H   UNL     1     -20.274  41.592  -9.301  1.00  0.00     0.293 HD
ENDBRANCH  17  20
ENDBRANCH   1  12
BRANCH   2  22
ATOM     22  O   UNL     1     -26.744  43.355 -11.645  1.00  0.00    -0.502 OA
ATOM     23  H   UNL     1     -25.920  43.893 -11.405  1.00  0.00     0.293 HD
ENDBRANCH   2  22
BRANCH   9  24
ATOM     24  O   UNL     1     -28.709  36.151  -9.506  1.00  0.00    -0.508 OA
ATOM     25  H   UNL     1     -29.278  35.458  -9.979  1.00  0.00     0.293 HD
ENDBRANCH   9  24
TORSDOF 5
ENDMDL
MODEL 5
REMARK VINA RESULT:    -5.186      6.321      9.501
REMARK INTER + INTRA:          -5.808
REMARK INTER:                  -5.843
REMARK INTRA:                   0.035
REMARK UNBOUND:                 0.288
REMARK SMILES O=c1c(O)c(-c2ccc(O)c(O)c2)oc2cc(O)ccc12
REMARK SMILES IDX 5 1 3 2 2 3 1 4 21 5 15 6 14 7 16 8 17 9 19 10 20 11 6 12
REMARK SMILES IDX 7 13 8 14 9 15 13 16 11 17 10 18 12 20 4 22 18 24
REMARK H PARENT 10 19 12 21 4 23 18 25
REMARK Flexibility Score: inf
ROOT
ATOM      1  C   UNL     1     -33.122  41.598 -11.351  1.00  0.00     0.180 A 
ATOM      2  C   UNL     1     -33.697  42.874 -11.185  1.00  0.00     0.208 A 
ATOM      3  C   UNL     1     -35.095  42.995 -11.213  1.00  0.00     0.235 A 
ATOM      4  O   UNL     1     -35.634  44.125 -11.056  1.00  0.00    -0.285 OA
ATOM      5  C   UNL     1     -35.883  41.852 -11.422  1.00  0.00     0.069 A 
ATOM      6  C   UNL     1     -35.230  40.614 -11.603  1.00  0.00     0.142 A 
ATOM      7  O   UNL     1     -33.904  40.541 -11.561  1.00  0.00    -0.452 OA
ATOM      8  C   UNL     1     -35.979  39.454 -11.824  1.00  0.00     0.094 A 
ATOM      9  C   UNL     1     -37.376  39.513 -11.865  1.00  0.00     0.119 A 
ATOM     10  C   UNL     1     -38.028  40.740 -11.685  1.00  0.00     0.047 A 
ATOM     11  C   UNL     1     -37.288  41.906 -11.464  1.00  0.00     0.020 A 
ENDROOT
BRANCH   1  12
ATOM     12  C   UNL     1     -31.657  41.385 -11.316  1.00  0.00     0.025 A 
ATOM     13  C   UNL     1     -30.826  42.175 -12.125  1.00  0.00     0.016 A 
ATOM     14  C   UNL     1     -29.443  41.978 -12.124  1.00  0.00     0.051 A 
ATOM     15  C   UNL     1     -28.871  40.982 -11.326  1.00  0.00     0.157 A 
ATOM     16  C   UNL     1     -31.083  40.370 -10.531  1.00  0.00     0.062 A 
ATOM     17  C   UNL     1     -29.694  40.170 -10.529  1.00  0.00     0.158 A 
BRANCH  15  18
ATOM     18  O   UNL     1     -27.487  40.810 -11.343  1.00  0.00    -0.504 OA
ATOM     19  H   UNL     1     -27.056  39.947 -11.647  1.00  0.00     0.293 HD
ENDBRANCH  15  18
BRANCH  17  20
ATOM     20  O   UNL     1     -29.132  39.165  -9.744  1.00  0.00    -0.504 OA
ATOM     21  H   UNL     1     -29.391  38.191  -9.861  1.00  0.00     0.293 HD
ENDBRANCH  17  20
ENDBRANCH   1  12
BRANCH   2  22
ATOM     22  O   UNL     1     -32.886  44.001 -11.028  1.00  0.00    -0.502 OA
ATOM     23  H   UNL     1     -31.876  43.940 -10.991  1.00  0.00     0.293 HD
ENDBRANCH   2  22
BRANCH   9  24
ATOM     24  O   UNL     1     -38.107  38.347 -12.087  1.00  0.00    -0.508 OA
ATOM     25  H   UNL     1     -38.994  38.182 -11.623  1.00  0.00     0.293 HD
ENDBRANCH   9  24
TORSDOF 5
ENDMDL
MODEL 6
REMARK VINA RESULT:    -5.176      2.696      7.081
REMARK INTER + INTRA:          -5.796
REMARK INTER:                  -5.479
REMARK INTRA:                  -0.317
REMARK UNBOUND:                 0.288
REMARK SMILES O=c1c(O)c(-c2ccc(O)c(O)c2)oc2cc(O)ccc12
REMARK SMILES IDX 5 1 3 2 2 3 1 4 21 5 15 6 14 7 16 8 17 9 19 10 20 11 6 12
REMARK SMILES IDX 7 13 8 14 9 15 13 16 11 17 10 18 12 20 4 22 18 24
REMARK H PARENT 10 19 12 21 4 23 18 25
REMARK Flexibility Score: inf
ROOT
ATOM      1  C   UNL     1     -27.339  41.978 -10.742  1.00  0.00     0.180 A 
ATOM      2  C   UNL     1     -27.562  40.616 -10.454  1.00  0.00     0.208 A 
ATOM      3  C   UNL     1     -28.880  40.132 -10.453  1.00  0.00     0.235 A 
ATOM      4  O   UNL     1     -29.105  38.915 -10.209  1.00  0.00    -0.285 OA
ATOM      5  C   UNL     1     -29.939  41.014 -10.720  1.00  0.00     0.069 A 
ATOM      6  C   UNL     1     -29.635  42.368 -10.975  1.00  0.00     0.142 A 
ATOM      7  O   UNL     1     -28.373  42.784 -10.976  1.00  0.00    -0.452 OA
ATOM      8  C   UNL     1     -30.663  43.280 -11.235  1.00  0.00     0.094 A 
ATOM      9  C   UNL     1     -31.996  42.856 -11.244  1.00  0.00     0.119 A 
ATOM     10  C   UNL     1     -32.303  41.512 -10.991  1.00  0.00     0.047 A 
ATOM     11  C   UNL     1     -31.282  40.593 -10.729  1.00  0.00     0.020 A 
ENDROOT
BRANCH   1  12
ATOM     12  C   UNL     1     -25.979  42.560 -10.781  1.00  0.00     0.025 A 
ATOM     13  C   UNL     1     -25.255  42.544 -11.984  1.00  0.00     0.016 A 
ATOM     14  C   UNL     1     -23.962  43.070 -12.039  1.00  0.00     0.051 A 
ATOM     15  C   UNL     1     -23.367  43.605 -10.892  1.00  0.00     0.157 A 
ATOM     16  C   UNL     1     -25.371  43.080  -9.625  1.00  0.00     0.062 A 
ATOM     17  C   UNL     1     -24.071  43.607  -9.678  1.00  0.00     0.158 A 
BRANCH  15  18
ATOM     18  O   UNL     1     -22.076  44.125 -10.978  1.00  0.00    -0.504 OA
ATOM     19  H   UNL     1     -21.254  43.537 -10.918  1.00  0.00     0.293 HD
ENDBRANCH  15  18
BRANCH  17  20
ATOM     20  O   UNL     1     -23.479  44.125  -8.527  1.00  0.00    -0.504 OA
ATOM     21  H   UNL     1     -22.583  43.788  -8.193  1.00  0.00     0.293 HD
ENDBRANCH  17  20
ENDBRANCH   1  12
BRANCH   2  22
ATOM     22  O   UNL     1     -26.492  39.773 -10.144  1.00  0.00    -0.502 OA
ATOM     23  H   UNL     1     -25.824  39.467 -10.842  1.00  0.00     0.293 HD
ENDBRANCH   2  22
BRANCH   9  24
ATOM     24  O   UNL     1     -33.008  43.778 -11.504  1.00  0.00    -0.508 OA
ATOM     25  H   UNL     1     -32.878  44.769 -11.335  1.00  0.00     0.293 HD
ENDBRANCH   9  24
TORSDOF 5
ENDMDL
MODEL 7
REMARK VINA RESULT:    -5.001      3.415      5.756
REMARK INTER + INTRA:          -5.590
REMARK INTER:                  -5.674
REMARK INTRA:                   0.084
REMARK UNBOUND:                 0.288
REMARK SMILES O=c1c(O)c(-c2ccc(O)c(O)c2)oc2cc(O)ccc12
REMARK SMILES IDX 5 1 3 2 2 3 1 4 21 5 15 6 14 7 16 8 17 9 19 10 20 11 6 12
REMARK SMILES IDX 7 13 8 14 9 15 13 16 11 17 10 18 12 20 4 22 18 24
REMARK H PARENT 10 19 12 21 4 23 18 25
REMARK Flexibility Score: inf
ROOT
ATOM      1  C   UNL     1     -29.281  40.820 -10.595  1.00  0.00     0.180 A 
ATOM      2  C   UNL     1     -28.535  41.893 -11.125  1.00  0.00     0.208 A 
ATOM      3  C   UNL     1     -29.222  43.006 -11.636  1.00  0.00     0.235 A 
ATOM      4  O   UNL     1     -28.577  43.984 -12.106  1.00  0.00    -0.285 OA
ATOM      5  C   UNL     1     -30.625  43.017 -11.624  1.00  0.00     0.069 A 
ATOM      6  C   UNL     1     -31.299  41.894 -11.098  1.00  0.00     0.142 A 
ATOM      7  O   UNL     1     -30.612  40.864 -10.616  1.00  0.00    -0.452 OA
ATOM      8  C   UNL     1     -32.697  41.862 -11.078  1.00  0.00     0.094 A 
ATOM      9  C   UNL     1     -33.434  42.941 -11.577  1.00  0.00     0.119 A 
ATOM     10  C   UNL     1     -32.769  44.058 -12.099  1.00  0.00     0.047 A 
ATOM     11  C   UNL     1     -31.371  44.099 -12.125  1.00  0.00     0.020 A 
ENDROOT
BRANCH   1  12
ATOM     12  C   UNL     1     -28.632  39.620 -10.021  1.00  0.00     0.025 A 
ATOM     13  C   UNL     1     -27.553  39.775  -9.137  1.00  0.00     0.016 A 
ATOM     14  C   UNL     1     -26.912  38.656  -8.599  1.00  0.00     0.051 A 
ATOM     15  C   UNL     1     -27.329  37.368  -8.946  1.00  0.00     0.157 A 
ATOM     16  C   UNL     1     -29.037  38.324 -10.385  1.00  0.00     0.062 A 
ATOM     17  C   UNL     1     -28.393  37.199  -9.846  1.00  0.00     0.158 A 
BRANCH  15  18
ATOM     18  O   UNL     1     -26.672  36.270  -8.391  1.00  0.00    -0.504 OA
ATOM     19  H   UNL     1     -26.777  35.335  -8.764  1.00  0.00     0.293 HD
ENDBRANCH  15  18
BRANCH  17  20
ATOM     20  O   UNL     1     -28.804  35.917 -10.208  1.00  0.00    -0.504 OA
ATOM     21  H   UNL     1     -28.288  35.092  -9.922  1.00  0.00     0.293 HD
ENDBRANCH  17  20
ENDBRANCH   1  12
BRANCH   2  22
ATOM     22  O   UNL     1     -27.141  41.833 -11.168  1.00  0.00    -0.502 OA
ATOM     23  H   UNL     1     -26.589  42.457 -11.745  1.00  0.00     0.293 HD
ENDBRANCH   2  22
BRANCH   9  24
ATOM     24  O   UNL     1     -34.827  42.893 -11.549  1.00  0.00    -0.508 OA
ATOM     25  H   UNL     1     -35.340  42.150 -12.010  1.00  0.00     0.293 HD
ENDBRANCH   9  24
TORSDOF 5
ENDMDL
MODEL 8
REMARK VINA RESULT:    -3.770      5.199      8.221
REMARK INTER + INTRA:          -4.143
REMARK INTER:                  -4.470
REMARK INTRA:                   0.327
REMARK UNBOUND:                 0.288
REMARK SMILES O=c1c(O)c(-c2ccc(O)c(O)c2)oc2cc(O)ccc12
REMARK SMILES IDX 5 1 3 2 2 3 1 4 21 5 15 6 14 7 16 8 17 9 19 10 20 11 6 12
REMARK SMILES IDX 7 13 8 14 9 15 13 16 11 17 10 18 12 20 4 22 18 24
REMARK H PARENT 10 19 12 21 4 23 18 25
REMARK Flexibility Score: inf
ROOT
ATOM      1  C   UNL     1     -31.650  41.106 -11.030  1.00  0.00     0.180 A 
ATOM      2  C   UNL     1     -31.789  42.443 -11.454  1.00  0.00     0.208 A 
ATOM      3  C   UNL     1     -33.073  42.929 -11.747  1.00  0.00     0.235 A 
ATOM      4  O   UNL     1     -33.225  44.125 -12.119  1.00  0.00    -0.285 OA
ATOM      5  C   UNL     1     -34.179  42.072 -11.630  1.00  0.00     0.069 A 
ATOM      6  C   UNL     1     -33.953  40.740 -11.222  1.00  0.00     0.142 A 
ATOM      7  O   UNL     1     -32.723  40.322 -10.945  1.00  0.00    -0.452 OA
ATOM      8  C   UNL     1     -35.027  39.853 -11.103  1.00  0.00     0.094 A 
ATOM      9  C   UNL     1     -36.329  40.280 -11.385  1.00  0.00     0.119 A 
ATOM     10  C   UNL     1     -36.558  41.601 -11.789  1.00  0.00     0.047 A 
ATOM     11  C   UNL     1     -35.490  42.496 -11.913  1.00  0.00     0.020 A 
ENDROOT
BRANCH   1  12
ATOM     12  C   UNL     1     -30.332  40.524 -10.684  1.00  0.00     0.025 A 
ATOM     13  C   UNL     1     -30.169  39.130 -10.696  1.00  0.00     0.016 A 
ATOM     14  C   UNL     1     -28.941  38.558 -10.353  1.00  0.00     0.051 A 
ATOM     15  C   UNL     1     -27.864  39.368  -9.981  1.00  0.00     0.157 A 
ATOM     16  C   UNL     1     -29.254  41.336 -10.289  1.00  0.00     0.062 A 
ATOM     17  C   UNL     1     -28.021  40.763  -9.943  1.00  0.00     0.158 A 
BRANCH  15  18
ATOM     18  O   UNL     1     -26.649  38.770  -9.647  1.00  0.00    -0.504 OA
ATOM     19  H   UNL     1     -26.498  37.772  -9.737  1.00  0.00     0.293 HD
ENDBRANCH  15  18
BRANCH  17  20
ATOM     20  O   UNL     1     -26.955  41.575  -9.558  1.00  0.00    -0.504 OA
ATOM     21  H   UNL     1     -27.104  42.447  -9.062  1.00  0.00     0.293 HD
ENDBRANCH  17  20
ENDBRANCH   1  12
BRANCH   2  22
ATOM     22  O   UNL     1     -30.665  43.258 -11.609  1.00  0.00    -0.502 OA
ATOM     23  H   UNL     1     -30.458  44.021 -10.976  1.00  0.00     0.293 HD
ENDBRANCH   2  22
BRANCH   9  24
ATOM     24  O   UNL     1     -37.388  39.382 -11.261  1.00  0.00    -0.508 OA
ATOM     25  H   UNL     1     -38.285  39.670 -10.886  1.00  0.00     0.293 HD
ENDBRANCH   9  24
TORSDOF 5
ENDMDL
MODEL 9
REMARK VINA RESULT:    -3.445      2.718      4.267
REMARK INTER + INTRA:          -3.761
REMARK INTER:                  -4.189
REMARK INTRA:                   0.428
REMARK UNBOUND:                 0.288
REMARK SMILES O=c1c(O)c(-c2ccc(O)c(O)c2)oc2cc(O)ccc12
REMARK SMILES IDX 5 1 3 2 2 3 1 4 21 5 15 6 14 7 16 8 17 9 19 10 20 11 6 12
REMARK SMILES IDX 7 13 8 14 9 15 13 16 11 17 10 18 12 20 4 22 18 24
REMARK H PARENT 10 19 12 21 4 23 18 25
REMARK Flexibility Score: inf
ROOT
ATOM      1  C   UNL     1     -27.593  41.785 -10.200  1.00  0.00     0.180 A 
ATOM      2  C   UNL     1     -27.236  40.443 -10.446  1.00  0.00     0.208 A 
ATOM      3  C   UNL     1     -25.881  40.082 -10.384  1.00  0.00     0.235 A 
ATOM      4  O   UNL     1     -25.537  38.886 -10.590  1.00  0.00    -0.285 OA
ATOM      5  C   UNL     1     -24.917  41.063 -10.100  1.00  0.00     0.069 A 
ATOM      6  C   UNL     1     -25.353  42.388  -9.890  1.00  0.00     0.142 A 
ATOM      7  O   UNL     1     -26.647  42.687  -9.948  1.00  0.00    -0.452 OA
ATOM      8  C   UNL     1     -24.423  43.396  -9.614  1.00  0.00     0.094 A 
ATOM      9  C   UNL     1     -23.059  43.096  -9.544  1.00  0.00     0.119 A 
ATOM     10  C   UNL     1     -22.622  41.782  -9.751  1.00  0.00     0.047 A 
ATOM     11  C   UNL     1     -23.544  40.767 -10.029  1.00  0.00     0.020 A 
ENDROOT
BRANCH   1  12
ATOM     12  C   UNL     1     -29.001  42.241 -10.227  1.00  0.00     0.025 A 
ATOM     13  C   UNL     1     -29.283  43.616 -10.183  1.00  0.00     0.016 A 
ATOM     14  C   UNL     1     -30.604  44.069 -10.187  1.00  0.00     0.051 A 
ATOM     15  C   UNL     1     -31.663  43.156 -10.222  1.00  0.00     0.157 A 
ATOM     16  C   UNL     1     -30.068  41.325 -10.241  1.00  0.00     0.062 A 
ATOM     17  C   UNL     1     -31.396  41.778 -10.244  1.00  0.00     0.158 A 
BRANCH  15  18
ATOM     18  O   UNL     1     -32.972  43.638 -10.228  1.00  0.00    -0.504 OA
ATOM     19  H   UNL     1     -33.215  44.532 -10.636  1.00  0.00     0.293 HD
ENDBRANCH  15  18
BRANCH  17  20
ATOM     20  O   UNL     1     -32.447  40.863 -10.263  1.00  0.00    -0.504 OA
ATOM     21  H   UNL     1     -32.446  40.039  -9.673  1.00  0.00     0.293 HD
ENDBRANCH  17  20
ENDBRANCH   1  12
BRANCH   2  22
ATOM     22  O   UNL     1     -28.212  39.500 -10.775  1.00  0.00    -0.502 OA
ATOM     23  H   UNL     1     -28.446  38.727 -10.163  1.00  0.00     0.293 HD
ENDBRANCH   2  22
BRANCH   9  24
ATOM     24  O   UNL     1     -22.146  44.112  -9.269  1.00  0.00    -0.508 OA
ATOM     25  H   UNL     1     -22.079  44.529  -8.347  1.00  0.00     0.293 HD
ENDBRANCH   9  24
TORSDOF 5
ENDMDL
