MODEL 1
REMARK VINA RESULT:    -6.143      0.000      0.000
REMARK INTER + INTRA:          -6.408
REMARK INTER:                  -6.682
REMARK INTRA:                   0.274
REMARK UNBOUND:                 0.274
REMARK SMILES CC1(C)CC[C@@]2(C(=O)[O-])CC[C@]3(C)C(=CC[C@@H]4[C@@]5(C)CC[C@@H](O)C(C)(C)[C@H]5CC[C@@]43C)[C@@H]2C1
REMARK SMILES IDX 6 1 5 2 10 3 32 4 4 5 11 6 14 7 33 8 2 9 12 10 15 11 1 12
REMARK SMILES IDX 3 13 13 14 30 15 16 16 17 17 29 18 31 19 18 20 28 21 27 22
REMARK SMILES IDX 20 23 19 24 24 25 21 26 22 27 25 28 26 29 7 30 8 31 9 32
REMARK SMILES IDX 23 33
REMARK H PARENT 23 34
REMARK Flexibility Score: inf
ROOT
ATOM      1  C   UNL     1      10.562  24.594  63.816  1.00  0.00     0.017 C 
ATOM      2  C   UNL     1      11.738  24.980  64.756  1.00  0.00     0.014 C 
ATOM      3  C   UNL     1       9.325  24.195  64.692  1.00  0.00     0.014 C 
ATOM      4  C   UNL     1      10.213  25.830  62.928  1.00  0.00     0.028 C 
ATOM      5  C   UNL     1      12.977  25.461  63.986  1.00  0.00     0.007 C 
ATOM      6  C   UNL     1       7.996  24.890  64.316  1.00  0.00     0.013 C 
ATOM      7  C   UNL     1       8.951  25.550  62.088  1.00  0.00    -0.064 C 
ATOM      8  C   UNL     1      11.453  26.362  62.150  1.00  0.00     0.015 C 
ATOM      9  C   UNL     1      12.679  26.664  63.056  1.00  0.00    -0.035 C 
ATOM     10  C   UNL     1       7.709  24.970  62.769  1.00  0.00    -0.006 C 
ATOM     11  C   UNL     1       8.860  25.956  60.812  1.00  0.00    -0.027 C 
ATOM     12  C   UNL     1      13.910  26.904  62.155  1.00  0.00     0.011 C 
ATOM     13  C   UNL     1      12.447  27.952  63.885  1.00  0.00     0.011 C 
ATOM     14  C   UNL     1       7.506  23.513  62.254  1.00  0.00     0.017 C 
ATOM     15  C   UNL     1       6.426  25.877  62.399  1.00  0.00    -0.020 C 
ATOM     16  C   UNL     1       7.577  26.029  60.043  1.00  0.00     0.032 C 
ATOM     17  C   UNL     1       6.210  25.898  60.823  1.00  0.00     0.006 C 
ATOM     18  C   UNL     1       6.647  27.350  62.849  1.00  0.00     0.008 C 
ATOM     19  C   UNL     1       5.162  25.287  63.120  1.00  0.00     0.012 C 
ATOM     20  C   UNL     1       5.114  26.925  60.238  1.00  0.00    -0.025 C 
ATOM     21  C   UNL     1       5.586  28.340  62.352  1.00  0.00     0.005 C 
ATOM     22  C   UNL     1       5.373  28.378  60.806  1.00  0.00     0.003 C 
ATOM     23  C   UNL     1       3.647  26.502  60.581  1.00  0.00     0.010 C 
ATOM     24  C   UNL     1       5.229  26.860  58.669  1.00  0.00     0.012 C 
ATOM     25  C   UNL     1       4.260  29.453  60.399  1.00  0.00    -0.006 C 
ATOM     26  C   UNL     1       2.571  27.506  60.118  1.00  0.00     0.033 C 
ATOM     27  C   UNL     1       2.808  28.922  60.664  1.00  0.00     0.120 C 
ATOM     28  C   UNL     1       4.394  29.858  58.901  1.00  0.00     0.014 C 
ATOM     29  C   UNL     1       4.457  30.788  61.178  1.00  0.00     0.014 C 
ENDROOT
BRANCH   1  30
ATOM     30  C   UNL     1      10.983  23.379  62.987  1.00  0.00     0.048 C 
ATOM     31  O   UNL     1      11.200  23.465  61.749  1.00  0.00    -0.550 OA
ATOM     32  O   UNL     1      11.085  22.132  63.596  1.00  0.00    -0.550 OA
ENDBRANCH   1  30
BRANCH  27  33
ATOM     33  O   UNL     1       2.502  28.922  62.038  1.00  0.00    -0.393 OA
ATOM     34  H   UNL     1       1.556  29.209  62.136  1.00  0.00     0.210 HD
ENDBRANCH  27  33
TORSDOF 2
ENDMDL
MODEL 2
REMARK VINA RESULT:    -5.594      1.904      7.855
REMARK INTER + INTRA:          -5.810
REMARK INTER:                  -6.151
REMARK INTRA:                   0.341
REMARK UNBOUND:                 0.274
REMARK SMILES CC1(C)CC[C@@]2(C(=O)[O-])CC[C@]3(C)C(=CC[C@@H]4[C@@]5(C)CC[C@@H](O)C(C)(C)[C@H]5CC[C@@]43C)[C@@H]2C1
REMARK SMILES IDX 6 1 5 2 10 3 32 4 4 5 11 6 14 7 33 8 2 9 12 10 15 11 1 12
REMARK SMILES IDX 3 13 13 14 30 15 16 16 17 17 29 18 31 19 18 20 28 21 27 22
REMARK SMILES IDX 20 23 19 24 24 25 21 26 22 27 25 28 26 29 7 30 8 31 9 32
REMARK SMILES IDX 23 33
REMARK H PARENT 23 34
REMARK Flexibility Score: inf
ROOT
ATOM      1  C   UNL     1       3.642  27.363  61.337  1.00  0.00     0.017 C 
ATOM      2  C   UNL     1       2.751  27.430  60.065  1.00  0.00     0.014 C 
ATOM      3  C   UNL     1       3.083  26.249  62.287  1.00  0.00     0.014 C 
ATOM      4  C   UNL     1       5.099  27.014  60.901  1.00  0.00     0.028 C 
ATOM      5  C   UNL     1       3.266  28.446  59.036  1.00  0.00     0.007 C 
ATOM      6  C   UNL     1       4.128  25.229  62.797  1.00  0.00     0.013 C 
ATOM      7  C   UNL     1       5.990  26.782  62.137  1.00  0.00    -0.064 C 
ATOM      8  C   UNL     1       5.647  28.009  59.836  1.00  0.00     0.015 C 
ATOM      9  C   UNL     1       4.725  28.170  58.595  1.00  0.00    -0.035 C 
ATOM     10  C   UNL     1       5.495  25.862  63.256  1.00  0.00    -0.006 C 
ATOM     11  C   UNL     1       7.254  27.231  62.179  1.00  0.00    -0.027 C 
ATOM     12  C   UNL     1       5.223  29.374  57.764  1.00  0.00     0.011 C 
ATOM     13  C   UNL     1       4.796  26.915  57.690  1.00  0.00     0.011 C 
ATOM     14  C   UNL     1       5.209  26.736  64.515  1.00  0.00     0.017 C 
ATOM     15  C   UNL     1       6.633  24.765  63.587  1.00  0.00    -0.020 C 
ATOM     16  C   UNL     1       8.277  26.770  63.171  1.00  0.00     0.032 C 
ATOM     17  C   UNL     1       7.972  25.490  64.044  1.00  0.00     0.006 C 
ATOM     18  C   UNL     1       6.975  23.931  62.318  1.00  0.00     0.008 C 
ATOM     19  C   UNL     1       6.107  23.814  64.720  1.00  0.00     0.012 C 
ATOM     20  C   UNL     1       9.292  24.578  64.205  1.00  0.00    -0.025 C 
ATOM     21  C   UNL     1       8.194  23.011  62.463  1.00  0.00     0.005 C 
ATOM     22  C   UNL     1       9.518  23.713  62.901  1.00  0.00     0.003 C 
ATOM     23  C   UNL     1       9.216  23.620  65.440  1.00  0.00     0.010 C 
ATOM     24  C   UNL     1      10.487  25.562  64.493  1.00  0.00     0.012 C 
ATOM     25  C   UNL     1      10.724  22.666  63.004  1.00  0.00    -0.006 C 
ATOM     26  C   UNL     1      10.418  22.664  65.579  1.00  0.00     0.033 C 
ATOM     27  C   UNL     1      10.649  21.815  64.320  1.00  0.00     0.120 C 
ATOM     28  C   UNL     1      12.101  23.390  62.937  1.00  0.00     0.014 C 
ATOM     29  C   UNL     1      10.736  21.701  61.781  1.00  0.00     0.014 C 
ENDROOT
BRANCH   1  30
ATOM     30  C   UNL     1       3.554  28.708  62.061  1.00  0.00     0.048 C 
ATOM     31  O   UNL     1       4.254  29.695  61.710  1.00  0.00    -0.550 OA
ATOM     32  O   UNL     1       2.721  28.843  63.167  1.00  0.00    -0.550 OA
ENDBRANCH   1  30
BRANCH  27  33
ATOM     33  O   UNL     1       9.632  20.845  64.249  1.00  0.00    -0.393 OA
ATOM     34  H   UNL     1       8.943  21.177  63.615  1.00  0.00     0.210 HD
ENDBRANCH  27  33
TORSDOF 2
ENDMDL
MODEL 3
REMARK VINA RESULT:    -5.590      4.707      7.894
REMARK INTER + INTRA:          -5.806
REMARK INTER:                  -6.100
REMARK INTRA:                   0.295
REMARK UNBOUND:                 0.274
REMARK SMILES CC1(C)CC[C@@]2(C(=O)[O-])CC[C@]3(C)C(=CC[C@@H]4[C@@]5(C)CC[C@@H](O)C(C)(C)[C@H]5CC[C@@]43C)[C@@H]2C1
REMARK SMILES IDX 6 1 5 2 10 3 32 4 4 5 11 6 14 7 33 8 2 9 12 10 15 11 1 12
REMARK SMILES IDX 3 13 13 14 30 15 16 16 17 17 29 18 31 19 18 20 28 21 27 22
REMARK SMILES IDX 20 23 19 24 24 25 21 26 22 27 25 28 26 29 7 30 8 31 9 32
REMARK SMILES IDX 23 33
REMARK H PARENT 23 34
REMARK Flexibility Score: inf
ROOT
ATOM      1  C   UNL     1       4.231  27.421  62.269  1.00  0.00     0.017 C 
ATOM      2  C   UNL     1       4.499  26.122  61.458  1.00  0.00     0.014 C 
ATOM      3  C   UNL     1       4.632  27.175  63.764  1.00  0.00     0.014 C 
ATOM      4  C   UNL     1       5.098  28.569  61.663  1.00  0.00     0.028 C 
ATOM      5  C   UNL     1       4.206  26.290  59.960  1.00  0.00     0.007 C 
ATOM      6  C   UNL     1       5.558  28.246  64.386  1.00  0.00     0.013 C 
ATOM      7  C   UNL     1       4.988  29.839  62.528  1.00  0.00    -0.064 C 
ATOM      8  C   UNL     1       4.847  28.751  60.137  1.00  0.00     0.015 C 
ATOM      9  C   UNL     1       5.012  27.444  59.313  1.00  0.00    -0.035 C 
ATOM     10  C   UNL     1       5.164  29.733  64.045  1.00  0.00    -0.006 C 
ATOM     11  C   UNL     1       4.908  31.057  61.969  1.00  0.00    -0.027 C 
ATOM     12  C   UNL     1       4.466  27.686  57.889  1.00  0.00     0.011 C 
ATOM     13  C   UNL     1       6.508  27.061  59.183  1.00  0.00     0.011 C 
ATOM     14  C   UNL     1       3.787  30.020  64.717  1.00  0.00     0.017 C 
ATOM     15  C   UNL     1       6.258  30.816  64.532  1.00  0.00    -0.020 C 
ATOM     16  C   UNL     1       5.136  32.338  62.710  1.00  0.00     0.032 C 
ATOM     17  C   UNL     1       5.779  32.284  64.152  1.00  0.00     0.006 C 
ATOM     18  C   UNL     1       7.619  30.580  63.815  1.00  0.00     0.008 C 
ATOM     19  C   UNL     1       6.448  30.683  66.085  1.00  0.00     0.012 C 
ATOM     20  C   UNL     1       6.835  33.485  64.355  1.00  0.00    -0.025 C 
ATOM     21  C   UNL     1       8.663  31.681  64.039  1.00  0.00     0.005 C 
ATOM     22  C   UNL     1       8.209  33.126  63.658  1.00  0.00     0.003 C 
ATOM     23  C   UNL     1       7.102  33.804  65.864  1.00  0.00     0.010 C 
ATOM     24  C   UNL     1       6.169  34.777  63.749  1.00  0.00     0.012 C 
ATOM     25  C   UNL     1       9.376  34.190  63.915  1.00  0.00    -0.006 C 
ATOM     26  C   UNL     1       8.174  34.886  66.104  1.00  0.00     0.033 C 
ATOM     27  C   UNL     1       9.516  34.550  65.436  1.00  0.00     0.120 C 
ATOM     28  C   UNL     1       9.136  35.492  63.097  1.00  0.00     0.014 C 
ATOM     29  C   UNL     1      10.745  33.655  63.397  1.00  0.00     0.014 C 
ENDROOT
BRANCH   1  30
ATOM     30  C   UNL     1       2.733  27.727  62.212  1.00  0.00     0.048 C 
ATOM     31  O   UNL     1       2.246  28.484  61.330  1.00  0.00    -0.550 OA
ATOM     32  O   UNL     1       1.884  27.201  63.181  1.00  0.00    -0.550 OA
ENDBRANCH   1  30
BRANCH  27  33
ATOM     33  O   UNL     1      10.120  33.505  66.160  1.00  0.00    -0.393 OA
ATOM     34  H   UNL     1       9.585  32.683  66.006  1.00  0.00     0.210 HD
ENDBRANCH  27  33
TORSDOF 2
ENDMDL
MODEL 4
REMARK VINA RESULT:    -5.580      3.978      7.525
REMARK INTER + INTRA:          -5.795
REMARK INTER:                  -6.157
REMARK INTRA:                   0.362
REMARK UNBOUND:                 0.274
REMARK SMILES CC1(C)CC[C@@]2(C(=O)[O-])CC[C@]3(C)C(=CC[C@@H]4[C@@]5(C)CC[C@@H](O)C(C)(C)[C@H]5CC[C@@]43C)[C@@H]2C1
REMARK SMILES IDX 6 1 5 2 10 3 32 4 4 5 11 6 14 7 33 8 2 9 12 10 15 11 1 12
REMARK SMILES IDX 3 13 13 14 30 15 16 16 17 17 29 18 31 19 18 20 28 21 27 22
REMARK SMILES IDX 20 23 19 24 24 25 21 26 22 27 25 28 26 29 7 30 8 31 9 32
REMARK SMILES IDX 23 33
REMARK H PARENT 23 34
REMARK Flexibility Score: inf
ROOT
ATOM      1  C   UNL     1       4.824  26.894  60.436  1.00  0.00     0.017 C 
ATOM      2  C   UNL     1       5.154  26.581  58.950  1.00  0.00     0.014 C 
ATOM      3  C   UNL     1       5.823  26.107  61.351  1.00  0.00     0.014 C 
ATOM      4  C   UNL     1       4.984  28.430  60.664  1.00  0.00     0.028 C 
ATOM      5  C   UNL     1       4.273  27.369  57.970  1.00  0.00     0.007 C 
ATOM      6  C   UNL     1       6.529  26.950  62.439  1.00  0.00     0.013 C 
ATOM      7  C   UNL     1       4.821  28.771  62.158  1.00  0.00    -0.064 C 
ATOM      8  C   UNL     1       4.123  29.264  59.670  1.00  0.00     0.015 C 
ATOM      9  C   UNL     1       4.362  28.902  58.178  1.00  0.00    -0.035 C 
ATOM     10  C   UNL     1       5.589  27.957  63.203  1.00  0.00    -0.006 C 
ATOM     11  C   UNL     1       4.154  29.867  62.553  1.00  0.00    -0.027 C 
ATOM     12  C   UNL     1       3.265  29.578  57.325  1.00  0.00     0.011 C 
ATOM     13  C   UNL     1       5.731  29.441  57.693  1.00  0.00     0.011 C 
ATOM     14  C   UNL     1       4.561  27.115  64.017  1.00  0.00     0.017 C 
ATOM     15  C   UNL     1       6.385  28.964  64.182  1.00  0.00    -0.020 C 
ATOM     16  C   UNL     1       4.233  30.448  63.931  1.00  0.00     0.032 C 
ATOM     17  C   UNL     1       5.362  29.938  64.912  1.00  0.00     0.006 C 
ATOM     18  C   UNL     1       7.367  29.857  63.369  1.00  0.00     0.008 C 
ATOM     19  C   UNL     1       7.188  28.119  65.235  1.00  0.00     0.012 C 
ATOM     20  C   UNL     1       5.979  31.161  65.762  1.00  0.00    -0.025 C 
ATOM     21  C   UNL     1       8.013  30.995  64.170  1.00  0.00     0.005 C 
ATOM     22  C   UNL     1       7.018  31.966  64.881  1.00  0.00     0.003 C 
ATOM     23  C   UNL     1       6.689  30.686  67.073  1.00  0.00     0.010 C 
ATOM     24  C   UNL     1       4.763  32.048  66.223  1.00  0.00     0.012 C 
ATOM     25  C   UNL     1       7.796  33.121  65.670  1.00  0.00    -0.006 C 
ATOM     26  C   UNL     1       7.373  31.816  67.870  1.00  0.00     0.033 C 
ATOM     27  C   UNL     1       8.387  32.606  67.029  1.00  0.00     0.120 C 
ATOM     28  C   UNL     1       6.864  34.338  65.942  1.00  0.00     0.014 C 
ATOM     29  C   UNL     1       8.954  33.707  64.808  1.00  0.00     0.014 C 
ENDROOT
BRANCH   1  30
ATOM     30  C   UNL     1       3.406  26.403  60.731  1.00  0.00     0.048 C 
ATOM     31  O   UNL     1       2.391  27.073  60.397  1.00  0.00    -0.550 OA
ATOM     32  O   UNL     1       3.218  25.213  61.426  1.00  0.00    -0.550 OA
ENDBRANCH   1  30
BRANCH  27  33
ATOM     33  O   UNL     1       9.518  31.794  66.824  1.00  0.00    -0.393 OA
ATOM     34  H   UNL     1       9.245  30.851  66.981  1.00  0.00     0.210 HD
ENDBRANCH  27  33
TORSDOF 2
ENDMDL
MODEL 5
REMARK VINA RESULT:    -5.443      2.035      2.720
REMARK INTER + INTRA:          -5.647
REMARK INTER:                  -5.921
REMARK INTRA:                   0.274
REMARK UNBOUND:                 0.274
REMARK SMILES CC1(C)CC[C@@]2(C(=O)[O-])CC[C@]3(C)C(=CC[C@@H]4[C@@]5(C)CC[C@@H](O)C(C)(C)[C@H]5CC[C@@]43C)[C@@H]2C1
REMARK SMILES IDX 6 1 5 2 10 3 32 4 4 5 11 6 14 7 33 8 2 9 12 10 15 11 1 12
REMARK SMILES IDX 3 13 13 14 30 15 16 16 17 17 29 18 31 19 18 20 28 21 27 22
REMARK SMILES IDX 20 23 19 24 24 25 21 26 22 27 25 28 26 29 7 30 8 31 9 32
REMARK SMILES IDX 23 33
REMARK H PARENT 23 34
REMARK Flexibility Score: inf
ROOT
ATOM      1  C   UNL     1      11.673  28.095  63.706  1.00  0.00     0.017 C 
ATOM      2  C   UNL     1      12.573  29.266  64.192  1.00  0.00     0.014 C 
ATOM      3  C   UNL     1      10.798  27.599  64.907  1.00  0.00     0.014 C 
ATOM      4  C   UNL     1      10.757  28.621  62.556  1.00  0.00     0.028 C 
ATOM      5  C   UNL     1      13.417  29.872  63.060  1.00  0.00     0.007 C 
ATOM      6  C   UNL     1       9.284  27.476  64.616  1.00  0.00     0.013 C 
ATOM      7  C   UNL     1       9.737  27.542  62.145  1.00  0.00    -0.064 C 
ATOM      8  C   UNL     1      11.578  29.267  61.401  1.00  0.00     0.015 C 
ATOM      9  C   UNL     1      12.559  30.376  61.872  1.00  0.00    -0.035 C 
ATOM     10  C   UNL     1       8.933  26.818  63.229  1.00  0.00    -0.006 C 
ATOM     11  C   UNL     1       9.417  27.339  60.858  1.00  0.00    -0.027 C 
ATOM     12  C   UNL     1      13.503  30.729  60.702  1.00  0.00     0.011 C 
ATOM     13  C   UNL     1      11.790  31.664  62.260  1.00  0.00     0.011 C 
ATOM     14  C   UNL     1       9.407  25.334  63.279  1.00  0.00     0.017 C 
ATOM     15  C   UNL     1       7.361  26.889  62.862  1.00  0.00    -0.020 C 
ATOM     16  C   UNL     1       8.217  26.569  60.400  1.00  0.00     0.032 C 
ATOM     17  C   UNL     1       7.099  26.202  61.453  1.00  0.00     0.006 C 
ATOM     18  C   UNL     1       6.893  28.369  62.743  1.00  0.00     0.008 C 
ATOM     19  C   UNL     1       6.544  26.165  63.990  1.00  0.00     0.012 C 
ATOM     20  C   UNL     1       5.630  26.365  60.810  1.00  0.00    -0.025 C 
ATOM     21  C   UNL     1       5.475  28.551  62.187  1.00  0.00     0.005 C 
ATOM     22  C   UNL     1       5.208  27.890  60.797  1.00  0.00     0.003 C 
ATOM     23  C   UNL     1       4.540  25.546  61.578  1.00  0.00     0.010 C 
ATOM     24  C   UNL     1       5.699  25.747  59.363  1.00  0.00     0.012 C 
ATOM     25  C   UNL     1       3.709  28.156  60.306  1.00  0.00    -0.006 C 
ATOM     26  C   UNL     1       3.104  25.747  61.051  1.00  0.00     0.033 C 
ATOM     27  C   UNL     1       2.679  27.223  61.035  1.00  0.00     0.120 C 
ATOM     28  C   UNL     1       3.581  27.959  58.767  1.00  0.00     0.014 C 
ATOM     29  C   UNL     1       3.296  29.640  60.541  1.00  0.00     0.014 C 
ENDROOT
BRANCH   1  30
ATOM     30  C   UNL     1      12.576  26.946  63.255  1.00  0.00     0.048 C 
ATOM     31  O   UNL     1      12.679  26.622  62.041  1.00  0.00    -0.550 OA
ATOM     32  O   UNL     1      13.269  26.200  64.204  1.00  0.00    -0.550 OA
ENDBRANCH   1  30
BRANCH  27  33
ATOM     33  O   UNL     1       2.463  27.633  62.364  1.00  0.00    -0.393 OA
ATOM     34  H   UNL     1       2.667  26.862  62.955  1.00  0.00     0.210 HD
ENDBRANCH  27  33
TORSDOF 2
ENDMDL
MODEL 6
REMARK VINA RESULT:    -5.236      3.650      5.765
REMARK INTER + INTRA:          -5.421
REMARK INTER:                  -5.691
REMARK INTRA:                   0.270
REMARK UNBOUND:                 0.274
REMARK SMILES CC1(C)CC[C@@]2(C(=O)[O-])CC[C@]3(C)C(=CC[C@@H]4[C@@]5(C)CC[C@@H](O)C(C)(C)[C@H]5CC[C@@]43C)[C@@H]2C1
REMARK SMILES IDX 6 1 5 2 10 3 32 4 4 5 11 6 14 7 33 8 2 9 12 10 15 11 1 12
REMARK SMILES IDX 3 13 13 14 30 15 16 16 17 17 29 18 31 19 18 20 28 21 27 22
REMARK SMILES IDX 20 23 19 24 24 25 21 26 22 27 25 28 26 29 7 30 8 31 9 32
REMARK SMILES IDX 23 33
REMARK H PARENT 23 34
REMARK Flexibility Score: inf
ROOT
ATOM      1  C   UNL     1       5.937  23.215  65.404  1.00  0.00     0.017 C 
ATOM      2  C   UNL     1       6.468  21.759  65.523  1.00  0.00     0.014 C 
ATOM      3  C   UNL     1       7.159  24.195  65.353  1.00  0.00     0.014 C 
ATOM      4  C   UNL     1       5.103  23.330  64.089  1.00  0.00     0.028 C 
ATOM      5  C   UNL     1       5.341  20.716  65.503  1.00  0.00     0.007 C 
ATOM      6  C   UNL     1       7.135  25.224  64.198  1.00  0.00     0.013 C 
ATOM      7  C   UNL     1       4.685  24.793  63.844  1.00  0.00    -0.064 C 
ATOM      8  C   UNL     1       3.965  22.269  64.021  1.00  0.00     0.015 C 
ATOM      9  C   UNL     1       4.455  20.810  64.236  1.00  0.00    -0.035 C 
ATOM     10  C   UNL     1       5.735  25.902  63.950  1.00  0.00    -0.006 C 
ATOM     11  C   UNL     1       3.464  25.100  63.377  1.00  0.00    -0.027 C 
ATOM     12  C   UNL     1       3.222  19.900  64.431  1.00  0.00     0.011 C 
ATOM     13  C   UNL     1       5.223  20.298  62.992  1.00  0.00     0.011 C 
ATOM     14  C   UNL     1       5.404  26.768  65.203  1.00  0.00     0.017 C 
ATOM     15  C   UNL     1       5.687  26.811  62.616  1.00  0.00    -0.020 C 
ATOM     16  C   UNL     1       3.095  26.431  62.800  1.00  0.00     0.032 C 
ATOM     17  C   UNL     1       4.244  27.456  62.448  1.00  0.00     0.006 C 
ATOM     18  C   UNL     1       5.949  25.942  61.352  1.00  0.00     0.008 C 
ATOM     19  C   UNL     1       6.782  27.930  62.725  1.00  0.00     0.012 C 
ATOM     20  C   UNL     1       3.929  28.219  61.063  1.00  0.00    -0.025 C 
ATOM     21  C   UNL     1       5.712  26.661  60.018  1.00  0.00     0.005 C 
ATOM     22  C   UNL     1       4.294  27.290  59.836  1.00  0.00     0.003 C 
ATOM     23  C   UNL     1       4.709  29.568  60.925  1.00  0.00     0.010 C 
ATOM     24  C   UNL     1       2.402  28.602  61.097  1.00  0.00     0.012 C 
ATOM     25  C   UNL     1       4.150  27.997  58.408  1.00  0.00    -0.006 C 
ATOM     26  C   UNL     1       4.507  30.285  59.575  1.00  0.00     0.033 C 
ATOM     27  C   UNL     1       4.860  29.396  58.373  1.00  0.00     0.120 C 
ATOM     28  C   UNL     1       2.653  28.170  58.016  1.00  0.00     0.014 C 
ATOM     29  C   UNL     1       4.744  27.104  57.277  1.00  0.00     0.014 C 
ENDROOT
BRANCH   1  30
ATOM     30  C   UNL     1       5.110  23.533  66.651  1.00  0.00     0.048 C 
ATOM     31  O   UNL     1       3.853  23.610  66.609  1.00  0.00    -0.550 OA
ATOM     32  O   UNL     1       5.754  23.793  67.856  1.00  0.00    -0.550 OA
ENDBRANCH   1  30
BRANCH  27  33
ATOM     33  O   UNL     1       6.260  29.262  58.320  1.00  0.00    -0.393 OA
ATOM     34  H   UNL     1       6.501  28.975  57.399  1.00  0.00     0.210 HD
ENDBRANCH  27  33
TORSDOF 2
ENDMDL
MODEL 7
REMARK VINA RESULT:    -5.207      4.362      6.749
REMARK INTER + INTRA:          -5.390
REMARK INTER:                  -5.659
REMARK INTRA:                   0.269
REMARK UNBOUND:                 0.274
REMARK SMILES CC1(C)CC[C@@]2(C(=O)[O-])CC[C@]3(C)C(=CC[C@@H]4[C@@]5(C)CC[C@@H](O)C(C)(C)[C@H]5CC[C@@]43C)[C@@H]2C1
REMARK SMILES IDX 6 1 5 2 10 3 32 4 4 5 11 6 14 7 33 8 2 9 12 10 15 11 1 12
REMARK SMILES IDX 3 13 13 14 30 15 16 16 17 17 29 18 31 19 18 20 28 21 27 22
REMARK SMILES IDX 20 23 19 24 24 25 21 26 22 27 25 28 26 29 7 30 8 31 9 32
REMARK SMILES IDX 23 33
REMARK H PARENT 23 34
REMARK Flexibility Score: inf
ROOT
ATOM      1  C   UNL     1       7.207  33.451  65.301  1.00  0.00     0.017 C 
ATOM      2  C   UNL     1       7.575  34.937  65.034  1.00  0.00     0.014 C 
ATOM      3  C   UNL     1       5.674  33.358  65.614  1.00  0.00     0.014 C 
ATOM      4  C   UNL     1       7.543  32.622  64.021  1.00  0.00     0.028 C 
ATOM      5  C   UNL     1       9.048  35.120  64.641  1.00  0.00     0.007 C 
ATOM      6  C   UNL     1       4.896  32.297  64.803  1.00  0.00     0.013 C 
ATOM      7  C   UNL     1       7.052  31.169  64.177  1.00  0.00    -0.064 C 
ATOM      8  C   UNL     1       9.025  32.803  63.577  1.00  0.00     0.015 C 
ATOM      9  C   UNL     1       9.449  34.288  63.397  1.00  0.00    -0.035 C 
ATOM     10  C   UNL     1       5.626  30.908  64.667  1.00  0.00    -0.006 C 
ATOM     11  C   UNL     1       7.786  30.135  63.737  1.00  0.00    -0.027 C 
ATOM     12  C   UNL     1      10.984  34.346  63.241  1.00  0.00     0.011 C 
ATOM     13  C   UNL     1       8.823  34.887  62.113  1.00  0.00     0.011 C 
ATOM     14  C   UNL     1       5.706  30.278  66.090  1.00  0.00     0.017 C 
ATOM     15  C   UNL     1       4.891  29.892  63.648  1.00  0.00    -0.020 C 
ATOM     16  C   UNL     1       7.253  28.750  63.542  1.00  0.00     0.032 C 
ATOM     17  C   UNL     1       5.691  28.520  63.576  1.00  0.00     0.006 C 
ATOM     18  C   UNL     1       4.865  30.483  62.209  1.00  0.00     0.008 C 
ATOM     19  C   UNL     1       3.422  29.648  64.146  1.00  0.00     0.012 C 
ATOM     20  C   UNL     1       5.242  27.458  62.449  1.00  0.00    -0.025 C 
ATOM     21  C   UNL     1       4.387  29.510  61.123  1.00  0.00     0.005 C 
ATOM     22  C   UNL     1       5.172  28.163  61.034  1.00  0.00     0.003 C 
ATOM     23  C   UNL     1       3.854  26.803  62.755  1.00  0.00     0.010 C 
ATOM     24  C   UNL     1       6.294  26.287  62.488  1.00  0.00     0.012 C 
ATOM     25  C   UNL     1       4.603  27.235  59.862  1.00  0.00    -0.006 C 
ATOM     26  C   UNL     1       3.345  25.849  61.656  1.00  0.00     0.033 C 
ATOM     27  C   UNL     1       3.269  26.520  60.276  1.00  0.00     0.120 C 
ATOM     28  C   UNL     1       5.650  26.164  59.437  1.00  0.00     0.014 C 
ATOM     29  C   UNL     1       4.349  28.061  58.565  1.00  0.00     0.014 C 
ENDROOT
BRANCH   1  30
ATOM     30  C   UNL     1       7.984  32.973  66.528  1.00  0.00     0.048 C 
ATOM     31  O   UNL     1       8.948  32.167  66.429  1.00  0.00    -0.550 OA
ATOM     32  O   UNL     1       7.596  33.393  67.796  1.00  0.00    -0.550 OA
ENDBRANCH   1  30
BRANCH  27  33
ATOM     33  O   UNL     1       2.184  27.416  60.281  1.00  0.00    -0.393 OA
ATOM     34  H   UNL     1       2.289  28.020  59.499  1.00  0.00     0.210 HD
ENDBRANCH  27  33
TORSDOF 2
ENDMDL
MODEL 8
REMARK VINA RESULT:    -5.197      2.285      7.566
REMARK INTER + INTRA:          -5.379
REMARK INTER:                  -5.668
REMARK INTRA:                   0.289
REMARK UNBOUND:                 0.274
REMARK SMILES CC1(C)CC[C@@]2(C(=O)[O-])CC[C@]3(C)C(=CC[C@@H]4[C@@]5(C)CC[C@@H](O)C(C)(C)[C@H]5CC[C@@]43C)[C@@H]2C1
REMARK SMILES IDX 6 1 5 2 10 3 32 4 4 5 11 6 14 7 33 8 2 9 12 10 15 11 1 12
REMARK SMILES IDX 3 13 13 14 30 15 16 16 17 17 29 18 31 19 18 20 28 21 27 22
REMARK SMILES IDX 20 23 19 24 24 25 21 26 22 27 25 28 26 29 7 30 8 31 9 32
REMARK SMILES IDX 23 33
REMARK H PARENT 23 34
REMARK Flexibility Score: inf
ROOT
ATOM      1  C   UNL     1       5.461  26.004  61.337  1.00  0.00     0.017 C 
ATOM      2  C   UNL     1       4.489  25.926  60.126  1.00  0.00     0.014 C 
ATOM      3  C   UNL     1       6.521  24.857  61.208  1.00  0.00     0.014 C 
ATOM      4  C   UNL     1       6.170  27.394  61.311  1.00  0.00     0.028 C 
ATOM      5  C   UNL     1       3.455  27.061  60.124  1.00  0.00     0.007 C 
ATOM      6  C   UNL     1       7.996  25.298  61.357  1.00  0.00     0.013 C 
ATOM      7  C   UNL     1       7.259  27.462  62.400  1.00  0.00    -0.064 C 
ATOM      8  C   UNL     1       5.152  28.572  61.282  1.00  0.00     0.015 C 
ATOM      9  C   UNL     1       4.105  28.468  60.138  1.00  0.00    -0.035 C 
ATOM     10  C   UNL     1       8.262  26.314  62.531  1.00  0.00    -0.006 C 
ATOM     11  C   UNL     1       7.452  28.576  63.123  1.00  0.00    -0.027 C 
ATOM     12  C   UNL     1       2.998  29.517  60.386  1.00  0.00     0.011 C 
ATOM     13  C   UNL     1       4.754  28.785  58.768  1.00  0.00     0.011 C 
ATOM     14  C   UNL     1       7.978  25.568  63.870  1.00  0.00     0.017 C 
ATOM     15  C   UNL     1       9.762  26.914  62.534  1.00  0.00    -0.020 C 
ATOM     16  C   UNL     1       8.675  28.844  63.944  1.00  0.00     0.032 C 
ATOM     17  C   UNL     1       9.943  27.922  63.750  1.00  0.00     0.006 C 
ATOM     18  C   UNL     1      10.033  27.718  61.229  1.00  0.00     0.008 C 
ATOM     19  C   UNL     1      10.783  25.727  62.646  1.00  0.00     0.012 C 
ATOM     20  C   UNL     1      11.298  28.793  63.797  1.00  0.00    -0.025 C 
ATOM     21  C   UNL     1      11.346  28.511  61.225  1.00  0.00     0.005 C 
ATOM     22  C   UNL     1      11.531  29.514  62.408  1.00  0.00     0.003 C 
ATOM     23  C   UNL     1      12.559  27.929  64.135  1.00  0.00     0.010 C 
ATOM     24  C   UNL     1      11.139  29.812  64.987  1.00  0.00     0.012 C 
ATOM     25  C   UNL     1      12.921  30.296  62.295  1.00  0.00    -0.006 C 
ATOM     26  C   UNL     1      13.890  28.707  64.099  1.00  0.00     0.033 C 
ATOM     27  C   UNL     1      14.131  29.410  62.755  1.00  0.00     0.120 C 
ATOM     28  C   UNL     1      12.895  31.608  63.134  1.00  0.00     0.014 C 
ATOM     29  C   UNL     1      13.177  30.778  60.835  1.00  0.00     0.014 C 
ENDROOT
BRANCH   1  30
ATOM     30  C   UNL     1       4.657  25.781  62.619  1.00  0.00     0.048 C 
ATOM     31  O   UNL     1       4.241  26.745  63.315  1.00  0.00    -0.550 OA
ATOM     32  O   UNL     1       4.413  24.485  63.063  1.00  0.00    -0.550 OA
ENDBRANCH   1  30
BRANCH  27  33
ATOM     33  O   UNL     1      14.447  28.431  61.795  1.00  0.00    -0.393 OA
ATOM     34  H   UNL     1      13.974  27.595  62.050  1.00  0.00     0.210 HD
ENDBRANCH  27  33
TORSDOF 2
ENDMDL
MODEL 9
REMARK VINA RESULT:    -4.882      4.428      7.400
REMARK INTER + INTRA:          -5.036
REMARK INTER:                  -5.306
REMARK INTRA:                   0.270
REMARK UNBOUND:                 0.274
REMARK SMILES CC1(C)CC[C@@]2(C(=O)[O-])CC[C@]3(C)C(=CC[C@@H]4[C@@]5(C)CC[C@@H](O)C(C)(C)[C@H]5CC[C@@]43C)[C@@H]2C1
REMARK SMILES IDX 6 1 5 2 10 3 32 4 4 5 11 6 14 7 33 8 2 9 12 10 15 11 1 12
REMARK SMILES IDX 3 13 13 14 30 15 16 16 17 17 29 18 31 19 18 20 28 21 27 22
REMARK SMILES IDX 20 23 19 24 24 25 21 26 22 27 25 28 26 29 7 30 8 31 9 32
REMARK SMILES IDX 23 33
REMARK H PARENT 23 34
REMARK Flexibility Score: inf
ROOT
ATOM      1  C   UNL     1       7.166  27.645  63.305  1.00  0.00     0.017 C 
ATOM      2  C   UNL     1       7.449  26.643  62.151  1.00  0.00     0.014 C 
ATOM      3  C   UNL     1       8.512  28.332  63.720  1.00  0.00     0.014 C 
ATOM      4  C   UNL     1       6.153  28.717  62.791  1.00  0.00     0.028 C 
ATOM      5  C   UNL     1       6.172  25.973  61.623  1.00  0.00     0.007 C 
ATOM      6  C   UNL     1       8.471  29.876  63.797  1.00  0.00     0.013 C 
ATOM      7  C   UNL     1       5.960  29.823  63.847  1.00  0.00    -0.064 C 
ATOM      8  C   UNL     1       4.855  28.072  62.224  1.00  0.00     0.015 C 
ATOM      9  C   UNL     1       5.114  26.994  61.135  1.00  0.00    -0.035 C 
ATOM     10  C   UNL     1       7.188  30.465  64.496  1.00  0.00    -0.006 C 
ATOM     11  C   UNL     1       4.749  30.351  64.088  1.00  0.00    -0.027 C 
ATOM     12  C   UNL     1       3.793  26.239  60.865  1.00  0.00     0.011 C 
ATOM     13  C   UNL     1       5.560  27.650  59.805  1.00  0.00     0.011 C 
ATOM     14  C   UNL     1       7.230  30.036  65.993  1.00  0.00     0.017 C 
ATOM     15  C   UNL     1       7.073  32.072  64.379  1.00  0.00    -0.020 C 
ATOM     16  C   UNL     1       4.524  31.632  64.830  1.00  0.00     0.032 C 
ATOM     17  C   UNL     1       5.756  32.579  65.112  1.00  0.00     0.006 C 
ATOM     18  C   UNL     1       6.963  32.507  62.889  1.00  0.00     0.008 C 
ATOM     19  C   UNL     1       8.348  32.720  65.027  1.00  0.00     0.012 C 
ATOM     20  C   UNL     1       5.348  34.126  64.918  1.00  0.00    -0.025 C 
ATOM     21  C   UNL     1       6.631  33.989  62.675  1.00  0.00     0.005 C 
ATOM     22  C   UNL     1       5.333  34.497  63.380  1.00  0.00     0.003 C 
ATOM     23  C   UNL     1       6.315  35.103  65.665  1.00  0.00     0.010 C 
ATOM     24  C   UNL     1       3.938  34.308  65.596  1.00  0.00     0.012 C 
ATOM     25  C   UNL     1       5.075  36.046  63.078  1.00  0.00    -0.006 C 
ATOM     26  C   UNL     1       6.014  36.598  65.431  1.00  0.00     0.033 C 
ATOM     27  C   UNL     1       5.999  36.974  63.941  1.00  0.00     0.120 C 
ATOM     28  C   UNL     1       3.586  36.425  63.330  1.00  0.00     0.014 C 
ATOM     29  C   UNL     1       5.304  36.369  61.571  1.00  0.00     0.014 C 
ENDROOT
BRANCH   1  30
ATOM     30  C   UNL     1       6.630  26.862  64.506  1.00  0.00     0.048 C 
ATOM     31  O   UNL     1       5.424  26.943  64.863  1.00  0.00    -0.550 OA
ATOM     32  O   UNL     1       7.496  26.076  65.258  1.00  0.00    -0.550 OA
ENDBRANCH   1  30
BRANCH  27  33
ATOM     33  O   UNL     1       7.326  36.962  63.470  1.00  0.00    -0.393 OA
ATOM     34  H   UNL     1       7.926  36.931  64.261  1.00  0.00     0.210 HD
ENDBRANCH  27  33
TORSDOF 2
ENDMDL
