MODEL 1
REMARK VINA RESULT:    -4.654      0.000      0.000
REMARK INTER + INTRA:          -9.849
REMARK INTER:                  -8.735
REMARK INTRA:                  -1.114
REMARK UNBOUND:                -1.114
REMARK SMILES CCCCCCCCC=CCCCCCCCC(=O)[O-]
REMARK SMILES IDX 10 1 9 2 11 3 12 4 13 5 14 6 15 7 16 8 17 9 18 10 19 11
REMARK SMILES IDX 20 12 8 13 7 14 6 15 5 16 4 17 3 18 2 19 1 20
REMARK H PARENT
REMARK Flexibility Score: inf
ROOT
ATOM      1  C   UNL     1      -8.846  -0.512 -38.367  1.00  0.00    -0.031 C 
ATOM      2  C   UNL     1      -8.832   0.389 -37.369  1.00  0.00    -0.031 C 
ENDROOT
BRANCH   1   3
ATOM      3  C   UNL     1     -10.049  -1.355 -38.713  1.00  0.00     0.027 C 
BRANCH   3   4
ATOM      4  C   UNL     1      -9.960  -1.889 -40.146  1.00  0.00     0.004 C 
BRANCH   4   5
ATOM      5  C   UNL     1      -8.685  -1.389 -40.840  1.00  0.00     0.000 C 
BRANCH   5   6
ATOM      6  C   UNL     1      -7.832  -2.529 -41.426  1.00  0.00     0.000 C 
BRANCH   6   7
ATOM      7  C   UNL     1      -7.758  -3.799 -40.558  1.00  0.00     0.000 C 
BRANCH   7   8
ATOM      8  C   UNL     1      -6.805  -3.654 -39.362  1.00  0.00     0.006 C 
BRANCH   8   9
ATOM      9  C   UNL     1      -5.345  -3.778 -39.805  1.00  0.00     0.053 C 
BRANCH   9  10
ATOM     10  C   UNL     1      -4.567  -4.590 -38.819  1.00  0.00     0.041 C 
ATOM     11  O   UNL     1      -5.002  -4.756 -37.648  1.00  0.00    -0.550 OA
ATOM     12  O   UNL     1      -3.341  -5.134 -39.180  1.00  0.00    -0.550 OA
ENDBRANCH   9  10
ENDBRANCH   8   9
ENDBRANCH   7   8
ENDBRANCH   6   7
ENDBRANCH   5   6
ENDBRANCH   4   5
ENDBRANCH   3   4
ENDBRANCH   1   3
BRANCH   2  13
ATOM     13  C   UNL     1     -10.020   0.709 -36.497  1.00  0.00     0.027 C 
BRANCH  13  14
ATOM     14  C   UNL     1     -10.932   1.743 -37.174  1.00  0.00     0.004 C 
BRANCH  14  15
ATOM     15  C   UNL     1     -11.543   2.738 -36.175  1.00  0.00     0.000 C 
BRANCH  15  16
ATOM     16  C   UNL     1     -11.004   2.549 -34.747  1.00  0.00     0.000 C 
BRANCH  16  17
ATOM     17  C   UNL     1     -10.969   3.865 -33.950  1.00  0.00    -0.000 C 
BRANCH  17  18
ATOM     18  C   UNL     1      -9.889   3.866 -32.853  1.00  0.00    -0.000 C 
BRANCH  18  19
ATOM     19  C   UNL     1     -10.053   5.036 -31.868  1.00  0.00    -0.003 C 
ATOM     20  C   UNL     1      -9.086   6.186 -32.149  1.00  0.00     0.004 C 
ENDBRANCH  18  19
ENDBRANCH  17  18
ENDBRANCH  16  17
ENDBRANCH  15  16
ENDBRANCH  14  15
ENDBRANCH  13  14
ENDBRANCH   2  13
TORSDOF 15
ENDMDL
MODEL 2
REMARK VINA RESULT:    -4.649      3.990      9.488
REMARK INTER + INTRA:          -9.840
REMARK INTER:                  -8.712
REMARK INTRA:                  -1.127
REMARK UNBOUND:                -1.114
REMARK SMILES CCCCCCCCC=CCCCCCCCC(=O)[O-]
REMARK SMILES IDX 10 1 9 2 11 3 12 4 13 5 14 6 15 7 16 8 17 9 18 10 19 11
REMARK SMILES IDX 20 12 8 13 7 14 6 15 5 16 4 17 3 18 2 19 1 20
REMARK H PARENT
REMARK Flexibility Score: inf
ROOT
ATOM      1  C   UNL     1      -9.311  -1.388 -38.365  1.00  0.00    -0.031 C 
ATOM      2  C   UNL     1      -9.333  -1.871 -39.619  1.00  0.00    -0.031 C 
ENDROOT
BRANCH   1   3
ATOM      3  C   UNL     1      -8.638  -0.093 -37.980  1.00  0.00     0.027 C 
BRANCH   3   4
ATOM      4  C   UNL     1      -9.381   0.600 -36.834  1.00  0.00     0.004 C 
BRANCH   4   5
ATOM      5  C   UNL     1     -10.869   0.775 -37.170  1.00  0.00     0.000 C 
BRANCH   5   6
ATOM      6  C   UNL     1     -11.576   1.794 -36.258  1.00  0.00     0.000 C 
BRANCH   6   7
ATOM      7  C   UNL     1     -10.780   2.211 -35.007  1.00  0.00     0.000 C 
BRANCH   7   8
ATOM      8  C   UNL     1     -11.407   3.403 -34.267  1.00  0.00     0.006 C 
BRANCH   8   9
ATOM      9  C   UNL     1     -11.096   3.344 -32.769  1.00  0.00     0.053 C 
BRANCH   9  10
ATOM     10  C   UNL     1      -9.947   4.242 -32.437  1.00  0.00     0.041 C 
ATOM     11  O   UNL     1      -9.142   3.931 -31.519  1.00  0.00    -0.550 OA
ATOM     12  O   UNL     1      -9.786   5.443 -33.116  1.00  0.00    -0.550 OA
ENDBRANCH   9  10
ENDBRANCH   8   9
ENDBRANCH   7   8
ENDBRANCH   6   7
ENDBRANCH   5   6
ENDBRANCH   4   5
ENDBRANCH   3   4
ENDBRANCH   1   3
BRANCH   2  13
ATOM     13  C   UNL     1      -8.732  -1.166 -40.810  1.00  0.00     0.027 C 
BRANCH  13  14
ATOM     14  C   UNL     1      -8.035  -2.168 -41.743  1.00  0.00     0.004 C 
BRANCH  14  15
ATOM     15  C   UNL     1      -8.375  -3.628 -41.405  1.00  0.00     0.000 C 
BRANCH  15  16
ATOM     16  C   UNL     1      -7.122  -4.488 -41.170  1.00  0.00     0.000 C 
BRANCH  16  17
ATOM     17  C   UNL     1      -6.576  -4.359 -39.737  1.00  0.00    -0.000 C 
BRANCH  17  18
ATOM     18  C   UNL     1      -5.096  -3.937 -39.702  1.00  0.00    -0.000 C 
BRANCH  18  19
ATOM     19  C   UNL     1      -4.253  -4.828 -38.774  1.00  0.00    -0.003 C 
ATOM     20  C   UNL     1      -3.190  -5.628 -39.525  1.00  0.00     0.004 C 
ENDBRANCH  18  19
ENDBRANCH  17  18
ENDBRANCH  16  17
ENDBRANCH  15  16
ENDBRANCH  14  15
ENDBRANCH  13  14
ENDBRANCH   2  13
TORSDOF 15
ENDMDL
MODEL 3
REMARK VINA RESULT:    -4.540      4.557      9.896
REMARK INTER + INTRA:          -9.636
REMARK INTER:                  -8.760
REMARK INTRA:                  -0.875
REMARK UNBOUND:                -1.114
REMARK SMILES CCCCCCCCC=CCCCCCCCC(=O)[O-]
REMARK SMILES IDX 10 1 9 2 11 3 12 4 13 5 14 6 15 7 16 8 17 9 18 10 19 11
REMARK SMILES IDX 20 12 8 13 7 14 6 15 5 16 4 17 3 18 2 19 1 20
REMARK H PARENT
REMARK Flexibility Score: inf
ROOT
ATOM      1  C   UNL     1     -11.591   0.551 -37.475  1.00  0.00    -0.031 C 
ATOM      2  C   UNL     1     -10.635  -0.388 -37.587  1.00  0.00    -0.031 C 
ENDROOT
BRANCH   1   3
ATOM      3  C   UNL     1     -11.309   1.990 -37.121  1.00  0.00     0.027 C 
BRANCH   3   4
ATOM      4  C   UNL     1     -11.825   2.329 -35.718  1.00  0.00     0.004 C 
BRANCH   4   5
ATOM      5  C   UNL     1     -10.661   2.579 -34.749  1.00  0.00     0.000 C 
BRANCH   5   6
ATOM      6  C   UNL     1     -11.018   2.265 -33.285  1.00  0.00     0.000 C 
BRANCH   6   7
ATOM      7  C   UNL     1     -10.892   3.455 -32.315  1.00  0.00     0.000 C 
BRANCH   7   8
ATOM      8  C   UNL     1      -9.538   4.174 -32.419  1.00  0.00     0.006 C 
BRANCH   8   9
ATOM      9  C   UNL     1      -9.730   5.682 -32.600  1.00  0.00     0.053 C 
BRANCH   9  10
ATOM     10  C   UNL     1      -8.692   6.437 -31.833  1.00  0.00     0.041 C 
ATOM     11  O   UNL     1      -8.647   6.358 -30.576  1.00  0.00    -0.550 OA
ATOM     12  O   UNL     1      -7.795   7.260 -32.502  1.00  0.00    -0.550 OA
ENDBRANCH   9  10
ENDBRANCH   8   9
ENDBRANCH   7   8
ENDBRANCH   6   7
ENDBRANCH   5   6
ENDBRANCH   4   5
ENDBRANCH   3   4
ENDBRANCH   1   3
BRANCH   2  13
ATOM     13  C   UNL     1      -9.160  -0.122 -37.420  1.00  0.00     0.027 C 
BRANCH  13  14
ATOM     14  C   UNL     1      -8.403  -0.400 -38.727  1.00  0.00     0.004 C 
BRANCH  14  15
ATOM     15  C   UNL     1      -8.895  -1.671 -39.438  1.00  0.00     0.000 C 
BRANCH  15  16
ATOM     16  C   UNL     1      -7.851  -2.247 -40.409  1.00  0.00     0.000 C 
BRANCH  16  17
ATOM     17  C   UNL     1      -6.710  -2.981 -39.682  1.00  0.00    -0.000 C 
BRANCH  17  18
ATOM     18  C   UNL     1      -6.027  -4.041 -40.566  1.00  0.00    -0.000 C 
BRANCH  18  19
ATOM     19  C   UNL     1      -4.513  -4.129 -40.314  1.00  0.00    -0.003 C 
ATOM     20  C   UNL     1      -4.169  -4.886 -39.032  1.00  0.00     0.004 C 
ENDBRANCH  18  19
ENDBRANCH  17  18
ENDBRANCH  16  17
ENDBRANCH  15  16
ENDBRANCH  14  15
ENDBRANCH  13  14
ENDBRANCH   2  13
TORSDOF 15
ENDMDL
MODEL 4
REMARK VINA RESULT:    -4.460     12.100     14.906
REMARK INTER + INTRA:          -9.485
REMARK INTER:                  -6.960
REMARK INTRA:                  -2.525
REMARK UNBOUND:                -1.114
REMARK SMILES CCCCCCCCC=CCCCCCCCC(=O)[O-]
REMARK SMILES IDX 10 1 9 2 11 3 12 4 13 5 14 6 15 7 16 8 17 9 18 10 19 11
REMARK SMILES IDX 20 12 8 13 7 14 6 15 5 16 4 17 3 18 2 19 1 20
REMARK H PARENT
REMARK Flexibility Score: inf
ROOT
ATOM      1  C   UNL     1       0.657  -6.315 -33.473  1.00  0.00    -0.031 C 
ATOM      2  C   UNL     1       1.772  -6.396 -34.221  1.00  0.00    -0.031 C 
ENDROOT
BRANCH   1   3
ATOM      3  C   UNL     1      -0.263  -7.483 -33.217  1.00  0.00     0.027 C 
BRANCH   3   4
ATOM      4  C   UNL     1      -1.614  -7.016 -32.667  1.00  0.00     0.004 C 
BRANCH   4   5
ATOM      5  C   UNL     1      -2.229  -8.078 -31.745  1.00  0.00     0.000 C 
BRANCH   5   6
ATOM      6  C   UNL     1      -1.922  -7.834 -30.257  1.00  0.00     0.000 C 
BRANCH   6   7
ATOM      7  C   UNL     1      -1.589  -6.376 -29.891  1.00  0.00     0.000 C 
BRANCH   7   8
ATOM      8  C   UNL     1      -1.184  -6.204 -28.419  1.00  0.00     0.006 C 
BRANCH   8   9
ATOM      9  C   UNL     1      -1.749  -7.337 -27.558  1.00  0.00     0.053 C 
BRANCH   9  10
ATOM     10  C   UNL     1      -2.997  -6.894 -26.863  1.00  0.00     0.041 C 
ATOM     11  O   UNL     1      -3.039  -6.839 -25.605  1.00  0.00    -0.550 OA
ATOM     12  O   UNL     1      -4.129  -6.576 -27.603  1.00  0.00    -0.550 OA
ENDBRANCH   9  10
ENDBRANCH   8   9
ENDBRANCH   7   8
ENDBRANCH   6   7
ENDBRANCH   5   6
ENDBRANCH   4   5
ENDBRANCH   3   4
ENDBRANCH   1   3
BRANCH   2  13
ATOM     13  C   UNL     1       2.272  -7.666 -34.863  1.00  0.00     0.027 C 
BRANCH  13  14
ATOM     14  C   UNL     1       3.254  -8.396 -33.935  1.00  0.00     0.004 C 
BRANCH  14  15
ATOM     15  C   UNL     1       4.100  -7.431 -33.089  1.00  0.00     0.000 C 
BRANCH  15  16
ATOM     16  C   UNL     1       4.129  -7.820 -31.601  1.00  0.00     0.000 C 
BRANCH  16  17
ATOM     17  C   UNL     1       3.127  -8.937 -31.262  1.00  0.00    -0.000 C 
BRANCH  17  18
ATOM     18  C   UNL     1       1.852  -8.405 -30.583  1.00  0.00    -0.000 C 
BRANCH  18  19
ATOM     19  C   UNL     1       2.057  -7.016 -29.955  1.00  0.00    -0.003 C 
ATOM     20  C   UNL     1       2.378  -7.083 -28.462  1.00  0.00     0.004 C 
ENDBRANCH  18  19
ENDBRANCH  17  18
ENDBRANCH  16  17
ENDBRANCH  15  16
ENDBRANCH  14  15
ENDBRANCH  13  14
ENDBRANCH   2  13
TORSDOF 15
ENDMDL
MODEL 5
REMARK VINA RESULT:    -4.456      1.245      2.403
REMARK INTER + INTRA:          -9.477
REMARK INTER:                  -8.755
REMARK INTRA:                  -0.723
REMARK UNBOUND:                -1.114
REMARK SMILES CCCCCCCCC=CCCCCCCCC(=O)[O-]
REMARK SMILES IDX 10 1 9 2 11 3 12 4 13 5 14 6 15 7 16 8 17 9 18 10 19 11
REMARK SMILES IDX 20 12 8 13 7 14 6 15 5 16 4 17 3 18 2 19 1 20
REMARK H PARENT
REMARK Flexibility Score: inf
ROOT
ATOM      1  C   UNL     1     -10.861   1.165 -37.048  1.00  0.00    -0.031 C 
ATOM      2  C   UNL     1     -11.383   1.917 -36.063  1.00  0.00    -0.031 C 
ENDROOT
BRANCH   1   3
ATOM      3  C   UNL     1      -9.455   0.617 -37.024  1.00  0.00     0.027 C 
BRANCH   3   4
ATOM      4  C   UNL     1      -9.346  -0.670 -37.849  1.00  0.00     0.004 C 
BRANCH   4   5
ATOM      5  C   UNL     1      -8.252  -0.546 -38.920  1.00  0.00     0.000 C 
BRANCH   5   6
ATOM      6  C   UNL     1      -8.300  -1.675 -39.964  1.00  0.00     0.000 C 
BRANCH   6   7
ATOM      7  C   UNL     1      -7.622  -2.990 -39.533  1.00  0.00     0.000 C 
BRANCH   7   8
ATOM      8  C   UNL     1      -6.599  -3.501 -40.558  1.00  0.00     0.006 C 
BRANCH   8   9
ATOM      9  C   UNL     1      -5.176  -3.423 -40.000  1.00  0.00     0.053 C 
BRANCH   9  10
ATOM     10  C   UNL     1      -4.882  -4.617 -39.148  1.00  0.00     0.041 C 
ATOM     11  O   UNL     1      -4.652  -4.478 -37.917  1.00  0.00    -0.550 OA
ATOM     12  O   UNL     1      -4.824  -5.881 -39.719  1.00  0.00    -0.550 OA
ENDBRANCH   9  10
ENDBRANCH   8   9
ENDBRANCH   7   8
ENDBRANCH   6   7
ENDBRANCH   5   6
ENDBRANCH   4   5
ENDBRANCH   3   4
ENDBRANCH   1   3
BRANCH   2  13
ATOM     13  C   UNL     1     -10.654   2.274 -34.792  1.00  0.00     0.027 C 
BRANCH  13  14
ATOM     14  C   UNL     1     -11.648   2.613 -33.670  1.00  0.00     0.004 C 
BRANCH  14  15
ATOM     15  C   UNL     1     -11.453   4.033 -33.116  1.00  0.00     0.000 C 
BRANCH  15  16
ATOM     16  C   UNL     1      -9.998   4.519 -33.233  1.00  0.00     0.000 C 
BRANCH  16  17
ATOM     17  C   UNL     1      -9.546   5.328 -32.004  1.00  0.00    -0.000 C 
BRANCH  17  18
ATOM     18  C   UNL     1     -10.447   5.099 -30.777  1.00  0.00    -0.000 C 
BRANCH  18  19
ATOM     19  C   UNL     1      -9.684   5.254 -29.451  1.00  0.00    -0.003 C 
ATOM     20  C   UNL     1      -9.428   6.714 -29.082  1.00  0.00     0.004 C 
ENDBRANCH  18  19
ENDBRANCH  17  18
ENDBRANCH  16  17
ENDBRANCH  15  16
ENDBRANCH  14  15
ENDBRANCH  13  14
ENDBRANCH   2  13
TORSDOF 15
ENDMDL
MODEL 6
REMARK VINA RESULT:    -4.363     12.103     14.646
REMARK INTER + INTRA:          -9.304
REMARK INTER:                  -6.490
REMARK INTRA:                  -2.814
REMARK UNBOUND:                -1.114
REMARK SMILES CCCCCCCCC=CCCCCCCCC(=O)[O-]
REMARK SMILES IDX 10 1 9 2 11 3 12 4 13 5 14 6 15 7 16 8 17 9 18 10 19 11
REMARK SMILES IDX 20 12 8 13 7 14 6 15 5 16 4 17 3 18 2 19 1 20
REMARK H PARENT
REMARK Flexibility Score: inf
ROOT
ATOM      1  C   UNL     1       2.701  -7.166 -30.765  1.00  0.00    -0.031 C 
ATOM      2  C   UNL     1       1.758  -7.189 -31.723  1.00  0.00    -0.031 C 
ENDROOT
BRANCH   1   3
ATOM      3  C   UNL     1       3.178  -8.397 -30.034  1.00  0.00     0.027 C 
BRANCH   3   4
ATOM      4  C   UNL     1       4.707  -8.495 -30.051  1.00  0.00     0.004 C 
BRANCH   4   5
ATOM      5  C   UNL     1       5.179  -9.552 -31.060  1.00  0.00     0.000 C 
BRANCH   5   6
ATOM      6  C   UNL     1       5.473  -8.966 -32.452  1.00  0.00     0.000 C 
BRANCH   6   7
ATOM      7  C   UNL     1       4.424  -9.292 -33.532  1.00  0.00     0.000 C 
BRANCH   7   8
ATOM      8  C   UNL     1       4.511  -8.364 -34.753  1.00  0.00     0.006 C 
BRANCH   8   9
ATOM      9  C   UNL     1       4.443  -6.894 -34.332  1.00  0.00     0.053 C 
BRANCH   9  10
ATOM     10  C   UNL     1       3.500  -6.139 -35.214  1.00  0.00     0.041 C 
ATOM     11  O   UNL     1       3.916  -5.603 -36.276  1.00  0.00    -0.550 OA
ATOM     12  O   UNL     1       2.169  -5.995 -34.847  1.00  0.00    -0.550 OA
ENDBRANCH   9  10
ENDBRANCH   8   9
ENDBRANCH   7   8
ENDBRANCH   6   7
ENDBRANCH   5   6
ENDBRANCH   4   5
ENDBRANCH   3   4
ENDBRANCH   1   3
BRANCH   2  13
ATOM     13  C   UNL     1       1.089  -8.444 -32.225  1.00  0.00     0.027 C 
BRANCH  13  14
ATOM     14  C   UNL     1      -0.014  -8.107 -33.239  1.00  0.00     0.004 C 
BRANCH  14  15
ATOM     15  C   UNL     1      -1.104  -7.198 -32.649  1.00  0.00     0.000 C 
BRANCH  15  16
ATOM     16  C   UNL     1      -2.153  -7.981 -31.842  1.00  0.00     0.000 C 
BRANCH  16  17
ATOM     17  C   UNL     1      -2.307  -7.454 -30.404  1.00  0.00    -0.000 C 
BRANCH  17  18
ATOM     18  C   UNL     1      -1.392  -6.251 -30.112  1.00  0.00    -0.000 C 
BRANCH  18  19
ATOM     19  C   UNL     1      -0.604  -6.416 -28.802  1.00  0.00    -0.003 C 
ATOM     20  C   UNL     1      -0.222  -7.869 -28.519  1.00  0.00     0.004 C 
ENDBRANCH  18  19
ENDBRANCH  17  18
ENDBRANCH  16  17
ENDBRANCH  15  16
ENDBRANCH  14  15
ENDBRANCH  13  14
ENDBRANCH   2  13
TORSDOF 15
ENDMDL
MODEL 7
REMARK VINA RESULT:    -4.346     12.754     16.325
REMARK INTER + INTRA:          -9.272
REMARK INTER:                  -7.137
REMARK INTRA:                  -2.135
REMARK UNBOUND:                -1.114
REMARK SMILES CCCCCCCCC=CCCCCCCCC(=O)[O-]
REMARK SMILES IDX 10 1 9 2 11 3 12 4 13 5 14 6 15 7 16 8 17 9 18 10 19 11
REMARK SMILES IDX 20 12 8 13 7 14 6 15 5 16 4 17 3 18 2 19 1 20
REMARK H PARENT
REMARK Flexibility Score: inf
ROOT
ATOM      1  C   UNL     1      -0.922  -6.118 -28.807  1.00  0.00    -0.031 C 
ATOM      2  C   UNL     1      -1.382  -6.307 -30.056  1.00  0.00    -0.031 C 
ENDROOT
BRANCH   1   3
ATOM      3  C   UNL     1      -0.600  -7.246 -27.857  1.00  0.00     0.027 C 
BRANCH   3   4
ATOM      4  C   UNL     1       0.326  -6.776 -26.730  1.00  0.00     0.004 C 
BRANCH   4   5
ATOM      5  C   UNL     1       1.785  -7.158 -27.022  1.00  0.00     0.000 C 
BRANCH   5   6
ATOM      6  C   UNL     1       2.798  -6.329 -26.213  1.00  0.00     0.000 C 
BRANCH   6   7
ATOM      7  C   UNL     1       2.190  -5.486 -25.076  1.00  0.00     0.000 C 
BRANCH   7   8
ATOM      8  C   UNL     1       3.215  -4.566 -24.396  1.00  0.00     0.006 C 
BRANCH   8   9
ATOM      9  C   UNL     1       3.452  -3.301 -25.224  1.00  0.00     0.053 C 
BRANCH   9  10
ATOM     10  C   UNL     1       4.823  -3.315 -25.822  1.00  0.00     0.041 C 
ATOM     11  O   UNL     1       5.191  -2.386 -26.590  1.00  0.00    -0.550 OA
ATOM     12  O   UNL     1       5.684  -4.373 -25.561  1.00  0.00    -0.550 OA
ENDBRANCH   9  10
ENDBRANCH   8   9
ENDBRANCH   7   8
ENDBRANCH   6   7
ENDBRANCH   5   6
ENDBRANCH   4   5
ENDBRANCH   3   4
ENDBRANCH   1   3
BRANCH   2  13
ATOM     13  C   UNL     1      -1.595  -7.661 -30.686  1.00  0.00     0.027 C 
BRANCH  13  14
ATOM     14  C   UNL     1      -1.050  -7.687 -32.122  1.00  0.00     0.004 C 
BRANCH  14  15
ATOM     15  C   UNL     1      -0.680  -6.288 -32.640  1.00  0.00     0.000 C 
BRANCH  15  16
ATOM     16  C   UNL     1       0.633  -6.283 -33.444  1.00  0.00     0.000 C 
BRANCH  16  17
ATOM     17  C   UNL     1       1.538  -7.480 -33.104  1.00  0.00    -0.000 C 
BRANCH  17  18
ATOM     18  C   UNL     1       2.699  -7.100 -32.168  1.00  0.00    -0.000 C 
BRANCH  18  19
ATOM     19  C   UNL     1       2.322  -7.223 -30.683  1.00  0.00    -0.003 C 
ATOM     20  C   UNL     1       2.024  -8.662 -30.264  1.00  0.00     0.004 C 
ENDBRANCH  18  19
ENDBRANCH  17  18
ENDBRANCH  16  17
ENDBRANCH  15  16
ENDBRANCH  14  15
ENDBRANCH  13  14
ENDBRANCH   2  13
TORSDOF 15
ENDMDL
MODEL 8
REMARK VINA RESULT:    -4.331     12.077     14.276
REMARK INTER + INTRA:          -9.244
REMARK INTER:                  -7.238
REMARK INTRA:                  -2.006
REMARK UNBOUND:                -1.114
REMARK SMILES CCCCCCCCC=CCCCCCCCC(=O)[O-]
REMARK SMILES IDX 10 1 9 2 11 3 12 4 13 5 14 6 15 7 16 8 17 9 18 10 19 11
REMARK SMILES IDX 20 12 8 13 7 14 6 15 5 16 4 17 3 18 2 19 1 20
REMARK H PARENT
REMARK Flexibility Score: inf
ROOT
ATOM      1  C   UNL     1       2.365  -8.134 -32.784  1.00  0.00    -0.031 C 
ATOM      2  C   UNL     1       1.519  -7.699 -33.735  1.00  0.00    -0.031 C 
ENDROOT
BRANCH   1   3
ATOM      3  C   UNL     1       2.973  -7.237 -31.734  1.00  0.00     0.027 C 
BRANCH   3   4
ATOM      4  C   UNL     1       4.233  -7.865 -31.129  1.00  0.00     0.004 C 
BRANCH   4   5
ATOM      5  C   UNL     1       4.846  -8.898 -32.086  1.00  0.00     0.000 C 
BRANCH   5   6
ATOM      6  C   UNL     1       6.086  -8.370 -32.828  1.00  0.00     0.000 C 
BRANCH   6   7
ATOM      7  C   UNL     1       5.826  -7.880 -34.265  1.00  0.00     0.000 C 
BRANCH   7   8
ATOM      8  C   UNL     1       5.622  -6.360 -34.353  1.00  0.00     0.006 C 
BRANCH   8   9
ATOM      9  C   UNL     1       4.506  -6.012 -35.342  1.00  0.00     0.053 C 
BRANCH   9  10
ATOM     10  C   UNL     1       5.049  -5.216 -36.485  1.00  0.00     0.041 C 
ATOM     11  O   UNL     1       6.285  -5.216 -36.729  1.00  0.00    -0.550 OA
ATOM     12  O   UNL     1       4.195  -4.443 -37.261  1.00  0.00    -0.550 OA
ENDBRANCH   9  10
ENDBRANCH   8   9
ENDBRANCH   7   8
ENDBRANCH   6   7
ENDBRANCH   5   6
ENDBRANCH   4   5
ENDBRANCH   3   4
ENDBRANCH   1   3
BRANCH   2  13
ATOM     13  C   UNL     1       1.033  -6.276 -33.851  1.00  0.00     0.027 C 
BRANCH  13  14
ATOM     14  C   UNL     1      -0.272  -6.079 -33.066  1.00  0.00     0.004 C 
BRANCH  14  15
ATOM     15  C   UNL     1      -0.954  -7.408 -32.707  1.00  0.00     0.000 C 
BRANCH  15  16
ATOM     16  C   UNL     1      -1.448  -7.446 -31.251  1.00  0.00     0.000 C 
BRANCH  16  17
ATOM     17  C   UNL     1      -0.594  -6.573 -30.315  1.00  0.00    -0.000 C 
BRANCH  17  18
ATOM     18  C   UNL     1      -1.278  -6.309 -28.961  1.00  0.00    -0.000 C 
BRANCH  18  19
ATOM     19  C   UNL     1      -2.688  -6.917 -28.886  1.00  0.00    -0.003 C 
ATOM     20  C   UNL     1      -3.361  -6.690 -27.533  1.00  0.00     0.004 C 
ENDBRANCH  18  19
ENDBRANCH  17  18
ENDBRANCH  16  17
ENDBRANCH  15  16
ENDBRANCH  14  15
ENDBRANCH  13  14
ENDBRANCH   2  13
TORSDOF 15
ENDMDL
MODEL 9
REMARK VINA RESULT:    -4.331     11.931     14.116
REMARK INTER + INTRA:          -9.244
REMARK INTER:                  -7.058
REMARK INTRA:                  -2.186
REMARK UNBOUND:                -1.114
REMARK SMILES CCCCCCCCC=CCCCCCCCC(=O)[O-]
REMARK SMILES IDX 10 1 9 2 11 3 12 4 13 5 14 6 15 7 16 8 17 9 18 10 19 11
REMARK SMILES IDX 20 12 8 13 7 14 6 15 5 16 4 17 3 18 2 19 1 20
REMARK H PARENT
REMARK Flexibility Score: inf
ROOT
ATOM      1  C   UNL     1      -0.273  -7.298 -33.095  1.00  0.00    -0.031 C 
ATOM      2  C   UNL     1      -1.235  -7.243 -32.156  1.00  0.00    -0.031 C 
ENDROOT
BRANCH   1   3
ATOM      3  C   UNL     1       0.577  -6.115 -33.489  1.00  0.00     0.027 C 
BRANCH   3   4
ATOM      4  C   UNL     1       1.795  -6.554 -34.308  1.00  0.00     0.004 C 
BRANCH   4   5
ATOM      5  C   UNL     1       1.795  -8.075 -34.520  1.00  0.00     0.000 C 
BRANCH   5   6
ATOM      6  C   UNL     1       3.208  -8.685 -34.507  1.00  0.00     0.000 C 
BRANCH   6   7
ATOM      7  C   UNL     1       4.359  -7.661 -34.526  1.00  0.00     0.000 C 
BRANCH   7   8
ATOM      8  C   UNL     1       4.985  -7.488 -35.919  1.00  0.00     0.006 C 
BRANCH   8   9
ATOM      9  C   UNL     1       5.902  -6.264 -35.960  1.00  0.00     0.053 C 
BRANCH   9  10
ATOM     10  C   UNL     1       5.296  -5.183 -36.798  1.00  0.00     0.041 C 
ATOM     11  O   UNL     1       4.069  -4.914 -36.697  1.00  0.00    -0.550 OA
ATOM     12  O   UNL     1       6.077  -4.498 -37.720  1.00  0.00    -0.550 OA
ENDBRANCH   9  10
ENDBRANCH   8   9
ENDBRANCH   7   8
ENDBRANCH   6   7
ENDBRANCH   5   6
ENDBRANCH   4   5
ENDBRANCH   3   4
ENDBRANCH   1   3
BRANCH   2  13
ATOM     13  C   UNL     1      -1.560  -6.013 -31.346  1.00  0.00     0.027 C 
BRANCH  13  14
ATOM     14  C   UNL     1      -1.850  -6.383 -29.884  1.00  0.00     0.004 C 
BRANCH  14  15
ATOM     15  C   UNL     1      -0.571  -6.526 -29.044  1.00  0.00     0.000 C 
BRANCH  15  16
ATOM     16  C   UNL     1      -0.232  -7.993 -28.728  1.00  0.00     0.000 C 
BRANCH  16  17
ATOM     17  C   UNL     1       1.223  -8.351 -29.078  1.00  0.00    -0.000 C 
BRANCH  17  18
ATOM     18  C   UNL     1       2.083  -7.112 -29.383  1.00  0.00    -0.000 C 
BRANCH  18  19
ATOM     19  C   UNL     1       2.690  -7.151 -30.796  1.00  0.00    -0.003 C 
ATOM     20  C   UNL     1       3.926  -8.046 -30.885  1.00  0.00     0.004 C 
ENDBRANCH  18  19
ENDBRANCH  17  18
ENDBRANCH  16  17
ENDBRANCH  15  16
ENDBRANCH  14  15
ENDBRANCH  13  14
ENDBRANCH   2  13
TORSDOF 15
ENDMDL
