MODEL 1
REMARK VINA RESULT:    -3.924      0.000      0.000
REMARK INTER + INTRA:          -9.727
REMARK INTER:                  -7.365
REMARK INTRA:                  -2.362
REMARK UNBOUND:                -2.362
REMARK SMILES CCCCCCCCC=CCCCCCCCC(=O)[O-]
REMARK SMILES IDX 10 1 9 2 11 3 12 4 13 5 14 6 15 7 16 8 17 9 18 10 19 11
REMARK SMILES IDX 20 12 8 13 7 14 6 15 5 16 4 17 3 18 2 19 1 20
REMARK H PARENT
REMARK Flexibility Score: inf
ROOT
ATOM      1  C   UNL     1      32.156 169.822 159.585  1.00  0.00    -0.031 C 
ATOM      2  C   UNL     1      31.412 169.763 158.465  1.00  0.00    -0.031 C 
ENDROOT
BRANCH   1   3
ATOM      3  C   UNL     1      32.829 168.638 160.233  1.00  0.00     0.027 C 
BRANCH   3   4
ATOM      4  C   UNL     1      32.640 168.636 161.758  1.00  0.00     0.004 C 
BRANCH   4   5
ATOM      5  C   UNL     1      31.183 168.906 162.161  1.00  0.00     0.000 C 
BRANCH   5   6
ATOM      6  C   UNL     1      31.080 170.157 163.041  1.00  0.00     0.000 C 
BRANCH   6   7
ATOM      7  C   UNL     1      29.686 170.789 162.940  1.00  0.00     0.000 C 
BRANCH   7   8
ATOM      8  C   UNL     1      29.461 171.408 161.554  1.00  0.00     0.006 C 
BRANCH   8   9
ATOM      9  C   UNL     1      30.030 172.829 161.453  1.00  0.00     0.053 C 
BRANCH   9  10
ATOM     10  C   UNL     1      29.104 173.841 162.055  1.00  0.00     0.041 C 
ATOM     11  O   UNL     1      29.249 174.201 163.253  1.00  0.00    -0.550 OA
ATOM     12  O   UNL     1      28.059 174.362 161.301  1.00  0.00    -0.550 OA
ENDBRANCH   9  10
ENDBRANCH   8   9
ENDBRANCH   7   8
ENDBRANCH   6   7
ENDBRANCH   5   6
ENDBRANCH   4   5
ENDBRANCH   3   4
ENDBRANCH   1   3
BRANCH   2  13
ATOM     13  C   UNL     1      31.219 168.526 157.624  1.00  0.00     0.027 C 
BRANCH  13  14
ATOM     14  C   UNL     1      31.401 168.807 156.122  1.00  0.00     0.004 C 
BRANCH  14  15
ATOM     15  C   UNL     1      31.167 170.274 155.720  1.00  0.00     0.000 C 
BRANCH  15  16
ATOM     16  C   UNL     1      32.412 170.929 155.096  1.00  0.00     0.000 C 
BRANCH  16  17
ATOM     17  C   UNL     1      33.600 169.949 154.993  1.00  0.00    -0.000 C 
BRANCH  17  18
ATOM     18  C   UNL     1      34.838 170.388 155.798  1.00  0.00    -0.000 C 
BRANCH  18  19
ATOM     19  C   UNL     1      34.952 169.760 157.198  1.00  0.00    -0.003 C 
ATOM     20  C   UNL     1      35.032 168.234 157.159  1.00  0.00     0.004 C 
ENDBRANCH  18  19
ENDBRANCH  17  18
ENDBRANCH  16  17
ENDBRANCH  15  16
ENDBRANCH  14  15
ENDBRANCH  13  14
ENDBRANCH   2  13
TORSDOF 15
ENDMDL
MODEL 2
REMARK VINA RESULT:    -3.885      1.628      3.069
REMARK INTER + INTRA:          -9.654
REMARK INTER:                  -7.578
REMARK INTRA:                  -2.076
REMARK UNBOUND:                -2.362
REMARK SMILES CCCCCCCCC=CCCCCCCCC(=O)[O-]
REMARK SMILES IDX 10 1 9 2 11 3 12 4 13 5 14 6 15 7 16 8 17 9 18 10 19 11
REMARK SMILES IDX 20 12 8 13 7 14 6 15 5 16 4 17 3 18 2 19 1 20
REMARK H PARENT
REMARK Flexibility Score: inf
ROOT
ATOM      1  C   UNL     1      33.085 168.047 158.298  1.00  0.00    -0.031 C 
ATOM      2  C   UNL     1      34.038 168.123 157.352  1.00  0.00    -0.031 C 
ENDROOT
BRANCH   1   3
ATOM      3  C   UNL     1      33.022 168.921 159.526  1.00  0.00     0.027 C 
BRANCH   3   4
ATOM      4  C   UNL     1      31.931 169.997 159.407  1.00  0.00     0.004 C 
BRANCH   4   5
ATOM      5  C   UNL     1      30.521 169.415 159.590  1.00  0.00     0.000 C 
BRANCH   5   6
ATOM      6  C   UNL     1      29.499 170.525 159.862  1.00  0.00     0.000 C 
BRANCH   6   7
ATOM      7  C   UNL     1      30.132 171.673 160.658  1.00  0.00     0.000 C 
BRANCH   7   8
ATOM      8  C   UNL     1      29.056 172.540 161.325  1.00  0.00     0.006 C 
BRANCH   8   9
ATOM      9  C   UNL     1      29.655 173.744 162.063  1.00  0.00     0.053 C 
BRANCH   9  10
ATOM     10  C   UNL     1      29.602 173.567 163.550  1.00  0.00     0.041 C 
ATOM     11  O   UNL     1      28.638 174.036 164.211  1.00  0.00    -0.550 OA
ATOM     12  O   UNL     1      30.635 172.912 164.209  1.00  0.00    -0.550 OA
ENDBRANCH   9  10
ENDBRANCH   8   9
ENDBRANCH   7   8
ENDBRANCH   6   7
ENDBRANCH   5   6
ENDBRANCH   4   5
ENDBRANCH   3   4
ENDBRANCH   1   3
BRANCH   2  13
ATOM     13  C   UNL     1      35.134 169.160 157.313  1.00  0.00     0.027 C 
BRANCH  13  14
ATOM     14  C   UNL     1      35.054 170.047 156.059  1.00  0.00     0.004 C 
BRANCH  14  15
ATOM     15  C   UNL     1      33.639 170.555 155.731  1.00  0.00     0.000 C 
BRANCH  15  16
ATOM     16  C   UNL     1      33.281 170.410 154.242  1.00  0.00     0.000 C 
BRANCH  16  17
ATOM     17  C   UNL     1      31.822 169.950 154.033  1.00  0.00    -0.000 C 
BRANCH  17  18
ATOM     18  C   UNL     1      31.435 168.715 154.870  1.00  0.00    -0.000 C 
BRANCH  18  19
ATOM     19  C   UNL     1      30.355 168.972 155.934  1.00  0.00    -0.003 C 
ATOM     20  C   UNL     1      29.960 170.445 156.037  1.00  0.00     0.004 C 
ENDBRANCH  18  19
ENDBRANCH  17  18
ENDBRANCH  16  17
ENDBRANCH  15  16
ENDBRANCH  14  15
ENDBRANCH  13  14
ENDBRANCH   2  13
TORSDOF 15
ENDMDL
MODEL 3
REMARK VINA RESULT:    -3.816      2.985      6.987
REMARK INTER + INTRA:          -9.525
REMARK INTER:                  -8.046
REMARK INTRA:                  -1.480
REMARK UNBOUND:                -2.362
REMARK SMILES CCCCCCCCC=CCCCCCCCC(=O)[O-]
REMARK SMILES IDX 10 1 9 2 11 3 12 4 13 5 14 6 15 7 16 8 17 9 18 10 19 11
REMARK SMILES IDX 20 12 8 13 7 14 6 15 5 16 4 17 3 18 2 19 1 20
REMARK H PARENT
REMARK Flexibility Score: inf
ROOT
ATOM      1  C   UNL     1      33.271 168.667 159.035  1.00  0.00    -0.031 C 
ATOM      2  C   UNL     1      32.180 169.354 159.420  1.00  0.00    -0.031 C 
ENDROOT
BRANCH   1   3
ATOM      3  C   UNL     1      33.674 168.427 157.601  1.00  0.00     0.027 C 
BRANCH   3   4
ATOM      4  C   UNL     1      34.997 169.126 157.254  1.00  0.00     0.004 C 
BRANCH   4   5
ATOM      5  C   UNL     1      34.845 170.104 156.079  1.00  0.00     0.000 C 
BRANCH   5   6
ATOM      6  C   UNL     1      33.479 169.941 155.402  1.00  0.00     0.000 C 
BRANCH   6   7
ATOM      7  C   UNL     1      32.714 171.270 155.377  1.00  0.00     0.000 C 
BRANCH   7   8
ATOM      8  C   UNL     1      31.777 171.342 154.164  1.00  0.00     0.006 C 
BRANCH   8   9
ATOM      9  C   UNL     1      30.355 171.768 154.553  1.00  0.00     0.053 C 
BRANCH   9  10
ATOM     10  C   UNL     1      30.100 173.209 154.234  1.00  0.00     0.041 C 
ATOM     11  O   UNL     1      28.926 173.667 154.259  1.00  0.00    -0.550 OA
ATOM     12  O   UNL     1      31.155 174.039 153.875  1.00  0.00    -0.550 OA
ENDBRANCH   9  10
ENDBRANCH   8   9
ENDBRANCH   7   8
ENDBRANCH   6   7
ENDBRANCH   5   6
ENDBRANCH   4   5
ENDBRANCH   3   4
ENDBRANCH   1   3
BRANCH   2  13
ATOM     13  C   UNL     1      31.245 170.080 158.485  1.00  0.00     0.027 C 
BRANCH  13  14
ATOM     14  C   UNL     1      29.776 169.975 158.930  1.00  0.00     0.004 C 
BRANCH  14  15
ATOM     15  C   UNL     1      29.555 170.179 160.439  1.00  0.00     0.000 C 
BRANCH  15  16
ATOM     16  C   UNL     1      28.961 171.557 160.777  1.00  0.00     0.000 C 
BRANCH  16  17
ATOM     17  C   UNL     1      30.035 172.556 161.259  1.00  0.00    -0.000 C 
BRANCH  17  18
ATOM     18  C   UNL     1      29.454 173.821 161.921  1.00  0.00    -0.000 C 
BRANCH  18  19
ATOM     19  C   UNL     1      27.967 173.724 162.300  1.00  0.00    -0.003 C 
ATOM     20  C   UNL     1      27.112 174.799 161.630  1.00  0.00     0.004 C 
ENDBRANCH  18  19
ENDBRANCH  17  18
ENDBRANCH  16  17
ENDBRANCH  15  16
ENDBRANCH  14  15
ENDBRANCH  13  14
ENDBRANCH   2  13
TORSDOF 15
ENDMDL
MODEL 4
REMARK VINA RESULT:    -3.810      1.811      3.426
REMARK INTER + INTRA:          -9.514
REMARK INTER:                  -7.913
REMARK INTRA:                  -1.601
REMARK UNBOUND:                -2.362
REMARK SMILES CCCCCCCCC=CCCCCCCCC(=O)[O-]
REMARK SMILES IDX 10 1 9 2 11 3 12 4 13 5 14 6 15 7 16 8 17 9 18 10 19 11
REMARK SMILES IDX 20 12 8 13 7 14 6 15 5 16 4 17 3 18 2 19 1 20
REMARK H PARENT
REMARK Flexibility Score: inf
ROOT
ATOM      1  C   UNL     1      32.621 168.930 159.777  1.00  0.00    -0.031 C 
ATOM      2  C   UNL     1      33.452 168.146 159.067  1.00  0.00    -0.031 C 
ENDROOT
BRANCH   1   3
ATOM      3  C   UNL     1      31.879 170.121 159.222  1.00  0.00     0.027 C 
BRANCH   3   4
ATOM      4  C   UNL     1      30.465 169.745 158.751  1.00  0.00     0.004 C 
BRANCH   4   5
ATOM      5  C   UNL     1      29.375 170.398 159.613  1.00  0.00     0.000 C 
BRANCH   5   6
ATOM      6  C   UNL     1      29.993 171.271 160.712  1.00  0.00     0.000 C 
BRANCH   6   7
ATOM      7  C   UNL     1      29.078 172.452 161.057  1.00  0.00     0.000 C 
BRANCH   7   8
ATOM      8  C   UNL     1      29.832 173.512 161.872  1.00  0.00     0.006 C 
BRANCH   8   9
ATOM      9  C   UNL     1      29.241 173.693 163.277  1.00  0.00     0.053 C 
BRANCH   9  10
ATOM     10  C   UNL     1      30.191 173.235 164.341  1.00  0.00     0.041 C 
ATOM     11  O   UNL     1      31.008 172.305 164.106  1.00  0.00    -0.550 OA
ATOM     12  O   UNL     1      30.150 173.813 165.604  1.00  0.00    -0.550 OA
ENDBRANCH   9  10
ENDBRANCH   8   9
ENDBRANCH   7   8
ENDBRANCH   6   7
ENDBRANCH   5   6
ENDBRANCH   4   5
ENDBRANCH   3   4
ENDBRANCH   1   3
BRANCH   2  13
ATOM     13  C   UNL     1      33.694 168.268 157.583  1.00  0.00     0.027 C 
BRANCH  13  14
ATOM     14  C   UNL     1      35.007 169.005 157.263  1.00  0.00     0.004 C 
BRANCH  14  15
ATOM     15  C   UNL     1      34.842 170.215 156.328  1.00  0.00     0.000 C 
BRANCH  15  16
ATOM     16  C   UNL     1      33.713 170.028 155.299  1.00  0.00     0.000 C 
BRANCH  16  17
ATOM     17  C   UNL     1      32.602 171.090 155.450  1.00  0.00    -0.000 C 
BRANCH  17  18
ATOM     18  C   UNL     1      31.186 170.552 155.165  1.00  0.00    -0.000 C 
BRANCH  18  19
ATOM     19  C   UNL     1      30.129 171.635 154.890  1.00  0.00    -0.003 C 
ATOM     20  C   UNL     1      30.710 172.873 154.208  1.00  0.00     0.004 C 
ENDBRANCH  18  19
ENDBRANCH  17  18
ENDBRANCH  16  17
ENDBRANCH  15  16
ENDBRANCH  14  15
ENDBRANCH  13  14
ENDBRANCH   2  13
TORSDOF 15
ENDMDL
MODEL 5
REMARK VINA RESULT:    -3.761      1.791      3.272
REMARK INTER + INTRA:          -9.422
REMARK INTER:                  -7.120
REMARK INTRA:                  -2.302
REMARK UNBOUND:                -2.362
REMARK SMILES CCCCCCCCC=CCCCCCCCC(=O)[O-]
REMARK SMILES IDX 10 1 9 2 11 3 12 4 13 5 14 6 15 7 16 8 17 9 18 10 19 11
REMARK SMILES IDX 20 12 8 13 7 14 6 15 5 16 4 17 3 18 2 19 1 20
REMARK H PARENT
REMARK Flexibility Score: inf
ROOT
ATOM      1  C   UNL     1      28.773 170.464 156.826  1.00  0.00    -0.031 C 
ATOM      2  C   UNL     1      28.192 170.875 155.684  1.00  0.00    -0.031 C 
ENDROOT
BRANCH   1   3
ATOM      3  C   UNL     1      30.227 170.086 156.962  1.00  0.00     0.027 C 
BRANCH   3   4
ATOM      4  C   UNL     1      30.398 168.642 157.458  1.00  0.00     0.004 C 
BRANCH   4   5
ATOM      5  C   UNL     1      31.677 168.462 158.289  1.00  0.00     0.000 C 
BRANCH   5   6
ATOM      6  C   UNL     1      32.046 169.760 159.018  1.00  0.00     0.000 C 
BRANCH   6   7
ATOM      7  C   UNL     1      31.817 169.628 160.528  1.00  0.00     0.000 C 
BRANCH   7   8
ATOM      8  C   UNL     1      30.335 169.822 160.879  1.00  0.00     0.006 C 
BRANCH   8   9
ATOM      9  C   UNL     1      29.828 171.222 160.511  1.00  0.00     0.053 C 
BRANCH   9  10
ATOM     10  C   UNL     1      30.011 172.193 161.636  1.00  0.00     0.041 C 
ATOM     11  O   UNL     1      29.991 173.433 161.415  1.00  0.00    -0.550 OA
ATOM     12  O   UNL     1      30.237 171.727 162.926  1.00  0.00    -0.550 OA
ENDBRANCH   9  10
ENDBRANCH   8   9
ENDBRANCH   7   8
ENDBRANCH   6   7
ENDBRANCH   5   6
ENDBRANCH   4   5
ENDBRANCH   3   4
ENDBRANCH   1   3
BRANCH   2  13
ATOM     13  C   UNL     1      28.921 171.122 154.386  1.00  0.00     0.027 C 
BRANCH  13  14
ATOM     14  C   UNL     1      29.595 172.505 154.349  1.00  0.00     0.004 C 
BRANCH  14  15
ATOM     15  C   UNL     1      31.127 172.459 154.203  1.00  0.00     0.000 C 
BRANCH  15  16
ATOM     16  C   UNL     1      31.655 171.051 153.877  1.00  0.00     0.000 C 
BRANCH  16  17
ATOM     17  C   UNL     1      33.168 170.914 154.158  1.00  0.00    -0.000 C 
BRANCH  17  18
ATOM     18  C   UNL     1      33.509 169.832 155.201  1.00  0.00    -0.000 C 
BRANCH  18  19
ATOM     19  C   UNL     1      34.596 170.233 156.212  1.00  0.00    -0.003 C 
ATOM     20  C   UNL     1      35.171 169.037 156.972  1.00  0.00     0.004 C 
ENDBRANCH  18  19
ENDBRANCH  17  18
ENDBRANCH  16  17
ENDBRANCH  15  16
ENDBRANCH  14  15
ENDBRANCH  13  14
ENDBRANCH   2  13
TORSDOF 15
ENDMDL
MODEL 6
REMARK VINA RESULT:    -3.714      1.598      2.903
REMARK INTER + INTRA:          -9.334
REMARK INTER:                  -7.359
REMARK INTRA:                  -1.975
REMARK UNBOUND:                -2.362
REMARK SMILES CCCCCCCCC=CCCCCCCCC(=O)[O-]
REMARK SMILES IDX 10 1 9 2 11 3 12 4 13 5 14 6 15 7 16 8 17 9 18 10 19 11
REMARK SMILES IDX 20 12 8 13 7 14 6 15 5 16 4 17 3 18 2 19 1 20
REMARK H PARENT
REMARK Flexibility Score: inf
ROOT
ATOM      1  C   UNL     1      30.314 168.522 156.479  1.00  0.00    -0.031 C 
ATOM      2  C   UNL     1      30.874 168.098 155.332  1.00  0.00    -0.031 C 
ENDROOT
BRANCH   1   3
ATOM      3  C   UNL     1      29.996 169.962 156.799  1.00  0.00     0.027 C 
BRANCH   3   4
ATOM      4  C   UNL     1      29.115 170.089 158.051  1.00  0.00     0.004 C 
BRANCH   4   5
ATOM      5  C   UNL     1      29.806 169.533 159.305  1.00  0.00     0.000 C 
BRANCH   5   6
ATOM      6  C   UNL     1      30.456 170.658 160.119  1.00  0.00     0.000 C 
BRANCH   6   7
ATOM      7  C   UNL     1      29.395 171.578 160.734  1.00  0.00     0.000 C 
BRANCH   7   8
ATOM      8  C   UNL     1      30.045 172.786 161.422  1.00  0.00     0.006 C 
BRANCH   8   9
ATOM      9  C   UNL     1      30.094 172.629 162.948  1.00  0.00     0.053 C 
BRANCH   9  10
ATOM     10  C   UNL     1      29.373 173.743 163.644  1.00  0.00     0.041 C 
ATOM     11  O   UNL     1      28.426 174.343 163.069  1.00  0.00    -0.550 OA
ATOM     12  O   UNL     1      29.770 174.140 164.915  1.00  0.00    -0.550 OA
ENDBRANCH   9  10
ENDBRANCH   8   9
ENDBRANCH   7   8
ENDBRANCH   6   7
ENDBRANCH   5   6
ENDBRANCH   4   5
ENDBRANCH   3   4
ENDBRANCH   1   3
BRANCH   2  13
ATOM     13  C   UNL     1      31.178 168.978 154.145  1.00  0.00     0.027 C 
BRANCH  13  14
ATOM     14  C   UNL     1      32.645 169.440 154.121  1.00  0.00     0.004 C 
BRANCH  14  15
ATOM     15  C   UNL     1      32.882 170.826 154.746  1.00  0.00     0.000 C 
BRANCH  15  16
ATOM     16  C   UNL     1      33.548 170.753 156.131  1.00  0.00     0.000 C 
BRANCH  16  17
ATOM     17  C   UNL     1      34.913 170.032 156.088  1.00  0.00    -0.000 C 
BRANCH  17  18
ATOM     18  C   UNL     1      35.092 168.977 157.196  1.00  0.00    -0.000 C 
BRANCH  18  19
ATOM     19  C   UNL     1      33.801 168.251 157.610  1.00  0.00    -0.003 C 
ATOM     20  C   UNL     1      33.373 168.570 159.042  1.00  0.00     0.004 C 
ENDBRANCH  18  19
ENDBRANCH  17  18
ENDBRANCH  16  17
ENDBRANCH  15  16
ENDBRANCH  14  15
ENDBRANCH  13  14
ENDBRANCH   2  13
TORSDOF 15
ENDMDL
MODEL 7
REMARK VINA RESULT:    -3.710      1.614      2.324
REMARK INTER + INTRA:          -9.325
REMARK INTER:                  -7.482
REMARK INTRA:                  -1.843
REMARK UNBOUND:                -2.362
REMARK SMILES CCCCCCCCC=CCCCCCCCC(=O)[O-]
REMARK SMILES IDX 10 1 9 2 11 3 12 4 13 5 14 6 15 7 16 8 17 9 18 10 19 11
REMARK SMILES IDX 20 12 8 13 7 14 6 15 5 16 4 17 3 18 2 19 1 20
REMARK H PARENT
REMARK Flexibility Score: inf
ROOT
ATOM      1  C   UNL     1      32.046 169.159 158.769  1.00  0.00    -0.031 C 
ATOM      2  C   UNL     1      31.311 169.052 157.647  1.00  0.00    -0.031 C 
ENDROOT
BRANCH   1   3
ATOM      3  C   UNL     1      31.818 170.183 159.853  1.00  0.00     0.027 C 
BRANCH   3   4
ATOM      4  C   UNL     1      31.080 169.583 161.060  1.00  0.00     0.004 C 
BRANCH   4   5
ATOM      5  C   UNL     1      30.031 170.547 161.635  1.00  0.00     0.000 C 
BRANCH   5   6
ATOM      6  C   UNL     1      30.052 171.888 160.892  1.00  0.00     0.000 C 
BRANCH   6   7
ATOM      7  C   UNL     1      28.843 172.749 161.276  1.00  0.00     0.000 C 
BRANCH   7   8
ATOM      8  C   UNL     1      29.278 173.985 162.077  1.00  0.00     0.006 C 
BRANCH   8   9
ATOM      9  C   UNL     1      28.725 173.974 163.508  1.00  0.00     0.053 C 
BRANCH   9  10
ATOM     10  C   UNL     1      29.806 173.741 164.519  1.00  0.00     0.041 C 
ATOM     11  O   UNL     1      30.756 172.954 164.263  1.00  0.00    -0.550 OA
ATOM     12  O   UNL     1      29.746 174.369 165.757  1.00  0.00    -0.550 OA
ENDBRANCH   9  10
ENDBRANCH   8   9
ENDBRANCH   7   8
ENDBRANCH   6   7
ENDBRANCH   5   6
ENDBRANCH   4   5
ENDBRANCH   3   4
ENDBRANCH   1   3
BRANCH   2  13
ATOM     13  C   UNL     1      30.079 169.870 157.344  1.00  0.00     0.027 C 
BRANCH  13  14
ATOM     14  C   UNL     1      29.783 169.943 155.836  1.00  0.00     0.004 C 
BRANCH  14  15
ATOM     15  C   UNL     1      29.878 171.359 155.241  1.00  0.00     0.000 C 
BRANCH  15  16
ATOM     16  C   UNL     1      31.137 171.564 154.381  1.00  0.00     0.000 C 
BRANCH  16  17
ATOM     17  C   UNL     1      31.806 170.228 153.994  1.00  0.00    -0.000 C 
BRANCH  17  18
ATOM     18  C   UNL     1      33.322 170.190 154.270  1.00  0.00    -0.000 C 
BRANCH  18  19
ATOM     19  C   UNL     1      33.734 170.678 155.669  1.00  0.00    -0.003 C 
ATOM     20  C   UNL     1      34.843 169.830 156.291  1.00  0.00     0.004 C 
ENDBRANCH  18  19
ENDBRANCH  17  18
ENDBRANCH  16  17
ENDBRANCH  15  16
ENDBRANCH  14  15
ENDBRANCH  13  14
ENDBRANCH   2  13
TORSDOF 15
ENDMDL
MODEL 8
REMARK VINA RESULT:    -3.689      0.797      2.177
REMARK INTER + INTRA:          -9.286
REMARK INTER:                  -7.306
REMARK INTRA:                  -1.980
REMARK UNBOUND:                -2.362
REMARK SMILES CCCCCCCCC=CCCCCCCCC(=O)[O-]
REMARK SMILES IDX 10 1 9 2 11 3 12 4 13 5 14 6 15 7 16 8 17 9 18 10 19 11
REMARK SMILES IDX 20 12 8 13 7 14 6 15 5 16 4 17 3 18 2 19 1 20
REMARK H PARENT
REMARK Flexibility Score: inf
ROOT
ATOM      1  C   UNL     1      32.186 169.553 159.918  1.00  0.00    -0.031 C 
ATOM      2  C   UNL     1      32.513 169.137 158.681  1.00  0.00    -0.031 C 
ENDROOT
BRANCH   1   3
ATOM      3  C   UNL     1      32.504 168.803 161.189  1.00  0.00     0.027 C 
BRANCH   3   4
ATOM      4  C   UNL     1      31.285 168.716 162.121  1.00  0.00     0.004 C 
BRANCH   4   5
ATOM      5  C   UNL     1      31.426 169.635 163.344  1.00  0.00     0.000 C 
BRANCH   5   6
ATOM      6  C   UNL     1      30.525 170.869 163.210  1.00  0.00     0.000 C 
BRANCH   6   7
ATOM      7  C   UNL     1      29.385 170.614 162.217  1.00  0.00     0.000 C 
BRANCH   7   8
ATOM      8  C   UNL     1      29.488 171.552 161.006  1.00  0.00     0.006 C 
BRANCH   8   9
ATOM      9  C   UNL     1      30.026 172.937 161.389  1.00  0.00     0.053 C 
BRANCH   9  10
ATOM     10  C   UNL     1      28.924 173.868 161.794  1.00  0.00     0.041 C 
ATOM     11  O   UNL     1      29.070 174.632 162.785  1.00  0.00    -0.550 OA
ATOM     12  O   UNL     1      27.723 173.868 161.095  1.00  0.00    -0.550 OA
ENDBRANCH   9  10
ENDBRANCH   8   9
ENDBRANCH   7   8
ENDBRANCH   6   7
ENDBRANCH   5   6
ENDBRANCH   4   5
ENDBRANCH   3   4
ENDBRANCH   1   3
BRANCH   2  13
ATOM     13  C   UNL     1      33.336 167.911 158.374  1.00  0.00     0.027 C 
BRANCH  13  14
ATOM     14  C   UNL     1      34.181 168.079 157.099  1.00  0.00     0.004 C 
BRANCH  14  15
ATOM     15  C   UNL     1      35.216 169.216 157.170  1.00  0.00     0.000 C 
BRANCH  15  16
ATOM     16  C   UNL     1      34.914 170.364 156.192  1.00  0.00     0.000 C 
BRANCH  16  17
ATOM     17  C   UNL     1      33.784 170.007 155.202  1.00  0.00    -0.000 C 
BRANCH  17  18
ATOM     18  C   UNL     1      32.549 170.922 155.313  1.00  0.00    -0.000 C 
BRANCH  18  19
ATOM     19  C   UNL     1      31.200 170.183 155.341  1.00  0.00    -0.003 C 
ATOM     20  C   UNL     1      31.299 168.746 154.830  1.00  0.00     0.004 C 
ENDBRANCH  18  19
ENDBRANCH  17  18
ENDBRANCH  16  17
ENDBRANCH  15  16
ENDBRANCH  14  15
ENDBRANCH  13  14
ENDBRANCH   2  13
TORSDOF 15
ENDMDL
MODEL 9
REMARK VINA RESULT:    -3.679      2.322      4.080
REMARK INTER + INTRA:          -9.268
REMARK INTER:                  -7.700
REMARK INTRA:                  -1.568
REMARK UNBOUND:                -2.362
REMARK SMILES CCCCCCCCC=CCCCCCCCC(=O)[O-]
REMARK SMILES IDX 10 1 9 2 11 3 12 4 13 5 14 6 15 7 16 8 17 9 18 10 19 11
REMARK SMILES IDX 20 12 8 13 7 14 6 15 5 16 4 17 3 18 2 19 1 20
REMARK H PARENT
REMARK Flexibility Score: inf
ROOT
ATOM      1  C   UNL     1      30.064 170.425 161.309  1.00  0.00    -0.031 C 
ATOM      2  C   UNL     1      31.156 169.784 160.853  1.00  0.00    -0.031 C 
ENDROOT
BRANCH   1   3
ATOM      3  C   UNL     1      29.483 171.675 160.695  1.00  0.00     0.027 C 
BRANCH   3   4
ATOM      4  C   UNL     1      30.042 172.947 161.351  1.00  0.00     0.004 C 
BRANCH   4   5
ATOM      5  C   UNL     1      28.929 173.917 161.775  1.00  0.00     0.000 C 
BRANCH   5   6
ATOM      6  C   UNL     1      28.463 173.627 163.206  1.00  0.00     0.000 C 
BRANCH   6   7
ATOM      7  C   UNL     1      29.609 173.815 164.207  1.00  0.00     0.000 C 
BRANCH   7   8
ATOM      8  C   UNL     1      29.824 172.545 165.043  1.00  0.00     0.006 C 
BRANCH   8   9
ATOM      9  C   UNL     1      31.058 171.753 164.589  1.00  0.00     0.053 C 
BRANCH   9  10
ATOM     10  C   UNL     1      31.149 170.426 165.277  1.00  0.00     0.041 C 
ATOM     11  O   UNL     1      30.804 169.374 164.675  1.00  0.00    -0.550 OA
ATOM     12  O   UNL     1      31.584 170.354 166.594  1.00  0.00    -0.550 OA
ENDBRANCH   9  10
ENDBRANCH   8   9
ENDBRANCH   7   8
ENDBRANCH   6   7
ENDBRANCH   5   6
ENDBRANCH   4   5
ENDBRANCH   3   4
ENDBRANCH   1   3
BRANCH   2  13
ATOM     13  C   UNL     1      31.909 170.151 159.598  1.00  0.00     0.027 C 
BRANCH  13  14
ATOM     14  C   UNL     1      32.017 168.971 158.616  1.00  0.00     0.004 C 
BRANCH  14  15
ATOM     15  C   UNL     1      33.292 168.125 158.780  1.00  0.00     0.000 C 
BRANCH  15  16
ATOM     16  C   UNL     1      34.152 168.084 157.505  1.00  0.00     0.000 C 
BRANCH  16  17
ATOM     17  C   UNL     1      35.072 169.318 157.379  1.00  0.00    -0.000 C 
BRANCH  17  18
ATOM     18  C   UNL     1      34.988 170.017 156.008  1.00  0.00    -0.000 C 
BRANCH  18  19
ATOM     19  C   UNL     1      33.598 170.569 155.651  1.00  0.00    -0.003 C 
ATOM     20  C   UNL     1      33.026 169.958 154.372  1.00  0.00     0.004 C 
ENDBRANCH  18  19
ENDBRANCH  17  18
ENDBRANCH  16  17
ENDBRANCH  15  16
ENDBRANCH  14  15
ENDBRANCH  13  14
ENDBRANCH   2  13
TORSDOF 15
ENDMDL
