MODEL 1
REMARK VINA RESULT:    45.122      0.000      0.000
REMARK INTER + INTRA:          54.663
REMARK INTER:                  54.354
REMARK INTRA:                   0.309
REMARK UNBOUND:                 0.309
REMARK SMILES O=c1c(O)c(-c2ccc(O)c(O)c2)oc2cc(O)cc(O)c12
REMARK SMILES IDX 5 1 3 2 2 3 1 4 22 5 20 6 19 7 17 8 16 9 15 10 14 11 6 12
REMARK SMILES IDX 7 13 8 14 9 15 13 16 11 17 10 18 12 20 4 22 21 24 18 26
REMARK H PARENT 10 19 12 21 4 23 21 25 18 27
REMARK Flexibility Score: inf
ROOT
ATOM      1  C   UNL     1      23.488  14.302   3.192  1.00  0.00     0.180 A 
ATOM      2  C   UNL     1      23.478  14.479   1.798  1.00  0.00     0.208 A 
ATOM      3  C   UNL     1      22.247  14.500   1.123  1.00  0.00     0.238 A 
ATOM      4  O   UNL     1      22.242  14.733  -0.114  1.00  0.00    -0.285 OA
ATOM      5  C   UNL     1      21.045  14.289   1.840  1.00  0.00     0.111 A 
ATOM      6  C   UNL     1      19.745  14.246   1.253  1.00  0.00     0.134 A 
ATOM      7  C   UNL     1      18.618  14.136   2.077  1.00  0.00     0.093 A 
ATOM      8  C   UNL     1      18.745  14.004   3.459  1.00  0.00     0.123 A 
ATOM      9  C   UNL     1      20.014  13.989   4.039  1.00  0.00     0.094 A 
ATOM     10  C   UNL     1      21.156  14.136   3.248  1.00  0.00     0.146 A 
ATOM     11  O   UNL     1      22.343  14.139   3.843  1.00  0.00    -0.452 OA
ENDROOT
BRANCH   1  12
ATOM     12  C   UNL     1      24.745  14.282   3.975  1.00  0.00     0.025 A 
ATOM     13  C   UNL     1      25.961  13.889   3.397  1.00  0.00     0.016 A 
ATOM     14  C   UNL     1      27.137  13.902   4.150  1.00  0.00     0.051 A 
ATOM     15  C   UNL     1      27.126  14.320   5.485  1.00  0.00     0.157 A 
ATOM     16  C   UNL     1      24.734  14.724   5.308  1.00  0.00     0.062 A 
ATOM     17  C   UNL     1      25.908  14.740   6.071  1.00  0.00     0.158 A 
BRANCH  15  18
ATOM     18  O   UNL     1      28.334  14.305   6.183  1.00  0.00    -0.504 OA
ATOM     19  H   UNL     1      28.859  13.466   6.387  1.00  0.00     0.293 HD
ENDBRANCH  15  18
BRANCH  17  20
ATOM     20  O   UNL     1      25.821  15.179   7.393  1.00  0.00    -0.504 OA
ATOM     21  H   UNL     1      26.619  15.332   7.992  1.00  0.00     0.293 HD
ENDBRANCH  17  20
ENDBRANCH   1  12
BRANCH   2  22
ATOM     22  O   UNL     1      24.680  14.609   1.097  1.00  0.00    -0.502 OA
ATOM     23  H   UNL     1      24.712  14.770   0.097  1.00  0.00     0.293 HD
ENDBRANCH   2  22
BRANCH   6  24
ATOM     24  O   UNL     1      19.506  14.279  -0.125  1.00  0.00    -0.507 OA
ATOM     25  H   UNL     1      18.979  13.590  -0.637  1.00  0.00     0.293 HD
ENDBRANCH   6  24
BRANCH   8  26
ATOM     26  O   UNL     1      17.602  13.880   4.246  1.00  0.00    -0.508 OA
ATOM     27  H   UNL     1      17.515  14.364   5.133  1.00  0.00     0.293 HD
ENDBRANCH   8  26
TORSDOF 6
ENDMDL
