MODEL 1
REMARK VINA RESULT:    -4.356      0.000      0.000
REMARK INTER + INTRA:          -9.408
REMARK INTER:                  -8.177
REMARK INTRA:                  -1.231
REMARK UNBOUND:                -1.231
REMARK SMILES O=C([O-])CCCCCCCCCCCCCCC(=O)[O-]
REMARK SMILES IDX 10 1 9 2 8 3 7 4 6 5 5 6 4 7 2 8 1 9 3 10 11 11 12 12 13 13
REMARK SMILES IDX 14 14 15 15 16 16 17 17 18 18 19 19 20 20
REMARK H PARENT
REMARK Flexibility Score: inf
ROOT
ATOM      1  C   UNL     1      33.150  47.813  25.309  1.00  0.00     0.000 C 
ENDROOT
BRANCH   1   2
ATOM      2  C   UNL     1      34.597  48.330  25.273  1.00  0.00     0.000 C 
BRANCH   2   3
ATOM      3  C   UNL     1      34.973  49.121  26.537  1.00  0.00     0.000 C 
BRANCH   3   4
ATOM      4  C   UNL     1      33.842  50.071  26.986  1.00  0.00     0.000 C 
BRANCH   4   5
ATOM      5  C   UNL     1      34.076  51.537  26.585  1.00  0.00     0.000 C 
BRANCH   5   6
ATOM      6  C   UNL     1      32.788  52.252  26.145  1.00  0.00     0.006 C 
BRANCH   6   7
ATOM      7  C   UNL     1      31.641  51.269  25.878  1.00  0.00     0.053 C 
BRANCH   7   8
ATOM      8  C   UNL     1      30.947  51.565  24.583  1.00  0.00     0.041 C 
ATOM      9  O   UNL     1      30.443  50.631  23.907  1.00  0.00    -0.550 OA
ATOM     10  O   UNL     1      30.891  52.868  24.105  1.00  0.00    -0.550 OA
ENDBRANCH   7   8
ENDBRANCH   6   7
ENDBRANCH   5   6
ENDBRANCH   4   5
ENDBRANCH   3   4
ENDBRANCH   2   3
ENDBRANCH   1   2
BRANCH   1  11
ATOM     11  C   UNL     1      32.985  46.596  26.233  1.00  0.00     0.000 C 
BRANCH  11  12
ATOM     12  C   UNL     1      32.774  45.313  25.418  1.00  0.00     0.000 C 
BRANCH  12  13
ATOM     13  C   UNL     1      33.881  44.289  25.708  1.00  0.00     0.000 C 
BRANCH  13  14
ATOM     14  C   UNL     1      34.947  44.826  26.675  1.00  0.00     0.000 C 
BRANCH  14  15
ATOM     15  C   UNL     1      36.339  44.232  26.412  1.00  0.00     0.000 C 
BRANCH  15  16
ATOM     16  C   UNL     1      36.247  43.004  25.495  1.00  0.00     0.006 C 
BRANCH  16  17
ATOM     17  C   UNL     1      37.612  42.335  25.281  1.00  0.00     0.053 C 
BRANCH  17  18
ATOM     18  C   UNL     1      37.470  40.964  24.693  1.00  0.00     0.041 C 
ATOM     19  O   UNL     1      37.625  40.785  23.456  1.00  0.00    -0.550 OA
ATOM     20  O   UNL     1      37.200  39.879  25.517  1.00  0.00    -0.550 OA
ENDBRANCH  17  18
ENDBRANCH  16  17
ENDBRANCH  15  16
ENDBRANCH  14  15
ENDBRANCH  13  14
ENDBRANCH  12  13
ENDBRANCH  11  12
ENDBRANCH   1  11
TORSDOF 15
ENDMDL
MODEL 2
REMARK VINA RESULT:    -4.224      0.945      1.550
REMARK INTER + INTRA:          -9.159
REMARK INTER:                  -8.098
REMARK INTRA:                  -1.061
REMARK UNBOUND:                -1.231
REMARK SMILES O=C([O-])CCCCCCCCCCCCCCC(=O)[O-]
REMARK SMILES IDX 10 1 9 2 8 3 7 4 6 5 5 6 4 7 2 8 1 9 3 10 11 11 12 12 13 13
REMARK SMILES IDX 14 14 15 15 16 16 17 17 18 18 19 19 20 20
REMARK H PARENT
REMARK Flexibility Score: inf
ROOT
ATOM      1  C   UNL     1      33.476  48.342  25.241  1.00  0.00     0.000 C 
ENDROOT
BRANCH   1   2
ATOM      2  C   UNL     1      33.030  49.469  26.186  1.00  0.00     0.000 C 
BRANCH   2   3
ATOM      3  C   UNL     1      34.201  50.358  26.640  1.00  0.00     0.000 C 
BRANCH   3   4
ATOM      4  C   UNL     1      33.845  51.859  26.587  1.00  0.00     0.000 C 
BRANCH   4   5
ATOM      5  C   UNL     1      32.331  52.130  26.557  1.00  0.00     0.000 C 
BRANCH   5   6
ATOM      6  C   UNL     1      31.896  52.965  25.342  1.00  0.00     0.006 C 
BRANCH   6   7
ATOM      7  C   UNL     1      30.423  52.738  24.978  1.00  0.00     0.053 C 
BRANCH   7   8
ATOM      8  C   UNL     1      30.179  51.339  24.501  1.00  0.00     0.041 C 
ATOM      9  O   UNL     1      29.205  50.678  24.948  1.00  0.00    -0.550 OA
ATOM     10  O   UNL     1      31.049  50.752  23.591  1.00  0.00    -0.550 OA
ENDBRANCH   7   8
ENDBRANCH   6   7
ENDBRANCH   5   6
ENDBRANCH   4   5
ENDBRANCH   3   4
ENDBRANCH   2   3
ENDBRANCH   1   2
BRANCH   1  11
ATOM     11  C   UNL     1      34.962  47.991  25.408  1.00  0.00     0.000 C 
BRANCH  11  12
ATOM     12  C   UNL     1      35.142  46.809  26.369  1.00  0.00     0.000 C 
BRANCH  12  13
ATOM     13  C   UNL     1      33.993  45.799  26.220  1.00  0.00     0.000 C 
BRANCH  13  14
ATOM     14  C   UNL     1      34.488  44.349  26.119  1.00  0.00     0.000 C 
BRANCH  14  15
ATOM     15  C   UNL     1      36.021  44.246  26.084  1.00  0.00     0.000 C 
BRANCH  15  16
ATOM     16  C   UNL     1      36.478  42.794  26.287  1.00  0.00     0.006 C 
BRANCH  16  17
ATOM     17  C   UNL     1      37.619  42.406  25.337  1.00  0.00     0.053 C 
BRANCH  17  18
ATOM     18  C   UNL     1      37.351  41.099  24.655  1.00  0.00     0.041 C 
ATOM     19  O   UNL     1      37.549  40.977  23.417  1.00  0.00    -0.550 OA
ATOM     20  O   UNL     1      36.914  40.006  25.392  1.00  0.00    -0.550 OA
ENDBRANCH  17  18
ENDBRANCH  16  17
ENDBRANCH  15  16
ENDBRANCH  14  15
ENDBRANCH  13  14
ENDBRANCH  12  13
ENDBRANCH  11  12
ENDBRANCH   1  11
TORSDOF 15
ENDMDL
MODEL 3
REMARK VINA RESULT:    -4.185      0.758      9.018
REMARK INTER + INTRA:          -9.085
REMARK INTER:                  -7.691
REMARK INTRA:                  -1.394
REMARK UNBOUND:                -1.231
REMARK SMILES O=C([O-])CCCCCCCCCCCCCCC(=O)[O-]
REMARK SMILES IDX 10 1 9 2 8 3 7 4 6 5 5 6 4 7 2 8 1 9 3 10 11 11 12 12 13 13
REMARK SMILES IDX 14 14 15 15 16 16 17 17 18 18 19 19 20 20
REMARK H PARENT
REMARK Flexibility Score: inf
ROOT
ATOM      1  C   UNL     1      32.623  45.332  25.694  1.00  0.00     0.000 C 
ENDROOT
BRANCH   1   2
ATOM      2  C   UNL     1      33.873  44.438  25.663  1.00  0.00     0.000 C 
BRANCH   2   3
ATOM      3  C   UNL     1      34.786  44.655  26.881  1.00  0.00     0.000 C 
BRANCH   3   4
ATOM      4  C   UNL     1      36.225  45.034  26.468  1.00  0.00     0.000 C 
BRANCH   4   5
ATOM      5  C   UNL     1      37.272  43.975  26.851  1.00  0.00     0.000 C 
BRANCH   5   6
ATOM      6  C   UNL     1      36.897  42.561  26.377  1.00  0.00     0.006 C 
BRANCH   6   7
ATOM      7  C   UNL     1      37.242  42.333  24.900  1.00  0.00     0.053 C 
BRANCH   7   8
ATOM      8  C   UNL     1      37.381  40.876  24.581  1.00  0.00     0.041 C 
ATOM      9  O   UNL     1      37.648  40.508  23.407  1.00  0.00    -0.550 OA
ATOM     10  O   UNL     1      37.180  39.924  25.572  1.00  0.00    -0.550 OA
ENDBRANCH   7   8
ENDBRANCH   6   7
ENDBRANCH   5   6
ENDBRANCH   4   5
ENDBRANCH   3   4
ENDBRANCH   2   3
ENDBRANCH   1   2
BRANCH   1  11
ATOM     11  C   UNL     1      32.947  46.777  26.105  1.00  0.00     0.000 C 
BRANCH  11  12
ATOM     12  C   UNL     1      33.466  47.584  24.908  1.00  0.00     0.000 C 
BRANCH  12  13
ATOM     13  C   UNL     1      34.746  48.350  25.276  1.00  0.00     0.000 C 
BRANCH  13  14
ATOM     14  C   UNL     1      34.644  49.059  26.635  1.00  0.00     0.000 C 
BRANCH  14  15
ATOM     15  C   UNL     1      34.268  50.543  26.503  1.00  0.00     0.000 C 
BRANCH  15  16
ATOM     16  C   UNL     1      32.755  50.743  26.680  1.00  0.00     0.006 C 
BRANCH  16  17
ATOM     17  C   UNL     1      32.178  51.735  25.663  1.00  0.00     0.053 C 
BRANCH  17  18
ATOM     18  C   UNL     1      31.059  51.129  24.871  1.00  0.00     0.041 C 
ATOM     19  O   UNL     1      31.296  50.222  24.030  1.00  0.00    -0.550 OA
ATOM     20  O   UNL     1      29.751  51.542  25.088  1.00  0.00    -0.550 OA
ENDBRANCH  17  18
ENDBRANCH  16  17
ENDBRANCH  15  16
ENDBRANCH  14  15
ENDBRANCH  13  14
ENDBRANCH  12  13
ENDBRANCH  11  12
ENDBRANCH   1  11
TORSDOF 15
ENDMDL
MODEL 4
REMARK VINA RESULT:    -4.071      1.225      8.955
REMARK INTER + INTRA:          -8.872
REMARK INTER:                  -7.586
REMARK INTRA:                  -1.285
REMARK UNBOUND:                -1.231
REMARK SMILES O=C([O-])CCCCCCCCCCCCCCC(=O)[O-]
REMARK SMILES IDX 10 1 9 2 8 3 7 4 6 5 5 6 4 7 2 8 1 9 3 10 11 11 12 12 13 13
REMARK SMILES IDX 14 14 15 15 16 16 17 17 18 18 19 19 20 20
REMARK H PARENT
REMARK Flexibility Score: inf
ROOT
ATOM      1  C   UNL     1      33.604  48.331  24.884  1.00  0.00     0.000 C 
ENDROOT
BRANCH   1   2
ATOM      2  C   UNL     1      33.098  46.891  24.703  1.00  0.00     0.000 C 
BRANCH   2   3
ATOM      3  C   UNL     1      32.745  46.216  26.040  1.00  0.00     0.000 C 
BRANCH   3   4
ATOM      4  C   UNL     1      33.508  44.889  26.240  1.00  0.00     0.000 C 
BRANCH   4   5
ATOM      5  C   UNL     1      34.761  45.029  27.122  1.00  0.00     0.000 C 
BRANCH   5   6
ATOM      6  C   UNL     1      36.049  44.588  26.407  1.00  0.00     0.006 C 
BRANCH   6   7
ATOM      7  C   UNL     1      36.340  43.095  26.603  1.00  0.00     0.053 C 
BRANCH   7   8
ATOM      8  C   UNL     1      36.716  42.429  25.315  1.00  0.00     0.041 C 
ATOM      9  O   UNL     1      35.822  42.039  24.520  1.00  0.00    -0.550 OA
ATOM     10  O   UNL     1      38.053  42.206  25.011  1.00  0.00    -0.550 OA
ENDBRANCH   7   8
ENDBRANCH   6   7
ENDBRANCH   5   6
ENDBRANCH   4   5
ENDBRANCH   3   4
ENDBRANCH   2   3
ENDBRANCH   1   2
BRANCH   1  11
ATOM     11  C   UNL     1      34.953  48.391  25.618  1.00  0.00     0.000 C 
BRANCH  11  12
ATOM     12  C   UNL     1      34.919  49.432  26.744  1.00  0.00     0.000 C 
BRANCH  12  13
ATOM     13  C   UNL     1      33.591  50.203  26.741  1.00  0.00     0.000 C 
BRANCH  13  14
ATOM     14  C   UNL     1      33.790  51.726  26.724  1.00  0.00     0.000 C 
BRANCH  14  15
ATOM     15  C   UNL     1      32.461  52.498  26.712  1.00  0.00     0.000 C 
BRANCH  15  16
ATOM     16  C   UNL     1      31.979  52.738  25.275  1.00  0.00     0.006 C 
BRANCH  16  17
ATOM     17  C   UNL     1      30.451  52.659  25.153  1.00  0.00     0.053 C 
BRANCH  17  18
ATOM     18  C   UNL     1      30.003  51.309  24.680  1.00  0.00     0.041 C 
ATOM     19  O   UNL     1      28.784  50.995  24.723  1.00  0.00    -0.550 OA
ATOM     20  O   UNL     1      30.927  50.412  24.161  1.00  0.00    -0.550 OA
ENDBRANCH  17  18
ENDBRANCH  16  17
ENDBRANCH  15  16
ENDBRANCH  14  15
ENDBRANCH  13  14
ENDBRANCH  12  13
ENDBRANCH  11  12
ENDBRANCH   1  11
TORSDOF 15
ENDMDL
MODEL 5
REMARK VINA RESULT:    -4.019      1.566      9.811
REMARK INTER + INTRA:          -8.773
REMARK INTER:                  -7.800
REMARK INTRA:                  -0.974
REMARK UNBOUND:                -1.231
REMARK SMILES O=C([O-])CCCCCCCCCCCCCCC(=O)[O-]
REMARK SMILES IDX 10 1 9 2 8 3 7 4 6 5 5 6 4 7 2 8 1 9 3 10 11 11 12 12 13 13
REMARK SMILES IDX 14 14 15 15 16 16 17 17 18 18 19 19 20 20
REMARK H PARENT
REMARK Flexibility Score: inf
ROOT
ATOM      1  C   UNL     1      33.143  46.350  25.361  1.00  0.00     0.000 C 
ENDROOT
BRANCH   1   2
ATOM      2  C   UNL     1      33.086  44.945  25.983  1.00  0.00     0.000 C 
BRANCH   2   3
ATOM      3  C   UNL     1      34.260  44.674  26.938  1.00  0.00     0.000 C 
BRANCH   3   4
ATOM      4  C   UNL     1      35.597  45.211  26.382  1.00  0.00     0.000 C 
BRANCH   4   5
ATOM      5  C   UNL     1      36.790  44.277  26.644  1.00  0.00     0.000 C 
BRANCH   5   6
ATOM      6  C   UNL     1      36.448  42.793  26.433  1.00  0.00     0.006 C 
BRANCH   6   7
ATOM      7  C   UNL     1      36.474  42.396  24.952  1.00  0.00     0.053 C 
BRANCH   7   8
ATOM      8  C   UNL     1      37.122  41.060  24.747  1.00  0.00     0.041 C 
ATOM      9  O   UNL     1      37.907  40.880  23.780  1.00  0.00    -0.550 OA
ATOM     10  O   UNL     1      36.830  40.006  25.603  1.00  0.00    -0.550 OA
ENDBRANCH   7   8
ENDBRANCH   6   7
ENDBRANCH   5   6
ENDBRANCH   4   5
ENDBRANCH   3   4
ENDBRANCH   2   3
ENDBRANCH   1   2
BRANCH   1  11
ATOM     11  C   UNL     1      32.767  47.451  26.364  1.00  0.00     0.000 C 
BRANCH  11  12
ATOM     12  C   UNL     1      33.250  48.824  25.879  1.00  0.00     0.000 C 
BRANCH  12  13
ATOM     13  C   UNL     1      32.067  49.776  25.656  1.00  0.00     0.000 C 
BRANCH  13  14
ATOM     14  C   UNL     1      31.650  49.868  24.180  1.00  0.00     0.000 C 
BRANCH  14  15
ATOM     15  C   UNL     1      30.525  50.888  23.943  1.00  0.00     0.000 C 
BRANCH  15  16
ATOM     16  C   UNL     1      29.736  51.143  25.236  1.00  0.00     0.006 C 
BRANCH  16  17
ATOM     17  C   UNL     1      29.545  52.640  25.514  1.00  0.00     0.053 C 
BRANCH  17  18
ATOM     18  C   UNL     1      30.856  53.363  25.578  1.00  0.00     0.041 C 
ATOM     19  O   UNL     1      31.633  53.182  26.553  1.00  0.00    -0.550 OA
ATOM     20  O   UNL     1      31.233  54.210  24.545  1.00  0.00    -0.550 OA
ENDBRANCH  17  18
ENDBRANCH  16  17
ENDBRANCH  15  16
ENDBRANCH  14  15
ENDBRANCH  13  14
ENDBRANCH  12  13
ENDBRANCH  11  12
ENDBRANCH   1  11
TORSDOF 15
ENDMDL
MODEL 6
REMARK VINA RESULT:    -3.887      1.928      3.580
REMARK INTER + INTRA:          -8.526
REMARK INTER:                  -7.183
REMARK INTRA:                  -1.343
REMARK UNBOUND:                -1.231
REMARK SMILES O=C([O-])CCCCCCCCCCCCCCC(=O)[O-]
REMARK SMILES IDX 10 1 9 2 8 3 7 4 6 5 5 6 4 7 2 8 1 9 3 10 11 11 12 12 13 13
REMARK SMILES IDX 14 14 15 15 16 16 17 17 18 18 19 19 20 20
REMARK H PARENT
REMARK Flexibility Score: inf
ROOT
ATOM      1  C   UNL     1      33.604  50.296  26.616  1.00  0.00     0.000 C 
ENDROOT
BRANCH   1   2
ATOM      2  C   UNL     1      33.919  51.773  26.901  1.00  0.00     0.000 C 
BRANCH   2   3
ATOM      3  C   UNL     1      33.065  52.734  26.057  1.00  0.00     0.000 C 
BRANCH   3   4
ATOM      4  C   UNL     1      32.020  53.485  26.910  1.00  0.00     0.000 C 
BRANCH   4   5
ATOM      5  C   UNL     1      30.763  53.890  26.122  1.00  0.00     0.000 C 
BRANCH   5   6
ATOM      6  C   UNL     1      29.522  53.069  26.510  1.00  0.00     0.006 C 
BRANCH   6   7
ATOM      7  C   UNL     1      29.800  51.561  26.508  1.00  0.00     0.053 C 
BRANCH   7   8
ATOM      8  C   UNL     1      29.716  50.983  25.128  1.00  0.00     0.041 C 
ATOM      9  O   UNL     1      28.626  51.000  24.500  1.00  0.00    -0.550 OA
ATOM     10  O   UNL     1      30.833  50.392  24.551  1.00  0.00    -0.550 OA
ENDBRANCH   7   8
ENDBRANCH   6   7
ENDBRANCH   5   6
ENDBRANCH   4   5
ENDBRANCH   3   4
ENDBRANCH   2   3
ENDBRANCH   1   2
BRANCH   1  11
ATOM     11  C   UNL     1      34.775  49.368  26.971  1.00  0.00     0.000 C 
BRANCH  11  12
ATOM     12  C   UNL     1      34.959  48.283  25.901  1.00  0.00     0.000 C 
BRANCH  12  13
ATOM     13  C   UNL     1      33.805  48.308  24.888  1.00  0.00     0.000 C 
BRANCH  13  14
ATOM     14  C   UNL     1      33.125  46.940  24.729  1.00  0.00     0.000 C 
BRANCH  14  15
ATOM     15  C   UNL     1      32.899  46.230  26.073  1.00  0.00     0.000 C 
BRANCH  15  16
ATOM     16  C   UNL     1      33.290  44.748  25.983  1.00  0.00     0.006 C 
BRANCH  16  17
ATOM     17  C   UNL     1      34.379  44.372  26.997  1.00  0.00     0.053 C 
BRANCH  17  18
ATOM     18  C   UNL     1      35.727  44.271  26.350  1.00  0.00     0.041 C 
ATOM     19  O   UNL     1      36.516  45.252  26.372  1.00  0.00    -0.550 OA
ATOM     20  O   UNL     1      36.123  43.081  25.753  1.00  0.00    -0.550 OA
ENDBRANCH  17  18
ENDBRANCH  16  17
ENDBRANCH  15  16
ENDBRANCH  14  15
ENDBRANCH  13  14
ENDBRANCH  12  13
ENDBRANCH  11  12
ENDBRANCH   1  11
TORSDOF 15
ENDMDL
MODEL 7
REMARK VINA RESULT:    -3.805      1.510      2.419
REMARK INTER + INTRA:          -8.372
REMARK INTER:                  -7.313
REMARK INTRA:                  -1.059
REMARK UNBOUND:                -1.231
REMARK SMILES O=C([O-])CCCCCCCCCCCCCCC(=O)[O-]
REMARK SMILES IDX 10 1 9 2 8 3 7 4 6 5 5 6 4 7 2 8 1 9 3 10 11 11 12 12 13 13
REMARK SMILES IDX 14 14 15 15 16 16 17 17 18 18 19 19 20 20
REMARK H PARENT
REMARK Flexibility Score: inf
ROOT
ATOM      1  C   UNL     1      33.142  47.859  25.294  1.00  0.00     0.000 C 
ENDROOT
BRANCH   1   2
ATOM      2  C   UNL     1      32.448  47.953  26.663  1.00  0.00     0.000 C 
BRANCH   2   3
ATOM      3  C   UNL     1      31.377  49.056  26.707  1.00  0.00     0.000 C 
BRANCH   3   4
ATOM      4  C   UNL     1      31.986  50.446  26.995  1.00  0.00     0.000 C 
BRANCH   4   5
ATOM      5  C   UNL     1      32.238  51.280  25.728  1.00  0.00     0.000 C 
BRANCH   5   6
ATOM      6  C   UNL     1      30.993  51.404  24.835  1.00  0.00     0.006 C 
BRANCH   6   7
ATOM      7  C   UNL     1      30.084  52.563  25.263  1.00  0.00     0.053 C 
BRANCH   7   8
ATOM      8  C   UNL     1      30.828  53.863  25.308  1.00  0.00     0.041 C 
ATOM      9  O   UNL     1      31.423  54.287  24.283  1.00  0.00    -0.550 OA
ATOM     10  O   UNL     1      30.894  54.588  26.491  1.00  0.00    -0.550 OA
ENDBRANCH   7   8
ENDBRANCH   6   7
ENDBRANCH   5   6
ENDBRANCH   4   5
ENDBRANCH   3   4
ENDBRANCH   2   3
ENDBRANCH   1   2
BRANCH   1  11
ATOM     11  C   UNL     1      34.635  48.216  25.369  1.00  0.00     0.000 C 
BRANCH  11  12
ATOM     12  C   UNL     1      35.130  48.205  26.821  1.00  0.00     0.000 C 
BRANCH  12  13
ATOM     13  C   UNL     1      36.126  47.060  27.054  1.00  0.00     0.000 C 
BRANCH  13  14
ATOM     14  C   UNL     1      35.632  45.719  26.489  1.00  0.00     0.000 C 
BRANCH  14  15
ATOM     15  C   UNL     1      36.599  44.561  26.778  1.00  0.00     0.000 C 
BRANCH  15  16
ATOM     16  C   UNL     1      36.236  43.323  25.944  1.00  0.00     0.006 C 
BRANCH  16  17
ATOM     17  C   UNL     1      37.458  42.717  25.242  1.00  0.00     0.053 C 
BRANCH  17  18
ATOM     18  C   UNL     1      37.125  41.416  24.576  1.00  0.00     0.041 C 
ATOM     19  O   UNL     1      36.752  40.429  25.264  1.00  0.00    -0.550 OA
ATOM     20  O   UNL     1      37.195  41.305  23.194  1.00  0.00    -0.550 OA
ENDBRANCH  17  18
ENDBRANCH  16  17
ENDBRANCH  15  16
ENDBRANCH  14  15
ENDBRANCH  13  14
ENDBRANCH  12  13
ENDBRANCH  11  12
ENDBRANCH   1  11
TORSDOF 15
ENDMDL
MODEL 8
REMARK VINA RESULT:    -3.491      1.781     10.080
REMARK INTER + INTRA:          -7.782
REMARK INTER:                  -7.086
REMARK INTRA:                  -0.696
REMARK UNBOUND:                -1.231
REMARK SMILES O=C([O-])CCCCCCCCCCCCCCC(=O)[O-]
REMARK SMILES IDX 10 1 9 2 8 3 7 4 6 5 5 6 4 7 2 8 1 9 3 10 11 11 12 12 13 13
REMARK SMILES IDX 14 14 15 15 16 16 17 17 18 18 19 19 20 20
REMARK H PARENT
REMARK Flexibility Score: inf
ROOT
ATOM      1  C   UNL     1      33.082  44.816  26.773  1.00  0.00     0.000 C 
ENDROOT
BRANCH   1   2
ATOM      2  C   UNL     1      34.438  44.889  26.053  1.00  0.00     0.000 C 
BRANCH   2   3
ATOM      3  C   UNL     1      35.621  44.583  26.987  1.00  0.00     0.000 C 
BRANCH   3   4
ATOM      4  C   UNL     1      36.191  43.167  26.756  1.00  0.00     0.000 C 
BRANCH   4   5
ATOM      5  C   UNL     1      36.244  42.761  25.274  1.00  0.00     0.000 C 
BRANCH   5   6
ATOM      6  C   UNL     1      37.542  42.027  24.900  1.00  0.00     0.006 C 
BRANCH   6   7
ATOM      7  C   UNL     1      37.339  40.512  24.781  1.00  0.00     0.053 C 
BRANCH   7   8
ATOM      8  C   UNL     1      37.817  39.790  26.004  1.00  0.00     0.041 C 
ATOM      9  O   UNL     1      37.365  38.648  26.282  1.00  0.00    -0.550 OA
ATOM     10  O   UNL     1      38.732  40.394  26.856  1.00  0.00    -0.550 OA
ENDBRANCH   7   8
ENDBRANCH   6   7
ENDBRANCH   5   6
ENDBRANCH   4   5
ENDBRANCH   3   4
ENDBRANCH   2   3
ENDBRANCH   1   2
BRANCH   1  11
ATOM     11  C   UNL     1      32.311  46.143  26.708  1.00  0.00     0.000 C 
BRANCH  11  12
ATOM     12  C   UNL     1      33.262  47.318  26.444  1.00  0.00     0.000 C 
BRANCH  12  13
ATOM     13  C   UNL     1      33.031  47.909  25.045  1.00  0.00     0.000 C 
BRANCH  13  14
ATOM     14  C   UNL     1      32.776  49.423  25.075  1.00  0.00     0.000 C 
BRANCH  14  15
ATOM     15  C   UNL     1      31.338  49.774  25.487  1.00  0.00     0.000 C 
BRANCH  15  16
ATOM     16  C   UNL     1      30.659  50.646  24.421  1.00  0.00     0.006 C 
BRANCH  16  17
ATOM     17  C   UNL     1      30.011  51.900  25.022  1.00  0.00     0.053 C 
BRANCH  17  18
ATOM     18  C   UNL     1      31.000  53.016  25.175  1.00  0.00     0.041 C 
ATOM     19  O   UNL     1      31.597  53.188  26.271  1.00  0.00    -0.550 OA
ATOM     20  O   UNL     1      31.288  53.843  24.097  1.00  0.00    -0.550 OA
ENDBRANCH  17  18
ENDBRANCH  16  17
ENDBRANCH  15  16
ENDBRANCH  14  15
ENDBRANCH  13  14
ENDBRANCH  12  13
ENDBRANCH  11  12
ENDBRANCH   1  11
TORSDOF 15
ENDMDL
MODEL 9
REMARK VINA RESULT:    -3.437     17.624     20.120
REMARK INTER + INTRA:          -7.681
REMARK INTER:                  -5.629
REMARK INTRA:                  -2.052
REMARK UNBOUND:                -1.231
REMARK SMILES O=C([O-])CCCCCCCCCCCCCCC(=O)[O-]
REMARK SMILES IDX 10 1 9 2 8 3 7 4 6 5 5 6 4 7 2 8 1 9 3 10 11 11 12 12 13 13
REMARK SMILES IDX 14 14 15 15 16 16 17 17 18 18 19 19 20 20
REMARK H PARENT
REMARK Flexibility Score: inf
ROOT
ATOM      1  C   UNL     1      29.902  47.050   8.284  1.00  0.00     0.000 C 
ENDROOT
BRANCH   1   2
ATOM      2  C   UNL     1      29.033  47.532   9.457  1.00  0.00     0.000 C 
BRANCH   2   3
ATOM      3  C   UNL     1      28.306  48.853   9.151  1.00  0.00     0.000 C 
BRANCH   3   4
ATOM      4  C   UNL     1      26.791  48.647   8.940  1.00  0.00     0.000 C 
BRANCH   4   5
ATOM      5  C   UNL     1      26.427  48.169   7.524  1.00  0.00     0.000 C 
BRANCH   5   6
ATOM      6  C   UNL     1      25.323  47.099   7.518  1.00  0.00     0.006 C 
BRANCH   6   7
ATOM      7  C   UNL     1      25.817  45.757   6.966  1.00  0.00     0.053 C 
BRANCH   7   8
ATOM      8  C   UNL     1      26.667  45.027   7.960  1.00  0.00     0.041 C 
ATOM      9  O   UNL     1      26.369  45.047   9.183  1.00  0.00    -0.550 OA
ATOM     10  O   UNL     1      27.809  44.356   7.542  1.00  0.00    -0.550 OA
ENDBRANCH   7   8
ENDBRANCH   6   7
ENDBRANCH   5   6
ENDBRANCH   4   5
ENDBRANCH   3   4
ENDBRANCH   2   3
ENDBRANCH   1   2
BRANCH   1  11
ATOM     11  C   UNL     1      30.132  48.148   7.235  1.00  0.00     0.000 C 
BRANCH  11  12
ATOM     12  C   UNL     1      31.580  48.655   7.279  1.00  0.00     0.000 C 
BRANCH  12  13
ATOM     13  C   UNL     1      31.652  50.061   7.892  1.00  0.00     0.000 C 
BRANCH  13  14
ATOM     14  C   UNL     1      30.854  51.100   7.089  1.00  0.00     0.000 C 
BRANCH  14  15
ATOM     15  C   UNL     1      29.914  51.936   7.971  1.00  0.00     0.000 C 
BRANCH  15  16
ATOM     16  C   UNL     1      28.521  52.049   7.335  1.00  0.00     0.006 C 
BRANCH  16  17
ATOM     17  C   UNL     1      27.435  52.374   8.369  1.00  0.00     0.053 C 
BRANCH  17  18
ATOM     18  C   UNL     1      27.354  53.845   8.643  1.00  0.00     0.041 C 
ATOM     19  O   UNL     1      26.706  54.271   9.635  1.00  0.00    -0.550 OA
ATOM     20  O   UNL     1      28.022  54.743   7.821  1.00  0.00    -0.550 OA
ENDBRANCH  17  18
ENDBRANCH  16  17
ENDBRANCH  15  16
ENDBRANCH  14  15
ENDBRANCH  13  14
ENDBRANCH  12  13
ENDBRANCH  11  12
ENDBRANCH   1  11
TORSDOF 15
ENDMDL
