MODEL 1
REMARK VINA RESULT:    -3.799      0.000      0.000
REMARK INTER + INTRA:          -5.223
REMARK INTER:                  -4.909
REMARK INTRA:                  -0.314
REMARK UNBOUND:                -0.314
REMARK SMILES CCOC(=O)C=Cc1ccc(O)c(O)c1
REMARK SMILES IDX 6 1 7 2 4 3 5 4 3 5 2 6 1 7 8 8 15 9 9 10 13 11 10 12 11 13
REMARK SMILES IDX 14 14 12 16
REMARK H PARENT 14 15 12 17
REMARK Flexibility Score: inf
ROOT
ATOM      1  C   UNL     1      34.099  19.772  12.975  1.00  0.00     0.094 C 
ATOM      2  C   UNL     1      34.214  21.075  12.684  1.00  0.00     0.016 C 
ENDROOT
BRANCH   1   3
ATOM      3  C   UNL     1      33.572  19.309  14.268  1.00  0.00     0.330 C 
ATOM      4  O   UNL     1      33.158  18.123  14.372  1.00  0.00    -0.247 OA
BRANCH   3   5
ATOM      5  O   UNL     1      33.526  20.176  15.368  1.00  0.00    -0.463 OA
BRANCH   5   6
ATOM      6  C   UNL     1      34.451  20.121  16.453  1.00  0.00     0.230 C 
ATOM      7  C   UNL     1      35.885  20.185  15.940  1.00  0.00     0.049 C 
ENDBRANCH   5   6
ENDBRANCH   3   5
ENDBRANCH   1   3
BRANCH   2   8
ATOM      8  C   UNL     1      34.730  21.587  11.389  1.00  0.00    -0.021 A 
ATOM      9  C   UNL     1      33.981  21.528  10.198  1.00  0.00     0.058 A 
ATOM     10  C   UNL     1      36.028  22.115  11.346  1.00  0.00     0.012 A 
ATOM     11  C   UNL     1      34.505  22.011   8.991  1.00  0.00     0.157 A 
ATOM     12  C   UNL     1      36.557  22.602  10.149  1.00  0.00     0.051 A 
ATOM     13  C   UNL     1      35.809  22.560   8.969  1.00  0.00     0.157 A 
BRANCH  11  14
ATOM     14  O   UNL     1      33.706  21.920   7.850  1.00  0.00    -0.504 OA
ATOM     15  H   UNL     1      32.697  21.971   7.861  1.00  0.00     0.293 HD
ENDBRANCH  11  14
BRANCH  13  16
ATOM     16  O   UNL     1      36.394  23.068   7.807  1.00  0.00    -0.504 OA
ATOM     17  H   UNL     1      36.595  22.514   6.987  1.00  0.00     0.293 HD
ENDBRANCH  13  16
ENDBRANCH   2   8
TORSDOF 6
ENDMDL
MODEL 2
REMARK VINA RESULT:    -3.649      1.417      6.482
REMARK INTER + INTRA:          -5.029
REMARK INTER:                  -4.658
REMARK INTRA:                  -0.371
REMARK UNBOUND:                -0.314
REMARK SMILES CCOC(=O)C=Cc1ccc(O)c(O)c1
REMARK SMILES IDX 6 1 7 2 4 3 5 4 3 5 2 6 1 7 8 8 15 9 9 10 13 11 10 12 11 13
REMARK SMILES IDX 14 14 12 16
REMARK H PARENT 14 15 12 17
REMARK Flexibility Score: inf
ROOT
ATOM      1  C   UNL     1      33.480  21.045  10.775  1.00  0.00     0.094 C 
ATOM      2  C   UNL     1      34.146  21.196  11.928  1.00  0.00     0.016 C 
ENDROOT
BRANCH   1   3
ATOM      3  C   UNL     1      33.744  21.900   9.607  1.00  0.00     0.330 C 
ATOM      4  O   UNL     1      32.929  21.890   8.645  1.00  0.00    -0.247 OA
BRANCH   3   5
ATOM      5  O   UNL     1      34.886  22.710   9.563  1.00  0.00    -0.463 OA
BRANCH   5   6
ATOM      6  C   UNL     1      36.032  22.412   8.766  1.00  0.00     0.230 C 
ATOM      7  C   UNL     1      36.756  21.183   9.304  1.00  0.00     0.049 C 
ENDBRANCH   5   6
ENDBRANCH   3   5
ENDBRANCH   1   3
BRANCH   2   8
ATOM      8  C   UNL     1      33.921  20.350  13.127  1.00  0.00    -0.021 A 
ATOM      9  C   UNL     1      34.393  20.704  14.405  1.00  0.00     0.058 A 
ATOM     10  C   UNL     1      33.243  19.133  12.971  1.00  0.00     0.012 A 
ATOM     11  C   UNL     1      34.172  19.875  15.512  1.00  0.00     0.157 A 
ATOM     12  C   UNL     1      33.014  18.301  14.069  1.00  0.00     0.051 A 
ATOM     13  C   UNL     1      33.467  18.660  15.342  1.00  0.00     0.157 A 
BRANCH  11  14
ATOM     14  O   UNL     1      34.669  20.290  16.748  1.00  0.00    -0.504 OA
ATOM     15  H   UNL     1      34.199  20.947  17.355  1.00  0.00     0.293 HD
ENDBRANCH  11  14
BRANCH  13  16
ATOM     16  O   UNL     1      33.201  17.787  16.399  1.00  0.00    -0.504 OA
ATOM     17  H   UNL     1      32.481  17.939  17.091  1.00  0.00     0.293 HD
ENDBRANCH  13  16
ENDBRANCH   2   8
TORSDOF 6
ENDMDL
MODEL 3
REMARK VINA RESULT:    -3.428      1.625      2.223
REMARK INTER + INTRA:          -4.744
REMARK INTER:                  -4.420
REMARK INTRA:                  -0.324
REMARK UNBOUND:                -0.314
REMARK SMILES CCOC(=O)C=Cc1ccc(O)c(O)c1
REMARK SMILES IDX 6 1 7 2 4 3 5 4 3 5 2 6 1 7 8 8 15 9 9 10 13 11 10 12 11 13
REMARK SMILES IDX 14 14 12 16
REMARK H PARENT 14 15 12 17
REMARK Flexibility Score: inf
ROOT
ATOM      1  C   UNL     1      35.251  20.479  14.225  1.00  0.00     0.094 C 
ATOM      2  C   UNL     1      34.549  21.399  13.550  1.00  0.00     0.016 C 
ENDROOT
BRANCH   1   3
ATOM      3  C   UNL     1      35.013  20.212  15.651  1.00  0.00     0.330 C 
ATOM      4  O   UNL     1      35.987  19.902  16.388  1.00  0.00    -0.247 OA
BRANCH   3   5
ATOM      5  O   UNL     1      33.719  20.295  16.183  1.00  0.00    -0.463 OA
BRANCH   5   6
ATOM      6  C   UNL     1      32.985  19.164  16.649  1.00  0.00     0.230 C 
ATOM      7  C   UNL     1      32.885  18.103  15.559  1.00  0.00     0.049 C 
ENDBRANCH   5   6
ENDBRANCH   3   5
ENDBRANCH   1   3
BRANCH   2   8
ATOM      8  C   UNL     1      34.748  21.695  12.108  1.00  0.00    -0.021 A 
ATOM      9  C   UNL     1      35.598  20.928  11.288  1.00  0.00     0.058 A 
ATOM     10  C   UNL     1      34.092  22.802  11.554  1.00  0.00     0.012 A 
ATOM     11  C   UNL     1      35.770  21.244   9.934  1.00  0.00     0.157 A 
ATOM     12  C   UNL     1      34.255  23.122  10.205  1.00  0.00     0.051 A 
ATOM     13  C   UNL     1      35.084  22.352   9.384  1.00  0.00     0.157 A 
BRANCH  11  14
ATOM     14  O   UNL     1      36.628  20.440   9.181  1.00  0.00    -0.504 OA
ATOM     15  H   UNL     1      37.450  20.782   8.704  1.00  0.00     0.293 HD
ENDBRANCH  11  14
BRANCH  13  16
ATOM     16  O   UNL     1      35.200  22.722   8.042  1.00  0.00    -0.504 OA
ATOM     17  H   UNL     1      35.779  22.238   7.371  1.00  0.00     0.293 HD
ENDBRANCH  13  16
ENDBRANCH   2   8
TORSDOF 6
ENDMDL
MODEL 4
REMARK VINA RESULT:    -3.092     14.001     15.709
REMARK INTER + INTRA:          -4.310
REMARK INTER:                  -4.041
REMARK INTRA:                  -0.269
REMARK UNBOUND:                -0.314
REMARK SMILES CCOC(=O)C=Cc1ccc(O)c(O)c1
REMARK SMILES IDX 6 1 7 2 4 3 5 4 3 5 2 6 1 7 8 8 15 9 9 10 13 11 10 12 11 13
REMARK SMILES IDX 14 14 12 16
REMARK H PARENT 14 15 12 17
REMARK Flexibility Score: inf
ROOT
ATOM      1  C   UNL     1      50.473  21.408  15.286  1.00  0.00     0.094 C 
ATOM      2  C   UNL     1      49.840  22.032  16.290  1.00  0.00     0.016 C 
ENDROOT
BRANCH   1   3
ATOM      3  C   UNL     1      51.940  21.400  15.178  1.00  0.00     0.330 C 
ATOM      4  O   UNL     1      52.477  20.850  14.180  1.00  0.00    -0.247 OA
BRANCH   3   5
ATOM      5  O   UNL     1      52.729  21.991  16.175  1.00  0.00    -0.463 OA
BRANCH   5   6
ATOM      6  C   UNL     1      53.125  21.316  17.368  1.00  0.00     0.230 C 
ATOM      7  C   UNL     1      52.618  22.060  18.599  1.00  0.00     0.049 C 
ENDBRANCH   5   6
ENDBRANCH   3   5
ENDBRANCH   1   3
BRANCH   2   8
ATOM      8  C   UNL     1      48.364  22.056  16.444  1.00  0.00    -0.021 A 
ATOM      9  C   UNL     1      47.518  21.138  15.793  1.00  0.00     0.058 A 
ATOM     10  C   UNL     1      47.790  23.058  17.240  1.00  0.00     0.012 A 
ATOM     11  C   UNL     1      46.128  21.199  15.953  1.00  0.00     0.157 A 
ATOM     12  C   UNL     1      46.405  23.124  17.408  1.00  0.00     0.051 A 
ATOM     13  C   UNL     1      45.564  22.202  16.777  1.00  0.00     0.157 A 
BRANCH  11  14
ATOM     14  O   UNL     1      45.351  20.256  15.278  1.00  0.00    -0.504 OA
ATOM     15  H   UNL     1      45.261  19.290  15.561  1.00  0.00     0.293 HD
ENDBRANCH  11  14
BRANCH  13  16
ATOM     16  O   UNL     1      44.189  22.320  16.990  1.00  0.00    -0.504 OA
ATOM     17  H   UNL     1      43.593  22.964  16.491  1.00  0.00     0.293 HD
ENDBRANCH  13  16
ENDBRANCH   2   8
TORSDOF 6
ENDMDL
MODEL 5
REMARK VINA RESULT:    -2.955     13.646     15.050
REMARK INTER + INTRA:          -4.132
REMARK INTER:                  -3.894
REMARK INTRA:                  -0.238
REMARK UNBOUND:                -0.314
REMARK SMILES CCOC(=O)C=Cc1ccc(O)c(O)c1
REMARK SMILES IDX 6 1 7 2 4 3 5 4 3 5 2 6 1 7 8 8 15 9 9 10 13 11 10 12 11 13
REMARK SMILES IDX 14 14 12 16
REMARK H PARENT 14 15 12 17
REMARK Flexibility Score: inf
ROOT
ATOM      1  C   UNL     1      46.755  21.534  16.371  1.00  0.00     0.094 C 
ATOM      2  C   UNL     1      47.762  22.417  16.346  1.00  0.00     0.016 C 
ENDROOT
BRANCH   1   3
ATOM      3  C   UNL     1      45.366  21.947  16.624  1.00  0.00     0.330 C 
ATOM      4  O   UNL     1      44.431  21.357  16.018  1.00  0.00    -0.247 OA
BRANCH   3   5
ATOM      5  O   UNL     1      45.086  22.984  17.524  1.00  0.00    -0.463 OA
BRANCH   5   6
ATOM      6  C   UNL     1      43.837  23.125  18.199  1.00  0.00     0.230 C 
ATOM      7  C   UNL     1      44.040  23.123  19.710  1.00  0.00     0.049 C 
ENDBRANCH   5   6
ENDBRANCH   3   5
ENDBRANCH   1   3
BRANCH   2   8
ATOM      8  C   UNL     1      49.176  22.047  16.083  1.00  0.00    -0.021 A 
ATOM      9  C   UNL     1      50.248  22.568  16.834  1.00  0.00     0.058 A 
ATOM     10  C   UNL     1      49.455  21.174  15.023  1.00  0.00     0.012 A 
ATOM     11  C   UNL     1      51.571  22.204  16.550  1.00  0.00     0.157 A 
ATOM     12  C   UNL     1      50.770  20.804  14.734  1.00  0.00     0.051 A 
ATOM     13  C   UNL     1      51.834  21.305  15.489  1.00  0.00     0.157 A 
BRANCH  11  14
ATOM     14  O   UNL     1      52.582  22.760  17.335  1.00  0.00    -0.504 OA
ATOM     15  H   UNL     1      53.548  22.832  17.046  1.00  0.00     0.293 HD
ENDBRANCH  11  14
BRANCH  13  16
ATOM     16  O   UNL     1      53.125  20.892  15.154  1.00  0.00    -0.504 OA
ATOM     17  H   UNL     1      53.329  20.153  14.496  1.00  0.00     0.293 HD
ENDBRANCH  13  16
ENDBRANCH   2   8
TORSDOF 6
ENDMDL
MODEL 6
REMARK VINA RESULT:    -2.828     14.501     16.192
REMARK INTER + INTRA:          -3.969
REMARK INTER:                  -3.590
REMARK INTRA:                  -0.379
REMARK UNBOUND:                -0.314
REMARK SMILES CCOC(=O)C=Cc1ccc(O)c(O)c1
REMARK SMILES IDX 6 1 7 2 4 3 5 4 3 5 2 6 1 7 8 8 15 9 9 10 13 11 10 12 11 13
REMARK SMILES IDX 14 14 12 16
REMARK H PARENT 14 15 12 17
REMARK Flexibility Score: inf
ROOT
ATOM      1  C   UNL     1      50.761  22.354  18.881  1.00  0.00     0.094 C 
ATOM      2  C   UNL     1      49.672  23.123  18.753  1.00  0.00     0.016 C 
ENDROOT
BRANCH   1   3
ATOM      3  C   UNL     1      51.917  22.770  19.690  1.00  0.00     0.330 C 
ATOM      4  O   UNL     1      53.045  22.874  19.139  1.00  0.00    -0.247 OA
BRANCH   3   5
ATOM      5  O   UNL     1      51.765  23.042  21.057  1.00  0.00    -0.463 OA
BRANCH   5   6
ATOM      6  C   UNL     1      51.452  22.045  22.028  1.00  0.00     0.230 C 
ATOM      7  C   UNL     1      50.158  22.392  22.756  1.00  0.00     0.049 C 
ENDBRANCH   5   6
ENDBRANCH   3   5
ENDBRANCH   1   3
BRANCH   2   8
ATOM      8  C   UNL     1      48.480  22.738  17.956  1.00  0.00    -0.021 A 
ATOM      9  C   UNL     1      47.171  23.110  18.321  1.00  0.00     0.058 A 
ATOM     10  C   UNL     1      48.663  21.943  16.817  1.00  0.00     0.012 A 
ATOM     11  C   UNL     1      46.069  22.718  17.550  1.00  0.00     0.157 A 
ATOM     12  C   UNL     1      47.571  21.551  16.040  1.00  0.00     0.051 A 
ATOM     13  C   UNL     1      46.273  21.934  16.391  1.00  0.00     0.157 A 
BRANCH  11  14
ATOM     14  O   UNL     1      44.801  23.124  17.972  1.00  0.00    -0.504 OA
ATOM     15  H   UNL     1      43.944  22.892  17.490  1.00  0.00     0.293 HD
ENDBRANCH  11  14
BRANCH  13  16
ATOM     16  O   UNL     1      45.224  21.514  15.569  1.00  0.00    -0.504 OA
ATOM     17  H   UNL     1      45.221  20.644  15.057  1.00  0.00     0.293 HD
ENDBRANCH  13  16
ENDBRANCH   2   8
TORSDOF 6
ENDMDL
MODEL 7
REMARK VINA RESULT:    -2.742     15.351     17.754
REMARK INTER + INTRA:          -3.858
REMARK INTER:                  -3.583
REMARK INTRA:                  -0.275
REMARK UNBOUND:                -0.314
REMARK SMILES CCOC(=O)C=Cc1ccc(O)c(O)c1
REMARK SMILES IDX 6 1 7 2 4 3 5 4 3 5 2 6 1 7 8 8 15 9 9 10 13 11 10 12 11 13
REMARK SMILES IDX 14 14 12 16
REMARK H PARENT 14 15 12 17
REMARK Flexibility Score: inf
ROOT
ATOM      1  C   UNL     1      48.599  22.139  18.087  1.00  0.00     0.094 C 
ATOM      2  C   UNL     1      48.469  22.968  19.132  1.00  0.00     0.016 C 
ENDROOT
BRANCH   1   3
ATOM      3  C   UNL     1      47.722  22.228  16.910  1.00  0.00     0.330 C 
ATOM      4  O   UNL     1      46.503  22.500  17.074  1.00  0.00    -0.247 OA
BRANCH   3   5
ATOM      5  O   UNL     1      48.235  22.010  15.624  1.00  0.00    -0.463 OA
BRANCH   5   6
ATOM      6  C   UNL     1      48.992  20.856  15.264  1.00  0.00     0.230 C 
ATOM      7  C   UNL     1      50.414  21.246  14.875  1.00  0.00     0.049 C 
ENDBRANCH   5   6
ENDBRANCH   3   5
ENDBRANCH   1   3
BRANCH   2   8
ATOM      8  C   UNL     1      49.338  22.921  20.335  1.00  0.00    -0.021 A 
ATOM      9  C   UNL     1      50.717  22.642  20.264  1.00  0.00     0.058 A 
ATOM     10  C   UNL     1      48.754  23.125  21.592  1.00  0.00     0.012 A 
ATOM     11  C   UNL     1      51.504  22.594  21.422  1.00  0.00     0.157 A 
ATOM     12  C   UNL     1      49.531  23.082  22.752  1.00  0.00     0.051 A 
ATOM     13  C   UNL     1      50.903  22.824  22.682  1.00  0.00     0.157 A 
BRANCH  11  14
ATOM     14  O   UNL     1      52.863  22.313  21.275  1.00  0.00    -0.504 OA
ATOM     15  H   UNL     1      53.596  23.003  21.361  1.00  0.00     0.293 HD
ENDBRANCH  11  14
BRANCH  13  16
ATOM     16  O   UNL     1      51.625  22.801  23.878  1.00  0.00    -0.504 OA
ATOM     17  H   UNL     1      51.225  23.002  24.783  1.00  0.00     0.293 HD
ENDBRANCH  13  16
ENDBRANCH   2   8
TORSDOF 6
ENDMDL
MODEL 8
REMARK VINA RESULT:    -2.699      1.308      6.180
REMARK INTER + INTRA:          -3.801
REMARK INTER:                  -3.728
REMARK INTRA:                  -0.073
REMARK UNBOUND:                -0.314
REMARK SMILES CCOC(=O)C=Cc1ccc(O)c(O)c1
REMARK SMILES IDX 6 1 7 2 4 3 5 4 3 5 2 6 1 7 8 8 15 9 9 10 13 11 10 12 11 13
REMARK SMILES IDX 14 14 12 16
REMARK H PARENT 14 15 12 17
REMARK Flexibility Score: inf
ROOT
ATOM      1  C   UNL     1      34.033  21.503  10.630  1.00  0.00     0.094 C 
ATOM      2  C   UNL     1      33.450  21.722  11.816  1.00  0.00     0.016 C 
ENDROOT
BRANCH   1   3
ATOM      3  C   UNL     1      33.958  22.481   9.534  1.00  0.00     0.330 C 
ATOM      4  O   UNL     1      32.877  23.099   9.338  1.00  0.00    -0.247 OA
BRANCH   3   5
ATOM      5  O   UNL     1      35.072  22.720   8.718  1.00  0.00    -0.463 OA
BRANCH   5   6
ATOM      6  C   UNL     1      36.378  22.224   9.003  1.00  0.00     0.230 C 
ATOM      7  C   UNL     1      36.933  22.869  10.269  1.00  0.00     0.049 C 
ENDBRANCH   5   6
ENDBRANCH   3   5
ENDBRANCH   1   3
BRANCH   2   8
ATOM      8  C   UNL     1      33.509  20.768  12.953  1.00  0.00    -0.021 A 
ATOM      9  C   UNL     1      33.170  19.408  12.819  1.00  0.00     0.058 A 
ATOM     10  C   UNL     1      33.882  21.250  14.214  1.00  0.00     0.012 A 
ATOM     11  C   UNL     1      33.226  18.539  13.916  1.00  0.00     0.157 A 
ATOM     12  C   UNL     1      33.945  20.391  15.313  1.00  0.00     0.051 A 
ATOM     13  C   UNL     1      33.626  19.037  15.179  1.00  0.00     0.157 A 
BRANCH  11  14
ATOM     14  O   UNL     1      32.876  17.203  13.710  1.00  0.00    -0.504 OA
ATOM     15  H   UNL     1      33.319  16.424  14.176  1.00  0.00     0.293 HD
ENDBRANCH  11  14
BRANCH  13  16
ATOM     16  O   UNL     1      33.714  18.230  16.315  1.00  0.00    -0.504 OA
ATOM     17  H   UNL     1      33.954  18.572  17.235  1.00  0.00     0.293 HD
ENDBRANCH  13  16
ENDBRANCH   2   8
TORSDOF 6
ENDMDL
MODEL 9
REMARK VINA RESULT:    -2.529     15.247     17.614
REMARK INTER + INTRA:          -3.582
REMARK INTER:                  -3.413
REMARK INTRA:                  -0.169
REMARK UNBOUND:                -0.314
REMARK SMILES CCOC(=O)C=Cc1ccc(O)c(O)c1
REMARK SMILES IDX 6 1 7 2 4 3 5 4 3 5 2 6 1 7 8 8 15 9 9 10 13 11 10 12 11 13
REMARK SMILES IDX 14 14 12 16
REMARK H PARENT 14 15 12 17
REMARK Flexibility Score: inf
ROOT
ATOM      1  C   UNL     1      48.675  22.211  18.020  1.00  0.00     0.094 C 
ATOM      2  C   UNL     1      49.924  22.615  18.291  1.00  0.00     0.016 C 
ENDROOT
BRANCH   1   3
ATOM      3  C   UNL     1      48.052  22.437  16.707  1.00  0.00     0.330 C 
ATOM      4  O   UNL     1      48.631  22.008  15.673  1.00  0.00    -0.247 OA
BRANCH   3   5
ATOM      5  O   UNL     1      46.835  23.125  16.607  1.00  0.00    -0.463 OA
BRANCH   5   6
ATOM      6  C   UNL     1      45.563  22.503  16.780  1.00  0.00     0.230 C 
ATOM      7  C   UNL     1      45.493  21.196  15.997  1.00  0.00     0.049 C 
ENDBRANCH   5   6
ENDBRANCH   3   5
ENDBRANCH   1   3
BRANCH   2   8
ATOM      8  C   UNL     1      50.595  22.398  19.597  1.00  0.00    -0.021 A 
ATOM      9  C   UNL     1      50.076  21.536  20.583  1.00  0.00     0.058 A 
ATOM     10  C   UNL     1      51.772  23.108  19.873  1.00  0.00     0.012 A 
ATOM     11  C   UNL     1      50.731  21.365  21.809  1.00  0.00     0.157 A 
ATOM     12  C   UNL     1      52.433  22.941  21.091  1.00  0.00     0.051 A 
ATOM     13  C   UNL     1      51.930  22.073  22.064  1.00  0.00     0.157 A 
BRANCH  11  14
ATOM     14  O   UNL     1      50.159  20.494  22.738  1.00  0.00    -0.504 OA
ATOM     15  H   UNL     1      49.265  20.649  23.182  1.00  0.00     0.293 HD
ENDBRANCH  11  14
BRANCH  13  16
ATOM     16  O   UNL     1      52.642  21.946  23.258  1.00  0.00    -0.504 OA
ATOM     17  H   UNL     1      53.113  21.102  23.548  1.00  0.00     0.293 HD
ENDBRANCH  13  16
ENDBRANCH   2   8
TORSDOF 6
ENDMDL
