MODEL 1
REMARK VINA RESULT:    -5.749      0.000      0.000
REMARK INTER + INTRA:          -6.338
REMARK INTER:                  -6.085
REMARK INTRA:                  -0.253
REMARK UNBOUND:                -0.253
REMARK SMILES O=c1cc(-c2ccccc2)oc2ccccc12
REMARK SMILES IDX 4 1 3 2 2 3 1 4 17 5 16 6 15 7 14 8 13 9 12 10 11 11 5 12
REMARK SMILES IDX 8 13 7 14 9 15 6 16 10 17
REMARK H PARENT
REMARK Flexibility Score: inf
ROOT
ATOM      1  C   UNL     1     -33.643  10.278 -36.032  1.00  0.00     0.138 A 
ATOM      2  C   UNL     1     -32.462   9.527 -35.845  1.00  0.00     0.100 A 
ATOM      3  C   UNL     1     -31.824   9.547 -34.604  1.00  0.00     0.193 A 
ATOM      4  O   UNL     1     -30.769   8.875 -34.437  1.00  0.00    -0.289 OA
ATOM      5  C   UNL     1     -32.364  10.313 -33.562  1.00  0.00     0.065 A 
ATOM      6  C   UNL     1     -31.771  10.376 -32.287  1.00  0.00     0.016 A 
ATOM      7  C   UNL     1     -32.352  11.157 -31.283  1.00  0.00     0.001 A 
ATOM      8  C   UNL     1     -33.522  11.876 -31.540  1.00  0.00     0.004 A 
ATOM      9  C   UNL     1     -34.119  11.818 -32.803  1.00  0.00     0.048 A 
ATOM     10  C   UNL     1     -33.546  11.041 -33.815  1.00  0.00     0.138 A 
ATOM     11  O   UNL     1     -34.120  10.993 -35.012  1.00  0.00    -0.456 OA
ENDROOT
BRANCH   1  12
ATOM     12  C   UNL     1     -34.388  10.313 -37.328  1.00  0.00     0.017 A 
ATOM     13  C   UNL     1     -35.767  10.286 -39.792  1.00  0.00     0.000 A 
ATOM     14  C   UNL     1     -35.098   9.144 -39.354  1.00  0.00     0.001 A 
ATOM     15  C   UNL     1     -35.753  11.442 -39.011  1.00  0.00     0.001 A 
ATOM     16  C   UNL     1     -34.414   9.155 -38.135  1.00  0.00     0.012 A 
ATOM     17  C   UNL     1     -35.072  11.462 -37.790  1.00  0.00     0.012 A 
ENDBRANCH   1  12
TORSDOF 1
ENDMDL
MODEL 2
REMARK VINA RESULT:    -5.632      0.279      1.191
REMARK INTER + INTRA:          -6.215
REMARK INTER:                  -5.972
REMARK INTRA:                  -0.243
REMARK UNBOUND:                -0.253
REMARK SMILES O=c1cc(-c2ccccc2)oc2ccccc12
REMARK SMILES IDX 4 1 3 2 2 3 1 4 17 5 16 6 15 7 14 8 13 9 12 10 11 11 5 12
REMARK SMILES IDX 8 13 7 14 9 15 6 16 10 17
REMARK H PARENT
REMARK Flexibility Score: inf
ROOT
ATOM      1  C   UNL     1     -33.648  10.206 -35.811  1.00  0.00     0.138 A 
ATOM      2  C   UNL     1     -32.429   9.516 -35.638  1.00  0.00     0.100 A 
ATOM      3  C   UNL     1     -31.766   9.590 -34.411  1.00  0.00     0.193 A 
ATOM      4  O   UNL     1     -30.676   8.972 -34.257  1.00  0.00    -0.289 OA
ATOM      5  C   UNL     1     -32.319  10.349 -33.371  1.00  0.00     0.065 A 
ATOM      6  C   UNL     1     -31.701  10.465 -32.112  1.00  0.00     0.016 A 
ATOM      7  C   UNL     1     -32.297  11.236 -31.109  1.00  0.00     0.001 A 
ATOM      8  C   UNL     1     -33.506  11.894 -31.352  1.00  0.00     0.004 A 
ATOM      9  C   UNL     1     -34.127  11.783 -32.599  1.00  0.00     0.048 A 
ATOM     10  C   UNL     1     -33.540  11.015 -33.611  1.00  0.00     0.138 A 
ATOM     11  O   UNL     1     -34.137  10.916 -34.793  1.00  0.00    -0.456 OA
ENDROOT
BRANCH   1  12
ATOM     12  C   UNL     1     -34.423  10.180 -37.090  1.00  0.00     0.017 A 
ATOM     13  C   UNL     1     -35.894  10.230 -39.499  1.00  0.00     0.000 A 
ATOM     14  C   UNL     1     -35.609  11.420 -38.830  1.00  0.00     0.001 A 
ATOM     15  C   UNL     1     -35.450   9.015 -38.976  1.00  0.00     0.001 A 
ATOM     16  C   UNL     1     -34.882  11.398 -37.637  1.00  0.00     0.012 A 
ATOM     17  C   UNL     1     -34.722   8.984 -37.783  1.00  0.00     0.012 A 
ENDBRANCH   1  12
TORSDOF 1
ENDMDL
MODEL 3
REMARK VINA RESULT:    -5.318      1.120      5.880
REMARK INTER + INTRA:          -5.881
REMARK INTER:                  -5.617
REMARK INTRA:                  -0.264
REMARK UNBOUND:                -0.253
REMARK SMILES O=c1cc(-c2ccccc2)oc2ccccc12
REMARK SMILES IDX 4 1 3 2 2 3 1 4 17 5 16 6 15 7 14 8 13 9 12 10 11 11 5 12
REMARK SMILES IDX 8 13 7 14 9 15 6 16 10 17
REMARK H PARENT
REMARK Flexibility Score: inf
ROOT
ATOM      1  C   UNL     1     -32.868  10.905 -33.549  1.00  0.00     0.138 A 
ATOM      2  C   UNL     1     -31.754  10.116 -33.905  1.00  0.00     0.100 A 
ATOM      3  C   UNL     1     -31.674   9.580 -35.192  1.00  0.00     0.193 A 
ATOM      4  O   UNL     1     -30.677   8.875 -35.510  1.00  0.00    -0.289 OA
ATOM      5  C   UNL     1     -32.701   9.833 -36.111  1.00  0.00     0.065 A 
ATOM      6  C   UNL     1     -32.682   9.323 -37.423  1.00  0.00     0.016 A 
ATOM      7  C   UNL     1     -33.734   9.607 -38.299  1.00  0.00     0.001 A 
ATOM      8  C   UNL     1     -34.808  10.396 -37.877  1.00  0.00     0.004 A 
ATOM      9  C   UNL     1     -34.835  10.907 -36.576  1.00  0.00     0.048 A 
ATOM     10  C   UNL     1     -33.788  10.630 -35.690  1.00  0.00     0.138 A 
ATOM     11  O   UNL     1     -33.823  11.119 -34.456  1.00  0.00    -0.456 OA
ENDROOT
BRANCH   1  12
ATOM     12  C   UNL     1     -33.033  11.515 -32.194  1.00  0.00     0.017 A 
ATOM     13  C   UNL     1     -33.251  12.643 -29.615  1.00  0.00     0.000 A 
ATOM     14  C   UNL     1     -32.048  12.070 -30.027  1.00  0.00     0.001 A 
ATOM     15  C   UNL     1     -34.346  12.657 -30.478  1.00  0.00     0.001 A 
ATOM     16  C   UNL     1     -31.938  11.511 -31.303  1.00  0.00     0.012 A 
ATOM     17  C   UNL     1     -34.244  12.100 -31.757  1.00  0.00     0.012 A 
ENDBRANCH   1  12
TORSDOF 1
ENDMDL
MODEL 4
REMARK VINA RESULT:    -4.583      1.903      6.067
REMARK INTER + INTRA:          -5.104
REMARK INTER:                  -4.881
REMARK INTRA:                  -0.223
REMARK UNBOUND:                -0.253
REMARK SMILES O=c1cc(-c2ccccc2)oc2ccccc12
REMARK SMILES IDX 4 1 3 2 2 3 1 4 17 5 16 6 15 7 14 8 13 9 12 10 11 11 5 12
REMARK SMILES IDX 8 13 7 14 9 15 6 16 10 17
REMARK H PARENT
REMARK Flexibility Score: inf
ROOT
ATOM      1  C   UNL     1     -33.922   9.909 -36.546  1.00  0.00     0.138 A 
ATOM      2  C   UNL     1     -32.891   9.460 -37.399  1.00  0.00     0.100 A 
ATOM      3  C   UNL     1     -33.153   9.276 -38.758  1.00  0.00     0.193 A 
ATOM      4  O   UNL     1     -32.231   8.875 -39.520  1.00  0.00    -0.289 OA
ATOM      5  C   UNL     1     -34.436   9.539 -39.255  1.00  0.00     0.065 A 
ATOM      6  C   UNL     1     -34.767   9.373 -40.614  1.00  0.00     0.016 A 
ATOM      7  C   UNL     1     -36.064   9.650 -41.057  1.00  0.00     0.001 A 
ATOM      8  C   UNL     1     -37.037  10.091 -40.155  1.00  0.00     0.004 A 
ATOM      9  C   UNL     1     -36.717  10.258 -38.804  1.00  0.00     0.048 A 
ATOM     10  C   UNL     1     -35.422   9.984 -38.349  1.00  0.00     0.138 A 
ATOM     11  O   UNL     1     -35.129  10.146 -37.064  1.00  0.00    -0.456 OA
ENDROOT
BRANCH   1  12
ATOM     12  C   UNL     1     -33.727  10.131 -35.081  1.00  0.00     0.017 A 
ATOM     13  C   UNL     1     -33.361  10.454 -32.300  1.00  0.00     0.000 A 
ATOM     14  C   UNL     1     -33.462   9.175 -32.847  1.00  0.00     0.001 A 
ATOM     15  C   UNL     1     -33.442  11.573 -33.128  1.00  0.00     0.001 A 
ATOM     16  C   UNL     1     -33.643   9.013 -34.223  1.00  0.00     0.012 A 
ATOM     17  C   UNL     1     -33.623  11.420 -34.506  1.00  0.00     0.012 A 
ENDBRANCH   1  12
TORSDOF 1
ENDMDL
MODEL 5
REMARK VINA RESULT:    -4.011      1.322      6.277
REMARK INTER + INTRA:          -4.498
REMARK INTER:                  -4.242
REMARK INTRA:                  -0.256
REMARK UNBOUND:                -0.253
REMARK SMILES O=c1cc(-c2ccccc2)oc2ccccc12
REMARK SMILES IDX 4 1 3 2 2 3 1 4 17 5 16 6 15 7 14 8 13 9 12 10 11 11 5 12
REMARK SMILES IDX 8 13 7 14 9 15 6 16 10 17
REMARK H PARENT
REMARK Flexibility Score: inf
ROOT
ATOM      1  C   UNL     1     -33.840  10.906 -35.379  1.00  0.00     0.138 A 
ATOM      2  C   UNL     1     -34.011  12.217 -35.872  1.00  0.00     0.100 A 
ATOM      3  C   UNL     1     -34.566  12.409 -37.139  1.00  0.00     0.193 A 
ATOM      4  O   UNL     1     -34.719  13.581 -37.579  1.00  0.00    -0.289 OA
ATOM      5  C   UNL     1     -34.945  11.297 -37.903  1.00  0.00     0.065 A 
ATOM      6  C   UNL     1     -35.509  11.420 -39.186  1.00  0.00     0.016 A 
ATOM      7  C   UNL     1     -35.869  10.276 -39.906  1.00  0.00     0.001 A 
ATOM      8  C   UNL     1     -35.670   9.007 -39.354  1.00  0.00     0.004 A 
ATOM      9  C   UNL     1     -35.110   8.875 -38.080  1.00  0.00     0.048 A 
ATOM     10  C   UNL     1     -34.746  10.012 -37.351  1.00  0.00     0.138 A 
ATOM     11  O   UNL     1     -34.215   9.876 -36.141  1.00  0.00    -0.456 OA
ENDROOT
BRANCH   1  12
ATOM     12  C   UNL     1     -33.254  10.611 -34.035  1.00  0.00     0.017 A 
ATOM     13  C   UNL     1     -32.180  10.144 -31.467  1.00  0.00     0.000 A 
ATOM     14  C   UNL     1     -32.878  11.322 -31.728  1.00  0.00     0.001 A 
ATOM     15  C   UNL     1     -32.013   9.196 -32.477  1.00  0.00     0.001 A 
ATOM     16  C   UNL     1     -33.410  11.556 -32.998  1.00  0.00     0.012 A 
ATOM     17  C   UNL     1     -32.543   9.422 -33.751  1.00  0.00     0.012 A 
ENDBRANCH   1  12
TORSDOF 1
ENDMDL
MODEL 6
REMARK VINA RESULT:    -3.939      2.298      3.659
REMARK INTER + INTRA:          -4.422
REMARK INTER:                  -4.156
REMARK INTRA:                  -0.266
REMARK UNBOUND:                -0.253
REMARK SMILES O=c1cc(-c2ccccc2)oc2ccccc12
REMARK SMILES IDX 4 1 3 2 2 3 1 4 17 5 16 6 15 7 14 8 13 9 12 10 11 11 5 12
REMARK SMILES IDX 8 13 7 14 9 15 6 16 10 17
REMARK H PARENT
REMARK Flexibility Score: inf
ROOT
ATOM      1  C   UNL     1     -35.566  10.124 -38.504  1.00  0.00     0.138 A 
ATOM      2  C   UNL     1     -34.425   9.396 -38.904  1.00  0.00     0.100 A 
ATOM      3  C   UNL     1     -33.236   9.530 -38.184  1.00  0.00     0.193 A 
ATOM      4  O   UNL     1     -32.217   8.878 -38.542  1.00  0.00    -0.289 OA
ATOM      5  C   UNL     1     -33.193  10.387 -37.076  1.00  0.00     0.065 A 
ATOM      6  C   UNL     1     -32.026  10.568 -36.309  1.00  0.00     0.016 A 
ATOM      7  C   UNL     1     -32.038  11.436 -35.213  1.00  0.00     0.001 A 
ATOM      8  C   UNL     1     -33.205  12.127 -34.875  1.00  0.00     0.004 A 
ATOM      9  C   UNL     1     -34.368  11.953 -35.631  1.00  0.00     0.048 A 
ATOM     10  C   UNL     1     -34.368  11.087 -36.731  1.00  0.00     0.138 A 
ATOM     11  O   UNL     1     -35.478  10.929 -37.443  1.00  0.00    -0.456 OA
ENDROOT
BRANCH   1  12
ATOM     12  C   UNL     1     -36.877  10.039 -39.218  1.00  0.00     0.017 A 
ATOM     13  C   UNL     1     -39.393   9.935 -40.495  1.00  0.00     0.000 A 
ATOM     14  C   UNL     1     -39.237  10.666 -39.319  1.00  0.00     0.001 A 
ATOM     15  C   UNL     1     -38.303   9.254 -41.040  1.00  0.00     0.001 A 
ATOM     16  C   UNL     1     -37.993  10.719 -38.684  1.00  0.00     0.012 A 
ATOM     17  C   UNL     1     -37.055   9.302 -40.412  1.00  0.00     0.012 A 
ENDBRANCH   1  12
TORSDOF 1
ENDMDL
MODEL 7
REMARK VINA RESULT:    -2.880     19.691     21.161
REMARK INTER + INTRA:          -3.302
REMARK INTER:                  -3.081
REMARK INTRA:                  -0.220
REMARK UNBOUND:                -0.253
REMARK SMILES O=c1cc(-c2ccccc2)oc2ccccc12
REMARK SMILES IDX 4 1 3 2 2 3 1 4 17 5 16 6 15 7 14 8 13 9 12 10 11 11 5 12
REMARK SMILES IDX 8 13 7 14 9 15 6 16 10 17
REMARK H PARENT
REMARK Flexibility Score: inf
ROOT
ATOM      1  C   UNL     1     -23.429  27.992 -31.317  1.00  0.00     0.138 A 
ATOM      2  C   UNL     1     -24.629  28.389 -30.689  1.00  0.00     0.100 A 
ATOM      3  C   UNL     1     -24.609  28.770 -29.346  1.00  0.00     0.193 A 
ATOM      4  O   UNL     1     -25.682  29.125 -28.785  1.00  0.00    -0.289 OA
ATOM      5  C   UNL     1     -23.398  28.753 -28.641  1.00  0.00     0.065 A 
ATOM      6  C   UNL     1     -23.309  29.124 -27.286  1.00  0.00     0.016 A 
ATOM      7  C   UNL     1     -22.074  29.088 -26.631  1.00  0.00     0.001 A 
ATOM      8  C   UNL     1     -20.925  28.683 -27.316  1.00  0.00     0.004 A 
ATOM      9  C   UNL     1     -21.004  28.313 -28.662  1.00  0.00     0.048 A 
ATOM     10  C   UNL     1     -22.234  28.345 -29.328  1.00  0.00     0.138 A 
ATOM     11  O   UNL     1     -22.300  27.991 -30.607  1.00  0.00    -0.456 OA
ENDROOT
BRANCH   1  12
ATOM     12  C   UNL     1     -23.362  27.569 -32.750  1.00  0.00     0.017 A 
ATOM     13  C   UNL     1     -23.250  26.677 -35.426  1.00  0.00     0.000 A 
ATOM     14  C   UNL     1     -23.484  25.767 -34.396  1.00  0.00     0.001 A 
ATOM     15  C   UNL     1     -23.071  28.028 -35.132  1.00  0.00     0.001 A 
ATOM     16  C   UNL     1     -23.539  26.206 -33.070  1.00  0.00     0.012 A 
ATOM     17  C   UNL     1     -23.126  28.476 -33.809  1.00  0.00     0.012 A 
ENDBRANCH   1  12
TORSDOF 1
ENDMDL
