MODEL 1
REMARK VINA RESULT:    -4.817      0.000      0.000
REMARK INTER + INTRA:          -5.593
REMARK INTER:                  -5.380
REMARK INTRA:                  -0.213
REMARK UNBOUND:                -0.213
REMARK SMILES CC(C)c1ccc(C(=O)[O-])cc1
REMARK SMILES IDX 7 1 6 2 11 3 5 4 12 5 4 6 8 7 9 8 10 9 2 10 1 11 3 12
REMARK H PARENT
REMARK Flexibility Score: inf
ROOT
ATOM      1  C   UNL     1     103.507 108.603 109.293  1.00  0.00    -0.003 A 
ATOM      2  C   UNL     1     104.637 109.096 109.969  1.00  0.00     0.010 A 
ATOM      3  C   UNL     1     103.667 107.550 108.377  1.00  0.00     0.010 A 
ATOM      4  C   UNL     1     105.899 108.545 109.734  1.00  0.00     0.004 A 
ATOM      5  C   UNL     1     104.931 106.999 108.143  1.00  0.00     0.004 A 
ATOM      6  C   UNL     1     106.060 107.489 108.818  1.00  0.00    -0.045 A 
ENDROOT
BRANCH   1   7
ATOM      7  C   UNL     1     102.168 109.184 109.538  1.00  0.00     0.071 C 
ATOM      8  O   UNL     1     101.251 108.488 110.046  1.00  0.00    -0.545 OA
ATOM      9  O   UNL     1     101.904 110.509 109.209  1.00  0.00    -0.545 OA
ENDBRANCH   1   7
BRANCH   6  10
ATOM     10  C   UNL     1     107.426 106.882 108.553  1.00  0.00     0.013 C 
ATOM     11  C   UNL     1     107.319 105.373 108.302  1.00  0.00     0.012 C 
ATOM     12  C   UNL     1     108.398 107.183 109.700  1.00  0.00     0.012 C 
ENDBRANCH   6  10
TORSDOF 2
ENDMDL
MODEL 2
REMARK VINA RESULT:    -4.801      9.296     10.240
REMARK INTER + INTRA:          -5.575
REMARK INTER:                  -5.368
REMARK INTRA:                  -0.208
REMARK UNBOUND:                -0.213
REMARK SMILES CC(C)c1ccc(C(=O)[O-])cc1
REMARK SMILES IDX 7 1 6 2 11 3 5 4 12 5 4 6 8 7 9 8 10 9 2 10 1 11 3 12
REMARK H PARENT
REMARK Flexibility Score: inf
ROOT
ATOM      1  C   UNL     1     101.775 106.841 100.572  1.00  0.00    -0.003 A 
ATOM      2  C   UNL     1     101.989 107.539  99.371  1.00  0.00     0.010 A 
ATOM      3  C   UNL     1     102.401 105.597 100.758  1.00  0.00     0.010 A 
ATOM      4  C   UNL     1     102.813 107.004  98.378  1.00  0.00     0.004 A 
ATOM      5  C   UNL     1     103.227 105.063  99.764  1.00  0.00     0.004 A 
ATOM      6  C   UNL     1     103.442 105.760  98.563  1.00  0.00    -0.045 A 
ENDROOT
BRANCH   1   7
ATOM      7  C   UNL     1     100.902 107.403 101.626  1.00  0.00     0.071 C 
ATOM      8  O   UNL     1     100.836 108.647 101.809  1.00  0.00    -0.545 OA
ATOM      9  O   UNL     1     100.141 106.564 102.433  1.00  0.00    -0.545 OA
ENDBRANCH   1   7
BRANCH   6  10
ATOM     10  C   UNL     1     104.340 105.167  97.493  1.00  0.00     0.013 C 
ATOM     11  C   UNL     1     105.800 105.589  97.701  1.00  0.00     0.012 C 
ATOM     12  C   UNL     1     103.852 105.545  96.090  1.00  0.00     0.012 C 
ENDBRANCH   6  10
TORSDOF 2
ENDMDL
MODEL 3
REMARK VINA RESULT:    -4.790      9.261     10.215
REMARK INTER + INTRA:          -5.564
REMARK INTER:                  -5.355
REMARK INTRA:                  -0.209
REMARK UNBOUND:                -0.213
REMARK SMILES CC(C)c1ccc(C(=O)[O-])cc1
REMARK SMILES IDX 7 1 6 2 11 3 5 4 12 5 4 6 8 7 9 8 10 9 2 10 1 11 3 12
REMARK H PARENT
REMARK Flexibility Score: inf
ROOT
ATOM      1  C   UNL     1     101.811 106.846 100.617  1.00  0.00    -0.003 A 
ATOM      2  C   UNL     1     102.378 105.569 100.766  1.00  0.00     0.010 A 
ATOM      3  C   UNL     1     102.080 107.578  99.449  1.00  0.00     0.010 A 
ATOM      4  C   UNL     1     103.196 105.035  99.767  1.00  0.00     0.004 A 
ATOM      5  C   UNL     1     102.898 107.043  98.449  1.00  0.00     0.004 A 
ATOM      6  C   UNL     1     103.465 105.766  98.596  1.00  0.00    -0.045 A 
ENDROOT
BRANCH   1   7
ATOM      7  C   UNL     1     100.945 107.416 101.673  1.00  0.00     0.071 C 
ATOM      8  O   UNL     1     100.938 108.654 101.897  1.00  0.00    -0.545 OA
ATOM      9  O   UNL     1     100.128 106.588 102.435  1.00  0.00    -0.545 OA
ENDBRANCH   1   7
BRANCH   6  10
ATOM     10  C   UNL     1     104.352 105.199  97.502  1.00  0.00     0.013 C 
ATOM     11  C   UNL     1     105.804 105.657  97.677  1.00  0.00     0.012 C 
ATOM     12  C   UNL     1     103.820 105.567  96.113  1.00  0.00     0.012 C 
ENDBRANCH   6  10
TORSDOF 2
ENDMDL
MODEL 4
REMARK VINA RESULT:    -4.702      9.998     10.913
REMARK INTER + INTRA:          -5.465
REMARK INTER:                  -5.258
REMARK INTRA:                  -0.207
REMARK UNBOUND:                -0.213
REMARK SMILES CC(C)c1ccc(C(=O)[O-])cc1
REMARK SMILES IDX 7 1 6 2 11 3 5 4 12 5 4 6 8 7 9 8 10 9 2 10 1 11 3 12
REMARK H PARENT
REMARK Flexibility Score: inf
ROOT
ATOM      1  C   UNL     1     102.809 106.147  98.266  1.00  0.00    -0.003 A 
ATOM      2  C   UNL     1     102.459 105.701  99.552  1.00  0.00     0.010 A 
ATOM      3  C   UNL     1     104.004 105.691  97.687  1.00  0.00     0.010 A 
ATOM      4  C   UNL     1     103.290 104.815 100.243  1.00  0.00     0.004 A 
ATOM      5  C   UNL     1     104.834 104.804  98.380  1.00  0.00     0.004 A 
ATOM      6  C   UNL     1     104.486 104.356  99.665  1.00  0.00    -0.045 A 
ENDROOT
BRANCH   1   7
ATOM      7  C   UNL     1     101.933 107.086  97.529  1.00  0.00     0.071 C 
ATOM      8  O   UNL     1     101.362 106.730  96.466  1.00  0.00    -0.545 OA
ATOM      9  O   UNL     1     101.730 108.378  98.003  1.00  0.00    -0.545 OA
ENDBRANCH   1   7
BRANCH   6  10
ATOM     10  C   UNL     1     105.398 103.394 100.406  1.00  0.00     0.013 C 
ATOM     11  C   UNL     1     106.812 103.406  99.812  1.00  0.00     0.012 C 
ATOM     12  C   UNL     1     104.815 101.976 100.414  1.00  0.00     0.012 C 
ENDBRANCH   6  10
TORSDOF 2
ENDMDL
MODEL 5
REMARK VINA RESULT:    -4.684      9.716     10.631
REMARK INTER + INTRA:          -5.445
REMARK INTER:                  -5.235
REMARK INTRA:                  -0.210
REMARK UNBOUND:                -0.213
REMARK SMILES CC(C)c1ccc(C(=O)[O-])cc1
REMARK SMILES IDX 7 1 6 2 11 3 5 4 12 5 4 6 8 7 9 8 10 9 2 10 1 11 3 12
REMARK H PARENT
REMARK Flexibility Score: inf
ROOT
ATOM      1  C   UNL     1     102.749 106.231  98.420  1.00  0.00    -0.003 A 
ATOM      2  C   UNL     1     103.856 105.548  97.885  1.00  0.00     0.010 A 
ATOM      3  C   UNL     1     102.394 106.007  99.760  1.00  0.00     0.010 A 
ATOM      4  C   UNL     1     104.590 104.661  98.676  1.00  0.00     0.004 A 
ATOM      5  C   UNL     1     103.130 105.120 100.551  1.00  0.00     0.004 A 
ATOM      6  C   UNL     1     104.236 104.437 100.018  1.00  0.00    -0.045 A 
ENDROOT
BRANCH   1   7
ATOM      7  C   UNL     1     101.968 107.171  97.585  1.00  0.00     0.071 C 
ATOM      8  O   UNL     1     101.481 106.799  96.485  1.00  0.00    -0.545 OA
ATOM      9  O   UNL     1     101.762 108.481  98.005  1.00  0.00    -0.545 OA
ENDBRANCH   1   7
BRANCH   6  10
ATOM     10  C   UNL     1     105.025 103.475 100.889  1.00  0.00     0.013 C 
ATOM     11  C   UNL     1     104.902 102.036 100.373  1.00  0.00     0.012 C 
ATOM     12  C   UNL     1     104.592 103.575 102.356  1.00  0.00     0.012 C 
ENDBRANCH   6  10
TORSDOF 2
ENDMDL
MODEL 6
REMARK VINA RESULT:    -4.642      1.080      1.514
REMARK INTER + INTRA:          -5.399
REMARK INTER:                  -5.199
REMARK INTRA:                  -0.200
REMARK UNBOUND:                -0.213
REMARK SMILES CC(C)c1ccc(C(=O)[O-])cc1
REMARK SMILES IDX 7 1 6 2 11 3 5 4 12 5 4 6 8 7 9 8 10 9 2 10 1 11 3 12
REMARK H PARENT
REMARK Flexibility Score: inf
ROOT
ATOM      1  C   UNL     1     103.599 108.027 108.905  1.00  0.00    -0.003 A 
ATOM      2  C   UNL     1     104.458 108.854 109.650  1.00  0.00     0.010 A 
ATOM      3  C   UNL     1     104.154 107.019 108.099  1.00  0.00     0.010 A 
ATOM      4  C   UNL     1     105.842 108.675 109.588  1.00  0.00     0.004 A 
ATOM      5  C   UNL     1     105.539 106.841 108.039  1.00  0.00     0.004 A 
ATOM      6  C   UNL     1     106.399 107.666 108.783  1.00  0.00    -0.045 A 
ENDROOT
BRANCH   1   7
ATOM      7  C   UNL     1     102.132 108.213 108.967  1.00  0.00     0.071 C 
ATOM      8  O   UNL     1     101.509 108.716 107.996  1.00  0.00    -0.545 OA
ATOM      9  O   UNL     1     101.421 107.835 110.100  1.00  0.00    -0.545 OA
ENDBRANCH   1   7
BRANCH   6  10
ATOM     10  C   UNL     1     107.901 107.462 108.706  1.00  0.00     0.013 C 
ATOM     11  C   UNL     1     108.454 106.936 110.037  1.00  0.00     0.012 C 
ATOM     12  C   UNL     1     108.614 108.751 108.282  1.00  0.00     0.012 C 
ENDBRANCH   6  10
TORSDOF 2
ENDMDL
MODEL 7
REMARK VINA RESULT:    -4.599     11.594     12.880
REMARK INTER + INTRA:          -5.350
REMARK INTER:                  -5.138
REMARK INTRA:                  -0.212
REMARK UNBOUND:                -0.213
REMARK SMILES CC(C)c1ccc(C(=O)[O-])cc1
REMARK SMILES IDX 7 1 6 2 11 3 5 4 12 5 4 6 8 7 9 8 10 9 2 10 1 11 3 12
REMARK H PARENT
REMARK Flexibility Score: inf
ROOT
ATOM      1  C   UNL     1     115.160 102.894 105.145  1.00  0.00    -0.003 A 
ATOM      2  C   UNL     1     116.559 102.783 105.228  1.00  0.00     0.010 A 
ATOM      3  C   UNL     1     114.554 104.120 105.464  1.00  0.00     0.010 A 
ATOM      4  C   UNL     1     117.334 103.877 105.620  1.00  0.00     0.004 A 
ATOM      5  C   UNL     1     115.330 105.215 105.855  1.00  0.00     0.004 A 
ATOM      6  C   UNL     1     116.728 105.106 105.938  1.00  0.00    -0.045 A 
ENDROOT
BRANCH   1   7
ATOM      7  C   UNL     1     114.335 101.737 104.731  1.00  0.00     0.071 C 
ATOM      8  O   UNL     1     114.480 100.615 105.284  1.00  0.00    -0.545 OA
ATOM      9  O   UNL     1     113.388 101.872 103.722  1.00  0.00    -0.545 OA
ENDBRANCH   1   7
BRANCH   6  10
ATOM     10  C   UNL     1     117.558 106.303 106.365  1.00  0.00     0.013 C 
ATOM     11  C   UNL     1     116.662 107.493 106.731  1.00  0.00     0.012 C 
ATOM     12  C   UNL     1     118.572 106.688 105.282  1.00  0.00     0.012 C 
ENDBRANCH   6  10
TORSDOF 2
ENDMDL
MODEL 8
REMARK VINA RESULT:    -4.457     15.109     15.893
REMARK INTER + INTRA:          -5.192
REMARK INTER:                  -4.975
REMARK INTRA:                  -0.217
REMARK UNBOUND:                -0.213
REMARK SMILES CC(C)c1ccc(C(=O)[O-])cc1
REMARK SMILES IDX 7 1 6 2 11 3 5 4 12 5 4 6 8 7 9 8 10 9 2 10 1 11 3 12
REMARK H PARENT
REMARK Flexibility Score: inf
ROOT
ATOM      1  C   UNL     1     106.090 110.745  94.150  1.00  0.00    -0.003 A 
ATOM      2  C   UNL     1     106.151 110.555  92.759  1.00  0.00     0.010 A 
ATOM      3  C   UNL     1     106.393 109.668  94.999  1.00  0.00     0.010 A 
ATOM      4  C   UNL     1     106.509 109.313  92.229  1.00  0.00     0.004 A 
ATOM      5  C   UNL     1     106.752 108.425  94.467  1.00  0.00     0.004 A 
ATOM      6  C   UNL     1     106.814 108.233  93.077  1.00  0.00    -0.045 A 
ENDROOT
BRANCH   1   7
ATOM      7  C   UNL     1     105.711 112.059  94.716  1.00  0.00     0.071 C 
ATOM      8  O   UNL     1     106.172 113.124  94.228  1.00  0.00    -0.545 OA
ATOM      9  O   UNL     1     104.840 112.136  95.797  1.00  0.00    -0.545 OA
ENDBRANCH   1   7
BRANCH   6  10
ATOM     10  C   UNL     1     107.204 106.878  92.515  1.00  0.00     0.013 C 
ATOM     11  C   UNL     1     106.601 106.665  91.121  1.00  0.00     0.012 C 
ATOM     12  C   UNL     1     106.802 105.748  93.469  1.00  0.00     0.012 C 
ENDBRANCH   6  10
TORSDOF 2
ENDMDL
MODEL 9
REMARK VINA RESULT:    -4.423      8.031      8.833
REMARK INTER + INTRA:          -5.154
REMARK INTER:                  -4.955
REMARK INTRA:                  -0.199
REMARK UNBOUND:                -0.213
REMARK SMILES CC(C)c1ccc(C(=O)[O-])cc1
REMARK SMILES IDX 7 1 6 2 11 3 5 4 12 5 4 6 8 7 9 8 10 9 2 10 1 11 3 12
REMARK H PARENT
REMARK Flexibility Score: inf
ROOT
ATOM      1  C   UNL     1     102.123 106.335 101.327  1.00  0.00    -0.003 A 
ATOM      2  C   UNL     1     103.220 105.929 102.106  1.00  0.00     0.010 A 
ATOM      3  C   UNL     1     102.058 105.936  99.981  1.00  0.00     0.010 A 
ATOM      4  C   UNL     1     104.230 105.139 101.550  1.00  0.00     0.004 A 
ATOM      5  C   UNL     1     103.068 105.146  99.426  1.00  0.00     0.004 A 
ATOM      6  C   UNL     1     104.165 104.738 100.203  1.00  0.00    -0.045 A 
ENDROOT
BRANCH   1   7
ATOM      7  C   UNL     1     101.051 107.172 101.911  1.00  0.00     0.071 C 
ATOM      8  O   UNL     1     100.099 106.644 102.545  1.00  0.00    -0.545 OA
ATOM      9  O   UNL     1     101.080 108.555 101.767  1.00  0.00    -0.545 OA
ENDBRANCH   1   7
BRANCH   6  10
ATOM     10  C   UNL     1     105.256 103.881  99.586  1.00  0.00     0.013 C 
ATOM     11  C   UNL     1     105.361 102.526 100.298  1.00  0.00     0.012 C 
ATOM     12  C   UNL     1     106.602 104.613  99.590  1.00  0.00     0.012 C 
ENDBRANCH   6  10
TORSDOF 2
ENDMDL
