MODEL 1
REMARK VINA RESULT:    -5.032      0.000      0.000
REMARK INTER + INTRA:         -15.142
REMARK INTER:                 -11.505
REMARK INTRA:                  -3.637
REMARK UNBOUND:                -3.637
REMARK SMILES CCCCCCCCCCCCCCCCCCCCCCCC(=O)[O-]
REMARK SMILES IDX 13 1 14 2 15 3 16 4 17 5 18 6 19 7 20 8 21 9 22 10 23 11
REMARK SMILES IDX 24 12 25 13 26 14 12 15 11 16 10 17 9 18 8 19 7 20 6 21 5 22
REMARK SMILES IDX 4 23 3 24 2 25 1 26
REMARK H PARENT
REMARK Flexibility Score: inf
ROOT
ATOM      1  C   UNL     1      29.330 -11.189  13.627  1.00  0.00     0.000 C 
ENDROOT
BRANCH   1   2
ATOM      2  C   UNL     1      27.823 -10.879  13.666  1.00  0.00     0.000 C 
BRANCH   2   3
ATOM      3  C   UNL     1      27.384 -10.221  14.983  1.00  0.00     0.000 C 
BRANCH   3   4
ATOM      4  C   UNL     1      28.361  -9.109  15.400  1.00  0.00     0.000 C 
BRANCH   4   5
ATOM      5  C   UNL     1      28.941  -9.337  16.812  1.00  0.00     0.000 C 
BRANCH   5   6
ATOM      6  C   UNL     1      30.214  -8.523  17.099  1.00  0.00     0.000 C 
BRANCH   6   7
ATOM      7  C   UNL     1      31.434  -9.405  17.411  1.00  0.00     0.000 C 
BRANCH   7   8
ATOM      8  C   UNL     1      31.644 -10.517  16.371  1.00  0.00     0.000 C 
BRANCH   8   9
ATOM      9  C   UNL     1      31.729 -11.912  17.006  1.00  0.00     0.000 C 
BRANCH   9  10
ATOM     10  C   UNL     1      30.810 -12.904  16.276  1.00  0.00     0.006 C 
BRANCH  10  11
ATOM     11  C   UNL     1      29.359 -12.823  16.769  1.00  0.00     0.053 C 
BRANCH  11  12
ATOM     12  C   UNL     1      28.467 -13.777  16.034  1.00  0.00     0.041 C 
ATOM     13  O   UNL     1      27.241 -13.523  15.898  1.00  0.00    -0.550 OA
ATOM     14  O   UNL     1      28.989 -14.955  15.511  1.00  0.00    -0.550 OA
ENDBRANCH  11  12
ENDBRANCH  10  11
ENDBRANCH   9  10
ENDBRANCH   8   9
ENDBRANCH   7   8
ENDBRANCH   6   7
ENDBRANCH   5   6
ENDBRANCH   4   5
ENDBRANCH   3   4
ENDBRANCH   2   3
ENDBRANCH   1   2
BRANCH   1  15
ATOM     15  C   UNL     1      30.105 -10.504  12.483  1.00  0.00     0.000 C 
BRANCH  15  16
ATOM     16  C   UNL     1      31.568 -10.142  12.808  1.00  0.00     0.000 C 
BRANCH  16  17
ATOM     17  C   UNL     1      31.824  -8.654  13.113  1.00  0.00     0.000 C 
BRANCH  17  18
ATOM     18  C   UNL     1      30.564  -7.787  12.954  1.00  0.00    -0.000 C 
BRANCH  18  19
ATOM     19  C   UNL     1      30.634  -6.842  11.741  1.00  0.00    -0.000 C 
BRANCH  19  20
ATOM     20  C   UNL     1      31.490  -7.346  10.564  1.00  0.00    -0.000 C 
BRANCH  20  21
ATOM     21  C   UNL     1      31.811  -6.247   9.540  1.00  0.00    -0.000 C 
BRANCH  21  22
ATOM     22  C   UNL     1      33.326  -6.074   9.376  1.00  0.00    -0.000 C 
BRANCH  22  23
ATOM     23  C   UNL     1      33.948  -5.437  10.624  1.00  0.00    -0.000 C 
BRANCH  23  24
ATOM     24  C   UNL     1      35.014  -6.357  11.237  1.00  0.00    -0.000 C 
BRANCH  24  25
ATOM     25  C   UNL     1      35.285  -7.603  10.379  1.00  0.00    -0.003 C 
ATOM     26  C   UNL     1      34.923  -8.904  11.097  1.00  0.00     0.004 C 
ENDBRANCH  24  25
ENDBRANCH  23  24
ENDBRANCH  22  23
ENDBRANCH  21  22
ENDBRANCH  20  21
ENDBRANCH  19  20
ENDBRANCH  18  19
ENDBRANCH  17  18
ENDBRANCH  16  17
ENDBRANCH  15  16
ENDBRANCH   1  15
TORSDOF 22
ENDMDL
MODEL 2
REMARK VINA RESULT:    -4.932      1.349      2.296
REMARK INTER + INTRA:         -14.913
REMARK INTER:                 -10.730
REMARK INTRA:                  -4.183
REMARK UNBOUND:                -3.637
REMARK SMILES CCCCCCCCCCCCCCCCCCCCCCCC(=O)[O-]
REMARK SMILES IDX 13 1 14 2 15 3 16 4 17 5 18 6 19 7 20 8 21 9 22 10 23 11
REMARK SMILES IDX 24 12 25 13 26 14 12 15 11 16 10 17 9 18 8 19 7 20 6 21 5 22
REMARK SMILES IDX 4 23 3 24 2 25 1 26
REMARK H PARENT
REMARK Flexibility Score: inf
ROOT
ATOM      1  C   UNL     1      30.272 -10.340  12.467  1.00  0.00     0.000 C 
ENDROOT
BRANCH   1   2
ATOM      2  C   UNL     1      29.497 -11.263  13.426  1.00  0.00     0.000 C 
BRANCH   2   3
ATOM      3  C   UNL     1      28.052 -10.799  13.661  1.00  0.00     0.000 C 
BRANCH   3   4
ATOM      4  C   UNL     1      27.873 -10.241  15.082  1.00  0.00     0.000 C 
BRANCH   4   5
ATOM      5  C   UNL     1      28.433  -8.810  15.225  1.00  0.00     0.000 C 
BRANCH   5   6
ATOM      6  C   UNL     1      29.771  -8.738  15.980  1.00  0.00     0.000 C 
BRANCH   6   7
ATOM      7  C   UNL     1      30.022  -9.963  16.875  1.00  0.00     0.000 C 
BRANCH   7   8
ATOM      8  C   UNL     1      31.421 -10.568  16.676  1.00  0.00     0.000 C 
BRANCH   8   9
ATOM      9  C   UNL     1      31.374 -12.004  16.134  1.00  0.00     0.000 C 
BRANCH   9  10
ATOM     10  C   UNL     1      30.283 -12.821  16.841  1.00  0.00     0.006 C 
BRANCH  10  11
ATOM     11  C   UNL     1      29.873 -14.063  16.039  1.00  0.00     0.053 C 
BRANCH  11  12
ATOM     12  C   UNL     1      28.437 -14.005  15.614  1.00  0.00     0.041 C 
ATOM     13  O   UNL     1      28.069 -14.553  14.542  1.00  0.00    -0.550 OA
ATOM     14  O   UNL     1      27.507 -13.332  16.399  1.00  0.00    -0.550 OA
ENDBRANCH  11  12
ENDBRANCH  10  11
ENDBRANCH   9  10
ENDBRANCH   8   9
ENDBRANCH   7   8
ENDBRANCH   6   7
ENDBRANCH   5   6
ENDBRANCH   4   5
ENDBRANCH   3   4
ENDBRANCH   2   3
ENDBRANCH   1   2
BRANCH   1  15
ATOM     15  C   UNL     1      31.616  -9.817  13.014  1.00  0.00     0.000 C 
BRANCH  15  16
ATOM     16  C   UNL     1      31.825  -8.294  12.888  1.00  0.00     0.000 C 
BRANCH  16  17
ATOM     17  C   UNL     1      30.609  -7.506  12.367  1.00  0.00     0.000 C 
BRANCH  17  18
ATOM     18  C   UNL     1      31.000  -6.373  11.403  1.00  0.00    -0.000 C 
BRANCH  18  19
ATOM     19  C   UNL     1      32.346  -5.718  11.761  1.00  0.00    -0.000 C 
BRANCH  19  20
ATOM     20  C   UNL     1      33.276  -5.433  10.567  1.00  0.00    -0.000 C 
BRANCH  20  21
ATOM     21  C   UNL     1      32.916  -6.248   9.316  1.00  0.00    -0.000 C 
BRANCH  21  22
ATOM     22  C   UNL     1      33.960  -7.339   9.050  1.00  0.00    -0.000 C 
BRANCH  22  23
ATOM     23  C   UNL     1      33.711  -8.569   9.931  1.00  0.00    -0.000 C 
BRANCH  23  24
ATOM     24  C   UNL     1      32.913  -9.637   9.169  1.00  0.00    -0.000 C 
BRANCH  24  25
ATOM     25  C   UNL     1      31.410  -9.325   9.112  1.00  0.00    -0.003 C 
ATOM     26  C   UNL     1      30.878  -9.240   7.680  1.00  0.00     0.004 C 
ENDBRANCH  24  25
ENDBRANCH  23  24
ENDBRANCH  22  23
ENDBRANCH  21  22
ENDBRANCH  20  21
ENDBRANCH  19  20
ENDBRANCH  18  19
ENDBRANCH  17  18
ENDBRANCH  16  17
ENDBRANCH  15  16
ENDBRANCH   1  15
TORSDOF 22
ENDMDL
MODEL 3
REMARK VINA RESULT:    -4.856      1.395      3.457
REMARK INTER + INTRA:         -14.738
REMARK INTER:                 -11.161
REMARK INTRA:                  -3.578
REMARK UNBOUND:                -3.637
REMARK SMILES CCCCCCCCCCCCCCCCCCCCCCCC(=O)[O-]
REMARK SMILES IDX 13 1 14 2 15 3 16 4 17 5 18 6 19 7 20 8 21 9 22 10 23 11
REMARK SMILES IDX 24 12 25 13 26 14 12 15 11 16 10 17 9 18 8 19 7 20 6 21 5 22
REMARK SMILES IDX 4 23 3 24 2 25 1 26
REMARK H PARENT
REMARK Flexibility Score: inf
ROOT
ATOM      1  C   UNL     1      31.539  -8.766  12.198  1.00  0.00     0.000 C 
ENDROOT
BRANCH   1   2
ATOM      2  C   UNL     1      30.959 -10.122  12.640  1.00  0.00     0.000 C 
BRANCH   2   3
ATOM      3  C   UNL     1      31.780 -10.788  13.754  1.00  0.00     0.000 C 
BRANCH   3   4
ATOM      4  C   UNL     1      32.187  -9.767  14.829  1.00  0.00     0.000 C 
BRANCH   4   5
ATOM      5  C   UNL     1      31.249  -9.800  16.054  1.00  0.00     0.000 C 
BRANCH   5   6
ATOM      6  C   UNL     1      30.048  -8.845  15.942  1.00  0.00     0.000 C 
BRANCH   6   7
ATOM      7  C   UNL     1      28.820  -9.328  16.733  1.00  0.00     0.000 C 
BRANCH   7   8
ATOM      8  C   UNL     1      27.622  -9.655  15.829  1.00  0.00     0.000 C 
BRANCH   8   9
ATOM      9  C   UNL     1      28.033 -10.381  14.540  1.00  0.00     0.000 C 
BRANCH   9  10
ATOM     10  C   UNL     1      27.268 -11.704  14.388  1.00  0.00     0.006 C 
BRANCH  10  11
ATOM     11  C   UNL     1      27.722 -12.760  15.404  1.00  0.00     0.053 C 
BRANCH  11  12
ATOM     12  C   UNL     1      28.055 -14.063  14.744  1.00  0.00     0.041 C 
ATOM     13  O   UNL     1      27.639 -14.311  13.582  1.00  0.00    -0.550 OA
ATOM     14  O   UNL     1      28.815 -15.011  15.421  1.00  0.00    -0.550 OA
ENDBRANCH  11  12
ENDBRANCH  10  11
ENDBRANCH   9  10
ENDBRANCH   8   9
ENDBRANCH   7   8
ENDBRANCH   6   7
ENDBRANCH   5   6
ENDBRANCH   4   5
ENDBRANCH   3   4
ENDBRANCH   2   3
ENDBRANCH   1   2
BRANCH   1  15
ATOM     15  C   UNL     1      30.628  -7.551  12.463  1.00  0.00     0.000 C 
BRANCH  15  16
ATOM     16  C   UNL     1      30.809  -6.372  11.485  1.00  0.00     0.000 C 
BRANCH  16  17
ATOM     17  C   UNL     1      31.243  -6.761  10.060  1.00  0.00     0.000 C 
BRANCH  17  18
ATOM     18  C   UNL     1      32.494  -6.002   9.589  1.00  0.00    -0.000 C 
BRANCH  18  19
ATOM     19  C   UNL     1      33.416  -5.585  10.750  1.00  0.00    -0.000 C 
BRANCH  19  20
ATOM     20  C   UNL     1      34.768  -6.319  10.812  1.00  0.00    -0.000 C 
BRANCH  20  21
ATOM     21  C   UNL     1      34.932  -7.170  12.080  1.00  0.00    -0.000 C 
BRANCH  21  22
ATOM     22  C   UNL     1      34.869  -8.667  11.750  1.00  0.00    -0.000 C 
BRANCH  22  23
ATOM     23  C   UNL     1      34.877  -8.899  10.234  1.00  0.00    -0.000 C 
BRANCH  23  24
ATOM     24  C   UNL     1      33.846  -9.965   9.836  1.00  0.00    -0.000 C 
BRANCH  24  25
ATOM     25  C   UNL     1      33.196  -9.680   8.474  1.00  0.00    -0.003 C 
ATOM     26  C   UNL     1      33.974  -8.652   7.651  1.00  0.00     0.004 C 
ENDBRANCH  24  25
ENDBRANCH  23  24
ENDBRANCH  22  23
ENDBRANCH  21  22
ENDBRANCH  20  21
ENDBRANCH  19  20
ENDBRANCH  18  19
ENDBRANCH  17  18
ENDBRANCH  16  17
ENDBRANCH  15  16
ENDBRANCH   1  15
TORSDOF 22
ENDMDL
MODEL 4
REMARK VINA RESULT:    -4.838      1.372      3.963
REMARK INTER + INTRA:         -14.697
REMARK INTER:                 -10.954
REMARK INTRA:                  -3.743
REMARK UNBOUND:                -3.637
REMARK SMILES CCCCCCCCCCCCCCCCCCCCCCCC(=O)[O-]
REMARK SMILES IDX 13 1 14 2 15 3 16 4 17 5 18 6 19 7 20 8 21 9 22 10 23 11
REMARK SMILES IDX 24 12 25 13 26 14 12 15 11 16 10 17 9 18 8 19 7 20 6 21 5 22
REMARK SMILES IDX 4 23 3 24 2 25 1 26
REMARK H PARENT
REMARK Flexibility Score: inf
ROOT
ATOM      1  C   UNL     1      30.618  -6.944  12.128  1.00  0.00     0.000 C 
ENDROOT
BRANCH   1   2
ATOM      2  C   UNL     1      31.486  -8.146  12.541  1.00  0.00     0.000 C 
BRANCH   2   3
ATOM      3  C   UNL     1      30.669  -9.432  12.738  1.00  0.00     0.000 C 
BRANCH   3   4
ATOM      4  C   UNL     1      31.481 -10.494  13.497  1.00  0.00     0.000 C 
BRANCH   4   5
ATOM      5  C   UNL     1      31.995  -9.978  14.858  1.00  0.00     0.000 C 
BRANCH   5   6
ATOM      6  C   UNL     1      31.047 -10.274  16.032  1.00  0.00     0.000 C 
BRANCH   6   7
ATOM      7  C   UNL     1      30.604  -9.005  16.781  1.00  0.00     0.000 C 
BRANCH   7   8
ATOM      8  C   UNL     1      29.076  -8.850  16.834  1.00  0.00     0.000 C 
BRANCH   8   9
ATOM      9  C   UNL     1      28.416  -9.015  15.458  1.00  0.00     0.000 C 
BRANCH   9  10
ATOM     10  C   UNL     1      27.433 -10.196  15.460  1.00  0.00     0.006 C 
BRANCH  10  11
ATOM     11  C   UNL     1      27.744 -11.214  14.355  1.00  0.00     0.053 C 
BRANCH  11  12
ATOM     12  C   UNL     1      27.733 -12.620  14.872  1.00  0.00     0.041 C 
ATOM     13  O   UNL     1      27.493 -12.847  16.087  1.00  0.00    -0.550 OA
ATOM     14  O   UNL     1      28.002 -13.679  14.012  1.00  0.00    -0.550 OA
ENDBRANCH  11  12
ENDBRANCH  10  11
ENDBRANCH   9  10
ENDBRANCH   8   9
ENDBRANCH   7   8
ENDBRANCH   6   7
ENDBRANCH   5   6
ENDBRANCH   4   5
ENDBRANCH   3   4
ENDBRANCH   2   3
ENDBRANCH   1   2
BRANCH   1  15
ATOM     15  C   UNL     1      31.369  -5.830  11.369  1.00  0.00     0.000 C 
BRANCH  15  16
ATOM     16  C   UNL     1      32.828  -5.604  11.815  1.00  0.00     0.000 C 
BRANCH  16  17
ATOM     17  C   UNL     1      33.797  -5.178  10.696  1.00  0.00     0.000 C 
BRANCH  17  18
ATOM     18  C   UNL     1      34.924  -6.197  10.462  1.00  0.00    -0.000 C 
BRANCH  18  19
ATOM     19  C   UNL     1      34.935  -7.330  11.506  1.00  0.00    -0.000 C 
BRANCH  19  20
ATOM     20  C   UNL     1      35.253  -8.730  10.952  1.00  0.00    -0.000 C 
BRANCH  20  21
ATOM     21  C   UNL     1      34.022  -9.647  10.893  1.00  0.00    -0.000 C 
BRANCH  21  22
ATOM     22  C   UNL     1      33.593  -9.899   9.442  1.00  0.00    -0.000 C 
BRANCH  22  23
ATOM     23  C   UNL     1      32.735  -8.744   8.911  1.00  0.00    -0.000 C 
BRANCH  23  24
ATOM     24  C   UNL     1      33.433  -8.034   7.742  1.00  0.00    -0.000 C 
BRANCH  24  25
ATOM     25  C   UNL     1      32.783  -6.686   7.395  1.00  0.00    -0.003 C 
ATOM     26  C   UNL     1      31.365  -6.553   7.953  1.00  0.00     0.004 C 
ENDBRANCH  24  25
ENDBRANCH  23  24
ENDBRANCH  22  23
ENDBRANCH  21  22
ENDBRANCH  20  21
ENDBRANCH  19  20
ENDBRANCH  18  19
ENDBRANCH  17  18
ENDBRANCH  16  17
ENDBRANCH  15  16
ENDBRANCH   1  15
TORSDOF 22
ENDMDL
MODEL 5
REMARK VINA RESULT:    -4.809      2.787      7.160
REMARK INTER + INTRA:         -14.631
REMARK INTER:                 -10.648
REMARK INTRA:                  -3.983
REMARK UNBOUND:                -3.637
REMARK SMILES CCCCCCCCCCCCCCCCCCCCCCCC(=O)[O-]
REMARK SMILES IDX 13 1 14 2 15 3 16 4 17 5 18 6 19 7 20 8 21 9 22 10 23 11
REMARK SMILES IDX 24 12 25 13 26 14 12 15 11 16 10 17 9 18 8 19 7 20 6 21 5 22
REMARK SMILES IDX 4 23 3 24 2 25 1 26
REMARK H PARENT
REMARK Flexibility Score: inf
ROOT
ATOM      1  C   UNL     1      30.801  -8.210  13.109  1.00  0.00     0.000 C 
ENDROOT
BRANCH   1   2
ATOM      2  C   UNL     1      30.600  -7.002  12.177  1.00  0.00     0.000 C 
BRANCH   2   3
ATOM      3  C   UNL     1      30.994  -7.300  10.723  1.00  0.00     0.000 C 
BRANCH   3   4
ATOM      4  C   UNL     1      31.887  -6.187  10.151  1.00  0.00     0.000 C 
BRANCH   4   5
ATOM      5  C   UNL     1      32.529  -5.323  11.258  1.00  0.00     0.000 C 
BRANCH   5   6
ATOM      6  C   UNL     1      34.006  -4.979  10.999  1.00  0.00     0.000 C 
BRANCH   6   7
ATOM      7  C   UNL     1      34.715  -6.012  10.108  1.00  0.00     0.000 C 
BRANCH   7   8
ATOM      8  C   UNL     1      35.828  -6.771  10.847  1.00  0.00     0.000 C 
BRANCH   8   9
ATOM      9  C   UNL     1      35.565  -8.281  10.923  1.00  0.00     0.000 C 
BRANCH   9  10
ATOM     10  C   UNL     1      34.354  -8.582  11.819  1.00  0.00     0.006 C 
BRANCH  10  11
ATOM     11  C   UNL     1      34.503  -7.980  13.222  1.00  0.00     0.053 C 
BRANCH  11  12
ATOM     12  C   UNL     1      35.437  -8.781  14.077  1.00  0.00     0.041 C 
ATOM     13  O   UNL     1      34.997  -9.724  14.786  1.00  0.00    -0.550 OA
ATOM     14  O   UNL     1      36.794  -8.476  14.100  1.00  0.00    -0.550 OA
ENDBRANCH  11  12
ENDBRANCH  10  11
ENDBRANCH   9  10
ENDBRANCH   8   9
ENDBRANCH   7   8
ENDBRANCH   6   7
ENDBRANCH   5   6
ENDBRANCH   4   5
ENDBRANCH   3   4
ENDBRANCH   2   3
ENDBRANCH   1   2
BRANCH   1  15
ATOM     15  C   UNL     1      30.878  -9.576  12.397  1.00  0.00     0.000 C 
BRANCH  15  16
ATOM     16  C   UNL     1      30.547 -10.795  13.281  1.00  0.00     0.000 C 
BRANCH  16  17
ATOM     17  C   UNL     1      29.046 -11.094  13.452  1.00  0.00     0.000 C 
BRANCH  17  18
ATOM     18  C   UNL     1      28.749 -11.987  14.668  1.00  0.00    -0.000 C 
BRANCH  18  19
ATOM     19  C   UNL     1      28.136 -11.210  15.848  1.00  0.00    -0.000 C 
BRANCH  19  20
ATOM     20  C   UNL     1      27.679  -9.777  15.524  1.00  0.00    -0.000 C 
BRANCH  20  21
ATOM     21  C   UNL     1      28.683  -8.707  15.979  1.00  0.00    -0.000 C 
BRANCH  21  22
ATOM     22  C   UNL     1      29.175  -8.985  17.405  1.00  0.00    -0.000 C 
BRANCH  22  23
ATOM     23  C   UNL     1      30.681  -8.729  17.529  1.00  0.00    -0.000 C 
BRANCH  23  24
ATOM     24  C   UNL     1      31.464  -9.542  16.488  1.00  0.00    -0.000 C 
BRANCH  24  25
ATOM     25  C   UNL     1      32.267 -10.692  17.115  1.00  0.00    -0.003 C 
ATOM     26  C   UNL     1      31.774 -12.069  16.669  1.00  0.00     0.004 C 
ENDBRANCH  24  25
ENDBRANCH  23  24
ENDBRANCH  22  23
ENDBRANCH  21  22
ENDBRANCH  20  21
ENDBRANCH  19  20
ENDBRANCH  18  19
ENDBRANCH  17  18
ENDBRANCH  16  17
ENDBRANCH  15  16
ENDBRANCH   1  15
TORSDOF 22
ENDMDL
MODEL 6
REMARK VINA RESULT:    -4.807      1.841      4.192
REMARK INTER + INTRA:         -14.626
REMARK INTER:                 -10.109
REMARK INTRA:                  -4.517
REMARK UNBOUND:                -3.637
REMARK SMILES CCCCCCCCCCCCCCCCCCCCCCCC(=O)[O-]
REMARK SMILES IDX 13 1 14 2 15 3 16 4 17 5 18 6 19 7 20 8 21 9 22 10 23 11
REMARK SMILES IDX 24 12 25 13 26 14 12 15 11 16 10 17 9 18 8 19 7 20 6 21 5 22
REMARK SMILES IDX 4 23 3 24 2 25 1 26
REMARK H PARENT
REMARK Flexibility Score: inf
ROOT
ATOM      1  C   UNL     1      30.526  -7.907  12.850  1.00  0.00     0.000 C 
ENDROOT
BRANCH   1   2
ATOM      2  C   UNL     1      31.746  -8.800  13.141  1.00  0.00     0.000 C 
BRANCH   2   3
ATOM      3  C   UNL     1      31.381 -10.287  13.255  1.00  0.00     0.000 C 
BRANCH   3   4
ATOM      4  C   UNL     1      29.953 -10.549  12.751  1.00  0.00     0.000 C 
BRANCH   4   5
ATOM      5  C   UNL     1      29.164 -11.491  13.686  1.00  0.00     0.000 C 
BRANCH   5   6
ATOM      6  C   UNL     1      27.806 -10.926  14.134  1.00  0.00     0.000 C 
BRANCH   6   7
ATOM      7  C   UNL     1      27.838 -10.340  15.555  1.00  0.00     0.000 C 
BRANCH   7   8
ATOM      8  C   UNL     1      28.261  -8.863  15.579  1.00  0.00     0.000 C 
BRANCH   8   9
ATOM      9  C   UNL     1      29.605  -8.643  16.288  1.00  0.00     0.000 C 
BRANCH   9  10
ATOM     10  C   UNL     1      30.128  -9.956  16.890  1.00  0.00     0.006 C 
BRANCH  10  11
ATOM     11  C   UNL     1      31.661 -10.035  16.872  1.00  0.00     0.053 C 
BRANCH  11  12
ATOM     12  C   UNL     1      32.145 -11.452  16.809  1.00  0.00     0.041 C 
ATOM     13  O   UNL     1      31.446 -12.337  16.251  1.00  0.00    -0.550 OA
ATOM     14  O   UNL     1      33.366 -11.795  17.380  1.00  0.00    -0.550 OA
ENDBRANCH  11  12
ENDBRANCH  10  11
ENDBRANCH   9  10
ENDBRANCH   8   9
ENDBRANCH   7   8
ENDBRANCH   6   7
ENDBRANCH   5   6
ENDBRANCH   4   5
ENDBRANCH   3   4
ENDBRANCH   2   3
ENDBRANCH   1   2
BRANCH   1  15
ATOM     15  C   UNL     1      30.844  -6.593  12.107  1.00  0.00     0.000 C 
BRANCH  15  16
ATOM     16  C   UNL     1      30.984  -6.724  10.577  1.00  0.00     0.000 C 
BRANCH  16  17
ATOM     17  C   UNL     1      32.224  -6.040   9.972  1.00  0.00     0.000 C 
BRANCH  17  18
ATOM     18  C   UNL     1      33.040  -5.254  11.011  1.00  0.00    -0.000 C 
BRANCH  18  19
ATOM     19  C   UNL     1      34.373  -5.937  11.369  1.00  0.00    -0.000 C 
BRANCH  19  20
ATOM     20  C   UNL     1      34.665  -7.245  10.612  1.00  0.00    -0.000 C 
BRANCH  20  21
ATOM     21  C   UNL     1      35.066  -8.401  11.540  1.00  0.00    -0.000 C 
BRANCH  21  22
ATOM     22  C   UNL     1      34.806  -9.758  10.873  1.00  0.00    -0.000 C 
BRANCH  22  23
ATOM     23  C   UNL     1      33.917  -9.602   9.633  1.00  0.00    -0.000 C 
BRANCH  23  24
ATOM     24  C   UNL     1      32.728 -10.573   9.684  1.00  0.00    -0.000 C 
BRANCH  24  25
ATOM     25  C   UNL     1      31.390  -9.888   9.371  1.00  0.00    -0.003 C 
ATOM     26  C   UNL     1      31.312  -9.374   7.932  1.00  0.00     0.004 C 
ENDBRANCH  24  25
ENDBRANCH  23  24
ENDBRANCH  22  23
ENDBRANCH  21  22
ENDBRANCH  20  21
ENDBRANCH  19  20
ENDBRANCH  18  19
ENDBRANCH  17  18
ENDBRANCH  16  17
ENDBRANCH  15  16
ENDBRANCH   1  15
TORSDOF 22
ENDMDL
MODEL 7
REMARK VINA RESULT:    -4.781      1.987      4.088
REMARK INTER + INTRA:         -14.568
REMARK INTER:                 -10.507
REMARK INTRA:                  -4.061
REMARK UNBOUND:                -3.637
REMARK SMILES CCCCCCCCCCCCCCCCCCCCCCCC(=O)[O-]
REMARK SMILES IDX 13 1 14 2 15 3 16 4 17 5 18 6 19 7 20 8 21 9 22 10 23 11
REMARK SMILES IDX 24 12 25 13 26 14 12 15 11 16 10 17 9 18 8 19 7 20 6 21 5 22
REMARK SMILES IDX 4 23 3 24 2 25 1 26
REMARK H PARENT
REMARK Flexibility Score: inf
ROOT
ATOM      1  C   UNL     1      30.661  -7.409  12.673  1.00  0.00     0.000 C 
ENDROOT
BRANCH   1   2
ATOM      2  C   UNL     1      30.705  -8.651  13.582  1.00  0.00     0.000 C 
BRANCH   2   3
ATOM      3  C   UNL     1      30.738  -9.967  12.791  1.00  0.00     0.000 C 
BRANCH   3   4
ATOM      4  C   UNL     1      29.568 -10.883  13.188  1.00  0.00     0.000 C 
BRANCH   4   5
ATOM      5  C   UNL     1      28.523 -10.154  14.059  1.00  0.00     0.000 C 
BRANCH   5   6
ATOM      6  C   UNL     1      27.226 -10.953  14.272  1.00  0.00     0.000 C 
BRANCH   6   7
ATOM      7  C   UNL     1      27.445 -12.475  14.232  1.00  0.00     0.000 C 
BRANCH   7   8
ATOM      8  C   UNL     1      27.434 -13.114  15.629  1.00  0.00     0.000 C 
BRANCH   8   9
ATOM      9  C   UNL     1      28.762 -13.803  15.975  1.00  0.00     0.000 C 
BRANCH   9  10
ATOM     10  C   UNL     1      29.636 -12.899  16.857  1.00  0.00     0.006 C 
BRANCH  10  11
ATOM     11  C   UNL     1      30.936 -12.483  16.156  1.00  0.00     0.053 C 
BRANCH  11  12
ATOM     12  C   UNL     1      31.286 -11.052  16.432  1.00  0.00     0.041 C 
ATOM     13  O   UNL     1      30.421 -10.266  16.900  1.00  0.00    -0.550 OA
ATOM     14  O   UNL     1      32.566 -10.583  16.157  1.00  0.00    -0.550 OA
ENDBRANCH  11  12
ENDBRANCH  10  11
ENDBRANCH   9  10
ENDBRANCH   8   9
ENDBRANCH   7   8
ENDBRANCH   6   7
ENDBRANCH   5   6
ENDBRANCH   4   5
ENDBRANCH   3   4
ENDBRANCH   2   3
ENDBRANCH   1   2
BRANCH   1  15
ATOM     15  C   UNL     1      30.969  -7.680  11.187  1.00  0.00     0.000 C 
BRANCH  15  16
ATOM     16  C   UNL     1      31.623  -6.507  10.429  1.00  0.00     0.000 C 
BRANCH  16  17
ATOM     17  C   UNL     1      32.068  -5.324  11.309  1.00  0.00     0.000 C 
BRANCH  17  18
ATOM     18  C   UNL     1      33.586  -5.084  11.262  1.00  0.00    -0.000 C 
BRANCH  18  19
ATOM     19  C   UNL     1      34.343  -6.172  10.480  1.00  0.00    -0.000 C 
BRANCH  19  20
ATOM     20  C   UNL     1      35.212  -7.112  11.335  1.00  0.00    -0.000 C 
BRANCH  20  21
ATOM     21  C   UNL     1      34.475  -7.659  12.566  1.00  0.00    -0.000 C 
BRANCH  21  22
ATOM     22  C   UNL     1      34.347  -9.186  12.498  1.00  0.00    -0.000 C 
BRANCH  22  23
ATOM     23  C   UNL     1      34.690  -9.707  11.097  1.00  0.00    -0.000 C 
BRANCH  23  24
ATOM     24  C   UNL     1      33.473 -10.382  10.448  1.00  0.00    -0.000 C 
BRANCH  24  25
ATOM     25  C   UNL     1      33.116  -9.773   9.084  1.00  0.00    -0.003 C 
ATOM     26  C   UNL     1      31.705 -10.143   8.623  1.00  0.00     0.004 C 
ENDBRANCH  24  25
ENDBRANCH  23  24
ENDBRANCH  22  23
ENDBRANCH  21  22
ENDBRANCH  20  21
ENDBRANCH  19  20
ENDBRANCH  18  19
ENDBRANCH  17  18
ENDBRANCH  16  17
ENDBRANCH  15  16
ENDBRANCH   1  15
TORSDOF 22
ENDMDL
MODEL 8
REMARK VINA RESULT:    -4.765      2.766      7.332
REMARK INTER + INTRA:         -14.532
REMARK INTER:                 -10.808
REMARK INTRA:                  -3.724
REMARK UNBOUND:                -3.637
REMARK SMILES CCCCCCCCCCCCCCCCCCCCCCCC(=O)[O-]
REMARK SMILES IDX 13 1 14 2 15 3 16 4 17 5 18 6 19 7 20 8 21 9 22 10 23 11
REMARK SMILES IDX 24 12 25 13 26 14 12 15 11 16 10 17 9 18 8 19 7 20 6 21 5 22
REMARK SMILES IDX 4 23 3 24 2 25 1 26
REMARK H PARENT
REMARK Flexibility Score: inf
ROOT
ATOM      1  C   UNL     1      32.467 -10.424  13.861  1.00  0.00     0.000 C 
ENDROOT
BRANCH   1   2
ATOM      2  C   UNL     1      31.134 -10.362  13.095  1.00  0.00     0.000 C 
BRANCH   2   3
ATOM      3  C   UNL     1      31.021  -9.122  12.195  1.00  0.00     0.000 C 
BRANCH   3   4
ATOM      4  C   UNL     1      30.564  -7.894  12.997  1.00  0.00     0.000 C 
BRANCH   4   5
ATOM      5  C   UNL     1      30.434  -6.633  12.116  1.00  0.00     0.000 C 
BRANCH   5   6
ATOM      6  C   UNL     1      31.430  -6.588  10.945  1.00  0.00     0.000 C 
BRANCH   6   7
ATOM      7  C   UNL     1      32.524  -5.523  11.128  1.00  0.00     0.000 C 
BRANCH   7   8
ATOM      8  C   UNL     1      33.940  -6.118  11.120  1.00  0.00     0.000 C 
BRANCH   8   9
ATOM      9  C   UNL     1      34.167  -7.122  12.259  1.00  0.00     0.000 C 
BRANCH   9  10
ATOM     10  C   UNL     1      34.762  -8.433  11.724  1.00  0.00     0.006 C 
BRANCH  10  11
ATOM     11  C   UNL     1      34.790  -8.477  10.190  1.00  0.00     0.053 C 
BRANCH  11  12
ATOM     12  C   UNL     1      33.901  -9.554   9.647  1.00  0.00     0.041 C 
ATOM     13  O   UNL     1      32.780  -9.262   9.154  1.00  0.00    -0.550 OA
ATOM     14  O   UNL     1      34.307 -10.883   9.699  1.00  0.00    -0.550 OA
ENDBRANCH  11  12
ENDBRANCH  10  11
ENDBRANCH   9  10
ENDBRANCH   8   9
ENDBRANCH   7   8
ENDBRANCH   6   7
ENDBRANCH   5   6
ENDBRANCH   4   5
ENDBRANCH   3   4
ENDBRANCH   2   3
ENDBRANCH   1   2
BRANCH   1  15
ATOM     15  C   UNL     1      32.480 -11.385  15.067  1.00  0.00     0.000 C 
BRANCH  15  16
ATOM     16  C   UNL     1      31.327 -11.190  16.072  1.00  0.00     0.000 C 
BRANCH  16  17
ATOM     17  C   UNL     1      31.502 -10.015  17.052  1.00  0.00     0.000 C 
BRANCH  17  18
ATOM     18  C   UNL     1      30.631  -8.800  16.690  1.00  0.00    -0.000 C 
BRANCH  18  19
ATOM     19  C   UNL     1      29.124  -9.075  16.847  1.00  0.00    -0.000 C 
BRANCH  19  20
ATOM     20  C   UNL     1      28.317  -9.082  15.536  1.00  0.00    -0.000 C 
BRANCH  20  21
ATOM     21  C   UNL     1      27.303 -10.233  15.459  1.00  0.00    -0.000 C 
BRANCH  21  22
ATOM     22  C   UNL     1      27.274 -10.847  14.054  1.00  0.00    -0.000 C 
BRANCH  22  23
ATOM     23  C   UNL     1      27.996 -12.200  14.027  1.00  0.00    -0.000 C 
BRANCH  23  24
ATOM     24  C   UNL     1      27.443 -13.139  15.109  1.00  0.00    -0.000 C 
BRANCH  24  25
ATOM     25  C   UNL     1      28.544 -13.719  16.009  1.00  0.00    -0.003 C 
ATOM     26  C   UNL     1      29.074 -15.062  15.503  1.00  0.00     0.004 C 
ENDBRANCH  24  25
ENDBRANCH  23  24
ENDBRANCH  22  23
ENDBRANCH  21  22
ENDBRANCH  20  21
ENDBRANCH  19  20
ENDBRANCH  18  19
ENDBRANCH  17  18
ENDBRANCH  16  17
ENDBRANCH  15  16
ENDBRANCH   1  15
TORSDOF 22
ENDMDL
MODEL 9
REMARK VINA RESULT:    -4.763      2.747      7.237
REMARK INTER + INTRA:         -14.527
REMARK INTER:                 -10.788
REMARK INTRA:                  -3.739
REMARK UNBOUND:                -3.637
REMARK SMILES CCCCCCCCCCCCCCCCCCCCCCCC(=O)[O-]
REMARK SMILES IDX 13 1 14 2 15 3 16 4 17 5 18 6 19 7 20 8 21 9 22 10 23 11
REMARK SMILES IDX 24 12 25 13 26 14 12 15 11 16 10 17 9 18 8 19 7 20 6 21 5 22
REMARK SMILES IDX 4 23 3 24 2 25 1 26
REMARK H PARENT
REMARK Flexibility Score: inf
ROOT
ATOM      1  C   UNL     1      31.703  -9.622  11.479  1.00  0.00     0.000 C 
ENDROOT
BRANCH   1   2
ATOM      2  C   UNL     1      31.419  -8.237  10.870  1.00  0.00     0.000 C 
BRANCH   2   3
ATOM      3  C   UNL     1      31.106  -7.172  11.932  1.00  0.00     0.000 C 
BRANCH   3   4
ATOM      4  C   UNL     1      31.389  -5.758  11.400  1.00  0.00     0.000 C 
BRANCH   4   5
ATOM      5  C   UNL     1      32.845  -5.314  11.660  1.00  0.00     0.000 C 
BRANCH   5   6
ATOM      6  C   UNL     1      33.719  -5.278  10.394  1.00  0.00     0.000 C 
BRANCH   6   7
ATOM      7  C   UNL     1      34.609  -6.523  10.243  1.00  0.00     0.000 C 
BRANCH   7   8
ATOM      8  C   UNL     1      35.682  -6.623  11.338  1.00  0.00     0.000 C 
BRANCH   8   9
ATOM      9  C   UNL     1      35.746  -8.017  11.978  1.00  0.00     0.000 C 
BRANCH   9  10
ATOM     10  C   UNL     1      34.713  -8.149  13.108  1.00  0.00     0.006 C 
BRANCH  10  11
ATOM     11  C   UNL     1      34.729  -9.541  13.752  1.00  0.00     0.053 C 
BRANCH  11  12
ATOM     12  C   UNL     1      35.201  -9.493  15.173  1.00  0.00     0.041 C 
ATOM     13  O   UNL     1      35.873  -8.512  15.586  1.00  0.00    -0.550 OA
ATOM     14  O   UNL     1      34.910 -10.542  16.039  1.00  0.00    -0.550 OA
ENDBRANCH  11  12
ENDBRANCH  10  11
ENDBRANCH   9  10
ENDBRANCH   8   9
ENDBRANCH   7   8
ENDBRANCH   6   7
ENDBRANCH   5   6
ENDBRANCH   4   5
ENDBRANCH   3   4
ENDBRANCH   2   3
ENDBRANCH   1   2
BRANCH   1  15
ATOM     15  C   UNL     1      30.616 -10.145  12.440  1.00  0.00     0.000 C 
BRANCH  15  16
ATOM     16  C   UNL     1      31.141 -10.726  13.768  1.00  0.00     0.000 C 
BRANCH  16  17
ATOM     17  C   UNL     1      31.430  -9.690  14.869  1.00  0.00     0.000 C 
BRANCH  17  18
ATOM     18  C   UNL     1      31.197 -10.242  16.286  1.00  0.00    -0.000 C 
BRANCH  18  19
ATOM     19  C   UNL     1      29.801  -9.902  16.840  1.00  0.00    -0.000 C 
BRANCH  19  20
ATOM     20  C   UNL     1      29.137  -8.654  16.231  1.00  0.00    -0.000 C 
BRANCH  20  21
ATOM     21  C   UNL     1      28.044  -8.993  15.207  1.00  0.00    -0.000 C 
BRANCH  21  22
ATOM     22  C   UNL     1      27.514 -10.417  15.419  1.00  0.00    -0.000 C 
BRANCH  22  23
ATOM     23  C   UNL     1      27.324 -11.141  14.081  1.00  0.00    -0.000 C 
BRANCH  23  24
ATOM     24  C   UNL     1      27.430 -12.663  14.260  1.00  0.00    -0.000 C 
BRANCH  24  25
ATOM     25  C   UNL     1      28.449 -13.062  15.338  1.00  0.00    -0.003 C 
ATOM     26  C   UNL     1      28.666 -14.575  15.413  1.00  0.00     0.004 C 
ENDBRANCH  24  25
ENDBRANCH  23  24
ENDBRANCH  22  23
ENDBRANCH  21  22
ENDBRANCH  20  21
ENDBRANCH  19  20
ENDBRANCH  18  19
ENDBRANCH  17  18
ENDBRANCH  16  17
ENDBRANCH  15  16
ENDBRANCH   1  15
TORSDOF 22
ENDMDL
