MODEL 1
REMARK VINA RESULT:    -6.752      0.000      0.000
REMARK INTER + INTRA:          -8.672
REMARK INTER:                  -8.331
REMARK INTRA:                  -0.341
REMARK UNBOUND:                -0.341
REMARK SMILES O=c1c(O)c(-c2cc(O)c(O)c(O)c2)oc2cc(O)cc(O)c12
REMARK SMILES IDX 5 1 3 2 2 3 1 4 23 5 21 6 20 7 18 8 17 9 16 10 15 11 6 12
REMARK SMILES IDX 7 13 8 14 14 15 10 16 12 17 9 18 11 20 13 22 4 24 22 26
REMARK SMILES IDX 19 28
REMARK H PARENT 9 19 11 21 13 23 4 25 22 27 19 29
REMARK Flexibility Score: inf
ROOT
ATOM      1  C   UNL     1      -3.883   5.674 -39.497  1.00  0.00     0.180 A 
ATOM      2  C   UNL     1      -2.754   5.570 -40.326  1.00  0.00     0.208 A 
ATOM      3  C   UNL     1      -1.550   5.091 -39.782  1.00  0.00     0.238 A 
ATOM      4  O   UNL     1      -0.557   4.949 -40.541  1.00  0.00    -0.285 OA
ATOM      5  C   UNL     1      -1.489   4.738 -38.412  1.00  0.00     0.111 A 
ATOM      6  C   UNL     1      -0.313   4.280 -37.746  1.00  0.00     0.134 A 
ATOM      7  C   UNL     1      -0.400   3.835 -36.421  1.00  0.00     0.093 A 
ATOM      8  C   UNL     1      -1.606   3.893 -35.718  1.00  0.00     0.123 A 
ATOM      9  C   UNL     1      -2.746   4.395 -36.341  1.00  0.00     0.094 A 
ATOM     10  C   UNL     1      -2.699   4.811 -37.674  1.00  0.00     0.146 A 
ATOM     11  O   UNL     1      -3.811   5.273 -38.233  1.00  0.00    -0.452 OA
ENDROOT
BRANCH   1  12
ATOM     12  C   UNL     1      -5.178   6.193 -39.993  1.00  0.00     0.029 A 
ATOM     13  C   UNL     1      -6.068   5.323 -40.642  1.00  0.00     0.062 A 
ATOM     14  C   UNL     1      -7.307   5.782 -41.102  1.00  0.00     0.162 A 
ATOM     15  C   UNL     1      -5.563   7.527 -39.776  1.00  0.00     0.062 A 
ATOM     16  C   UNL     1      -7.678   7.122 -40.902  1.00  0.00     0.200 A 
ATOM     17  C   UNL     1      -6.803   7.995 -40.233  1.00  0.00     0.162 A 
BRANCH  14  18
ATOM     18  O   UNL     1      -8.156   4.889 -41.756  1.00  0.00    -0.504 OA
ATOM     19  H   UNL     1      -7.804   4.104 -42.291  1.00  0.00     0.293 HD
ENDBRANCH  14  18
BRANCH  16  20
ATOM     20  O   UNL     1      -8.914   7.572 -41.367  1.00  0.00    -0.502 OA
ATOM     21  H   UNL     1      -9.387   7.139 -42.151  1.00  0.00     0.293 HD
ENDBRANCH  16  20
BRANCH  17  22
ATOM     22  O   UNL     1      -7.171   9.322 -40.018  1.00  0.00    -0.504 OA
ATOM     23  H   UNL     1      -6.680   9.909 -39.352  1.00  0.00     0.293 HD
ENDBRANCH  17  22
ENDBRANCH   1  12
BRANCH   2  24
ATOM     24  O   UNL     1      -2.842   5.902 -41.681  1.00  0.00    -0.502 OA
ATOM     25  H   UNL     1      -2.074   6.327 -42.188  1.00  0.00     0.293 HD
ENDBRANCH   2  24
BRANCH   6  26
ATOM     26  O   UNL     1       0.958   4.267 -38.326  1.00  0.00    -0.507 OA
ATOM     27  H   UNL     1       1.773   3.837 -37.915  1.00  0.00     0.293 HD
ENDBRANCH   6  26
BRANCH   8  28
ATOM     28  O   UNL     1      -1.679   3.463 -34.395  1.00  0.00    -0.508 OA
ATOM     29  H   UNL     1      -0.871   3.086 -33.914  1.00  0.00     0.293 HD
ENDBRANCH   8  28
TORSDOF 7
ENDMDL
MODEL 2
REMARK VINA RESULT:    -6.738      0.095      1.757
REMARK INTER + INTRA:          -8.655
REMARK INTER:                  -8.312
REMARK INTRA:                  -0.343
REMARK UNBOUND:                -0.341
REMARK SMILES O=c1c(O)c(-c2cc(O)c(O)c(O)c2)oc2cc(O)cc(O)c12
REMARK SMILES IDX 5 1 3 2 2 3 1 4 23 5 21 6 20 7 18 8 17 9 16 10 15 11 6 12
REMARK SMILES IDX 7 13 8 14 14 15 10 16 12 17 9 18 11 20 13 22 4 24 22 26
REMARK SMILES IDX 19 28
REMARK H PARENT 9 19 11 21 13 23 4 25 22 27 19 29
REMARK Flexibility Score: inf
ROOT
ATOM      1  C   UNL     1      -3.918   5.576 -39.463  1.00  0.00     0.180 A 
ATOM      2  C   UNL     1      -2.785   5.517 -40.292  1.00  0.00     0.208 A 
ATOM      3  C   UNL     1      -1.573   5.051 -39.756  1.00  0.00     0.238 A 
ATOM      4  O   UNL     1      -0.575   4.949 -40.516  1.00  0.00    -0.285 OA
ATOM      5  C   UNL     1      -1.507   4.667 -38.395  1.00  0.00     0.111 A 
ATOM      6  C   UNL     1      -0.323   4.218 -37.736  1.00  0.00     0.134 A 
ATOM      7  C   UNL     1      -0.402   3.741 -36.423  1.00  0.00     0.093 A 
ATOM      8  C   UNL     1      -1.610   3.755 -35.722  1.00  0.00     0.123 A 
ATOM      9  C   UNL     1      -2.760   4.247 -36.336  1.00  0.00     0.094 A 
ATOM     10  C   UNL     1      -2.720   4.696 -37.658  1.00  0.00     0.146 A 
ATOM     11  O   UNL     1      -3.840   5.147 -38.209  1.00  0.00    -0.452 OA
ENDROOT
BRANCH   1  12
ATOM     12  C   UNL     1      -5.223   6.079 -39.950  1.00  0.00     0.029 A 
ATOM     13  C   UNL     1      -5.557   7.428 -39.760  1.00  0.00     0.062 A 
ATOM     14  C   UNL     1      -6.775   7.935 -40.228  1.00  0.00     0.162 A 
ATOM     15  C   UNL     1      -6.113   5.247 -40.651  1.00  0.00     0.062 A 
ATOM     16  C   UNL     1      -7.670   7.094 -40.910  1.00  0.00     0.200 A 
ATOM     17  C   UNL     1      -7.334   5.746 -41.125  1.00  0.00     0.162 A 
BRANCH  14  18
ATOM     18  O   UNL     1      -7.075   9.280 -40.006  1.00  0.00    -0.504 OA
ATOM     19  H   UNL     1      -7.717   9.793 -40.598  1.00  0.00     0.293 HD
ENDBRANCH  14  18
BRANCH  16  20
ATOM     20  O   UNL     1      -8.883   7.607 -41.370  1.00  0.00    -0.502 OA
ATOM     21  H   UNL     1      -9.468   8.205 -40.800  1.00  0.00     0.293 HD
ENDBRANCH  16  20
BRANCH  17  22
ATOM     22  O   UNL     1      -8.211   4.910 -41.813  1.00  0.00    -0.504 OA
ATOM     23  H   UNL     1      -9.140   5.217 -42.079  1.00  0.00     0.293 HD
ENDBRANCH  17  22
ENDBRANCH   1  12
BRANCH   2  24
ATOM     24  O   UNL     1      -2.877   5.880 -41.638  1.00  0.00    -0.502 OA
ATOM     25  H   UNL     1      -2.064   5.961 -42.238  1.00  0.00     0.293 HD
ENDBRANCH   2  24
BRANCH   6  26
ATOM     26  O   UNL     1       0.950   4.247 -38.314  1.00  0.00    -0.507 OA
ATOM     27  H   UNL     1       1.672   4.912 -38.079  1.00  0.00     0.293 HD
ENDBRANCH   6  26
BRANCH   8  28
ATOM     28  O   UNL     1      -1.677   3.292 -34.410  1.00  0.00    -0.508 OA
ATOM     29  H   UNL     1      -1.135   3.720 -33.668  1.00  0.00     0.293 HD
ENDBRANCH   8  28
TORSDOF 7
ENDMDL
MODEL 3
REMARK VINA RESULT:    -6.388      1.440      7.197
REMARK INTER + INTRA:          -8.223
REMARK INTER:                  -8.028
REMARK INTRA:                  -0.195
REMARK UNBOUND:                -0.341
REMARK SMILES O=c1c(O)c(-c2cc(O)c(O)c(O)c2)oc2cc(O)cc(O)c12
REMARK SMILES IDX 5 1 3 2 2 3 1 4 23 5 21 6 20 7 18 8 17 9 16 10 15 11 6 12
REMARK SMILES IDX 7 13 8 14 14 15 10 16 12 17 9 18 11 20 13 22 4 24 22 26
REMARK SMILES IDX 19 28
REMARK H PARENT 9 19 11 21 13 23 4 25 22 27 19 29
REMARK Flexibility Score: inf
ROOT
ATOM      1  C   UNL     1      -4.133   6.521 -39.226  1.00  0.00     0.180 A 
ATOM      2  C   UNL     1      -4.502   7.755 -38.664  1.00  0.00     0.208 A 
ATOM      3  C   UNL     1      -5.772   8.281 -38.950  1.00  0.00     0.238 A 
ATOM      4  O   UNL     1      -6.118   9.359 -38.400  1.00  0.00    -0.285 OA
ATOM      5  C   UNL     1      -6.650   7.575 -39.806  1.00  0.00     0.111 A 
ATOM      6  C   UNL     1      -7.944   8.033 -40.196  1.00  0.00     0.134 A 
ATOM      7  C   UNL     1      -8.779   7.192 -40.943  1.00  0.00     0.093 A 
ATOM      8  C   UNL     1      -8.341   5.935 -41.369  1.00  0.00     0.123 A 
ATOM      9  C   UNL     1      -7.057   5.504 -41.045  1.00  0.00     0.094 A 
ATOM     10  C   UNL     1      -6.215   6.305 -40.269  1.00  0.00     0.146 A 
ATOM     11  O   UNL     1      -5.003   5.851 -39.973  1.00  0.00    -0.452 OA
ENDROOT
BRANCH   1  12
ATOM     12  C   UNL     1      -2.802   5.916 -38.992  1.00  0.00     0.029 A 
ATOM     13  C   UNL     1      -1.893   5.811 -40.056  1.00  0.00     0.062 A 
ATOM     14  C   UNL     1      -0.622   5.263 -39.858  1.00  0.00     0.162 A 
ATOM     15  C   UNL     1      -2.405   5.495 -37.711  1.00  0.00     0.062 A 
ATOM     16  C   UNL     1      -0.237   4.824 -38.580  1.00  0.00     0.200 A 
ATOM     17  C   UNL     1      -1.133   4.945 -37.503  1.00  0.00     0.162 A 
BRANCH  14  18
ATOM     18  O   UNL     1       0.247   5.163 -40.946  1.00  0.00    -0.504 OA
ATOM     19  H   UNL     1       0.082   4.518 -41.709  1.00  0.00     0.293 HD
ENDBRANCH  14  18
BRANCH  16  20
ATOM     20  O   UNL     1       1.031   4.275 -38.392  1.00  0.00    -0.502 OA
ATOM     21  H   UNL     1       1.581   3.908 -39.160  1.00  0.00     0.293 HD
ENDBRANCH  16  20
BRANCH  17  22
ATOM     22  O   UNL     1      -0.753   4.525 -36.229  1.00  0.00    -0.504 OA
ATOM     23  H   UNL     1      -1.256   4.820 -35.400  1.00  0.00     0.293 HD
ENDBRANCH  17  22
ENDBRANCH   1  12
BRANCH   2  24
ATOM     24  O   UNL     1      -3.628   8.425 -37.803  1.00  0.00    -0.502 OA
ATOM     25  H   UNL     1      -3.759   8.440 -36.798  1.00  0.00     0.293 HD
ENDBRANCH   2  24
BRANCH   6  26
ATOM     26  O   UNL     1      -8.444   9.305 -39.902  1.00  0.00    -0.507 OA
ATOM     27  H   UNL     1      -9.306   9.682 -40.266  1.00  0.00     0.293 HD
ENDBRANCH   6  26
BRANCH   8  28
ATOM     28  O   UNL     1      -9.171   5.111 -42.125  1.00  0.00    -0.508 OA
ATOM     29  H   UNL     1      -9.246   5.212 -43.131  1.00  0.00     0.293 HD
ENDBRANCH   8  28
TORSDOF 7
ENDMDL
MODEL 4
REMARK VINA RESULT:    -6.337      3.357      7.983
REMARK INTER + INTRA:          -8.161
REMARK INTER:                  -8.127
REMARK INTRA:                  -0.034
REMARK UNBOUND:                -0.341
REMARK SMILES O=c1c(O)c(-c2cc(O)c(O)c(O)c2)oc2cc(O)cc(O)c12
REMARK SMILES IDX 5 1 3 2 2 3 1 4 23 5 21 6 20 7 18 8 17 9 16 10 15 11 6 12
REMARK SMILES IDX 7 13 8 14 14 15 10 16 12 17 9 18 11 20 13 22 4 24 22 26
REMARK SMILES IDX 19 28
REMARK H PARENT 9 19 11 21 13 23 4 25 22 27 19 29
REMARK Flexibility Score: inf
ROOT
ATOM      1  C   UNL     1      -7.326   8.580 -39.263  1.00  0.00     0.180 A 
ATOM      2  C   UNL     1      -7.895   9.100 -40.437  1.00  0.00     0.208 A 
ATOM      3  C   UNL     1      -8.688  10.257 -40.356  1.00  0.00     0.238 A 
ATOM      4  O   UNL     1      -9.149  10.750 -41.417  1.00  0.00    -0.285 OA
ATOM      5  C   UNL     1      -8.914  10.868 -39.099  1.00  0.00     0.111 A 
ATOM      6  C   UNL     1      -9.732  12.019 -38.893  1.00  0.00     0.134 A 
ATOM      7  C   UNL     1      -9.781  12.614 -37.627  1.00  0.00     0.093 A 
ATOM      8  C   UNL     1      -9.091  12.063 -36.545  1.00  0.00     0.123 A 
ATOM      9  C   UNL     1      -8.338  10.905 -36.722  1.00  0.00     0.094 A 
ATOM     10  C   UNL     1      -8.241  10.309 -37.981  1.00  0.00     0.146 A 
ATOM     11  O   UNL     1      -7.503   9.213 -38.109  1.00  0.00    -0.452 OA
ENDROOT
BRANCH   1  12
ATOM     12  C   UNL     1      -6.500   7.351 -39.266  1.00  0.00     0.029 A 
ATOM     13  C   UNL     1      -5.387   7.269 -40.116  1.00  0.00     0.062 A 
ATOM     14  C   UNL     1      -4.577   6.128 -40.124  1.00  0.00     0.162 A 
ATOM     15  C   UNL     1      -6.772   6.284 -38.393  1.00  0.00     0.062 A 
ATOM     16  C   UNL     1      -4.866   5.056 -39.265  1.00  0.00     0.200 A 
ATOM     17  C   UNL     1      -5.966   5.137 -38.394  1.00  0.00     0.162 A 
BRANCH  14  18
ATOM     18  O   UNL     1      -3.487   6.081 -40.995  1.00  0.00    -0.504 OA
ATOM     19  H   UNL     1      -2.684   6.689 -40.886  1.00  0.00     0.293 HD
ENDBRANCH  14  18
BRANCH  16  20
ATOM     20  O   UNL     1      -4.055   3.920 -39.282  1.00  0.00    -0.502 OA
ATOM     21  H   UNL     1      -3.733   3.499 -40.145  1.00  0.00     0.293 HD
ENDBRANCH  16  20
BRANCH  17  22
ATOM     22  O   UNL     1      -6.249   4.082 -37.528  1.00  0.00    -0.504 OA
ATOM     23  H   UNL     1      -5.521   3.624 -36.992  1.00  0.00     0.293 HD
ENDBRANCH  17  22
ENDBRANCH   1  12
BRANCH   2  24
ATOM     24  O   UNL     1      -7.640   8.495 -41.671  1.00  0.00    -0.502 OA
ATOM     25  H   UNL     1      -7.346   9.021 -42.486  1.00  0.00     0.293 HD
ENDBRANCH   2  24
BRANCH   6  26
ATOM     26  O   UNL     1     -10.533  12.595 -39.884  1.00  0.00    -0.507 OA
ATOM     27  H   UNL     1     -10.193  12.938 -40.770  1.00  0.00     0.293 HD
ENDBRANCH   6  26
BRANCH   8  28
ATOM     28  O   UNL     1      -9.157  12.653 -35.284  1.00  0.00    -0.508 OA
ATOM     29  H   UNL     1      -8.485  13.354 -34.991  1.00  0.00     0.293 HD
ENDBRANCH   8  28
TORSDOF 7
ENDMDL
MODEL 5
REMARK VINA RESULT:    -6.333      5.762      8.329
REMARK INTER + INTRA:          -8.155
REMARK INTER:                  -8.010
REMARK INTRA:                  -0.144
REMARK UNBOUND:                -0.341
REMARK SMILES O=c1c(O)c(-c2cc(O)c(O)c(O)c2)oc2cc(O)cc(O)c12
REMARK SMILES IDX 5 1 3 2 2 3 1 4 23 5 21 6 20 7 18 8 17 9 16 10 15 11 6 12
REMARK SMILES IDX 7 13 8 14 14 15 10 16 12 17 9 18 11 20 13 22 4 24 22 26
REMARK SMILES IDX 19 28
REMARK H PARENT 9 19 11 21 13 23 4 25 22 27 19 29
REMARK Flexibility Score: inf
ROOT
ATOM      1  C   UNL     1      -8.138   9.787 -38.308  1.00  0.00     0.180 A 
ATOM      2  C   UNL     1      -6.840  10.261 -38.053  1.00  0.00     0.208 A 
ATOM      3  C   UNL     1      -6.680  11.515 -37.441  1.00  0.00     0.238 A 
ATOM      4  O   UNL     1      -5.517  11.910 -37.165  1.00  0.00    -0.285 OA
ATOM      5  C   UNL     1      -7.819  12.286 -37.108  1.00  0.00     0.111 A 
ATOM      6  C   UNL     1      -7.775  13.586 -36.522  1.00  0.00     0.134 A 
ATOM      7  C   UNL     1      -8.965  14.202 -36.115  1.00  0.00     0.093 A 
ATOM      8  C   UNL     1     -10.202  13.591 -36.332  1.00  0.00     0.123 A 
ATOM      9  C   UNL     1     -10.260  12.349 -36.958  1.00  0.00     0.094 A 
ATOM     10  C   UNL     1      -9.088  11.693 -37.342  1.00  0.00     0.146 A 
ATOM     11  O   UNL     1      -9.187  10.505 -37.925  1.00  0.00    -0.452 OA
ENDROOT
BRANCH   1  12
ATOM     12  C   UNL     1      -8.385   8.487 -38.972  1.00  0.00     0.029 A 
ATOM     13  C   UNL     1      -9.211   7.539 -38.349  1.00  0.00     0.062 A 
ATOM     14  C   UNL     1      -9.478   6.311 -38.963  1.00  0.00     0.162 A 
ATOM     15  C   UNL     1      -7.857   8.202 -40.244  1.00  0.00     0.062 A 
ATOM     16  C   UNL     1      -8.931   6.023 -40.224  1.00  0.00     0.200 A 
ATOM     17  C   UNL     1      -8.121   6.975 -40.867  1.00  0.00     0.162 A 
BRANCH  14  18
ATOM     18  O   UNL     1     -10.293   5.390 -38.303  1.00  0.00    -0.504 OA
ATOM     19  H   UNL     1     -11.067   5.679 -37.717  1.00  0.00     0.293 HD
ENDBRANCH  14  18
BRANCH  16  20
ATOM     20  O   UNL     1      -9.200   4.794 -40.829  1.00  0.00    -0.502 OA
ATOM     21  H   UNL     1      -8.633   3.972 -40.657  1.00  0.00     0.293 HD
ENDBRANCH  16  20
BRANCH  17  22
ATOM     22  O   UNL     1      -7.586   6.701 -42.125  1.00  0.00    -0.504 OA
ATOM     23  H   UNL     1      -7.814   7.268 -42.934  1.00  0.00     0.293 HD
ENDBRANCH  17  22
ENDBRANCH   1  12
BRANCH   2  24
ATOM     24  O   UNL     1      -5.728   9.474 -38.369  1.00  0.00    -0.502 OA
ATOM     25  H   UNL     1      -5.756   8.461 -38.352  1.00  0.00     0.293 HD
ENDBRANCH   2  24
BRANCH   6  26
ATOM     26  O   UNL     1      -6.600  14.323 -36.344  1.00  0.00    -0.507 OA
ATOM     27  H   UNL     1      -5.773  14.232 -36.915  1.00  0.00     0.293 HD
ENDBRANCH   6  26
BRANCH   8  28
ATOM     28  O   UNL     1     -11.383  14.218 -35.938  1.00  0.00    -0.508 OA
ATOM     29  H   UNL     1     -12.043  14.579 -36.617  1.00  0.00     0.293 HD
ENDBRANCH   8  28
TORSDOF 7
ENDMDL
MODEL 6
REMARK VINA RESULT:    -6.233      3.352      5.013
REMARK INTER + INTRA:          -8.032
REMARK INTER:                  -7.796
REMARK INTRA:                  -0.237
REMARK UNBOUND:                -0.341
REMARK SMILES O=c1c(O)c(-c2cc(O)c(O)c(O)c2)oc2cc(O)cc(O)c12
REMARK SMILES IDX 5 1 3 2 2 3 1 4 23 5 21 6 20 7 18 8 17 9 16 10 15 11 6 12
REMARK SMILES IDX 7 13 8 14 14 15 10 16 12 17 9 18 11 20 13 22 4 24 22 26
REMARK SMILES IDX 19 28
REMARK H PARENT 9 19 11 21 13 23 4 25 22 27 19 29
REMARK Flexibility Score: inf
ROOT
ATOM      1  C   UNL     1      -6.829   5.454 -37.668  1.00  0.00     0.180 A 
ATOM      2  C   UNL     1      -6.235   4.583 -36.738  1.00  0.00     0.208 A 
ATOM      3  C   UNL     1      -4.963   4.055 -37.015  1.00  0.00     0.238 A 
ATOM      4  O   UNL     1      -4.413   3.320 -36.155  1.00  0.00    -0.285 OA
ATOM      5  C   UNL     1      -4.309   4.392 -38.224  1.00  0.00     0.111 A 
ATOM      6  C   UNL     1      -3.037   3.885 -38.626  1.00  0.00     0.134 A 
ATOM      7  C   UNL     1      -2.427   4.387 -39.782  1.00  0.00     0.093 A 
ATOM      8  C   UNL     1      -3.072   5.331 -40.585  1.00  0.00     0.123 A 
ATOM      9  C   UNL     1      -4.340   5.788 -40.234  1.00  0.00     0.094 A 
ATOM     10  C   UNL     1      -4.959   5.333 -39.066  1.00  0.00     0.146 A 
ATOM     11  O   UNL     1      -6.163   5.802 -38.762  1.00  0.00    -0.452 OA
ENDROOT
BRANCH   1  12
ATOM     12  C   UNL     1      -8.177   6.029 -37.457  1.00  0.00     0.029 A 
ATOM     13  C   UNL     1      -8.321   7.419 -37.326  1.00  0.00     0.062 A 
ATOM     14  C   UNL     1      -9.585   7.991 -37.148  1.00  0.00     0.162 A 
ATOM     15  C   UNL     1      -9.325   5.219 -37.444  1.00  0.00     0.062 A 
ATOM     16  C   UNL     1     -10.728   7.175 -37.114  1.00  0.00     0.200 A 
ATOM     17  C   UNL     1     -10.595   5.784 -37.267  1.00  0.00     0.162 A 
BRANCH  14  18
ATOM     18  O   UNL     1      -9.684   9.376 -37.007  1.00  0.00    -0.504 OA
ATOM     19  H   UNL     1     -10.572   9.861 -37.059  1.00  0.00     0.293 HD
ENDBRANCH  14  18
BRANCH  16  20
ATOM     20  O   UNL     1     -11.984   7.754 -36.932  1.00  0.00    -0.502 OA
ATOM     21  H   UNL     1     -12.523   8.128 -37.703  1.00  0.00     0.293 HD
ENDBRANCH  16  20
BRANCH  17  22
ATOM     22  O   UNL     1     -11.726   4.969 -37.249  1.00  0.00    -0.504 OA
ATOM     23  H   UNL     1     -12.269   4.832 -36.403  1.00  0.00     0.293 HD
ENDBRANCH  17  22
ENDBRANCH   1  12
BRANCH   2  24
ATOM     24  O   UNL     1      -6.888   4.281 -35.540  1.00  0.00    -0.502 OA
ATOM     25  H   UNL     1      -7.621   4.867 -35.156  1.00  0.00     0.293 HD
ENDBRANCH   2  24
BRANCH   6  26
ATOM     26  O   UNL     1      -2.349   2.876 -37.946  1.00  0.00    -0.507 OA
ATOM     27  H   UNL     1      -1.697   3.033 -37.193  1.00  0.00     0.293 HD
ENDBRANCH   6  26
BRANCH   8  28
ATOM     28  O   UNL     1      -2.465   5.814 -41.742  1.00  0.00    -0.508 OA
ATOM     29  H   UNL     1      -2.294   5.215 -42.542  1.00  0.00     0.293 HD
ENDBRANCH   8  28
TORSDOF 7
ENDMDL
MODEL 7
REMARK VINA RESULT:    -6.141      1.391      2.996
REMARK INTER + INTRA:          -7.918
REMARK INTER:                  -7.611
REMARK INTRA:                  -0.307
REMARK UNBOUND:                -0.341
REMARK SMILES O=c1c(O)c(-c2cc(O)c(O)c(O)c2)oc2cc(O)cc(O)c12
REMARK SMILES IDX 5 1 3 2 2 3 1 4 23 5 21 6 20 7 18 8 17 9 16 10 15 11 6 12
REMARK SMILES IDX 7 13 8 14 14 15 10 16 12 17 9 18 11 20 13 22 4 24 22 26
REMARK SMILES IDX 19 28
REMARK H PARENT 9 19 11 21 13 23 4 25 22 27 19 29
REMARK Flexibility Score: inf
ROOT
ATOM      1  C   UNL     1      -4.749   5.973 -38.268  1.00  0.00     0.180 A 
ATOM      2  C   UNL     1      -5.141   5.395 -37.048  1.00  0.00     0.208 A 
ATOM      3  C   UNL     1      -4.206   4.639 -36.322  1.00  0.00     0.238 A 
ATOM      4  O   UNL     1      -4.546   4.169 -35.205  1.00  0.00    -0.285 OA
ATOM      5  C   UNL     1      -2.898   4.459 -36.831  1.00  0.00     0.111 A 
ATOM      6  C   UNL     1      -1.882   3.680 -36.199  1.00  0.00     0.134 A 
ATOM      7  C   UNL     1      -0.585   3.678 -36.727  1.00  0.00     0.093 A 
ATOM      8  C   UNL     1      -0.283   4.374 -37.899  1.00  0.00     0.123 A 
ATOM      9  C   UNL     1      -1.282   5.088 -38.557  1.00  0.00     0.094 A 
ATOM     10  C   UNL     1      -2.577   5.139 -38.035  1.00  0.00     0.146 A 
ATOM     11  O   UNL     1      -3.496   5.841 -38.687  1.00  0.00    -0.452 OA
ENDROOT
BRANCH   1  12
ATOM     12  C   UNL     1      -5.685   6.761 -39.101  1.00  0.00     0.029 A 
ATOM     13  C   UNL     1      -6.285   6.163 -40.220  1.00  0.00     0.062 A 
ATOM     14  C   UNL     1      -7.189   6.877 -41.013  1.00  0.00     0.162 A 
ATOM     15  C   UNL     1      -6.033   8.081 -38.764  1.00  0.00     0.062 A 
ATOM     16  C   UNL     1      -7.517   8.203 -40.684  1.00  0.00     0.200 A 
ATOM     17  C   UNL     1      -6.939   8.804 -39.552  1.00  0.00     0.162 A 
BRANCH  14  18
ATOM     18  O   UNL     1      -7.753   6.250 -42.125  1.00  0.00    -0.504 OA
ATOM     19  H   UNL     1      -8.470   6.693 -42.687  1.00  0.00     0.293 HD
ENDBRANCH  14  18
BRANCH  16  20
ATOM     20  O   UNL     1      -8.417   8.910 -41.482  1.00  0.00    -0.502 OA
ATOM     21  H   UNL     1      -8.301   9.895 -41.686  1.00  0.00     0.293 HD
ENDBRANCH  16  20
BRANCH  17  22
ATOM     22  O   UNL     1      -7.270  10.114 -39.211  1.00  0.00    -0.504 OA
ATOM     23  H   UNL     1      -8.150  10.530 -39.495  1.00  0.00     0.293 HD
ENDBRANCH  17  22
ENDBRANCH   1  12
BRANCH   2  24
ATOM     24  O   UNL     1      -6.431   5.603 -36.552  1.00  0.00    -0.502 OA
ATOM     25  H   UNL     1      -7.153   4.894 -36.597  1.00  0.00     0.293 HD
ENDBRANCH   2  24
BRANCH   6  26
ATOM     26  O   UNL     1      -2.100   2.876 -35.077  1.00  0.00    -0.507 OA
ATOM     27  H   UNL     1      -2.940   2.344 -34.906  1.00  0.00     0.293 HD
ENDBRANCH   6  26
BRANCH   8  28
ATOM     28  O   UNL     1       1.006   4.354 -38.426  1.00  0.00    -0.508 OA
ATOM     29  H   UNL     1       1.312   5.039 -39.108  1.00  0.00     0.293 HD
ENDBRANCH   8  28
TORSDOF 7
ENDMDL
MODEL 8
REMARK VINA RESULT:    -6.047      6.704      8.670
REMARK INTER + INTRA:          -7.802
REMARK INTER:                  -7.522
REMARK INTRA:                  -0.280
REMARK UNBOUND:                -0.341
REMARK SMILES O=c1c(O)c(-c2cc(O)c(O)c(O)c2)oc2cc(O)cc(O)c12
REMARK SMILES IDX 5 1 3 2 2 3 1 4 23 5 21 6 20 7 18 8 17 9 16 10 15 11 6 12
REMARK SMILES IDX 7 13 8 14 14 15 10 16 12 17 9 18 11 20 13 22 4 24 22 26
REMARK SMILES IDX 19 28
REMARK H PARENT 9 19 11 21 13 23 4 25 22 27 19 29
REMARK Flexibility Score: inf
ROOT
ATOM      1  C   UNL     1      -0.604  11.428 -38.735  1.00  0.00     0.180 A 
ATOM      2  C   UNL     1      -1.877  11.921 -38.401  1.00  0.00     0.208 A 
ATOM      3  C   UNL     1      -2.898  11.010 -38.083  1.00  0.00     0.238 A 
ATOM      4  O   UNL     1      -4.021  11.458 -37.732  1.00  0.00    -0.285 OA
ATOM      5  C   UNL     1      -2.638   9.619 -38.119  1.00  0.00     0.111 A 
ATOM      6  C   UNL     1      -3.607   8.606 -37.855  1.00  0.00     0.134 A 
ATOM      7  C   UNL     1      -3.206   7.266 -37.793  1.00  0.00     0.093 A 
ATOM      8  C   UNL     1      -1.883   6.897 -38.048  1.00  0.00     0.123 A 
ATOM      9  C   UNL     1      -0.942   7.873 -38.366  1.00  0.00     0.094 A 
ATOM     10  C   UNL     1      -1.304   9.222 -38.400  1.00  0.00     0.146 A 
ATOM     11  O   UNL     1      -0.373  10.121 -38.697  1.00  0.00    -0.452 OA
ENDROOT
BRANCH   1  12
ATOM     12  C   UNL     1       0.514  12.325 -39.106  1.00  0.00     0.029 A 
ATOM     13  C   UNL     1       1.619  12.441 -38.249  1.00  0.00     0.062 A 
ATOM     14  C   UNL     1       2.699  13.265 -38.584  1.00  0.00     0.162 A 
ATOM     15  C   UNL     1       0.521  13.019 -40.328  1.00  0.00     0.062 A 
ATOM     16  C   UNL     1       2.692  13.974 -39.797  1.00  0.00     0.200 A 
ATOM     17  C   UNL     1       1.600  13.846 -40.672  1.00  0.00     0.162 A 
BRANCH  14  18
ATOM     18  O   UNL     1       3.772  13.364 -37.697  1.00  0.00    -0.504 OA
ATOM     19  H   UNL     1       4.585  13.933 -37.897  1.00  0.00     0.293 HD
ENDBRANCH  14  18
BRANCH  16  20
ATOM     20  O   UNL     1       3.772  14.795 -40.121  1.00  0.00    -0.502 OA
ATOM     21  H   UNL     1       4.418  15.140 -39.422  1.00  0.00     0.293 HD
ENDBRANCH  16  20
BRANCH  17  22
ATOM     22  O   UNL     1       1.593  14.535 -41.884  1.00  0.00    -0.504 OA
ATOM     23  H   UNL     1       0.981  14.265 -42.645  1.00  0.00     0.293 HD
ENDBRANCH  17  22
ENDBRANCH   1  12
BRANCH   2  24
ATOM     24  O   UNL     1      -2.108  13.299 -38.349  1.00  0.00    -0.502 OA
ATOM     25  H   UNL     1      -2.941  13.696 -37.932  1.00  0.00     0.293 HD
ENDBRANCH   2  24
BRANCH   6  26
ATOM     26  O   UNL     1      -4.971   8.858 -37.676  1.00  0.00    -0.507 OA
ATOM     27  H   UNL     1      -5.386   9.776 -37.647  1.00  0.00     0.293 HD
ENDBRANCH   6  26
BRANCH   8  28
ATOM     28  O   UNL     1      -1.496   5.560 -37.999  1.00  0.00    -0.508 OA
ATOM     29  H   UNL     1      -0.560   5.269 -38.257  1.00  0.00     0.293 HD
ENDBRANCH   8  28
TORSDOF 7
ENDMDL
MODEL 9
REMARK VINA RESULT:    -5.967      5.927      8.063
REMARK INTER + INTRA:          -7.703
REMARK INTER:                  -7.821
REMARK INTRA:                   0.118
REMARK UNBOUND:                -0.341
REMARK SMILES O=c1c(O)c(-c2cc(O)c(O)c(O)c2)oc2cc(O)cc(O)c12
REMARK SMILES IDX 5 1 3 2 2 3 1 4 23 5 21 6 20 7 18 8 17 9 16 10 15 11 6 12
REMARK SMILES IDX 7 13 8 14 14 15 10 16 12 17 9 18 11 20 13 22 4 24 22 26
REMARK SMILES IDX 19 28
REMARK H PARENT 9 19 11 21 13 23 4 25 22 27 19 29
REMARK Flexibility Score: inf
ROOT
ATOM      1  C   UNL     1      -8.481   9.799 -38.446  1.00  0.00     0.180 A 
ATOM      2  C   UNL     1      -8.510  11.008 -39.162  1.00  0.00     0.208 A 
ATOM      3  C   UNL     1      -8.408  12.219 -38.458  1.00  0.00     0.238 A 
ATOM      4  O   UNL     1      -8.380  13.296 -39.108  1.00  0.00    -0.285 OA
ATOM      5  C   UNL     1      -8.294  12.206 -37.047  1.00  0.00     0.111 A 
ATOM      6  C   UNL     1      -8.224  13.373 -36.229  1.00  0.00     0.134 A 
ATOM      7  C   UNL     1      -7.982  13.241 -34.856  1.00  0.00     0.093 A 
ATOM      8  C   UNL     1      -7.871  11.981 -34.262  1.00  0.00     0.123 A 
ATOM      9  C   UNL     1      -7.998  10.835 -35.043  1.00  0.00     0.094 A 
ATOM     10  C   UNL     1      -8.203  10.935 -36.421  1.00  0.00     0.146 A 
ATOM     11  O   UNL     1      -8.307   9.817 -37.130  1.00  0.00    -0.452 OA
ENDROOT
BRANCH   1  12
ATOM     12  C   UNL     1      -8.608   8.484 -39.116  1.00  0.00     0.029 A 
ATOM     13  C   UNL     1      -7.895   8.241 -40.300  1.00  0.00     0.062 A 
ATOM     14  C   UNL     1      -7.981   7.001 -40.942  1.00  0.00     0.162 A 
ATOM     15  C   UNL     1      -9.384   7.452 -38.560  1.00  0.00     0.062 A 
ATOM     16  C   UNL     1      -8.774   5.979 -40.394  1.00  0.00     0.200 A 
ATOM     17  C   UNL     1      -9.474   6.207 -39.196  1.00  0.00     0.162 A 
BRANCH  14  18
ATOM     18  O   UNL     1      -7.268   6.804 -42.125  1.00  0.00    -0.504 OA
ATOM     19  H   UNL     1      -7.551   7.226 -43.001  1.00  0.00     0.293 HD
ENDBRANCH  14  18
BRANCH  16  20
ATOM     20  O   UNL     1      -8.857   4.747 -41.042  1.00  0.00    -0.502 OA
ATOM     21  H   UNL     1      -9.316   4.637 -41.939  1.00  0.00     0.293 HD
ENDBRANCH  16  20
BRANCH  17  22
ATOM     22  O   UNL     1     -10.252   5.192 -38.639  1.00  0.00    -0.504 OA
ATOM     23  H   UNL     1      -9.853   4.295 -38.387  1.00  0.00     0.293 HD
ENDBRANCH  17  22
ENDBRANCH   1  12
BRANCH   2  24
ATOM     24  O   UNL     1      -8.601  10.998 -40.557  1.00  0.00    -0.502 OA
ATOM     25  H   UNL     1      -9.483  11.095 -41.046  1.00  0.00     0.293 HD
ENDBRANCH   2  24
BRANCH   6  26
ATOM     26  O   UNL     1      -8.412  14.673 -36.706  1.00  0.00    -0.507 OA
ATOM     27  H   UNL     1      -7.862  15.103 -37.435  1.00  0.00     0.293 HD
ENDBRANCH   6  26
BRANCH   8  28
ATOM     28  O   UNL     1      -7.645  11.858 -32.893  1.00  0.00    -0.508 OA
ATOM     29  H   UNL     1      -7.983  12.552 -32.235  1.00  0.00     0.293 HD
ENDBRANCH   8  28
TORSDOF 7
ENDMDL
