MODEL 1
REMARK VINA RESULT:    -5.147      0.000      0.000
REMARK INTER + INTRA:          -5.147
REMARK INTER:                  -5.147
REMARK INTRA:                   0.000
REMARK UNBOUND:                 0.000
REMARK SMILES CC1=CC[C@H]2[C@@H](C1)C2(C)C
REMARK SMILES IDX 1 1 2 2 3 3 4 4 5 5 6 6 7 7 8 8 9 9 10 10
REMARK H PARENT
REMARK Flexibility Score: inf
ROOT
ATOM      1  C   UNL     1       4.378  10.209  10.875  1.00  0.00     0.039 C 
ATOM      2  C   UNL     1       4.847   9.008  11.651  1.00  0.00    -0.077 C 
ATOM      3  C   UNL     1       3.957   8.284  12.352  1.00  0.00    -0.028 C 
ATOM      4  C   UNL     1       4.375   7.081  13.149  1.00  0.00     0.031 C 
ATOM      5  C   UNL     1       5.470   6.267  12.430  1.00  0.00     0.003 C 
ATOM      6  C   UNL     1       6.502   7.091  11.625  1.00  0.00     0.003 C 
ATOM      7  C   UNL     1       6.308   8.623  11.645  1.00  0.00     0.034 C 
ATOM      8  C   UNL     1       6.932   6.342  12.898  1.00  0.00    -0.029 C 
ATOM      9  C   UNL     1       7.300   7.125  14.174  1.00  0.00     0.012 C 
ATOM     10  C   UNL     1       7.750   5.071  12.646  1.00  0.00     0.012 C 
ENDROOT
TORSDOF 0
ENDMDL
MODEL 2
REMARK VINA RESULT:    -4.347      1.190      2.163
REMARK INTER + INTRA:          -4.347
REMARK INTER:                  -4.347
REMARK INTRA:                   0.000
REMARK UNBOUND:                 0.000
REMARK SMILES CC1=CC[C@H]2[C@@H](C1)C2(C)C
REMARK SMILES IDX 1 1 2 2 3 3 4 4 5 5 6 6 7 7 8 8 9 9 10 10
REMARK H PARENT
REMARK Flexibility Score: inf
ROOT
ATOM      1  C   UNL     1       4.152   9.401  11.037  1.00  0.00     0.039 C 
ATOM      2  C   UNL     1       5.148   8.522  11.744  1.00  0.00    -0.077 C 
ATOM      3  C   UNL     1       6.365   9.009  12.042  1.00  0.00    -0.028 C 
ATOM      4  C   UNL     1       7.398   8.171  12.740  1.00  0.00     0.031 C 
ATOM      5  C   UNL     1       6.770   7.258  13.813  1.00  0.00     0.003 C 
ATOM      6  C   UNL     1       5.372   6.688  13.477  1.00  0.00     0.003 C 
ATOM      7  C   UNL     1       4.783   7.102  12.110  1.00  0.00     0.034 C 
ATOM      8  C   UNL     1       6.591   5.754  13.551  1.00  0.00    -0.029 C 
ATOM      9  C   UNL     1       7.161   5.116  12.269  1.00  0.00     0.012 C 
ATOM     10  C   UNL     1       6.648   4.875  14.806  1.00  0.00     0.012 C 
ENDROOT
TORSDOF 0
ENDMDL
MODEL 3
REMARK VINA RESULT:    -4.270      1.393      3.402
REMARK INTER + INTRA:          -4.270
REMARK INTER:                  -4.270
REMARK INTRA:                   0.000
REMARK UNBOUND:                 0.000
REMARK SMILES CC1=CC[C@H]2[C@@H](C1)C2(C)C
REMARK SMILES IDX 1 1 2 2 3 3 4 4 5 5 6 6 7 7 8 8 9 9 10 10
REMARK H PARENT
REMARK Flexibility Score: inf
ROOT
ATOM      1  C   UNL     1       9.165   8.298  14.252  1.00  0.00     0.039 C 
ATOM      2  C   UNL     1       7.849   7.945  13.613  1.00  0.00    -0.077 C 
ATOM      3  C   UNL     1       7.477   8.565  12.480  1.00  0.00    -0.028 C 
ATOM      4  C   UNL     1       6.171   8.254  11.805  1.00  0.00     0.031 C 
ATOM      5  C   UNL     1       5.827   6.753  11.881  1.00  0.00     0.003 C 
ATOM      6  C   UNL     1       6.245   6.032  13.185  1.00  0.00     0.003 C 
ATOM      7  C   UNL     1       6.952   6.906  14.244  1.00  0.00     0.034 C 
ATOM      8  C   UNL     1       4.757   6.247  12.863  1.00  0.00    -0.029 C 
ATOM      9  C   UNL     1       3.920   7.247  13.684  1.00  0.00     0.012 C 
ATOM     10  C   UNL     1       4.014   4.987  12.404  1.00  0.00     0.012 C 
ENDROOT
TORSDOF 0
ENDMDL
MODEL 4
REMARK VINA RESULT:    -3.981      1.636      3.101
REMARK INTER + INTRA:          -3.981
REMARK INTER:                  -3.981
REMARK INTRA:                   0.000
REMARK UNBOUND:                 0.000
REMARK SMILES CC1=CC[C@H]2[C@@H](C1)C2(C)C
REMARK SMILES IDX 1 1 2 2 3 3 4 4 5 5 6 6 7 7 8 8 9 9 10 10
REMARK H PARENT
REMARK Flexibility Score: inf
ROOT
ATOM      1  C   UNL     1       3.632   5.310  12.032  1.00  0.00     0.039 C 
ATOM      2  C   UNL     1       4.981   5.776  12.509  1.00  0.00    -0.077 C 
ATOM      3  C   UNL     1       5.958   4.875  12.712  1.00  0.00    -0.028 C 
ATOM      4  C   UNL     1       7.320   5.287  13.194  1.00  0.00     0.031 C 
ATOM      5  C   UNL     1       7.772   6.623  12.571  1.00  0.00     0.003 C 
ATOM      6  C   UNL     1       6.655   7.669  12.339  1.00  0.00     0.003 C 
ATOM      7  C   UNL     1       5.232   7.244  12.762  1.00  0.00     0.034 C 
ATOM      8  C   UNL     1       7.743   7.919  13.397  1.00  0.00    -0.029 C 
ATOM      9  C   UNL     1       7.392   7.877  14.897  1.00  0.00     0.012 C 
ATOM     10  C   UNL     1       8.798   8.956  12.996  1.00  0.00     0.012 C 
ENDROOT
TORSDOF 0
ENDMDL
MODEL 5
REMARK VINA RESULT:    -3.534      4.376      6.519
REMARK INTER + INTRA:          -3.534
REMARK INTER:                  -3.534
REMARK INTRA:                   0.000
REMARK UNBOUND:                 0.000
REMARK SMILES CC1=CC[C@H]2[C@@H](C1)C2(C)C
REMARK SMILES IDX 1 1 2 2 3 3 4 4 5 5 6 6 7 7 8 8 9 9 10 10
REMARK H PARENT
REMARK Flexibility Score: inf
ROOT
ATOM      1  C   UNL     1       4.351  16.102  11.959  1.00  0.00     0.039 C 
ATOM      2  C   UNL     1       3.861  14.691  12.140  1.00  0.00    -0.077 C 
ATOM      3  C   UNL     1       3.617  14.229  13.378  1.00  0.00    -0.028 C 
ATOM      4  C   UNL     1       3.133  12.826  13.614  1.00  0.00     0.031 C 
ATOM      5  C   UNL     1       2.133  12.373  12.530  1.00  0.00     0.003 C 
ATOM      6  C   UNL     1       2.409  12.895  11.100  1.00  0.00     0.003 C 
ATOM      7  C   UNL     1       3.649  13.800  10.938  1.00  0.00     0.034 C 
ATOM      8  C   UNL     1       2.571  11.400  11.423  1.00  0.00    -0.029 C 
ATOM      9  C   UNL     1       3.972  10.760  11.460  1.00  0.00     0.012 C 
ATOM     10  C   UNL     1       1.451  10.504  10.881  1.00  0.00     0.012 C 
ENDROOT
TORSDOF 0
ENDMDL
MODEL 6
REMARK VINA RESULT:    -3.410      1.073      4.103
REMARK INTER + INTRA:          -3.410
REMARK INTER:                  -3.410
REMARK INTRA:                   0.000
REMARK UNBOUND:                 0.000
REMARK SMILES CC1=CC[C@H]2[C@@H](C1)C2(C)C
REMARK SMILES IDX 1 1 2 2 3 3 4 4 5 5 6 6 7 7 8 8 9 9 10 10
REMARK H PARENT
REMARK Flexibility Score: inf
ROOT
ATOM      1  C   UNL     1       6.633   4.876  13.315  1.00  0.00     0.039 C 
ATOM      2  C   UNL     1       6.165   6.273  13.009  1.00  0.00    -0.077 C 
ATOM      3  C   UNL     1       7.051   7.283  13.016  1.00  0.00    -0.028 C 
ATOM      4  C   UNL     1       6.635   8.697  12.724  1.00  0.00     0.031 C 
ATOM      5  C   UNL     1       5.564   8.764  11.616  1.00  0.00     0.003 C 
ATOM      6  C   UNL     1       4.536   7.609  11.603  1.00  0.00     0.003 C 
ATOM      7  C   UNL     1       4.710   6.536  12.701  1.00  0.00     0.034 C 
ATOM      8  C   UNL     1       4.092   9.035  11.968  1.00  0.00    -0.029 C 
ATOM      9  C   UNL     1       3.691   9.378  13.416  1.00  0.00     0.012 C 
ATOM     10  C   UNL     1       3.296   9.756  10.875  1.00  0.00     0.012 C 
ENDROOT
TORSDOF 0
ENDMDL
MODEL 7
REMARK VINA RESULT:    -3.344      4.097      6.471
REMARK INTER + INTRA:          -3.344
REMARK INTER:                  -3.344
REMARK INTRA:                   0.000
REMARK UNBOUND:                 0.000
REMARK SMILES CC1=CC[C@H]2[C@@H](C1)C2(C)C
REMARK SMILES IDX 1 1 2 2 3 3 4 4 5 5 6 6 7 7 8 8 9 9 10 10
REMARK H PARENT
REMARK Flexibility Score: inf
ROOT
ATOM      1  C   UNL     1       4.258  16.219  11.957  1.00  0.00     0.039 C 
ATOM      2  C   UNL     1       3.576  14.880  11.871  1.00  0.00    -0.077 C 
ATOM      3  C   UNL     1       2.571  14.705  10.996  1.00  0.00    -0.028 C 
ATOM      4  C   UNL     1       1.852  13.391  10.875  1.00  0.00     0.031 C 
ATOM      5  C   UNL     1       2.814  12.194  11.026  1.00  0.00     0.003 C 
ATOM      6  C   UNL     1       3.971  12.384  12.035  1.00  0.00     0.003 C 
ATOM      7  C   UNL     1       4.016  13.744  12.764  1.00  0.00     0.034 C 
ATOM      8  C   UNL     1       2.845  11.378  12.329  1.00  0.00    -0.029 C 
ATOM      9  C   UNL     1       1.823  11.660  13.447  1.00  0.00     0.012 C 
ATOM     10  C   UNL     1       3.240   9.908  12.152  1.00  0.00     0.012 C 
ENDROOT
TORSDOF 0
ENDMDL
MODEL 8
REMARK VINA RESULT:    -3.274      4.674      6.607
REMARK INTER + INTRA:          -3.274
REMARK INTER:                  -3.274
REMARK INTRA:                   0.000
REMARK UNBOUND:                 0.000
REMARK SMILES CC1=CC[C@H]2[C@@H](C1)C2(C)C
REMARK SMILES IDX 1 1 2 2 3 3 4 4 5 5 6 6 7 7 8 8 9 9 10 10
REMARK H PARENT
REMARK Flexibility Score: inf
ROOT
ATOM      1  C   UNL     1       0.323  10.152  12.242  1.00  0.00     0.039 C 
ATOM      2  C   UNL     1       1.563  11.002  12.160  1.00  0.00    -0.077 C 
ATOM      3  C   UNL     1       2.691  10.478  11.650  1.00  0.00    -0.028 C 
ATOM      4  C   UNL     1       3.958  11.280  11.552  1.00  0.00     0.031 C 
ATOM      5  C   UNL     1       3.680  12.749  11.173  1.00  0.00     0.003 C 
ATOM      6  C   UNL     1       2.387  13.363  11.760  1.00  0.00     0.003 C 
ATOM      7  C   UNL     1       1.540  12.430  12.652  1.00  0.00     0.034 C 
ATOM      8  C   UNL     1       3.764  13.858  12.234  1.00  0.00    -0.029 C 
ATOM      9  C   UNL     1       4.258  13.536  13.658  1.00  0.00     0.012 C 
ATOM     10  C   UNL     1       4.170  15.233  11.691  1.00  0.00     0.012 C 
ENDROOT
TORSDOF 0
ENDMDL
