MODEL 1
REMARK VINA RESULT:    -4.377      0.000      0.000
REMARK INTER + INTRA:          -6.387
REMARK INTER:                  -6.169
REMARK INTRA:                  -0.218
REMARK UNBOUND:                -0.218
REMARK SMILES CCCCCCCCC(=O)[O-]
REMARK SMILES IDX 6 1 7 2 8 3 9 4 10 5 11 6 5 7 4 8 3 9 2 10 1 11
REMARK H PARENT
REMARK Flexibility Score: inf
ROOT
ATOM      1  C   UNL     1     -31.632 -21.418 -21.859  1.00  0.00     0.000 C 
ENDROOT
BRANCH   1   2
ATOM      2  C   UNL     1     -30.316 -22.198 -22.038  1.00  0.00     0.006 C 
BRANCH   2   3
ATOM      3  C   UNL     1     -29.953 -23.107 -20.851  1.00  0.00     0.053 C 
BRANCH   3   4
ATOM      4  C   UNL     1     -29.114 -22.396 -19.835  1.00  0.00     0.041 C 
ATOM      5  O   UNL     1     -29.118 -21.138 -19.777  1.00  0.00    -0.550 OA
ATOM      6  O   UNL     1     -28.352 -23.124 -18.930  1.00  0.00    -0.550 OA
ENDBRANCH   3   4
ENDBRANCH   2   3
ENDBRANCH   1   2
BRANCH   1   7
ATOM      7  C   UNL     1     -32.053 -20.660 -23.127  1.00  0.00     0.000 C 
BRANCH   7   8
ATOM      8  C   UNL     1     -31.362 -21.241 -24.370  1.00  0.00    -0.000 C 
BRANCH   8   9
ATOM      9  C   UNL     1     -31.039 -20.156 -25.418  1.00  0.00    -0.000 C 
BRANCH   9  10
ATOM     10  C   UNL     1     -30.898 -20.706 -26.848  1.00  0.00    -0.003 C 
ATOM     11  C   UNL     1     -31.298 -22.176 -26.968  1.00  0.00     0.004 C 
ENDBRANCH   9  10
ENDBRANCH   8   9
ENDBRANCH   7   8
ENDBRANCH   1   7
TORSDOF 7
ENDMDL
MODEL 2
REMARK VINA RESULT:    -4.352      3.250      6.165
REMARK INTER + INTRA:          -6.351
REMARK INTER:                  -6.060
REMARK INTRA:                  -0.291
REMARK UNBOUND:                -0.218
REMARK SMILES CCCCCCCCC(=O)[O-]
REMARK SMILES IDX 6 1 7 2 8 3 9 4 10 5 11 6 5 7 4 8 3 9 2 10 1 11
REMARK H PARENT
REMARK Flexibility Score: inf
ROOT
ATOM      1  C   UNL     1     -31.241 -21.849 -21.493  1.00  0.00     0.000 C 
ENDROOT
BRANCH   1   2
ATOM      2  C   UNL     1     -31.692 -21.213 -22.821  1.00  0.00     0.006 C 
BRANCH   2   3
ATOM      3  C   UNL     1     -30.647 -21.292 -23.947  1.00  0.00     0.053 C 
BRANCH   3   4
ATOM      4  C   UNL     1     -31.250 -21.029 -25.293  1.00  0.00     0.041 C 
ATOM      5  O   UNL     1     -31.701 -21.981 -25.983  1.00  0.00    -0.550 OA
ATOM      6  O   UNL     1     -31.344 -19.728 -25.770  1.00  0.00    -0.550 OA
ENDBRANCH   3   4
ENDBRANCH   2   3
ENDBRANCH   1   2
BRANCH   1   7
ATOM      7  C   UNL     1     -30.294 -23.040 -21.692  1.00  0.00     0.000 C 
BRANCH   7   8
ATOM      8  C   UNL     1     -28.912 -22.752 -21.087  1.00  0.00    -0.000 C 
BRANCH   8   9
ATOM      9  C   UNL     1     -29.011 -22.122 -19.681  1.00  0.00    -0.000 C 
BRANCH   9  10
ATOM     10  C   UNL     1     -28.771 -23.125 -18.540  1.00  0.00    -0.003 C 
ATOM     11  C   UNL     1     -27.615 -22.726 -17.624  1.00  0.00     0.004 C 
ENDBRANCH   9  10
ENDBRANCH   8   9
ENDBRANCH   7   8
ENDBRANCH   1   7
TORSDOF 7
ENDMDL
MODEL 3
REMARK VINA RESULT:    -4.224      1.719      2.822
REMARK INTER + INTRA:          -6.170
REMARK INTER:                  -5.903
REMARK INTRA:                  -0.267
REMARK UNBOUND:                -0.218
REMARK SMILES CCCCCCCCC(=O)[O-]
REMARK SMILES IDX 6 1 7 2 8 3 9 4 10 5 11 6 5 7 4 8 3 9 2 10 1 11
REMARK H PARENT
REMARK Flexibility Score: inf
ROOT
ATOM      1  C   UNL     1     -28.880 -22.568 -21.269  1.00  0.00     0.000 C 
ENDROOT
BRANCH   1   2
ATOM      2  C   UNL     1     -28.558 -23.117 -19.866  1.00  0.00     0.006 C 
BRANCH   2   3
ATOM      3  C   UNL     1     -28.459 -22.041 -18.772  1.00  0.00     0.053 C 
BRANCH   3   4
ATOM      4  C   UNL     1     -28.207 -22.635 -17.421  1.00  0.00     0.041 C 
ATOM      5  O   UNL     1     -29.166 -23.070 -16.731  1.00  0.00    -0.550 OA
ATOM      6  O   UNL     1     -26.908 -22.737 -16.937  1.00  0.00    -0.550 OA
ENDBRANCH   3   4
ENDBRANCH   2   3
ENDBRANCH   1   2
BRANCH   1   7
ATOM      7  C   UNL     1     -29.952 -21.469 -21.248  1.00  0.00     0.000 C 
BRANCH   7   8
ATOM      8  C   UNL     1     -31.259 -21.963 -21.885  1.00  0.00    -0.000 C 
BRANCH   8   9
ATOM      9  C   UNL     1     -31.763 -21.015 -22.993  1.00  0.00    -0.000 C 
BRANCH   9  10
ATOM     10  C   UNL     1     -31.299 -21.417 -24.404  1.00  0.00    -0.003 C 
ATOM     11  C   UNL     1     -30.831 -20.230 -25.243  1.00  0.00     0.004 C 
ENDBRANCH   9  10
ENDBRANCH   8   9
ENDBRANCH   7   8
ENDBRANCH   1   7
TORSDOF 7
ENDMDL
MODEL 4
REMARK VINA RESULT:    -4.138      3.222      5.166
REMARK INTER + INTRA:          -6.049
REMARK INTER:                  -5.597
REMARK INTRA:                  -0.452
REMARK UNBOUND:                -0.218
REMARK SMILES CCCCCCCCC(=O)[O-]
REMARK SMILES IDX 6 1 7 2 8 3 9 4 10 5 11 6 5 7 4 8 3 9 2 10 1 11
REMARK H PARENT
REMARK Flexibility Score: inf
ROOT
ATOM      1  C   UNL     1     -31.775 -20.803 -21.745  1.00  0.00     0.000 C 
ENDROOT
BRANCH   1   2
ATOM      2  C   UNL     1     -32.124 -20.636 -23.236  1.00  0.00     0.006 C 
BRANCH   2   3
ATOM      3  C   UNL     1     -31.368 -21.591 -24.174  1.00  0.00     0.053 C 
BRANCH   3   4
ATOM      4  C   UNL     1     -31.107 -20.974 -25.514  1.00  0.00     0.041 C 
ATOM      5  O   UNL     1     -31.014 -19.724 -25.629  1.00  0.00    -0.550 OA
ATOM      6  O   UNL     1     -30.933 -21.783 -26.630  1.00  0.00    -0.550 OA
ENDBRANCH   3   4
ENDBRANCH   2   3
ENDBRANCH   1   2
BRANCH   1   7
ATOM      7  C   UNL     1     -31.042 -22.119 -21.448  1.00  0.00     0.000 C 
BRANCH   7   8
ATOM      8  C   UNL     1     -29.628 -21.853 -20.910  1.00  0.00    -0.000 C 
BRANCH   8   9
ATOM      9  C   UNL     1     -28.754 -23.125 -20.910  1.00  0.00    -0.000 C 
BRANCH   9  10
ATOM     10  C   UNL     1     -27.583 -23.066 -21.905  1.00  0.00    -0.003 C 
ATOM     11  C   UNL     1     -27.778 -22.018 -23.000  1.00  0.00     0.004 C 
ENDBRANCH   9  10
ENDBRANCH   8   9
ENDBRANCH   7   8
ENDBRANCH   1   7
TORSDOF 7
ENDMDL
MODEL 5
REMARK VINA RESULT:    -4.070      3.332      6.511
REMARK INTER + INTRA:          -5.953
REMARK INTER:                  -5.701
REMARK INTRA:                  -0.252
REMARK UNBOUND:                -0.218
REMARK SMILES CCCCCCCCC(=O)[O-]
REMARK SMILES IDX 6 1 7 2 8 3 9 4 10 5 11 6 5 7 4 8 3 9 2 10 1 11
REMARK H PARENT
REMARK Flexibility Score: inf
ROOT
ATOM      1  C   UNL     1     -28.756 -22.001 -21.516  1.00  0.00     0.000 C 
ENDROOT
BRANCH   1   2
ATOM      2  C   UNL     1     -30.162 -22.247 -22.093  1.00  0.00     0.006 C 
BRANCH   2   3
ATOM      3  C   UNL     1     -31.241 -21.286 -21.566  1.00  0.00     0.053 C 
BRANCH   3   4
ATOM      4  C   UNL     1     -32.090 -20.735 -22.670  1.00  0.00     0.041 C 
ATOM      5  O   UNL     1     -33.091 -20.019 -22.402  1.00  0.00    -0.550 OA
ATOM      6  O   UNL     1     -31.756 -20.984 -23.995  1.00  0.00    -0.550 OA
ENDBRANCH   3   4
ENDBRANCH   2   3
ENDBRANCH   1   2
BRANCH   1   7
ATOM      7  C   UNL     1     -28.292 -23.122 -20.575  1.00  0.00     0.000 C 
BRANCH   7   8
ATOM      8  C   UNL     1     -28.996 -23.024 -19.213  1.00  0.00    -0.000 C 
BRANCH   8   9
ATOM      9  C   UNL     1     -28.104 -22.363 -18.142  1.00  0.00    -0.000 C 
BRANCH   9  10
ATOM     10  C   UNL     1     -28.080 -23.125 -16.806  1.00  0.00    -0.003 C 
ATOM     11  C   UNL     1     -29.406 -23.055 -16.051  1.00  0.00     0.004 C 
ENDBRANCH   9  10
ENDBRANCH   8   9
ENDBRANCH   7   8
ENDBRANCH   1   7
TORSDOF 7
ENDMDL
MODEL 6
REMARK VINA RESULT:    -3.441      1.399      2.643
REMARK INTER + INTRA:          -5.067
REMARK INTER:                  -4.577
REMARK INTRA:                  -0.490
REMARK UNBOUND:                -0.218
REMARK SMILES CCCCCCCCC(=O)[O-]
REMARK SMILES IDX 6 1 7 2 8 3 9 4 10 5 11 6 5 7 4 8 3 9 2 10 1 11
REMARK H PARENT
REMARK Flexibility Score: inf
ROOT
ATOM      1  C   UNL     1     -28.426 -21.316 -23.470  1.00  0.00     0.000 C 
ENDROOT
BRANCH   1   2
ATOM      2  C   UNL     1     -27.986 -22.376 -22.443  1.00  0.00     0.006 C 
BRANCH   2   3
ATOM      3  C   UNL     1     -29.103 -22.842 -21.495  1.00  0.00     0.053 C 
BRANCH   3   4
ATOM      4  C   UNL     1     -29.127 -22.054 -20.222  1.00  0.00     0.041 C 
ATOM      5  O   UNL     1     -29.535 -20.863 -20.221  1.00  0.00    -0.550 OA
ATOM      6  O   UNL     1     -28.728 -22.647 -19.030  1.00  0.00    -0.550 OA
ENDBRANCH   3   4
ENDBRANCH   2   3
ENDBRANCH   1   2
BRANCH   1   7
ATOM      7  C   UNL     1     -29.686 -21.725 -24.246  1.00  0.00     0.000 C 
BRANCH   7   8
ATOM      8  C   UNL     1     -30.258 -20.535 -25.033  1.00  0.00    -0.000 C 
BRANCH   8   9
ATOM      9  C   UNL     1     -31.682 -20.161 -24.571  1.00  0.00    -0.000 C 
BRANCH   9  10
ATOM     10  C   UNL     1     -32.045 -20.718 -23.184  1.00  0.00    -0.003 C 
ATOM     11  C   UNL     1     -32.790 -19.711 -22.309  1.00  0.00     0.004 C 
ENDBRANCH   9  10
ENDBRANCH   8   9
ENDBRANCH   7   8
ENDBRANCH   1   7
TORSDOF 7
ENDMDL
MODEL 7
REMARK VINA RESULT:    -3.432      1.907      2.751
REMARK INTER + INTRA:          -5.054
REMARK INTER:                  -4.840
REMARK INTRA:                  -0.214
REMARK UNBOUND:                -0.218
REMARK SMILES CCCCCCCCC(=O)[O-]
REMARK SMILES IDX 6 1 7 2 8 3 9 4 10 5 11 6 5 7 4 8 3 9 2 10 1 11
REMARK H PARENT
REMARK Flexibility Score: inf
ROOT
ATOM      1  C   UNL     1     -30.155 -21.209 -20.927  1.00  0.00     0.000 C 
ENDROOT
BRANCH   1   2
ATOM      2  C   UNL     1     -28.981 -21.322 -19.936  1.00  0.00     0.006 C 
BRANCH   2   3
ATOM      3  C   UNL     1     -28.865 -22.691 -19.246  1.00  0.00     0.053 C 
BRANCH   3   4
ATOM      4  C   UNL     1     -28.230 -22.586 -17.893  1.00  0.00     0.041 C 
ATOM      5  O   UNL     1     -27.132 -21.986 -17.753  1.00  0.00    -0.550 OA
ATOM      6  O   UNL     1     -28.869 -23.124 -16.783  1.00  0.00    -0.550 OA
ENDBRANCH   3   4
ENDBRANCH   2   3
ENDBRANCH   1   2
BRANCH   1   7
ATOM      7  C   UNL     1     -30.123 -22.291 -22.016  1.00  0.00     0.000 C 
BRANCH   7   8
ATOM      8  C   UNL     1     -31.291 -22.119 -22.998  1.00  0.00    -0.000 C 
BRANCH   8   9
ATOM      9  C   UNL     1     -31.036 -20.985 -24.013  1.00  0.00    -0.000 C 
BRANCH   9  10
ATOM     10  C   UNL     1     -31.990 -19.789 -23.851  1.00  0.00    -0.003 C 
ATOM     11  C   UNL     1     -32.820 -19.853 -22.570  1.00  0.00     0.004 C 
ENDBRANCH   9  10
ENDBRANCH   8   9
ENDBRANCH   7   8
ENDBRANCH   1   7
TORSDOF 7
ENDMDL
