MODEL 1
REMARK VINA RESULT:    -3.068      0.000      0.000
REMARK INTER + INTRA:          -3.432
REMARK INTER:                  -3.427
REMARK INTRA:                  -0.005
REMARK UNBOUND:                -0.005
REMARK SMILES CCCC(=O)[O-]
REMARK SMILES IDX 3 1 4 2 5 3 6 4 2 5 1 6
REMARK H PARENT
REMARK Flexibility Score: inf
ROOT
ATOM      1  C   UNL     1      -0.336   6.569  -9.086  1.00  0.00     0.052 C 
ENDROOT
BRANCH   1   2
ATOM      2  C   UNL     1       0.867   7.215  -8.470  1.00  0.00     0.041 C 
ATOM      3  O   UNL     1       1.960   7.248  -9.096  1.00  0.00    -0.550 OA
ATOM      4  O   UNL     1       0.789   7.752  -7.191  1.00  0.00    -0.550 OA
ENDBRANCH   1   2
BRANCH   1   5
ATOM      5  C   UNL     1      -1.541   7.519  -9.111  1.00  0.00     0.003 C 
ATOM      6  C   UNL     1      -2.490   7.223 -10.272  1.00  0.00     0.004 C 
ENDBRANCH   1   5
TORSDOF 2
ENDMDL
MODEL 2
REMARK VINA RESULT:    -3.051      0.118      1.325
REMARK INTER + INTRA:          -3.414
REMARK INTER:                  -3.407
REMARK INTRA:                  -0.006
REMARK UNBOUND:                -0.005
REMARK SMILES CCCC(=O)[O-]
REMARK SMILES IDX 3 1 4 2 5 3 6 4 2 5 1 6
REMARK H PARENT
REMARK Flexibility Score: inf
ROOT
ATOM      1  C   UNL     1      -0.245   6.608  -9.094  1.00  0.00     0.052 C 
ENDROOT
BRANCH   1   2
ATOM      2  C   UNL     1       0.922   7.248  -8.408  1.00  0.00     0.041 C 
ATOM      3  O   UNL     1       0.790   7.738  -7.256  1.00  0.00    -0.550 OA
ATOM      4  O   UNL     1       2.149   7.330  -9.054  1.00  0.00    -0.550 OA
ENDBRANCH   1   2
BRANCH   1   5
ATOM      5  C   UNL     1      -1.490   7.504  -9.052  1.00  0.00     0.003 C 
ATOM      6  C   UNL     1      -2.477   7.182 -10.174  1.00  0.00     0.004 C 
ENDBRANCH   1   5
TORSDOF 2
ENDMDL
MODEL 3
REMARK VINA RESULT:    -3.040      2.238      3.262
REMARK INTER + INTRA:          -3.400
REMARK INTER:                  -3.370
REMARK INTRA:                  -0.031
REMARK UNBOUND:                -0.005
REMARK SMILES CCCC(=O)[O-]
REMARK SMILES IDX 3 1 4 2 5 3 6 4 2 5 1 6
REMARK H PARENT
REMARK Flexibility Score: inf
ROOT
ATOM      1  C   UNL     1      -0.087   7.090  -9.706  1.00  0.00     0.052 C 
ENDROOT
BRANCH   1   2
ATOM      2  C   UNL     1      -1.520   7.171  -9.276  1.00  0.00     0.041 C 
ATOM      3  O   UNL     1      -2.381   6.413  -9.794  1.00  0.00    -0.550 OA
ATOM      4  O   UNL     1      -1.908   8.107  -8.326  1.00  0.00    -0.550 OA
ENDBRANCH   1   2
BRANCH   1   5
ATOM      5  C   UNL     1       0.801   8.056  -8.910  1.00  0.00     0.003 C 
ATOM      6  C   UNL     1       1.469   7.379  -7.713  1.00  0.00     0.004 C 
ENDBRANCH   1   5
TORSDOF 2
ENDMDL
MODEL 4
REMARK VINA RESULT:    -3.031      1.973      3.245
REMARK INTER + INTRA:          -3.391
REMARK INTER:                  -3.341
REMARK INTRA:                  -0.050
REMARK UNBOUND:                -0.005
REMARK SMILES CCCC(=O)[O-]
REMARK SMILES IDX 3 1 4 2 5 3 6 4 2 5 1 6
REMARK H PARENT
REMARK Flexibility Score: inf
ROOT
ATOM      1  C   UNL     1       1.457   7.324  -8.309  1.00  0.00     0.052 C 
ENDROOT
BRANCH   1   2
ATOM      2  C   UNL     1      -0.015   7.181  -8.549  1.00  0.00     0.041 C 
ATOM      3  O   UNL     1      -0.832   7.914  -7.932  1.00  0.00    -0.550 OA
ATOM      4  O   UNL     1      -0.485   6.216  -9.430  1.00  0.00    -0.550 OA
ENDBRANCH   1   2
BRANCH   1   5
ATOM      5  C   UNL     1       2.163   7.997  -9.493  1.00  0.00     0.003 C 
ATOM      6  C   UNL     1       1.933   9.508  -9.524  1.00  0.00     0.004 C 
ENDBRANCH   1   5
TORSDOF 2
ENDMDL
MODEL 5
REMARK VINA RESULT:    -2.998      2.099      2.524
REMARK INTER + INTRA:          -3.354
REMARK INTER:                  -3.304
REMARK INTRA:                  -0.050
REMARK UNBOUND:                -0.005
REMARK SMILES CCCC(=O)[O-]
REMARK SMILES IDX 3 1 4 2 5 3 6 4 2 5 1 6
REMARK H PARENT
REMARK Flexibility Score: inf
ROOT
ATOM      1  C   UNL     1       1.735   7.414  -8.399  1.00  0.00     0.052 C 
ENDROOT
BRANCH   1   2
ATOM      2  C   UNL     1       2.181   7.931  -9.733  1.00  0.00     0.041 C 
ATOM      3  O   UNL     1       1.938   7.276 -10.781  1.00  0.00    -0.550 OA
ATOM      4  O   UNL     1       2.892   9.122  -9.814  1.00  0.00    -0.550 OA
ENDBRANCH   1   2
BRANCH   1   5
ATOM      5  C   UNL     1       0.552   8.217  -7.844  1.00  0.00     0.003 C 
ATOM      6  C   UNL     1      -0.768   7.851  -8.523  1.00  0.00     0.004 C 
ENDBRANCH   1   5
TORSDOF 2
ENDMDL
MODEL 6
REMARK VINA RESULT:    -2.995      2.645      3.639
REMARK INTER + INTRA:          -3.351
REMARK INTER:                  -3.326
REMARK INTRA:                  -0.025
REMARK UNBOUND:                -0.005
REMARK SMILES CCCC(=O)[O-]
REMARK SMILES IDX 3 1 4 2 5 3 6 4 2 5 1 6
REMARK H PARENT
REMARK Flexibility Score: inf
ROOT
ATOM      1  C   UNL     1      -0.136   7.499 -10.107  1.00  0.00     0.052 C 
ENDROOT
BRANCH   1   2
ATOM      2  C   UNL     1      -1.263   6.584 -10.480  1.00  0.00     0.041 C 
ATOM      3  O   UNL     1      -2.252   6.450  -9.712  1.00  0.00    -0.550 OA
ATOM      4  O   UNL     1      -1.204   5.855 -11.660  1.00  0.00    -0.550 OA
ENDBRANCH   1   2
BRANCH   1   5
ATOM      5  C   UNL     1       0.572   7.036  -8.827  1.00  0.00     0.003 C 
ATOM      6  C   UNL     1       0.760   8.173  -7.823  1.00  0.00     0.004 C 
ENDBRANCH   1   5
TORSDOF 2
ENDMDL
MODEL 7
REMARK VINA RESULT:    -2.994      1.986      2.900
REMARK INTER + INTRA:          -3.350
REMARK INTER:                  -3.307
REMARK INTRA:                  -0.043
REMARK UNBOUND:                -0.005
REMARK SMILES CCCC(=O)[O-]
REMARK SMILES IDX 3 1 4 2 5 3 6 4 2 5 1 6
REMARK H PARENT
REMARK Flexibility Score: inf
ROOT
ATOM      1  C   UNL     1       1.479   7.292  -8.468  1.00  0.00     0.052 C 
ENDROOT
BRANCH   1   2
ATOM      2  C   UNL     1      -0.005   7.104  -8.545  1.00  0.00     0.041 C 
ATOM      3  O   UNL     1      -0.489   6.132  -9.183  1.00  0.00    -0.550 OA
ATOM      4  O   UNL     1      -0.854   8.021  -7.940  1.00  0.00    -0.550 OA
ENDBRANCH   1   2
BRANCH   1   5
ATOM      5  C   UNL     1       1.967   8.370  -9.444  1.00  0.00     0.003 C 
ATOM      6  C   UNL     1       2.095   7.844 -10.874  1.00  0.00     0.004 C 
ENDBRANCH   1   5
TORSDOF 2
ENDMDL
MODEL 8
REMARK VINA RESULT:    -2.815     14.089     14.505
REMARK INTER + INTRA:          -3.150
REMARK INTER:                  -3.122
REMARK INTRA:                  -0.027
REMARK UNBOUND:                -0.005
REMARK SMILES CCCC(=O)[O-]
REMARK SMILES IDX 3 1 4 2 5 3 6 4 2 5 1 6
REMARK H PARENT
REMARK Flexibility Score: inf
ROOT
ATOM      1  C   UNL     1      -1.002  -5.051  -2.799  1.00  0.00     0.052 C 
ENDROOT
BRANCH   1   2
ATOM      2  C   UNL     1       0.280  -5.675  -2.341  1.00  0.00     0.041 C 
ATOM      3  O   UNL     1       0.384  -6.124  -1.169  1.00  0.00    -0.550 OA
ATOM      4  O   UNL     1       1.371  -5.733  -3.199  1.00  0.00    -0.550 OA
ENDBRANCH   1   2
BRANCH   1   5
ATOM      5  C   UNL     1      -2.222  -5.711  -2.144  1.00  0.00     0.003 C 
ATOM      6  C   UNL     1      -3.231  -4.686  -1.628  1.00  0.00     0.004 C 
ENDBRANCH   1   5
TORSDOF 2
ENDMDL
MODEL 9
REMARK VINA RESULT:    -2.771     10.845     11.414
REMARK INTER + INTRA:          -3.100
REMARK INTER:                  -3.095
REMARK INTRA:                  -0.005
REMARK UNBOUND:                -0.005
REMARK SMILES CCCC(=O)[O-]
REMARK SMILES IDX 3 1 4 2 5 3 6 4 2 5 1 6
REMARK H PARENT
REMARK Flexibility Score: inf
ROOT
ATOM      1  C   UNL     1      10.604   9.856  -5.227  1.00  0.00     0.052 C 
ENDROOT
BRANCH   1   2
ATOM      2  C   UNL     1      11.145   8.469  -5.398  1.00  0.00     0.041 C 
ATOM      3  O   UNL     1      11.160   7.670  -4.425  1.00  0.00    -0.550 OA
ATOM      4  O   UNL     1      11.662   8.071  -6.624  1.00  0.00    -0.550 OA
ENDBRANCH   1   2
BRANCH   1   5
ATOM      5  C   UNL     1       9.187   9.987  -5.800  1.00  0.00     0.003 C 
ATOM      6  C   UNL     1       8.593  11.377  -5.569  1.00  0.00     0.004 C 
ENDBRANCH   1   5
TORSDOF 2
ENDMDL
