MODEL 1
REMARK VINA RESULT:    -4.467      0.000      0.000
REMARK INTER + INTRA:          -6.675
REMARK INTER:                  -6.164
REMARK INTRA:                  -0.511
REMARK UNBOUND:                -0.511
REMARK SMILES OC[C@@H](O)[C@@H](O)[C@@H](O)CO
REMARK SMILES IDX 5 1 7 2 9 3 10 4 8 6 3 8 2 9 1 10 4 12 6 14
REMARK H PARENT 10 5 8 7 1 11 4 13 6 15
REMARK Flexibility Score: inf
ROOT
ATOM      1  C   UNL     1       2.533  14.496  22.368  1.00  0.00     0.176 C 
ENDROOT
BRANCH   1   2
ATOM      2  C   UNL     1       1.017  14.871  22.401  1.00  0.00     0.171 C 
BRANCH   2   3
ATOM      3  C   UNL     1       0.705  16.291  22.922  1.00  0.00     0.190 C 
BRANCH   3   4
ATOM      4  O   UNL     1       1.386  16.545  24.121  1.00  0.00    -0.394 OA
ATOM      5  H   UNL     1       2.176  17.095  23.880  1.00  0.00     0.210 HD
ENDBRANCH   3   4
ENDBRANCH   2   3
BRANCH   2   6
ATOM      6  O   UNL     1       0.286  13.923  23.141  1.00  0.00    -0.388 OA
ATOM      7  H   UNL     1       0.066  14.330  24.019  1.00  0.00     0.211 HD
ENDBRANCH   2   6
ENDBRANCH   1   2
BRANCH   1   8
ATOM      8  C   UNL     1       2.905  13.315  21.418  1.00  0.00     0.171 C 
BRANCH   8   9
ATOM      9  C   UNL     1       3.623  12.112  22.074  1.00  0.00     0.190 C 
BRANCH   9  10
ATOM     10  O   UNL     1       4.852  11.850  21.452  1.00  0.00    -0.394 OA
ATOM     11  H   UNL     1       4.702  11.933  20.474  1.00  0.00     0.210 HD
ENDBRANCH   9  10
ENDBRANCH   8   9
BRANCH   8  12
ATOM     12  O   UNL     1       1.758  12.876  20.735  1.00  0.00    -0.388 OA
ATOM     13  H   UNL     1       1.827  13.192  19.796  1.00  0.00     0.211 HD
ENDBRANCH   8  12
ENDBRANCH   1   8
BRANCH   1  14
ATOM     14  O   UNL     1       3.360  15.621  22.187  1.00  0.00    -0.388 OA
ATOM     15  H   UNL     1       2.792  16.383  21.911  1.00  0.00     0.211 HD
ENDBRANCH   1  14
TORSDOF 9
ENDMDL
MODEL 2
REMARK VINA RESULT:    -4.448      4.913      6.855
REMARK INTER + INTRA:          -6.650
REMARK INTER:                  -6.131
REMARK INTRA:                  -0.519
REMARK UNBOUND:                -0.511
REMARK SMILES OC[C@@H](O)[C@@H](O)[C@@H](O)CO
REMARK SMILES IDX 5 1 7 2 9 3 10 4 8 6 3 8 2 9 1 10 4 12 6 14
REMARK H PARENT 10 5 8 7 1 11 4 13 6 15
REMARK Flexibility Score: inf
ROOT
ATOM      1  C   UNL     1      -2.527  10.888  22.260  1.00  0.00     0.176 C 
ENDROOT
BRANCH   1   2
ATOM      2  C   UNL     1      -1.031  10.438  22.259  1.00  0.00     0.171 C 
BRANCH   2   3
ATOM      3  C   UNL     1      -0.765   9.049  22.879  1.00  0.00     0.190 C 
BRANCH   3   4
ATOM      4  O   UNL     1      -1.455   8.901  24.090  1.00  0.00    -0.394 OA
ATOM      5  H   UNL     1      -1.630   7.929  24.193  1.00  0.00     0.210 HD
ENDBRANCH   3   4
ENDBRANCH   2   3
BRANCH   2   6
ATOM      6  O   UNL     1      -0.221  11.401  22.888  1.00  0.00    -0.388 OA
ATOM      7  H   UNL     1      -0.766  11.840  23.593  1.00  0.00     0.211 HD
ENDBRANCH   2   6
ENDBRANCH   1   2
BRANCH   1   8
ATOM      8  C   UNL     1      -2.884  12.010  21.236  1.00  0.00     0.171 C 
BRANCH   8   9
ATOM      9  C   UNL     1      -3.605  13.253  21.810  1.00  0.00     0.190 C 
BRANCH   9  10
ATOM     10  O   UNL     1      -4.974  13.232  21.507  1.00  0.00    -0.394 OA
ATOM     11  H   UNL     1      -5.050  13.115  20.525  1.00  0.00     0.210 HD
ENDBRANCH   9  10
ENDBRANCH   8   9
BRANCH   8  12
ATOM     12  O   UNL     1      -1.727  12.404  20.541  1.00  0.00    -0.388 OA
ATOM     13  H   UNL     1      -1.912  13.287  20.125  1.00  0.00     0.211 HD
ENDBRANCH   8  12
ENDBRANCH   1   8
BRANCH   1  14
ATOM     14  O   UNL     1      -3.415   9.797  22.203  1.00  0.00    -0.388 OA
ATOM     15  H   UNL     1      -2.958   9.048  21.746  1.00  0.00     0.211 HD
ENDBRANCH   1  14
TORSDOF 9
ENDMDL
MODEL 3
REMARK VINA RESULT:    -4.412      3.665      4.906
REMARK INTER + INTRA:          -6.600
REMARK INTER:                  -6.139
REMARK INTRA:                  -0.460
REMARK UNBOUND:                -0.511
REMARK SMILES OC[C@@H](O)[C@@H](O)[C@@H](O)CO
REMARK SMILES IDX 5 1 7 2 9 3 10 4 8 6 3 8 2 9 1 10 4 12 6 14
REMARK H PARENT 10 5 8 7 1 11 4 13 6 15
REMARK Flexibility Score: inf
ROOT
ATOM      1  C   UNL     1      -1.093  16.287  22.196  1.00  0.00     0.176 C 
ENDROOT
BRANCH   1   2
ATOM      2  C   UNL     1      -2.079  15.459  21.311  1.00  0.00     0.171 C 
BRANCH   2   3
ATOM      3  C   UNL     1      -2.890  16.284  20.288  1.00  0.00     0.190 C 
BRANCH   3   4
ATOM      4  O   UNL     1      -3.402  15.462  19.275  1.00  0.00    -0.394 OA
ATOM      5  H   UNL     1      -4.375  15.379  19.450  1.00  0.00     0.210 HD
ENDBRANCH   3   4
ENDBRANCH   2   3
BRANCH   2   6
ATOM      6  O   UNL     1      -2.955  14.705  22.113  1.00  0.00    -0.388 OA
ATOM      7  H   UNL     1      -3.680  14.362  21.528  1.00  0.00     0.211 HD
ENDBRANCH   2   6
ENDBRANCH   1   2
BRANCH   1   8
ATOM      8  C   UNL     1      -0.269  15.455  23.228  1.00  0.00     0.171 C 
BRANCH   8   9
ATOM      9  C   UNL     1       1.172  15.946  23.505  1.00  0.00     0.190 C 
BRANCH   9  10
ATOM     10  O   UNL     1       1.175  17.252  24.017  1.00  0.00    -0.394 OA
ATOM     11  H   UNL     1       0.564  17.256  24.798  1.00  0.00     0.210 HD
ENDBRANCH   9  10
ENDBRANCH   8   9
BRANCH   8  12
ATOM     12  O   UNL     1      -0.983  15.354  24.435  1.00  0.00    -0.388 OA
ATOM     13  H   UNL     1      -1.837  15.848  24.322  1.00  0.00     0.211 HD
ENDBRANCH   8  12
ENDBRANCH   1   8
BRANCH   1  14
ATOM     14  O   UNL     1      -0.290  17.157  21.434  1.00  0.00    -0.388 OA
ATOM     15  H   UNL     1       0.425  17.512  22.019  1.00  0.00     0.211 HD
ENDBRANCH   1  14
TORSDOF 9
ENDMDL
MODEL 4
REMARK VINA RESULT:    -4.395      4.775      6.603
REMARK INTER + INTRA:          -6.576
REMARK INTER:                  -6.115
REMARK INTRA:                  -0.461
REMARK UNBOUND:                -0.511
REMARK SMILES OC[C@@H](O)[C@@H](O)[C@@H](O)CO
REMARK SMILES IDX 5 1 7 2 9 3 10 4 8 6 3 8 2 9 1 10 4 12 6 14
REMARK H PARENT 10 5 8 7 1 11 4 13 6 15
REMARK Flexibility Score: inf
ROOT
ATOM      1  C   UNL     1       1.131   8.820  22.187  1.00  0.00     0.176 C 
ENDROOT
BRANCH   1   2
ATOM      2  C   UNL     1       2.134   9.637  21.310  1.00  0.00     0.171 C 
BRANCH   2   3
ATOM      3  C   UNL     1       2.940   8.803  20.290  1.00  0.00     0.190 C 
BRANCH   3   4
ATOM      4  O   UNL     1       3.469   9.621  19.283  1.00  0.00    -0.394 OA
ATOM      5  H   UNL     1       3.436   9.087  18.447  1.00  0.00     0.210 HD
ENDBRANCH   3   4
ENDBRANCH   2   3
BRANCH   2   6
ATOM      6  O   UNL     1       3.014  10.378  22.119  1.00  0.00    -0.388 OA
ATOM      7  H   UNL     1       3.900   9.931  22.089  1.00  0.00     0.211 HD
ENDBRANCH   2   6
ENDBRANCH   1   2
BRANCH   1   8
ATOM      8  C   UNL     1       0.310   9.661  23.214  1.00  0.00     0.171 C 
BRANCH   8   9
ATOM      9  C   UNL     1      -1.136   9.184  23.485  1.00  0.00     0.190 C 
BRANCH   9  10
ATOM     10  O   UNL     1      -1.154   7.886  24.016  1.00  0.00    -0.394 OA
ATOM     11  H   UNL     1      -0.270   7.738  24.442  1.00  0.00     0.210 HD
ENDBRANCH   9  10
ENDBRANCH   8   9
BRANCH   8  12
ATOM     12  O   UNL     1       1.019   9.756  24.425  1.00  0.00    -0.388 OA
ATOM     13  H   UNL     1       1.873  10.228  24.238  1.00  0.00     0.211 HD
ENDBRANCH   8  12
ENDBRANCH   1   8
BRANCH   1  14
ATOM     14  O   UNL     1       0.324   7.960  21.419  1.00  0.00    -0.388 OA
ATOM     15  H   UNL     1       0.912   7.426  20.830  1.00  0.00     0.211 HD
ENDBRANCH   1  14
TORSDOF 9
ENDMDL
MODEL 5
REMARK VINA RESULT:    -4.377      4.528      5.612
REMARK INTER + INTRA:          -6.551
REMARK INTER:                  -6.068
REMARK INTRA:                  -0.484
REMARK UNBOUND:                -0.511
REMARK SMILES OC[C@@H](O)[C@@H](O)[C@@H](O)CO
REMARK SMILES IDX 5 1 7 2 9 3 10 4 8 6 3 8 2 9 1 10 4 12 6 14
REMARK H PARENT 10 5 8 7 1 11 4 13 6 15
REMARK Flexibility Score: inf
ROOT
ATOM      1  C   UNL     1       0.825   9.144  21.748  1.00  0.00     0.176 C 
ENDROOT
BRANCH   1   2
ATOM      2  C   UNL     1       0.309   9.845  23.045  1.00  0.00     0.171 C 
BRANCH   2   3
ATOM      3  C   UNL     1      -1.104   9.421  23.499  1.00  0.00     0.190 C 
BRANCH   3   4
ATOM      4  O   UNL     1      -1.075   8.163  24.115  1.00  0.00    -0.394 OA
ATOM      5  H   UNL     1      -1.349   8.309  25.057  1.00  0.00     0.210 HD
ENDBRANCH   3   4
ENDBRANCH   2   3
BRANCH   2   6
ATOM      6  O   UNL     1       0.364  11.245  22.909  1.00  0.00    -0.388 OA
ATOM      7  H   UNL     1      -0.434  11.530  22.391  1.00  0.00     0.211 HD
ENDBRANCH   2   6
ENDBRANCH   1   2
BRANCH   1   8
ATOM      8  C   UNL     1       2.377   9.109  21.585  1.00  0.00     0.171 C 
BRANCH   8   9
ATOM      9  C   UNL     1       2.907   8.692  20.192  1.00  0.00     0.190 C 
BRANCH   9  10
ATOM     10  O   UNL     1       3.627   9.734  19.589  1.00  0.00    -0.394 OA
ATOM     11  H   UNL     1       3.861   9.430  18.673  1.00  0.00     0.210 HD
ENDBRANCH   9  10
ENDBRANCH   8   9
BRANCH   8  12
ATOM     12  O   UNL     1       2.922  10.351  21.955  1.00  0.00    -0.388 OA
ATOM     13  H   UNL     1       2.634  10.541  22.886  1.00  0.00     0.211 HD
ENDBRANCH   8  12
ENDBRANCH   1   8
BRANCH   1  14
ATOM     14  O   UNL     1       0.228   7.886  21.545  1.00  0.00    -0.388 OA
ATOM     15  H   UNL     1       0.257   7.387  22.398  1.00  0.00     0.211 HD
ENDBRANCH   1  14
TORSDOF 9
ENDMDL
MODEL 6
REMARK VINA RESULT:    -4.330      2.953      4.779
REMARK INTER + INTRA:          -6.487
REMARK INTER:                  -5.791
REMARK INTRA:                  -0.696
REMARK UNBOUND:                -0.511
REMARK SMILES OC[C@@H](O)[C@@H](O)[C@@H](O)CO
REMARK SMILES IDX 5 1 7 2 9 3 10 4 8 6 3 8 2 9 1 10 4 12 6 14
REMARK H PARENT 10 5 8 7 1 11 4 13 6 15
REMARK Flexibility Score: inf
ROOT
ATOM      1  C   UNL     1      -0.780  15.712  21.763  1.00  0.00     0.176 C 
ENDROOT
BRANCH   1   2
ATOM      2  C   UNL     1      -0.075  15.119  23.026  1.00  0.00     0.171 C 
BRANCH   2   3
ATOM      3  C   UNL     1       1.282  15.765  23.382  1.00  0.00     0.190 C 
BRANCH   3   4
ATOM      4  O   UNL     1       1.096  16.981  24.052  1.00  0.00    -0.394 OA
ATOM      5  H   UNL     1       0.218  16.914  24.511  1.00  0.00     0.210 HD
ENDBRANCH   3   4
ENDBRANCH   2   3
BRANCH   2   6
ATOM      6  O   UNL     1       0.080  13.726  22.901  1.00  0.00    -0.388 OA
ATOM      7  H   UNL     1       0.980  13.491  23.250  1.00  0.00     0.211 HD
ENDBRANCH   2   6
ENDBRANCH   1   2
BRANCH   1   8
ATOM      8  C   UNL     1      -2.334  15.577  21.746  1.00  0.00     0.171 C 
BRANCH   8   9
ATOM      9  C   UNL     1      -2.986  15.377  20.357  1.00  0.00     0.190 C 
BRANCH   9  10
ATOM     10  O   UNL     1      -2.601  16.388  19.464  1.00  0.00    -0.394 OA
ATOM     11  H   UNL     1      -2.953  16.132  18.571  1.00  0.00     0.210 HD
ENDBRANCH   9  10
ENDBRANCH   8   9
BRANCH   8  12
ATOM     12  O   UNL     1      -2.732  14.546  22.615  1.00  0.00    -0.388 OA
ATOM     13  H   UNL     1      -2.947  13.751  22.062  1.00  0.00     0.211 HD
ENDBRANCH   8  12
ENDBRANCH   1   8
BRANCH   1  14
ATOM     14  O   UNL     1      -0.344  17.017  21.469  1.00  0.00    -0.388 OA
ATOM     15  H   UNL     1      -1.084  17.499  21.024  1.00  0.00     0.211 HD
ENDBRANCH   1  14
TORSDOF 9
ENDMDL
MODEL 7
REMARK VINA RESULT:    -4.326      3.805      5.337
REMARK INTER + INTRA:          -6.481
REMARK INTER:                  -6.387
REMARK INTRA:                  -0.094
REMARK UNBOUND:                -0.511
REMARK SMILES OC[C@@H](O)[C@@H](O)[C@@H](O)CO
REMARK SMILES IDX 5 1 7 2 9 3 10 4 8 6 3 8 2 9 1 10 4 12 6 14
REMARK H PARENT 10 5 8 7 1 11 4 13 6 15
REMARK Flexibility Score: inf
ROOT
ATOM      1  C   UNL     1      -2.004  15.777  22.299  1.00  0.00     0.176 C 
ENDROOT
BRANCH   1   2
ATOM      2  C   UNL     1      -0.457  15.961  22.184  1.00  0.00     0.171 C 
BRANCH   2   3
ATOM      3  C   UNL     1       0.325  15.762  23.500  1.00  0.00     0.190 C 
BRANCH   3   4
ATOM      4  O   UNL     1       0.993  16.939  23.867  1.00  0.00    -0.394 OA
ATOM      5  H   UNL     1       1.933  16.828  23.569  1.00  0.00     0.210 HD
ENDBRANCH   3   4
ENDBRANCH   2   3
BRANCH   2   6
ATOM      6  O   UNL     1      -0.145  17.216  21.631  1.00  0.00    -0.388 OA
ATOM      7  H   UNL     1      -0.362  17.908  22.310  1.00  0.00     0.211 HD
ENDBRANCH   2   6
ENDBRANCH   1   2
BRANCH   1   8
ATOM      8  C   UNL     1      -2.620  14.711  21.340  1.00  0.00     0.171 C 
BRANCH   8   9
ATOM      9  C   UNL     1      -3.360  13.532  22.016  1.00  0.00     0.190 C 
BRANCH   9  10
ATOM     10  O   UNL     1      -4.644  13.361  21.480  1.00  0.00    -0.394 OA
ATOM     11  H   UNL     1      -5.089  12.657  22.019  1.00  0.00     0.210 HD
ENDBRANCH   9  10
ENDBRANCH   8   9
BRANCH   8  12
ATOM     12  O   UNL     1      -3.467  15.340  20.412  1.00  0.00    -0.388 OA
ATOM     13  H   UNL     1      -4.120  14.663  20.092  1.00  0.00     0.211 HD
ENDBRANCH   8  12
ENDBRANCH   1   8
BRANCH   1  14
ATOM     14  O   UNL     1      -2.428  15.619  23.632  1.00  0.00    -0.388 OA
ATOM     15  H   UNL     1      -3.309  16.057  23.733  1.00  0.00     0.211 HD
ENDBRANCH   1  14
TORSDOF 9
ENDMDL
MODEL 8
REMARK VINA RESULT:    -4.278      4.616      6.329
REMARK INTER + INTRA:          -6.415
REMARK INTER:                  -5.602
REMARK INTRA:                  -0.813
REMARK UNBOUND:                -0.511
REMARK SMILES OC[C@@H](O)[C@@H](O)[C@@H](O)CO
REMARK SMILES IDX 5 1 7 2 9 3 10 4 8 6 3 8 2 9 1 10 4 12 6 14
REMARK H PARENT 10 5 8 7 1 11 4 13 6 15
REMARK Flexibility Score: inf
ROOT
ATOM      1  C   UNL     1      -3.012  11.835  21.396  1.00  0.00     0.176 C 
ENDROOT
BRANCH   1   2
ATOM      2  C   UNL     1      -2.726  10.679  22.407  1.00  0.00     0.171 C 
BRANCH   2   3
ATOM      3  C   UNL     1      -1.239  10.292  22.556  1.00  0.00     0.190 C 
BRANCH   3   4
ATOM      4  O   UNL     1      -0.465  11.407  22.907  1.00  0.00    -0.394 OA
ATOM      5  H   UNL     1       0.443  11.062  23.105  1.00  0.00     0.210 HD
ENDBRANCH   3   4
ENDBRANCH   2   3
BRANCH   2   6
ATOM      6  O   UNL     1      -3.483   9.537  22.083  1.00  0.00    -0.388 OA
ATOM      7  H   UNL     1      -4.260   9.834  21.541  1.00  0.00     0.211 HD
ENDBRANCH   2   6
ENDBRANCH   1   2
BRANCH   1   8
ATOM      8  C   UNL     1      -3.658  13.114  22.015  1.00  0.00     0.171 C 
BRANCH   8   9
ATOM      9  C   UNL     1      -2.771  14.381  22.043  1.00  0.00     0.190 C 
BRANCH   9  10
ATOM     10  O   UNL     1      -1.554  14.137  22.697  1.00  0.00    -0.394 OA
ATOM     11  H   UNL     1      -1.753  13.531  23.457  1.00  0.00     0.210 HD
ENDBRANCH   9  10
ENDBRANCH   8   9
BRANCH   8  12
ATOM     12  O   UNL     1      -4.874  13.393  21.367  1.00  0.00    -0.388 OA
ATOM     13  H   UNL     1      -5.434  12.574  21.411  1.00  0.00     0.211 HD
ENDBRANCH   8  12
ENDBRANCH   1   8
BRANCH   1  14
ATOM     14  O   UNL     1      -1.899  12.126  20.586  1.00  0.00    -0.388 OA
ATOM     15  H   UNL     1      -1.163  11.514  20.837  1.00  0.00     0.211 HD
ENDBRANCH   1  14
TORSDOF 9
ENDMDL
MODEL 9
REMARK VINA RESULT:    -4.249      1.100      4.008
REMARK INTER + INTRA:          -6.374
REMARK INTER:                  -5.708
REMARK INTRA:                  -0.666
REMARK UNBOUND:                -0.511
REMARK SMILES OC[C@@H](O)[C@@H](O)[C@@H](O)CO
REMARK SMILES IDX 5 1 7 2 9 3 10 4 8 6 3 8 2 9 1 10 4 12 6 14
REMARK H PARENT 10 5 8 7 1 11 4 13 6 15
REMARK Flexibility Score: inf
ROOT
ATOM      1  C   UNL     1       2.295  13.688  21.723  1.00  0.00     0.176 C 
ENDROOT
BRANCH   1   2
ATOM      2  C   UNL     1       2.609  12.194  22.053  1.00  0.00     0.171 C 
BRANCH   2   3
ATOM      3  C   UNL     1       3.653  11.526  21.132  1.00  0.00     0.190 C 
BRANCH   3   4
ATOM      4  O   UNL     1       4.956  11.847  21.536  1.00  0.00    -0.394 OA
ATOM      5  H   UNL     1       5.344  12.397  20.807  1.00  0.00     0.210 HD
ENDBRANCH   3   4
ENDBRANCH   2   3
BRANCH   2   6
ATOM      6  O   UNL     1       1.429  11.428  22.068  1.00  0.00    -0.388 OA
ATOM      7  H   UNL     1       1.010  11.536  22.961  1.00  0.00     0.211 HD
ENDBRANCH   2   6
ENDBRANCH   1   2
BRANCH   1   8
ATOM      8  C   UNL     1       1.028  14.271  22.425  1.00  0.00     0.171 C 
BRANCH   8   9
ATOM      9  C   UNL     1       1.104  15.759  22.842  1.00  0.00     0.190 C 
BRANCH   9  10
ATOM     10  O   UNL     1       1.842  15.921  24.023  1.00  0.00    -0.394 OA
ATOM     11  H   UNL     1       1.208  15.803  24.777  1.00  0.00     0.210 HD
ENDBRANCH   9  10
ENDBRANCH   8   9
BRANCH   8  12
ATOM     12  O   UNL     1      -0.103  14.054  21.620  1.00  0.00    -0.388 OA
ATOM     13  H   UNL     1       0.035  14.544  20.767  1.00  0.00     0.211 HD
ENDBRANCH   8  12
ENDBRANCH   1   8
BRANCH   1  14
ATOM     14  O   UNL     1       3.424  14.517  21.862  1.00  0.00    -0.388 OA
ATOM     15  H   UNL     1       4.210  13.944  22.041  1.00  0.00     0.211 HD
ENDBRANCH   1  14
TORSDOF 9
ENDMDL
