MODEL 1
REMARK VINA RESULT:    -6.586      0.000      0.000
REMARK INTER + INTRA:         -10.282
REMARK INTER:                  -9.473
REMARK INTRA:                  -0.809
REMARK UNBOUND:                -0.809
REMARK SMILES O=c1cc(-c2ccc(O)c(O)c2)oc2cc(O[C@@H]3O[C@@H](CO)[C@@H](O)[C@@H](O)[C@H]3O)cc(O)c12
REMARK SMILES IDX 17 1 16 2 4 3 3 4 13 5 2 6 14 7 1 8 32 9 15 10 30 11 29 12
REMARK SMILES IDX 5 13 6 14 7 15 8 16 12 17 10 18 9 19 11 21 31 23 18 25 27 26
REMARK SMILES IDX 19 27 25 28 20 29 23 30 28 31 26 33 21 35 22 36 24 38
REMARK H PARENT 9 20 11 22 31 24 28 32 26 34 22 37 24 39
REMARK Flexibility Score: inf
ROOT
ATOM      1  O   UNL     1     484.095  41.004 460.746  1.00  0.00    -0.462 OA
ENDROOT
BRANCH   1   2
ATOM      2  C   UNL     1     483.236  40.156 460.028  1.00  0.00     0.130 A 
ATOM      3  C   UNL     1     479.387  37.344 460.215  1.00  0.00     0.138 A 
ATOM      4  C   UNL     1     479.476  37.025 458.850  1.00  0.00     0.100 A 
ATOM      5  O   UNL     1     480.283  38.170 460.753  1.00  0.00    -0.456 OA
ATOM      6  C   UNL     1     480.507  37.569 458.083  1.00  0.00     0.197 A 
ATOM      7  C   UNL     1     481.282  38.713 460.064  1.00  0.00     0.146 A 
ATOM      8  O   UNL     1     480.578  37.278 456.858  1.00  0.00    -0.289 OA
ATOM      9  C   UNL     1     481.444  38.431 458.689  1.00  0.00     0.107 A 
ATOM     10  C   UNL     1     482.175  39.565 460.718  1.00  0.00     0.094 A 
ATOM     11  C   UNL     1     482.518  39.022 457.987  1.00  0.00     0.134 A 
ATOM     12  C   UNL     1     483.406  39.876 458.660  1.00  0.00     0.093 A 
BRANCH   3  13
ATOM     13  C   UNL     1     478.311  36.797 461.079  1.00  0.00     0.021 A 
ATOM     14  C   UNL     1     477.297  37.618 461.608  1.00  0.00     0.016 A 
ATOM     15  C   UNL     1     476.291  37.074 462.412  1.00  0.00     0.051 A 
ATOM     16  C   UNL     1     476.276  35.703 462.694  1.00  0.00     0.157 A 
ATOM     17  C   UNL     1     478.281  35.419 461.358  1.00  0.00     0.062 A 
ATOM     18  C   UNL     1     477.272  34.873 462.165  1.00  0.00     0.158 A 
BRANCH  16  19
ATOM     19  O   UNL     1     475.276  35.158 463.496  1.00  0.00    -0.504 OA
ATOM     20  H   UNL     1     474.553  34.563 463.111  1.00  0.00     0.293 HD
ENDBRANCH  16  19
BRANCH  18  21
ATOM     21  O   UNL     1     477.253  33.507 462.445  1.00  0.00    -0.504 OA
ATOM     22  H   UNL     1     476.707  33.130 463.210  1.00  0.00     0.293 HD
ENDBRANCH  18  21
ENDBRANCH   3  13
BRANCH  11  23
ATOM     23  O   UNL     1     482.713  38.768 456.628  1.00  0.00    -0.507 OA
ATOM     24  H   UNL     1     483.055  37.873 456.296  1.00  0.00     0.293 HD
ENDBRANCH  11  23
ENDBRANCH   1   2
BRANCH   1  25
ATOM     25  C   UNL     1     485.318  40.619 461.387  1.00  0.00     0.339 C 
ATOM     26  C   UNL     1     486.177  41.852 461.757  1.00  0.00     0.214 C 
ATOM     27  O   UNL     1     485.047  39.821 462.531  1.00  0.00    -0.332 OA
ATOM     28  C   UNL     1     485.501  42.653 462.887  1.00  0.00     0.180 C 
ATOM     29  C   UNL     1     484.296  40.537 463.501  1.00  0.00     0.179 C 
ATOM     30  C   UNL     1     485.110  41.727 464.053  1.00  0.00     0.177 C 
BRANCH  26  31
ATOM     31  O   UNL     1     487.456  41.437 462.165  1.00  0.00    -0.384 OA
ATOM     32  H   UNL     1     487.893  42.223 462.584  1.00  0.00     0.211 HD
ENDBRANCH  26  31
BRANCH  28  33
ATOM     33  O   UNL     1     486.351  43.672 463.348  1.00  0.00    -0.387 OA
ATOM     34  H   UNL     1     486.272  44.423 462.703  1.00  0.00     0.211 HD
ENDBRANCH  28  33
BRANCH  29  35
ATOM     35  C   UNL     1     483.893  39.578 464.626  1.00  0.00     0.191 C 
BRANCH  35  36
ATOM     36  O   UNL     1     483.496  38.352 464.078  1.00  0.00    -0.394 OA
ATOM     37  H   UNL     1     483.778  38.370 463.127  1.00  0.00     0.210 HD
ENDBRANCH  35  36
ENDBRANCH  29  35
BRANCH  30  38
ATOM     38  O   UNL     1     486.260  41.255 464.714  1.00  0.00    -0.387 OA
ATOM     39  H   UNL     1     485.949  40.657 465.444  1.00  0.00     0.211 HD
ENDBRANCH  30  38
ENDBRANCH   1  25
TORSDOF 11
ENDMDL
MODEL 2
REMARK VINA RESULT:    -6.235      1.519      2.223
REMARK INTER + INTRA:          -9.778
REMARK INTER:                  -9.568
REMARK INTRA:                  -0.210
REMARK UNBOUND:                -0.809
REMARK SMILES O=c1cc(-c2ccc(O)c(O)c2)oc2cc(O[C@@H]3O[C@@H](CO)[C@@H](O)[C@@H](O)[C@H]3O)cc(O)c12
REMARK SMILES IDX 17 1 16 2 4 3 3 4 13 5 2 6 14 7 1 8 32 9 15 10 30 11 29 12
REMARK SMILES IDX 5 13 6 14 7 15 8 16 12 17 10 18 9 19 11 21 31 23 18 25 27 26
REMARK SMILES IDX 19 27 25 28 20 29 23 30 28 31 26 33 21 35 22 36 24 38
REMARK H PARENT 9 20 11 22 31 24 28 32 26 34 22 37 24 39
REMARK Flexibility Score: inf
ROOT
ATOM      1  O   UNL     1     483.249  42.175 459.757  1.00  0.00    -0.462 OA
ENDROOT
BRANCH   1   2
ATOM      2  C   UNL     1     482.681  41.044 459.148  1.00  0.00     0.130 A 
ATOM      3  C   UNL     1     479.648  37.394 459.628  1.00  0.00     0.138 A 
ATOM      4  C   UNL     1     479.911  36.922 458.332  1.00  0.00     0.100 A 
ATOM      5  O   UNL     1     480.269  38.489 460.064  1.00  0.00    -0.456 OA
ATOM      6  C   UNL     1     480.829  37.600 457.527  1.00  0.00     0.197 A 
ATOM      7  C   UNL     1     481.150  39.168 459.337  1.00  0.00     0.146 A 
ATOM      8  O   UNL     1     481.058  37.169 456.365  1.00  0.00    -0.289 OA
ATOM      9  C   UNL     1     481.475  38.749 458.026  1.00  0.00     0.107 A 
ATOM     10  C   UNL     1     481.753  40.303 459.883  1.00  0.00     0.094 A 
ATOM     11  C   UNL     1     482.418  39.491 457.280  1.00  0.00     0.134 A 
ATOM     12  C   UNL     1     483.014  40.630 457.845  1.00  0.00     0.093 A 
BRANCH   3  13
ATOM     13  C   UNL     1     478.681  36.716 460.528  1.00  0.00     0.021 A 
ATOM     14  C   UNL     1     478.737  35.329 460.763  1.00  0.00     0.016 A 
ATOM     15  C   UNL     1     477.820  34.718 461.623  1.00  0.00     0.051 A 
ATOM     16  C   UNL     1     476.839  35.480 462.267  1.00  0.00     0.157 A 
ATOM     17  C   UNL     1     477.700  37.476 461.190  1.00  0.00     0.062 A 
ATOM     18  C   UNL     1     476.779  36.862 462.052  1.00  0.00     0.158 A 
BRANCH  16  19
ATOM     19  O   UNL     1     475.922  34.874 463.123  1.00  0.00    -0.504 OA
ATOM     20  H   UNL     1     475.580  33.936 462.955  1.00  0.00     0.293 HD
ENDBRANCH  16  19
BRANCH  18  21
ATOM     21  O   UNL     1     475.804  37.621 462.698  1.00  0.00    -0.504 OA
ATOM     22  H   UNL     1     476.013  38.152 463.534  1.00  0.00     0.293 HD
ENDBRANCH  18  21
ENDBRANCH   3  13
BRANCH  11  23
ATOM     23  O   UNL     1     482.768  39.109 455.984  1.00  0.00    -0.507 OA
ATOM     24  H   UNL     1     482.940  38.140 455.741  1.00  0.00     0.293 HD
ENDBRANCH  11  23
ENDBRANCH   1   2
BRANCH   1  25
ATOM     25  C   UNL     1     484.651  42.446 459.893  1.00  0.00     0.339 C 
ATOM     26  C   UNL     1     484.963  43.160 461.231  1.00  0.00     0.214 C 
ATOM     27  O   UNL     1     485.400  41.246 459.765  1.00  0.00    -0.332 OA
ATOM     28  C   UNL     1     484.741  42.198 462.413  1.00  0.00     0.180 C 
ATOM     29  C   UNL     1     485.072  40.314 460.787  1.00  0.00     0.179 C 
ATOM     30  C   UNL     1     485.467  40.862 462.175  1.00  0.00     0.177 C 
BRANCH  26  31
ATOM     31  O   UNL     1     486.292  43.615 461.229  1.00  0.00    -0.384 OA
ATOM     32  H   UNL     1     486.486  43.938 462.147  1.00  0.00     0.211 HD
ENDBRANCH  26  31
BRANCH  28  33
ATOM     33  O   UNL     1     485.184  42.778 463.613  1.00  0.00    -0.387 OA
ATOM     34  H   UNL     1     485.933  43.385 463.377  1.00  0.00     0.211 HD
ENDBRANCH  28  33
BRANCH  29  35
ATOM     35  C   UNL     1     485.782  38.988 460.497  1.00  0.00     0.191 C 
BRANCH  35  36
ATOM     36  O   UNL     1     485.787  38.749 459.117  1.00  0.00    -0.394 OA
ATOM     37  H   UNL     1     485.669  37.770 459.006  1.00  0.00     0.210 HD
ENDBRANCH  35  36
ENDBRANCH  29  35
BRANCH  30  38
ATOM     38  O   UNL     1     486.862  41.043 462.238  1.00  0.00    -0.387 OA
ATOM     39  H   UNL     1     487.253  40.175 462.524  1.00  0.00     0.211 HD
ENDBRANCH  30  38
ENDBRANCH   1  25
TORSDOF 11
ENDMDL
MODEL 3
REMARK VINA RESULT:    -6.204      1.559      2.252
REMARK INTER + INTRA:          -9.733
REMARK INTER:                  -8.772
REMARK INTRA:                  -0.960
REMARK UNBOUND:                -0.809
REMARK SMILES O=c1cc(-c2ccc(O)c(O)c2)oc2cc(O[C@@H]3O[C@@H](CO)[C@@H](O)[C@@H](O)[C@H]3O)cc(O)c12
REMARK SMILES IDX 17 1 16 2 4 3 3 4 13 5 2 6 14 7 1 8 32 9 15 10 30 11 29 12
REMARK SMILES IDX 5 13 6 14 7 15 8 16 12 17 10 18 9 19 11 21 31 23 18 25 27 26
REMARK SMILES IDX 19 27 25 28 20 29 23 30 28 31 26 33 21 35 22 36 24 38
REMARK H PARENT 9 20 11 22 31 24 28 32 26 34 22 37 24 39
REMARK Flexibility Score: inf
ROOT
ATOM      1  O   UNL     1     485.042  40.310 460.013  1.00  0.00    -0.462 OA
ENDROOT
BRANCH   1   2
ATOM      2  C   UNL     1     484.027  39.629 459.321  1.00  0.00     0.130 A 
ATOM      3  C   UNL     1     479.830  37.386 459.655  1.00  0.00     0.138 A 
ATOM      4  C   UNL     1     479.788  37.127 458.275  1.00  0.00     0.100 A 
ATOM      5  O   UNL     1     480.867  38.049 460.164  1.00  0.00    -0.456 OA
ATOM      6  C   UNL     1     480.838  37.556 457.463  1.00  0.00     0.197 A 
ATOM      7  C   UNL     1     481.891  38.478 459.432  1.00  0.00     0.146 A 
ATOM      8  O   UNL     1     480.790  37.319 456.225  1.00  0.00    -0.289 OA
ATOM      9  C   UNL     1     481.925  38.245 458.038  1.00  0.00     0.107 A 
ATOM     10  C   UNL     1     482.936  39.161 460.057  1.00  0.00     0.094 A 
ATOM     11  C   UNL     1     483.029  38.711 457.289  1.00  0.00     0.134 A 
ATOM     12  C   UNL     1     484.070  39.396 457.934  1.00  0.00     0.093 A 
BRANCH   3  13
ATOM     13  C   UNL     1     478.741  36.955 460.568  1.00  0.00     0.021 A 
ATOM     14  C   UNL     1     477.807  37.871 461.089  1.00  0.00     0.016 A 
ATOM     15  C   UNL     1     476.786  37.435 461.939  1.00  0.00     0.051 A 
ATOM     16  C   UNL     1     476.677  36.081 462.276  1.00  0.00     0.157 A 
ATOM     17  C   UNL     1     478.616  35.595 460.902  1.00  0.00     0.062 A 
ATOM     18  C   UNL     1     477.592  35.158 461.755  1.00  0.00     0.158 A 
BRANCH  16  19
ATOM     19  O   UNL     1     475.662  35.644 463.124  1.00  0.00    -0.504 OA
ATOM     20  H   UNL     1     474.967  36.282 463.493  1.00  0.00     0.293 HD
ENDBRANCH  16  19
BRANCH  18  21
ATOM     21  O   UNL     1     477.479  33.809 462.089  1.00  0.00    -0.504 OA
ATOM     22  H   UNL     1     476.699  33.248 461.769  1.00  0.00     0.293 HD
ENDBRANCH  18  21
ENDBRANCH   3  13
BRANCH  11  23
ATOM     23  O   UNL     1     483.101  38.500 455.911  1.00  0.00    -0.507 OA
ATOM     24  H   UNL     1     482.446  38.933 455.269  1.00  0.00     0.293 HD
ENDBRANCH  11  23
ENDBRANCH   1   2
BRANCH   1  25
ATOM     25  C   UNL     1     485.228  41.731 460.054  1.00  0.00     0.339 C 
ATOM     26  C   UNL     1     484.030  42.440 460.730  1.00  0.00     0.214 C 
ATOM     27  O   UNL     1     486.449  42.050 460.707  1.00  0.00    -0.332 OA
ATOM     28  C   UNL     1     483.996  42.112 462.235  1.00  0.00     0.180 C 
ATOM     29  C   UNL     1     486.450  41.609 462.058  1.00  0.00     0.179 C 
ATOM     30  C   UNL     1     485.374  42.353 462.877  1.00  0.00     0.177 C 
BRANCH  26  31
ATOM     31  O   UNL     1     484.134  43.830 460.547  1.00  0.00    -0.384 OA
ATOM     32  H   UNL     1     483.209  44.178 460.461  1.00  0.00     0.211 HD
ENDBRANCH  26  31
BRANCH  28  33
ATOM     33  O   UNL     1     483.021  42.884 462.887  1.00  0.00    -0.387 OA
ATOM     34  H   UNL     1     482.731  43.582 462.243  1.00  0.00     0.211 HD
ENDBRANCH  28  33
BRANCH  29  35
ATOM     35  C   UNL     1     487.844  41.829 462.652  1.00  0.00     0.191 C 
BRANCH  35  36
ATOM     36  O   UNL     1     488.455  42.924 462.027  1.00  0.00    -0.394 OA
ATOM     37  H   UNL     1     488.757  42.601 461.138  1.00  0.00     0.210 HD
ENDBRANCH  35  36
ENDBRANCH  29  35
BRANCH  30  38
ATOM     38  O   UNL     1     485.667  43.730 462.913  1.00  0.00    -0.387 OA
ATOM     39  H   UNL     1     485.573  44.069 461.984  1.00  0.00     0.211 HD
ENDBRANCH  30  38
ENDBRANCH   1  25
TORSDOF 11
ENDMDL
MODEL 4
REMARK VINA RESULT:    -6.131      2.894      5.302
REMARK INTER + INTRA:          -9.628
REMARK INTER:                  -8.669
REMARK INTRA:                  -0.959
REMARK UNBOUND:                -0.809
REMARK SMILES O=c1cc(-c2ccc(O)c(O)c2)oc2cc(O[C@@H]3O[C@@H](CO)[C@@H](O)[C@@H](O)[C@H]3O)cc(O)c12
REMARK SMILES IDX 17 1 16 2 4 3 3 4 13 5 2 6 14 7 1 8 32 9 15 10 30 11 29 12
REMARK SMILES IDX 5 13 6 14 7 15 8 16 12 17 10 18 9 19 11 21 31 23 18 25 27 26
REMARK SMILES IDX 19 27 25 28 20 29 23 30 28 31 26 33 21 35 22 36 24 38
REMARK H PARENT 9 20 11 22 31 24 28 32 26 34 22 37 24 39
REMARK Flexibility Score: inf
ROOT
ATOM      1  O   UNL     1     481.327  38.919 458.593  1.00  0.00    -0.462 OA
ENDROOT
BRANCH   1   2
ATOM      2  C   UNL     1     480.369  38.202 459.328  1.00  0.00     0.130 A 
ATOM      3  C   UNL     1     476.704  38.470 462.369  1.00  0.00     0.138 A 
ATOM      4  C   UNL     1     476.536  37.075 462.389  1.00  0.00     0.100 A 
ATOM      5  O   UNL     1     477.664  39.002 461.616  1.00  0.00    -0.456 OA
ATOM      6  C   UNL     1     477.387  36.271 461.629  1.00  0.00     0.197 A 
ATOM      7  C   UNL     1     478.498  38.278 460.876  1.00  0.00     0.146 A 
ATOM      8  O   UNL     1     477.228  35.020 461.653  1.00  0.00    -0.289 OA
ATOM      9  C   UNL     1     478.399  36.869 460.852  1.00  0.00     0.107 A 
ATOM     10  C   UNL     1     479.476  38.928 460.120  1.00  0.00     0.094 A 
ATOM     11  C   UNL     1     479.302  36.128 460.057  1.00  0.00     0.134 A 
ATOM     12  C   UNL     1     480.280  36.798 459.304  1.00  0.00     0.093 A 
BRANCH   3  13
ATOM     13  C   UNL     1     475.829  39.376 463.156  1.00  0.00     0.021 A 
ATOM     14  C   UNL     1     476.360  40.328 464.047  1.00  0.00     0.016 A 
ATOM     15  C   UNL     1     475.513  41.175 464.768  1.00  0.00     0.051 A 
ATOM     16  C   UNL     1     474.125  41.091 464.606  1.00  0.00     0.157 A 
ATOM     17  C   UNL     1     474.434  39.307 462.990  1.00  0.00     0.062 A 
ATOM     18  C   UNL     1     473.584  40.156 463.714  1.00  0.00     0.158 A 
BRANCH  16  19
ATOM     19  O   UNL     1     473.278  41.931 465.324  1.00  0.00    -0.504 OA
ATOM     20  H   UNL     1     473.484  42.916 465.442  1.00  0.00     0.293 HD
ENDBRANCH  16  19
BRANCH  18  21
ATOM     21  O   UNL     1     472.202  40.077 463.551  1.00  0.00    -0.504 OA
ATOM     22  H   UNL     1     471.620  39.558 464.199  1.00  0.00     0.293 HD
ENDBRANCH  18  21
ENDBRANCH   3  13
BRANCH  11  23
ATOM     23  O   UNL     1     479.239  34.735 460.009  1.00  0.00    -0.507 OA
ATOM     24  H   UNL     1     478.422  34.226 460.328  1.00  0.00     0.293 HD
ENDBRANCH  11  23
ENDBRANCH   1   2
BRANCH   1  25
ATOM     25  C   UNL     1     482.530  38.381 458.026  1.00  0.00     0.339 C 
ATOM     26  C   UNL     1     483.065  39.275 456.881  1.00  0.00     0.214 C 
ATOM     27  O   UNL     1     483.512  38.197 459.035  1.00  0.00    -0.332 OA
ATOM     28  C   UNL     1     483.586  40.610 457.446  1.00  0.00     0.180 C 
ATOM     29  C   UNL     1     483.874  39.429 459.644  1.00  0.00     0.179 C 
ATOM     30  C   UNL     1     484.551  40.366 458.620  1.00  0.00     0.177 C 
BRANCH  26  31
ATOM     31  O   UNL     1     484.098  38.609 456.200  1.00  0.00    -0.384 OA
ATOM     32  H   UNL     1     484.873  38.573 456.819  1.00  0.00     0.211 HD
ENDBRANCH  26  31
BRANCH  28  33
ATOM     33  O   UNL     1     484.230  41.354 456.444  1.00  0.00    -0.387 OA
ATOM     34  H   UNL     1     485.159  41.010 456.384  1.00  0.00     0.211 HD
ENDBRANCH  28  33
BRANCH  29  35
ATOM     35  C   UNL     1     484.803  39.145 460.828  1.00  0.00     0.191 C 
BRANCH  35  36
ATOM     36  O   UNL     1     485.702  38.127 460.488  1.00  0.00    -0.394 OA
ATOM     37  H   UNL     1     486.084  37.799 461.343  1.00  0.00     0.210 HD
ENDBRANCH  35  36
ENDBRANCH  29  35
BRANCH  30  38
ATOM     38  O   UNL     1     485.749  39.787 458.161  1.00  0.00    -0.387 OA
ATOM     39  H   UNL     1     486.409  39.865 458.900  1.00  0.00     0.211 HD
ENDBRANCH  30  38
ENDBRANCH   1  25
TORSDOF 11
ENDMDL
MODEL 5
REMARK VINA RESULT:    -6.114      1.646      2.363
REMARK INTER + INTRA:          -9.603
REMARK INTER:                  -8.599
REMARK INTRA:                  -1.004
REMARK UNBOUND:                -0.809
REMARK SMILES O=c1cc(-c2ccc(O)c(O)c2)oc2cc(O[C@@H]3O[C@@H](CO)[C@@H](O)[C@@H](O)[C@H]3O)cc(O)c12
REMARK SMILES IDX 17 1 16 2 4 3 3 4 13 5 2 6 14 7 1 8 32 9 15 10 30 11 29 12
REMARK SMILES IDX 5 13 6 14 7 15 8 16 12 17 10 18 9 19 11 21 31 23 18 25 27 26
REMARK SMILES IDX 19 27 25 28 20 29 23 30 28 31 26 33 21 35 22 36 24 38
REMARK H PARENT 9 20 11 22 31 24 28 32 26 34 22 37 24 39
REMARK Flexibility Score: inf
ROOT
ATOM      1  O   UNL     1     485.960  39.978 461.640  1.00  0.00    -0.462 OA
ENDROOT
BRANCH   1   2
ATOM      2  C   UNL     1     484.998  39.546 460.713  1.00  0.00     0.130 A 
ATOM      3  C   UNL     1     480.417  38.426 459.997  1.00  0.00     0.138 A 
ATOM      4  C   UNL     1     480.634  38.136 458.640  1.00  0.00     0.100 A 
ATOM      5  O   UNL     1     481.438  38.829 460.751  1.00  0.00    -0.456 OA
ATOM      6  C   UNL     1     481.918  38.263 458.108  1.00  0.00     0.197 A 
ATOM      7  C   UNL     1     482.677  38.964 460.291  1.00  0.00     0.146 A 
ATOM      8  O   UNL     1     482.103  38.001 456.888  1.00  0.00    -0.289 OA
ATOM      9  C   UNL     1     482.977  38.681 458.939  1.00  0.00     0.107 A 
ATOM     10  C   UNL     1     483.684  39.390 461.160  1.00  0.00     0.094 A 
ATOM     11  C   UNL     1     484.305  38.832 458.481  1.00  0.00     0.134 A 
ATOM     12  C   UNL     1     485.304  39.260 459.370  1.00  0.00     0.093 A 
BRANCH   3  13
ATOM     13  C   UNL     1     479.073  38.311 460.618  1.00  0.00     0.021 A 
ATOM     14  C   UNL     1     478.168  39.389 460.628  1.00  0.00     0.016 A 
ATOM     15  C   UNL     1     476.905  39.249 461.211  1.00  0.00     0.051 A 
ATOM     16  C   UNL     1     476.523  38.032 461.787  1.00  0.00     0.157 A 
ATOM     17  C   UNL     1     478.676  37.088 461.188  1.00  0.00     0.062 A 
ATOM     18  C   UNL     1     477.410  36.948 461.774  1.00  0.00     0.158 A 
BRANCH  16  19
ATOM     19  O   UNL     1     475.267  37.890 462.371  1.00  0.00    -0.504 OA
ATOM     20  H   UNL     1     474.464  37.583 461.835  1.00  0.00     0.293 HD
ENDBRANCH  16  19
BRANCH  18  21
ATOM     21  O   UNL     1     477.026  35.735 462.345  1.00  0.00    -0.504 OA
ATOM     22  H   UNL     1     476.051  35.506 462.497  1.00  0.00     0.293 HD
ENDBRANCH  18  21
ENDBRANCH   3  13
BRANCH  11  23
ATOM     23  O   UNL     1     484.642  38.560 457.154  1.00  0.00    -0.507 OA
ATOM     24  H   UNL     1     484.069  38.881 456.381  1.00  0.00     0.293 HD
ENDBRANCH  11  23
ENDBRANCH   1   2
BRANCH   1  25
ATOM     25  C   UNL     1     486.619  41.252 461.640  1.00  0.00     0.339 C 
ATOM     26  C   UNL     1     485.609  42.411 461.454  1.00  0.00     0.214 C 
ATOM     27  O   UNL     1     487.374  41.417 462.832  1.00  0.00    -0.332 OA
ATOM     28  C   UNL     1     484.718  42.548 462.703  1.00  0.00     0.180 C 
ATOM     29  C   UNL     1     486.544  41.396 463.985  1.00  0.00     0.179 C 
ATOM     30  C   UNL     1     485.573  42.597 463.981  1.00  0.00     0.177 C 
BRANCH  26  31
ATOM     31  O   UNL     1     486.301  43.613 461.227  1.00  0.00    -0.384 OA
ATOM     32  H   UNL     1     487.101  43.600 461.814  1.00  0.00     0.211 HD
ENDBRANCH  26  31
BRANCH  28  33
ATOM     33  O   UNL     1     483.919  43.700 462.616  1.00  0.00    -0.387 OA
ATOM     34  H   UNL     1     483.330  43.581 461.826  1.00  0.00     0.211 HD
ENDBRANCH  28  33
BRANCH  29  35
ATOM     35  C   UNL     1     487.429  41.408 465.235  1.00  0.00     0.191 C 
BRANCH  35  36
ATOM     36  O   UNL     1     488.574  42.176 464.994  1.00  0.00    -0.394 OA
ATOM     37  H   UNL     1     489.016  41.772 464.203  1.00  0.00     0.210 HD
ENDBRANCH  35  36
ENDBRANCH  29  35
BRANCH  30  38
ATOM     38  O   UNL     1     486.301  43.800 464.042  1.00  0.00    -0.387 OA
ATOM     39  H   UNL     1     487.087  43.634 464.626  1.00  0.00     0.211 HD
ENDBRANCH  30  38
ENDBRANCH   1  25
TORSDOF 11
ENDMDL
MODEL 6
REMARK VINA RESULT:    -6.106      1.630      2.590
REMARK INTER + INTRA:          -9.593
REMARK INTER:                  -8.642
REMARK INTRA:                  -0.950
REMARK UNBOUND:                -0.809
REMARK SMILES O=c1cc(-c2ccc(O)c(O)c2)oc2cc(O[C@@H]3O[C@@H](CO)[C@@H](O)[C@@H](O)[C@H]3O)cc(O)c12
REMARK SMILES IDX 17 1 16 2 4 3 3 4 13 5 2 6 14 7 1 8 32 9 15 10 30 11 29 12
REMARK SMILES IDX 5 13 6 14 7 15 8 16 12 17 10 18 9 19 11 21 31 23 18 25 27 26
REMARK SMILES IDX 19 27 25 28 20 29 23 30 28 31 26 33 21 35 22 36 24 38
REMARK H PARENT 9 20 11 22 31 24 28 32 26 34 22 37 24 39
REMARK Flexibility Score: inf
ROOT
ATOM      1  O   UNL     1     485.613  40.682 460.445  1.00  0.00    -0.462 OA
ENDROOT
BRANCH   1   2
ATOM      2  C   UNL     1     484.651  39.985 459.695  1.00  0.00     0.130 A 
ATOM      3  C   UNL     1     480.306  38.018 459.687  1.00  0.00     0.138 A 
ATOM      4  C   UNL     1     480.423  37.612 458.347  1.00  0.00     0.100 A 
ATOM      5  O   UNL     1     481.311  38.676 460.261  1.00  0.00    -0.456 OA
ATOM      6  C   UNL     1     481.596  37.893 457.645  1.00  0.00     0.197 A 
ATOM      7  C   UNL     1     482.446  38.968 459.633  1.00  0.00     0.146 A 
ATOM      8  O   UNL     1     481.691  37.525 456.442  1.00  0.00    -0.289 OA
ATOM      9  C   UNL     1     482.643  38.582 458.288  1.00  0.00     0.107 A 
ATOM     10  C   UNL     1     483.446  39.659 460.321  1.00  0.00     0.094 A 
ATOM     11  C   UNL     1     483.863  38.904 457.651  1.00  0.00     0.134 A 
ATOM     12  C   UNL     1     484.857  39.600 458.358  1.00  0.00     0.093 A 
BRANCH   3  13
ATOM     13  C   UNL     1     479.082  37.748 460.484  1.00  0.00     0.021 A 
ATOM     14  C   UNL     1     478.199  38.780 460.856  1.00  0.00     0.016 A 
ATOM     15  C   UNL     1     477.049  38.495 461.598  1.00  0.00     0.051 A 
ATOM     16  C   UNL     1     476.759  37.178 461.974  1.00  0.00     0.157 A 
ATOM     17  C   UNL     1     478.776  36.427 460.855  1.00  0.00     0.062 A 
ATOM     18  C   UNL     1     477.623  36.141 461.601  1.00  0.00     0.158 A 
BRANCH  16  19
ATOM     19  O   UNL     1     475.615  36.891 462.716  1.00  0.00    -0.504 OA
ATOM     20  H   UNL     1     474.758  37.415 462.592  1.00  0.00     0.293 HD
ENDBRANCH  16  19
BRANCH  18  21
ATOM     21  O   UNL     1     477.330  34.830 461.973  1.00  0.00    -0.504 OA
ATOM     22  H   UNL     1     477.706  34.038 461.466  1.00  0.00     0.293 HD
ENDBRANCH  18  21
ENDBRANCH   3  13
BRANCH  11  23
ATOM     23  O   UNL     1     484.097  38.540 456.324  1.00  0.00    -0.507 OA
ATOM     24  H   UNL     1     484.873  37.942 456.063  1.00  0.00     0.293 HD
ENDBRANCH  11  23
ENDBRANCH   1   2
BRANCH   1  25
ATOM     25  C   UNL     1     485.491  41.071 461.820  1.00  0.00     0.339 C 
ATOM     26  C   UNL     1     486.852  40.996 462.553  1.00  0.00     0.214 C 
ATOM     27  O   UNL     1     484.928  42.372 461.917  1.00  0.00    -0.332 OA
ATOM     28  C   UNL     1     487.802  42.090 462.029  1.00  0.00     0.180 C 
ATOM     29  C   UNL     1     485.755  43.347 461.298  1.00  0.00     0.179 C 
ATOM     30  C   UNL     1     487.108  43.463 462.033  1.00  0.00     0.177 C 
BRANCH  26  31
ATOM     31  O   UNL     1     486.658  41.155 463.936  1.00  0.00    -0.384 OA
ATOM     32  H   UNL     1     487.393  40.665 464.387  1.00  0.00     0.211 HD
ENDBRANCH  26  31
BRANCH  28  33
ATOM     33  O   UNL     1     488.972  42.141 462.803  1.00  0.00    -0.387 OA
ATOM     34  H   UNL     1     488.837  42.856 463.479  1.00  0.00     0.211 HD
ENDBRANCH  28  33
BRANCH  29  35
ATOM     35  C   UNL     1     485.018  44.690 461.287  1.00  0.00     0.191 C 
BRANCH  35  36
ATOM     36  O   UNL     1     485.948  45.737 461.270  1.00  0.00    -0.394 OA
ATOM     37  H   UNL     1     485.452  46.551 461.547  1.00  0.00     0.210 HD
ENDBRANCH  35  36
ENDBRANCH  29  35
BRANCH  30  38
ATOM     38  O   UNL     1     486.898  43.905 463.354  1.00  0.00    -0.387 OA
ATOM     39  H   UNL     1     486.557  43.126 463.868  1.00  0.00     0.211 HD
ENDBRANCH  30  38
ENDBRANCH   1  25
TORSDOF 11
ENDMDL
MODEL 7
REMARK VINA RESULT:    -5.784      2.976      5.777
REMARK INTER + INTRA:          -9.129
REMARK INTER:                  -8.126
REMARK INTRA:                  -1.003
REMARK UNBOUND:                -0.809
REMARK SMILES O=c1cc(-c2ccc(O)c(O)c2)oc2cc(O[C@@H]3O[C@@H](CO)[C@@H](O)[C@@H](O)[C@H]3O)cc(O)c12
REMARK SMILES IDX 17 1 16 2 4 3 3 4 13 5 2 6 14 7 1 8 32 9 15 10 30 11 29 12
REMARK SMILES IDX 5 13 6 14 7 15 8 16 12 17 10 18 9 19 11 21 31 23 18 25 27 26
REMARK SMILES IDX 19 27 25 28 20 29 23 30 28 31 26 33 21 35 22 36 24 38
REMARK H PARENT 9 20 11 22 31 24 28 32 26 34 22 37 24 39
REMARK Flexibility Score: inf
ROOT
ATOM      1  O   UNL     1     480.903  38.816 458.350  1.00  0.00    -0.462 OA
ENDROOT
BRANCH   1   2
ATOM      2  C   UNL     1     480.028  38.092 459.177  1.00  0.00     0.130 A 
ATOM      3  C   UNL     1     476.363  38.321 462.222  1.00  0.00     0.138 A 
ATOM      4  C   UNL     1     476.346  36.929 462.404  1.00  0.00     0.100 A 
ATOM      5  O   UNL     1     477.260  38.861 461.398  1.00  0.00    -0.456 OA
ATOM      6  C   UNL     1     477.275  36.136 461.729  1.00  0.00     0.197 A 
ATOM      7  C   UNL     1     478.164  38.149 460.733  1.00  0.00     0.146 A 
ATOM      8  O   UNL     1     477.250  34.887 461.899  1.00  0.00    -0.289 OA
ATOM      9  C   UNL     1     478.216  36.743 460.873  1.00  0.00     0.107 A 
ATOM     10  C   UNL     1     479.065  38.806 459.894  1.00  0.00     0.094 A 
ATOM     11  C   UNL     1     479.191  36.015 460.155  1.00  0.00     0.134 A 
ATOM     12  C   UNL     1     480.089  36.693 459.316  1.00  0.00     0.093 A 
BRANCH   3  13
ATOM     13  C   UNL     1     475.399  39.215 462.913  1.00  0.00     0.021 A 
ATOM     14  C   UNL     1     475.666  39.744 464.190  1.00  0.00     0.016 A 
ATOM     15  C   UNL     1     474.744  40.591 464.812  1.00  0.00     0.051 A 
ATOM     16  C   UNL     1     473.547  40.928 464.169  1.00  0.00     0.157 A 
ATOM     17  C   UNL     1     474.200  39.569 462.268  1.00  0.00     0.062 A 
ATOM     18  C   UNL     1     473.275  40.418 462.894  1.00  0.00     0.158 A 
BRANCH  16  19
ATOM     19  O   UNL     1     472.625  41.770 464.787  1.00  0.00    -0.504 OA
ATOM     20  H   UNL     1     471.928  41.412 465.429  1.00  0.00     0.293 HD
ENDBRANCH  16  19
BRANCH  18  21
ATOM     21  O   UNL     1     472.084  40.758 462.253  1.00  0.00    -0.504 OA
ATOM     22  H   UNL     1     471.183  40.596 462.687  1.00  0.00     0.293 HD
ENDBRANCH  18  21
ENDBRANCH   3  13
BRANCH  11  23
ATOM     23  O   UNL     1     479.276  34.627 460.268  1.00  0.00    -0.507 OA
ATOM     24  H   UNL     1     479.553  34.177 461.133  1.00  0.00     0.293 HD
ENDBRANCH  11  23
ENDBRANCH   1   2
BRANCH   1  25
ATOM     25  C   UNL     1     481.813  39.839 458.776  1.00  0.00     0.339 C 
ATOM     26  C   UNL     1     482.945  39.258 459.659  1.00  0.00     0.214 C 
ATOM     27  O   UNL     1     482.341  40.528 457.652  1.00  0.00    -0.332 OA
ATOM     28  C   UNL     1     483.881  38.375 458.812  1.00  0.00     0.180 C 
ATOM     29  C   UNL     1     483.084  39.660 456.807  1.00  0.00     0.179 C 
ATOM     30  C   UNL     1     484.329  39.117 457.540  1.00  0.00     0.177 C 
BRANCH  26  31
ATOM     31  O   UNL     1     483.677  40.306 460.244  1.00  0.00    -0.384 OA
ATOM     32  H   UNL     1     483.998  39.975 461.123  1.00  0.00     0.211 HD
ENDBRANCH  26  31
BRANCH  28  33
ATOM     33  O   UNL     1     485.004  37.986 459.561  1.00  0.00    -0.387 OA
ATOM     34  H   UNL     1     485.384  38.812 459.957  1.00  0.00     0.211 HD
ENDBRANCH  28  33
BRANCH  29  35
ATOM     35  C   UNL     1     483.480  40.419 455.538  1.00  0.00     0.191 C 
BRANCH  35  36
ATOM     36  O   UNL     1     483.837  41.733 455.867  1.00  0.00    -0.394 OA
ATOM     37  H   UNL     1     483.046  42.295 455.657  1.00  0.00     0.210 HD
ENDBRANCH  35  36
ENDBRANCH  29  35
BRANCH  30  38
ATOM     38  O   UNL     1     485.192  40.180 457.868  1.00  0.00    -0.387 OA
ATOM     39  H   UNL     1     485.249  40.211 458.860  1.00  0.00     0.211 HD
ENDBRANCH  30  38
ENDBRANCH   1  25
TORSDOF 11
ENDMDL
MODEL 8
REMARK VINA RESULT:    -5.613      2.951      5.940
REMARK INTER + INTRA:          -8.883
REMARK INTER:                  -7.944
REMARK INTRA:                  -0.939
REMARK UNBOUND:                -0.809
REMARK SMILES O=c1cc(-c2ccc(O)c(O)c2)oc2cc(O[C@@H]3O[C@@H](CO)[C@@H](O)[C@@H](O)[C@H]3O)cc(O)c12
REMARK SMILES IDX 17 1 16 2 4 3 3 4 13 5 2 6 14 7 1 8 32 9 15 10 30 11 29 12
REMARK SMILES IDX 5 13 6 14 7 15 8 16 12 17 10 18 9 19 11 21 31 23 18 25 27 26
REMARK SMILES IDX 19 27 25 28 20 29 23 30 28 31 26 33 21 35 22 36 24 38
REMARK H PARENT 9 20 11 22 31 24 28 32 26 34 22 37 24 39
REMARK Flexibility Score: inf
ROOT
ATOM      1  O   UNL     1     483.832  40.406 459.723  1.00  0.00    -0.462 OA
ENDROOT
BRANCH   1   2
ATOM      2  C   UNL     1     483.179  40.001 460.898  1.00  0.00     0.130 A 
ATOM      3  C   UNL     1     478.982  39.337 463.066  1.00  0.00     0.138 A 
ATOM      4  C   UNL     1     479.593  38.885 464.248  1.00  0.00     0.100 A 
ATOM      5  O   UNL     1     479.743  39.687 462.030  1.00  0.00    -0.456 OA
ATOM      6  C   UNL     1     480.985  38.821 464.321  1.00  0.00     0.197 A 
ATOM      7  C   UNL     1     481.071  39.644 462.051  1.00  0.00     0.146 A 
ATOM      8  O   UNL     1     481.523  38.413 465.385  1.00  0.00    -0.289 OA
ATOM      9  C   UNL     1     481.758  39.210 463.208  1.00  0.00     0.107 A 
ATOM     10  C   UNL     1     481.783  40.035 460.915  1.00  0.00     0.094 A 
ATOM     11  C   UNL     1     483.171  39.179 463.199  1.00  0.00     0.134 A 
ATOM     12  C   UNL     1     483.870  39.575 462.048  1.00  0.00     0.093 A 
BRANCH   3  13
ATOM     13  C   UNL     1     477.506  39.425 462.930  1.00  0.00     0.021 A 
ATOM     14  C   UNL     1     476.822  38.794 461.874  1.00  0.00     0.016 A 
ATOM     15  C   UNL     1     475.431  38.886 461.776  1.00  0.00     0.051 A 
ATOM     16  C   UNL     1     474.700  39.601 462.732  1.00  0.00     0.157 A 
ATOM     17  C   UNL     1     476.763  40.131 463.893  1.00  0.00     0.062 A 
ATOM     18  C   UNL     1     475.367  40.224 463.794  1.00  0.00     0.158 A 
BRANCH  16  19
ATOM     19  O   UNL     1     473.314  39.696 462.636  1.00  0.00    -0.504 OA
ATOM     20  H   UNL     1     472.803  39.255 461.880  1.00  0.00     0.293 HD
ENDBRANCH  16  19
BRANCH  18  21
ATOM     21  O   UNL     1     474.637  40.932 464.748  1.00  0.00    -0.504 OA
ATOM     22  H   UNL     1     474.124  41.772 464.507  1.00  0.00     0.293 HD
ENDBRANCH  18  21
ENDBRANCH   3  13
BRANCH  11  23
ATOM     23  O   UNL     1     483.886  38.758 464.322  1.00  0.00    -0.507 OA
ATOM     24  H   UNL     1     483.419  38.437 465.163  1.00  0.00     0.293 HD
ENDBRANCH  11  23
ENDBRANCH   1   2
BRANCH   1  25
ATOM     25  C   UNL     1     484.532  39.551 458.809  1.00  0.00     0.339 C 
ATOM     26  C   UNL     1     483.772  38.221 458.582  1.00  0.00     0.214 C 
ATOM     27  O   UNL     1     484.765  40.226 457.581  1.00  0.00    -0.332 OA
ATOM     28  C   UNL     1     482.473  38.478 457.795  1.00  0.00     0.180 C 
ATOM     29  C   UNL     1     483.547  40.581 456.941  1.00  0.00     0.179 C 
ATOM     30  C   UNL     1     482.753  39.320 456.538  1.00  0.00     0.177 C 
BRANCH  26  31
ATOM     31  O   UNL     1     484.588  37.322 457.875  1.00  0.00    -0.384 OA
ATOM     32  H   UNL     1     484.779  37.738 456.994  1.00  0.00     0.211 HD
ENDBRANCH  26  31
BRANCH  28  33
ATOM     33  O   UNL     1     481.865  37.264 457.435  1.00  0.00    -0.387 OA
ATOM     34  H   UNL     1     482.178  37.050 456.517  1.00  0.00     0.211 HD
ENDBRANCH  28  33
BRANCH  29  35
ATOM     35  C   UNL     1     483.862  41.447 455.718  1.00  0.00     0.191 C 
BRANCH  35  36
ATOM     36  O   UNL     1     482.895  41.233 454.727  1.00  0.00    -0.394 OA
ATOM     37  H   UNL     1     482.643  42.131 454.389  1.00  0.00     0.210 HD
ENDBRANCH  35  36
ENDBRANCH  29  35
BRANCH  30  38
ATOM     38  O   UNL     1     483.487  38.572 455.598  1.00  0.00    -0.387 OA
ATOM     39  H   UNL     1     484.440  38.833 455.702  1.00  0.00     0.211 HD
ENDBRANCH  30  38
ENDBRANCH   1  25
TORSDOF 11
ENDMDL
MODEL 9
REMARK VINA RESULT:    -5.604      2.155      8.446
REMARK INTER + INTRA:          -8.870
REMARK INTER:                  -8.054
REMARK INTRA:                  -0.816
REMARK UNBOUND:                -0.809
REMARK SMILES O=c1cc(-c2ccc(O)c(O)c2)oc2cc(O[C@@H]3O[C@@H](CO)[C@@H](O)[C@@H](O)[C@H]3O)cc(O)c12
REMARK SMILES IDX 17 1 16 2 4 3 3 4 13 5 2 6 14 7 1 8 32 9 15 10 30 11 29 12
REMARK SMILES IDX 5 13 6 14 7 15 8 16 12 17 10 18 9 19 11 21 31 23 18 25 27 26
REMARK SMILES IDX 19 27 25 28 20 29 23 30 28 31 26 33 21 35 22 36 24 38
REMARK H PARENT 9 20 11 22 31 24 28 32 26 34 22 37 24 39
REMARK Flexibility Score: inf
ROOT
ATOM      1  O   UNL     1     479.101  39.625 460.681  1.00  0.00    -0.462 OA
ENDROOT
BRANCH   1   2
ATOM      2  C   UNL     1     480.445  39.371 460.360  1.00  0.00     0.130 A 
ATOM      3  C   UNL     1     485.005  40.130 461.536  1.00  0.00     0.138 A 
ATOM      4  C   UNL     1     485.477  39.348 460.469  1.00  0.00     0.100 A 
ATOM      5  O   UNL     1     483.693  40.275 461.711  1.00  0.00    -0.456 OA
ATOM      6  C   UNL     1     484.563  38.747 459.602  1.00  0.00     0.197 A 
ATOM      7  C   UNL     1     482.784  39.723 460.912  1.00  0.00     0.146 A 
ATOM      8  O   UNL     1     484.996  38.047 458.647  1.00  0.00    -0.289 OA
ATOM      9  C   UNL     1     483.181  38.932 459.811  1.00  0.00     0.107 A 
ATOM     10  C   UNL     1     481.429  39.936 461.174  1.00  0.00     0.094 A 
ATOM     11  C   UNL     1     482.191  38.362 458.980  1.00  0.00     0.134 A 
ATOM     12  C   UNL     1     480.833  38.587 459.258  1.00  0.00     0.093 A 
BRANCH   3  13
ATOM     13  C   UNL     1     485.929  40.792 462.491  1.00  0.00     0.021 A 
ATOM     14  C   UNL     1     487.136  41.379 462.066  1.00  0.00     0.016 A 
ATOM     15  C   UNL     1     487.983  42.005 462.986  1.00  0.00     0.051 A 
ATOM     16  C   UNL     1     487.636  42.061 464.341  1.00  0.00     0.157 A 
ATOM     17  C   UNL     1     485.583  40.865 463.853  1.00  0.00     0.062 A 
ATOM     18  C   UNL     1     486.433  41.492 464.776  1.00  0.00     0.158 A 
BRANCH  16  19
ATOM     19  O   UNL     1     488.478  42.682 465.261  1.00  0.00    -0.504 OA
ATOM     20  H   UNL     1     488.360  42.553 466.259  1.00  0.00     0.293 HD
ENDBRANCH  16  19
BRANCH  18  21
ATOM     21  O   UNL     1     486.087  41.553 466.125  1.00  0.00    -0.504 OA
ATOM     22  H   UNL     1     485.572  42.337 466.506  1.00  0.00     0.293 HD
ENDBRANCH  18  21
ENDBRANCH   3  13
BRANCH  11  23
ATOM     23  O   UNL     1     482.542  37.576 457.881  1.00  0.00    -0.507 OA
ATOM     24  H   UNL     1     483.341  36.953 457.904  1.00  0.00     0.293 HD
ENDBRANCH  11  23
ENDBRANCH   1   2
BRANCH   1  25
ATOM     25  C   UNL     1     478.518  39.546 461.988  1.00  0.00     0.339 C 
ATOM     26  C   UNL     1     477.135  40.241 462.034  1.00  0.00     0.214 C 
ATOM     27  O   UNL     1     478.424  38.191 462.406  1.00  0.00    -0.332 OA
ATOM     28  C   UNL     1     476.108  39.440 461.212  1.00  0.00     0.180 C 
ATOM     29  C   UNL     1     477.582  37.436 461.546  1.00  0.00     0.179 C 
ATOM     30  C   UNL     1     476.129  37.954 461.610  1.00  0.00     0.177 C 
BRANCH  26  31
ATOM     31  O   UNL     1     476.701  40.349 463.366  1.00  0.00    -0.384 OA
ATOM     32  H   UNL     1     476.396  39.447 463.643  1.00  0.00     0.211 HD
ENDBRANCH  26  31
BRANCH  28  33
ATOM     33  O   UNL     1     474.817  39.965 461.388  1.00  0.00    -0.387 OA
ATOM     34  H   UNL     1     474.186  39.316 460.981  1.00  0.00     0.211 HD
ENDBRANCH  28  33
BRANCH  29  35
ATOM     35  C   UNL     1     477.658  35.959 461.948  1.00  0.00     0.191 C 
BRANCH  35  36
ATOM     36  O   UNL     1     478.192  35.211 460.891  1.00  0.00    -0.394 OA
ATOM     37  H   UNL     1     477.617  34.406 460.805  1.00  0.00     0.210 HD
ENDBRANCH  35  36
ENDBRANCH  29  35
BRANCH  30  38
ATOM     38  O   UNL     1     475.618  37.785 462.911  1.00  0.00    -0.387 OA
ATOM     39  H   UNL     1     474.643  37.968 462.864  1.00  0.00     0.211 HD
ENDBRANCH  30  38
ENDBRANCH   1  25
TORSDOF 11
ENDMDL
