MODEL 1
REMARK VINA RESULT:    -4.394      0.000      0.000
REMARK INTER + INTRA:          -5.618
REMARK INTER:                  -5.293
REMARK INTRA:                  -0.325
REMARK UNBOUND:                -0.325
REMARK SMILES O=c1c(O)c(-c2ccc(O)c(O)c2)oc2cc(O)cc(O)c12
REMARK SMILES IDX 5 1 3 2 2 3 1 4 22 5 20 6 19 7 17 8 16 9 15 10 14 11 6 12
REMARK SMILES IDX 7 13 8 14 9 15 13 16 11 17 10 18 12 20 4 22 21 24 18 26
REMARK H PARENT 10 19 12 21 4 23 21 25 18 27
REMARK Flexibility Score: inf
ROOT
ATOM      1  C   UNL     1      -0.154   3.303   3.579  1.00  0.00     0.180 A 
ATOM      2  C   UNL     1      -1.402   2.879   3.085  1.00  0.00     0.208 A 
ATOM      3  C   UNL     1      -1.913   1.641   3.507  1.00  0.00     0.238 A 
ATOM      4  O   UNL     1      -3.034   1.255   3.079  1.00  0.00    -0.285 OA
ATOM      5  C   UNL     1      -1.162   0.844   4.395  1.00  0.00     0.111 A 
ATOM      6  C   UNL     1      -1.604  -0.418   4.864  1.00  0.00     0.134 A 
ATOM      7  C   UNL     1      -0.794  -1.155   5.740  1.00  0.00     0.093 A 
ATOM      8  C   UNL     1       0.447  -0.657   6.154  1.00  0.00     0.123 A 
ATOM      9  C   UNL     1       0.885   0.585   5.695  1.00  0.00     0.094 A 
ATOM     10  C   UNL     1       0.093   1.337   4.822  1.00  0.00     0.146 A 
ATOM     11  O   UNL     1       0.532   2.519   4.405  1.00  0.00    -0.452 OA
ENDROOT
BRANCH   1  12
ATOM     12  C   UNL     1       0.442   4.604   3.198  1.00  0.00     0.025 A 
ATOM     13  C   UNL     1       0.128   5.752   3.945  1.00  0.00     0.016 A 
ATOM     14  C   UNL     1       0.662   6.994   3.592  1.00  0.00     0.051 A 
ATOM     15  C   UNL     1       1.506   7.109   2.479  1.00  0.00     0.157 A 
ATOM     16  C   UNL     1       1.272   4.728   2.070  1.00  0.00     0.062 A 
ATOM     17  C   UNL     1       1.808   5.975   1.714  1.00  0.00     0.158 A 
BRANCH  15  18
ATOM     18  O   UNL     1       2.042   8.345   2.124  1.00  0.00    -0.504 OA
ATOM     19  H   UNL     1       2.461   8.959   2.813  1.00  0.00     0.293 HD
ENDBRANCH  15  18
BRANCH  17  20
ATOM     20  O   UNL     1       2.635   6.095   0.599  1.00  0.00    -0.504 OA
ATOM     21  H   UNL     1       2.713   6.967   0.089  1.00  0.00     0.293 HD
ENDBRANCH  17  20
ENDBRANCH   1  12
BRANCH   2  22
ATOM     22  O   UNL     1      -2.103   3.665   2.167  1.00  0.00    -0.502 OA
ATOM     23  H   UNL     1      -2.842   4.298   2.448  1.00  0.00     0.293 HD
ENDBRANCH   2  22
BRANCH   6  24
ATOM     24  O   UNL     1      -2.834  -0.942   4.468  1.00  0.00    -0.507 OA
ATOM     25  H   UNL     1      -2.905  -1.658   3.755  1.00  0.00     0.293 HD
ENDBRANCH   6  24
BRANCH   8  26
ATOM     26  O   UNL     1       1.252  -1.391   7.024  1.00  0.00    -0.508 OA
ATOM     27  H   UNL     1       1.710  -0.956   7.816  1.00  0.00     0.293 HD
ENDBRANCH   8  26
TORSDOF 6
ENDMDL
MODEL 2
REMARK VINA RESULT:    -4.372      1.540      3.090
REMARK INTER + INTRA:          -5.591
REMARK INTER:                  -5.303
REMARK INTRA:                  -0.287
REMARK UNBOUND:                -0.325
REMARK SMILES O=c1c(O)c(-c2ccc(O)c(O)c2)oc2cc(O)cc(O)c12
REMARK SMILES IDX 5 1 3 2 2 3 1 4 22 5 20 6 19 7 17 8 16 9 15 10 14 11 6 12
REMARK SMILES IDX 7 13 8 14 9 15 13 16 11 17 10 18 12 20 4 22 21 24 18 26
REMARK H PARENT 10 19 12 21 4 23 21 25 18 27
REMARK Flexibility Score: inf
ROOT
ATOM      1  C   UNL     1      -0.488   2.698   3.418  1.00  0.00     0.180 A 
ATOM      2  C   UNL     1       0.113   1.940   4.442  1.00  0.00     0.208 A 
ATOM      3  C   UNL     1      -0.371   0.649   4.702  1.00  0.00     0.238 A 
ATOM      4  O   UNL     1       0.166  -0.043   5.610  1.00  0.00    -0.285 OA
ATOM      5  C   UNL     1      -1.454   0.146   3.953  1.00  0.00     0.111 A 
ATOM      6  C   UNL     1      -2.004  -1.143   4.156  1.00  0.00     0.134 A 
ATOM      7  C   UNL     1      -3.089  -1.567   3.375  1.00  0.00     0.093 A 
ATOM      8  C   UNL     1      -3.635  -0.727   2.397  1.00  0.00     0.123 A 
ATOM      9  C   UNL     1      -3.096   0.543   2.193  1.00  0.00     0.094 A 
ATOM     10  C   UNL     1      -2.014   0.984   2.961  1.00  0.00     0.146 A 
ATOM     11  O   UNL     1      -1.517   2.196   2.741  1.00  0.00    -0.452 OA
ENDROOT
BRANCH   1  12
ATOM     12  C   UNL     1      -0.021   4.059   3.069  1.00  0.00     0.025 A 
ATOM     13  C   UNL     1      -0.425   5.150   3.857  1.00  0.00     0.016 A 
ATOM     14  C   UNL     1      -0.014   6.446   3.536  1.00  0.00     0.051 A 
ATOM     15  C   UNL     1       0.796   6.672   2.414  1.00  0.00     0.157 A 
ATOM     16  C   UNL     1       0.774   4.294   1.933  1.00  0.00     0.062 A 
ATOM     17  C   UNL     1       1.186   5.595   1.609  1.00  0.00     0.158 A 
BRANCH  15  18
ATOM     18  O   UNL     1       1.210   7.963   2.091  1.00  0.00    -0.504 OA
ATOM     19  H   UNL     1       0.882   8.431   1.255  1.00  0.00     0.293 HD
ENDBRANCH  15  18
BRANCH  17  20
ATOM     20  O   UNL     1       1.979   5.825   0.486  1.00  0.00    -0.504 OA
ATOM     21  H   UNL     1       2.542   6.663   0.398  1.00  0.00     0.293 HD
ENDBRANCH  17  20
ENDBRANCH   1  12
BRANCH   2  22
ATOM     22  O   UNL     1       1.152   2.480   5.203  1.00  0.00    -0.502 OA
ATOM     23  H   UNL     1       1.329   3.476   5.251  1.00  0.00     0.293 HD
ENDBRANCH   2  22
BRANCH   6  24
ATOM     24  O   UNL     1      -1.483  -2.002   5.124  1.00  0.00    -0.507 OA
ATOM     25  H   UNL     1      -1.893  -2.076   6.048  1.00  0.00     0.293 HD
ENDBRANCH   6  24
BRANCH   8  26
ATOM     26  O   UNL     1      -4.713  -1.149   1.622  1.00  0.00    -0.508 OA
ATOM     27  H   UNL     1      -5.668  -0.924   1.875  1.00  0.00     0.293 HD
ENDBRANCH   8  26
TORSDOF 6
ENDMDL
MODEL 3
REMARK VINA RESULT:    -4.265      8.808     11.752
REMARK INTER + INTRA:          -5.462
REMARK INTER:                  -5.161
REMARK INTRA:                  -0.302
REMARK UNBOUND:                -0.325
REMARK SMILES O=c1c(O)c(-c2ccc(O)c(O)c2)oc2cc(O)cc(O)c12
REMARK SMILES IDX 5 1 3 2 2 3 1 4 22 5 20 6 19 7 17 8 16 9 15 10 14 11 6 12
REMARK SMILES IDX 7 13 8 14 9 15 13 16 11 17 10 18 12 20 4 22 21 24 18 26
REMARK H PARENT 10 19 12 21 4 23 21 25 18 27
REMARK Flexibility Score: inf
ROOT
ATOM      1  C   UNL     1      -4.869  11.813   2.023  1.00  0.00     0.180 A 
ATOM      2  C   UNL     1      -4.113  10.636   2.187  1.00  0.00     0.208 A 
ATOM      3  C   UNL     1      -2.874  10.712   2.841  1.00  0.00     0.238 A 
ATOM      4  O   UNL     1      -2.192   9.663   3.002  1.00  0.00    -0.285 OA
ATOM      5  C   UNL     1      -2.404  11.959   3.301  1.00  0.00     0.111 A 
ATOM      6  C   UNL     1      -1.164  12.121   3.966  1.00  0.00     0.134 A 
ATOM      7  C   UNL     1      -0.763  13.398   4.385  1.00  0.00     0.093 A 
ATOM      8  C   UNL     1      -1.575  14.514   4.152  1.00  0.00     0.123 A 
ATOM      9  C   UNL     1      -2.798  14.358   3.498  1.00  0.00     0.094 A 
ATOM     10  C   UNL     1      -3.217  13.093   3.073  1.00  0.00     0.146 A 
ATOM     11  O   UNL     1      -4.388  12.973   2.458  1.00  0.00    -0.452 OA
ENDROOT
BRANCH   1  12
ATOM     12  C   UNL     1      -6.194  11.811   1.363  1.00  0.00     0.025 A 
ATOM     13  C   UNL     1      -7.357  11.747   2.148  1.00  0.00     0.016 A 
ATOM     14  C   UNL     1      -8.618  11.723   1.546  1.00  0.00     0.051 A 
ATOM     15  C   UNL     1      -8.734  11.750   0.150  1.00  0.00     0.157 A 
ATOM     16  C   UNL     1      -6.315  11.816  -0.039  1.00  0.00     0.062 A 
ATOM     17  C   UNL     1      -7.580  11.791  -0.644  1.00  0.00     0.158 A 
BRANCH  15  18
ATOM     18  O   UNL     1      -9.989  11.728  -0.455  1.00  0.00    -0.504 OA
ATOM     19  H   UNL     1     -10.095  11.572  -1.450  1.00  0.00     0.293 HD
ENDBRANCH  15  18
BRANCH  17  20
ATOM     20  O   UNL     1      -7.699  11.802  -2.033  1.00  0.00    -0.504 OA
ATOM     21  H   UNL     1      -7.285  12.537  -2.594  1.00  0.00     0.293 HD
ENDBRANCH  17  20
ENDBRANCH   1  12
BRANCH   2  22
ATOM     22  O   UNL     1      -4.579   9.421   1.678  1.00  0.00    -0.502 OA
ATOM     23  H   UNL     1      -4.670   8.592   2.251  1.00  0.00     0.293 HD
ENDBRANCH   2  22
BRANCH   6  24
ATOM     24  O   UNL     1      -0.331  11.030   4.211  1.00  0.00    -0.507 OA
ATOM     25  H   UNL     1       0.194  10.581   3.470  1.00  0.00     0.293 HD
ENDBRANCH   6  24
BRANCH   8  26
ATOM     26  O   UNL     1      -1.176  15.782   4.568  1.00  0.00    -0.508 OA
ATOM     27  H   UNL     1      -1.796  16.388   5.092  1.00  0.00     0.293 HD
ENDBRANCH   8  26
TORSDOF 6
ENDMDL
MODEL 4
REMARK VINA RESULT:    -4.249      9.694     11.958
REMARK INTER + INTRA:          -5.444
REMARK INTER:                  -5.112
REMARK INTRA:                  -0.332
REMARK UNBOUND:                -0.325
REMARK SMILES O=c1c(O)c(-c2ccc(O)c(O)c2)oc2cc(O)cc(O)c12
REMARK SMILES IDX 5 1 3 2 2 3 1 4 22 5 20 6 19 7 17 8 16 9 15 10 14 11 6 12
REMARK SMILES IDX 7 13 8 14 9 15 13 16 11 17 10 18 12 20 4 22 21 24 18 26
REMARK H PARENT 10 19 12 21 4 23 21 25 18 27
REMARK Flexibility Score: inf
ROOT
ATOM      1  C   UNL     1      -6.332   8.178  -3.216  1.00  0.00     0.180 A 
ATOM      2  C   UNL     1      -5.802   7.159  -2.400  1.00  0.00     0.208 A 
ATOM      3  C   UNL     1      -4.777   6.347  -2.910  1.00  0.00     0.238 A 
ATOM      4  O   UNL     1      -4.288   5.439  -2.185  1.00  0.00    -0.285 OA
ATOM      5  C   UNL     1      -4.314   6.553  -4.225  1.00  0.00     0.111 A 
ATOM      6  C   UNL     1      -3.287   5.776  -4.815  1.00  0.00     0.134 A 
ATOM      7  C   UNL     1      -2.888   6.038  -6.134  1.00  0.00     0.093 A 
ATOM      8  C   UNL     1      -3.496   7.058  -6.874  1.00  0.00     0.123 A 
ATOM      9  C   UNL     1      -4.507   7.827  -6.297  1.00  0.00     0.094 A 
ATOM     10  C   UNL     1      -4.919   7.583  -4.983  1.00  0.00     0.146 A 
ATOM     11  O   UNL     1      -5.880   8.333  -4.457  1.00  0.00    -0.452 OA
ENDROOT
BRANCH   1  12
ATOM     12  C   UNL     1      -7.400   9.088  -2.744  1.00  0.00     0.025 A 
ATOM     13  C   UNL     1      -8.744   8.757  -2.983  1.00  0.00     0.016 A 
ATOM     14  C   UNL     1      -9.769   9.610  -2.565  1.00  0.00     0.051 A 
ATOM     15  C   UNL     1      -9.464  10.813  -1.913  1.00  0.00     0.157 A 
ATOM     16  C   UNL     1      -7.099  10.305  -2.108  1.00  0.00     0.062 A 
ATOM     17  C   UNL     1      -8.127  11.163  -1.688  1.00  0.00     0.158 A 
BRANCH  15  18
ATOM     18  O   UNL     1     -10.482  11.666  -1.493  1.00  0.00    -0.504 OA
ATOM     19  H   UNL     1     -11.413  11.320  -1.291  1.00  0.00     0.293 HD
ENDBRANCH  15  18
BRANCH  17  20
ATOM     20  O   UNL     1      -7.826  12.367  -1.053  1.00  0.00    -0.504 OA
ATOM     21  H   UNL     1      -7.581  12.401  -0.071  1.00  0.00     0.293 HD
ENDBRANCH  17  20
ENDBRANCH   1  12
BRANCH   2  22
ATOM     22  O   UNL     1      -6.313   6.944  -1.118  1.00  0.00    -0.502 OA
ATOM     23  H   UNL     1      -6.821   6.103  -0.871  1.00  0.00     0.293 HD
ENDBRANCH   2  22
BRANCH   6  24
ATOM     24  O   UNL     1      -2.663   4.751  -4.104  1.00  0.00    -0.507 OA
ATOM     25  H   UNL     1      -3.194   4.051  -3.600  1.00  0.00     0.293 HD
ENDBRANCH   6  24
BRANCH   8  26
ATOM     26  O   UNL     1      -3.100   7.317  -8.185  1.00  0.00    -0.508 OA
ATOM     27  H   UNL     1      -2.243   7.817  -8.391  1.00  0.00     0.293 HD
ENDBRANCH   8  26
TORSDOF 6
ENDMDL
MODEL 5
REMARK VINA RESULT:    -4.220      9.192     10.851
REMARK INTER + INTRA:          -5.409
REMARK INTER:                  -5.084
REMARK INTRA:                  -0.325
REMARK UNBOUND:                -0.325
REMARK SMILES O=c1c(O)c(-c2ccc(O)c(O)c2)oc2cc(O)cc(O)c12
REMARK SMILES IDX 5 1 3 2 2 3 1 4 22 5 20 6 19 7 17 8 16 9 15 10 14 11 6 12
REMARK SMILES IDX 7 13 8 14 9 15 13 16 11 17 10 18 12 20 4 22 21 24 18 26
REMARK H PARENT 10 19 12 21 4 23 21 25 18 27
REMARK Flexibility Score: inf
ROOT
ATOM      1  C   UNL     1      -6.196   9.519  -1.245  1.00  0.00     0.180 A 
ATOM      2  C   UNL     1      -7.167   9.825  -2.218  1.00  0.00     0.208 A 
ATOM      3  C   UNL     1      -7.354   8.940  -3.291  1.00  0.00     0.238 A 
ATOM      4  O   UNL     1      -8.228   9.198  -4.163  1.00  0.00    -0.285 OA
ATOM      5  C   UNL     1      -6.559   7.780  -3.384  1.00  0.00     0.111 A 
ATOM      6  C   UNL     1      -6.682   6.839  -4.436  1.00  0.00     0.134 A 
ATOM      7  C   UNL     1      -5.846   5.713  -4.463  1.00  0.00     0.093 A 
ATOM      8  C   UNL     1      -4.890   5.511  -3.461  1.00  0.00     0.123 A 
ATOM      9  C   UNL     1      -4.766   6.434  -2.422  1.00  0.00     0.094 A 
ATOM     10  C   UNL     1      -5.590   7.563  -2.377  1.00  0.00     0.146 A 
ATOM     11  O   UNL     1      -5.454   8.423  -1.374  1.00  0.00    -0.452 OA
ENDROOT
BRANCH   1  12
ATOM     12  C   UNL     1      -5.953  10.392  -0.074  1.00  0.00     0.025 A 
ATOM     13  C   UNL     1      -6.686  10.183   1.106  1.00  0.00     0.016 A 
ATOM     14  C   UNL     1      -6.489  11.007   2.217  1.00  0.00     0.051 A 
ATOM     15  C   UNL     1      -5.566  12.060   2.160  1.00  0.00     0.157 A 
ATOM     16  C   UNL     1      -5.044  11.463  -0.134  1.00  0.00     0.062 A 
ATOM     17  C   UNL     1      -4.846  12.291   0.981  1.00  0.00     0.158 A 
BRANCH  15  18
ATOM     18  O   UNL     1      -5.365  12.883   3.266  1.00  0.00    -0.504 OA
ATOM     19  H   UNL     1      -6.141  13.215   3.828  1.00  0.00     0.293 HD
ENDBRANCH  15  18
BRANCH  17  20
ATOM     20  O   UNL     1      -3.940  13.349   0.923  1.00  0.00    -0.504 OA
ATOM     21  H   UNL     1      -4.064  14.184   1.483  1.00  0.00     0.293 HD
ENDBRANCH  17  20
ENDBRANCH   1  12
BRANCH   2  22
ATOM     22  O   UNL     1      -7.908  11.006  -2.129  1.00  0.00    -0.502 OA
ATOM     23  H   UNL     1      -7.874  11.722  -2.844  1.00  0.00     0.293 HD
ENDBRANCH   2  22
BRANCH   6  24
ATOM     24  O   UNL     1      -7.623   7.014  -5.450  1.00  0.00    -0.507 OA
ATOM     25  H   UNL     1      -8.161   7.868  -5.539  1.00  0.00     0.293 HD
ENDBRANCH   6  24
BRANCH   8  26
ATOM     26  O   UNL     1      -4.059   4.393  -3.488  1.00  0.00    -0.508 OA
ATOM     27  H   UNL     1      -4.395   3.476  -3.217  1.00  0.00     0.293 HD
ENDBRANCH   8  26
TORSDOF 6
ENDMDL
MODEL 6
REMARK VINA RESULT:    -4.190      9.887     12.020
REMARK INTER + INTRA:          -5.372
REMARK INTER:                  -5.054
REMARK INTRA:                  -0.318
REMARK UNBOUND:                -0.325
REMARK SMILES O=c1c(O)c(-c2ccc(O)c(O)c2)oc2cc(O)cc(O)c12
REMARK SMILES IDX 5 1 3 2 2 3 1 4 22 5 20 6 19 7 17 8 16 9 15 10 14 11 6 12
REMARK SMILES IDX 7 13 8 14 9 15 13 16 11 17 10 18 12 20 4 22 21 24 18 26
REMARK H PARENT 10 19 12 21 4 23 21 25 18 27
REMARK Flexibility Score: inf
ROOT
ATOM      1  C   UNL     1      -5.405  12.182   1.703  1.00  0.00     0.180 A 
ATOM      2  C   UNL     1      -5.519  12.224   0.300  1.00  0.00     0.208 A 
ATOM      3  C   UNL     1      -6.782  12.037  -0.283  1.00  0.00     0.238 A 
ATOM      4  O   UNL     1      -6.898  12.082  -1.538  1.00  0.00    -0.285 OA
ATOM      5  C   UNL     1      -7.901  11.795   0.540  1.00  0.00     0.111 A 
ATOM      6  C   UNL     1      -9.207  11.593   0.031  1.00  0.00     0.134 A 
ATOM      7  C   UNL     1     -10.267  11.348   0.915  1.00  0.00     0.093 A 
ATOM      8  C   UNL     1     -10.047  11.300   2.297  1.00  0.00     0.123 A 
ATOM      9  C   UNL     1      -8.762  11.499   2.803  1.00  0.00     0.094 A 
ATOM     10  C   UNL     1      -7.692  11.746   1.937  1.00  0.00     0.146 A 
ATOM     11  O   UNL     1      -6.480  11.938   2.446  1.00  0.00    -0.452 OA
ENDROOT
BRANCH   1  12
ATOM     12  C   UNL     1      -4.112  12.390   2.393  1.00  0.00     0.025 A 
ATOM     13  C   UNL     1      -3.399  11.278   2.873  1.00  0.00     0.016 A 
ATOM     14  C   UNL     1      -2.187  11.450   3.545  1.00  0.00     0.051 A 
ATOM     15  C   UNL     1      -1.676  12.737   3.761  1.00  0.00     0.157 A 
ATOM     16  C   UNL     1      -3.606  13.680   2.630  1.00  0.00     0.062 A 
ATOM     17  C   UNL     1      -2.389  13.854   3.306  1.00  0.00     0.158 A 
BRANCH  15  18
ATOM     18  O   UNL     1      -0.466  12.914   4.429  1.00  0.00    -0.504 OA
ATOM     19  H   UNL     1      -0.419  12.941   5.441  1.00  0.00     0.293 HD
ENDBRANCH  15  18
BRANCH  17  20
ATOM     20  O   UNL     1      -1.885  15.134   3.535  1.00  0.00    -0.504 OA
ATOM     21  H   UNL     1      -2.464  15.958   3.426  1.00  0.00     0.293 HD
ENDBRANCH  17  20
ENDBRANCH   1  12
BRANCH   2  22
ATOM     22  O   UNL     1      -4.387  12.416  -0.495  1.00  0.00    -0.502 OA
ATOM     23  H   UNL     1      -4.173  13.305  -0.929  1.00  0.00     0.293 HD
ENDBRANCH   2  22
BRANCH   6  24
ATOM     24  O   UNL     1      -9.458  11.633  -1.341  1.00  0.00    -0.507 OA
ATOM     25  H   UNL     1      -8.708  11.631  -2.022  1.00  0.00     0.293 HD
ENDBRANCH   6  24
BRANCH   8  26
ATOM     26  O   UNL     1     -11.101  11.056   3.175  1.00  0.00    -0.508 OA
ATOM     27  H   UNL     1     -11.640  10.199   3.130  1.00  0.00     0.293 HD
ENDBRANCH   8  26
TORSDOF 6
ENDMDL
MODEL 7
REMARK VINA RESULT:    -4.156      9.213     11.627
REMARK INTER + INTRA:          -5.332
REMARK INTER:                  -5.073
REMARK INTRA:                  -0.259
REMARK UNBOUND:                -0.325
REMARK SMILES O=c1c(O)c(-c2ccc(O)c(O)c2)oc2cc(O)cc(O)c12
REMARK SMILES IDX 5 1 3 2 2 3 1 4 22 5 20 6 19 7 17 8 16 9 15 10 14 11 6 12
REMARK SMILES IDX 7 13 8 14 9 15 13 16 11 17 10 18 12 20 4 22 21 24 18 26
REMARK H PARENT 10 19 12 21 4 23 21 25 18 27
REMARK Flexibility Score: inf
ROOT
ATOM      1  C   UNL     1      -3.735  13.075   2.400  1.00  0.00     0.180 A 
ATOM      2  C   UNL     1      -3.414  11.792   2.885  1.00  0.00     0.208 A 
ATOM      3  C   UNL     1      -3.973  10.670   2.254  1.00  0.00     0.238 A 
ATOM      4  O   UNL     1      -3.686   9.516   2.673  1.00  0.00    -0.285 OA
ATOM      5  C   UNL     1      -4.853  10.848   1.167  1.00  0.00     0.111 A 
ATOM      6  C   UNL     1      -5.461   9.769   0.479  1.00  0.00     0.134 A 
ATOM      7  C   UNL     1      -6.333  10.029  -0.588  1.00  0.00     0.093 A 
ATOM      8  C   UNL     1      -6.610  11.344  -0.979  1.00  0.00     0.123 A 
ATOM      9  C   UNL     1      -6.012  12.410  -0.305  1.00  0.00     0.094 A 
ATOM     10  C   UNL     1      -5.139  12.172   0.761  1.00  0.00     0.146 A 
ATOM     11  O   UNL     1      -4.580  13.204   1.381  1.00  0.00    -0.452 OA
ENDROOT
BRANCH   1  12
ATOM     12  C   UNL     1      -3.171  14.306   2.998  1.00  0.00     0.025 A 
ATOM     13  C   UNL     1      -3.679  14.775   4.220  1.00  0.00     0.016 A 
ATOM     14  C   UNL     1      -3.177  15.946   4.794  1.00  0.00     0.051 A 
ATOM     15  C   UNL     1      -2.167  16.672   4.148  1.00  0.00     0.157 A 
ATOM     16  C   UNL     1      -2.172  15.049   2.343  1.00  0.00     0.062 A 
ATOM     17  C   UNL     1      -1.667  16.225   2.918  1.00  0.00     0.158 A 
BRANCH  15  18
ATOM     18  O   UNL     1      -1.661  17.838   4.718  1.00  0.00    -0.504 OA
ATOM     19  H   UNL     1      -2.179  18.352   5.421  1.00  0.00     0.293 HD
ENDBRANCH  15  18
BRANCH  17  20
ATOM     20  O   UNL     1      -0.674  16.957   2.271  1.00  0.00    -0.504 OA
ATOM     21  H   UNL     1      -0.380  16.732   1.327  1.00  0.00     0.293 HD
ENDBRANCH  17  20
ENDBRANCH   1  12
BRANCH   2  22
ATOM     22  O   UNL     1      -2.579  11.646   3.995  1.00  0.00    -0.502 OA
ATOM     23  H   UNL     1      -2.415  10.749   4.436  1.00  0.00     0.293 HD
ENDBRANCH   2  22
BRANCH   6  24
ATOM     24  O   UNL     1      -5.207   8.448   0.846  1.00  0.00    -0.507 OA
ATOM     25  H   UNL     1      -4.575   8.216   1.603  1.00  0.00     0.293 HD
ENDBRANCH   6  24
BRANCH   8  26
ATOM     26  O   UNL     1      -7.477  11.602  -2.039  1.00  0.00    -0.508 OA
ATOM     27  H   UNL     1      -7.384  12.434  -2.610  1.00  0.00     0.293 HD
ENDBRANCH   8  26
TORSDOF 6
ENDMDL
MODEL 8
REMARK VINA RESULT:    -4.150      9.287     11.727
REMARK INTER + INTRA:          -5.324
REMARK INTER:                  -5.040
REMARK INTRA:                  -0.284
REMARK UNBOUND:                -0.325
REMARK SMILES O=c1c(O)c(-c2ccc(O)c(O)c2)oc2cc(O)cc(O)c12
REMARK SMILES IDX 5 1 3 2 2 3 1 4 22 5 20 6 19 7 17 8 16 9 15 10 14 11 6 12
REMARK SMILES IDX 7 13 8 14 9 15 13 16 11 17 10 18 12 20 4 22 21 24 18 26
REMARK H PARENT 10 19 12 21 4 23 21 25 18 27
REMARK Flexibility Score: inf
ROOT
ATOM      1  C   UNL     1      -6.158   8.258  -2.678  1.00  0.00     0.180 A 
ATOM      2  C   UNL     1      -7.442   8.455  -3.221  1.00  0.00     0.208 A 
ATOM      3  C   UNL     1      -8.271   9.439  -2.660  1.00  0.00     0.238 A 
ATOM      4  O   UNL     1      -9.419   9.632  -3.145  1.00  0.00    -0.285 OA
ATOM      5  C   UNL     1      -7.814  10.192  -1.560  1.00  0.00     0.111 A 
ATOM      6  C   UNL     1      -8.589  11.199  -0.934  1.00  0.00     0.134 A 
ATOM      7  C   UNL     1      -8.066  11.898   0.163  1.00  0.00     0.093 A 
ATOM      8  C   UNL     1      -6.785  11.609   0.647  1.00  0.00     0.123 A 
ATOM      9  C   UNL     1      -6.017  10.619   0.034  1.00  0.00     0.094 A 
ATOM     10  C   UNL     1      -6.520   9.911  -1.062  1.00  0.00     0.146 A 
ATOM     11  O   UNL     1      -5.766   8.977  -1.630  1.00  0.00    -0.452 OA
ENDROOT
BRANCH   1  12
ATOM     12  C   UNL     1      -5.217   7.255  -3.226  1.00  0.00     0.025 A 
ATOM     13  C   UNL     1      -4.966   6.077  -2.504  1.00  0.00     0.016 A 
ATOM     14  C   UNL     1      -4.067   5.125  -2.991  1.00  0.00     0.051 A 
ATOM     15  C   UNL     1      -3.396   5.343  -4.202  1.00  0.00     0.157 A 
ATOM     16  C   UNL     1      -4.525   7.479  -4.430  1.00  0.00     0.062 A 
ATOM     17  C   UNL     1      -3.622   6.524  -4.920  1.00  0.00     0.158 A 
BRANCH  15  18
ATOM     18  O   UNL     1      -2.500   4.396  -4.693  1.00  0.00    -0.504 OA
ATOM     19  H   UNL     1      -1.793   4.640  -5.377  1.00  0.00     0.293 HD
ENDBRANCH  15  18
BRANCH  17  20
ATOM     20  O   UNL     1      -2.941   6.745  -6.116  1.00  0.00    -0.504 OA
ATOM     21  H   UNL     1      -2.118   7.334  -6.156  1.00  0.00     0.293 HD
ENDBRANCH  17  20
ENDBRANCH   1  12
BRANCH   2  22
ATOM     22  O   UNL     1      -7.890   7.662  -4.280  1.00  0.00    -0.502 OA
ATOM     23  H   UNL     1      -7.280   7.024  -4.776  1.00  0.00     0.293 HD
ENDBRANCH   2  22
BRANCH   6  24
ATOM     24  O   UNL     1      -9.870  11.508  -1.393  1.00  0.00    -0.507 OA
ATOM     25  H   UNL     1     -10.137  12.455  -1.633  1.00  0.00     0.293 HD
ENDBRANCH   6  24
BRANCH   8  26
ATOM     26  O   UNL     1      -6.266  12.304   1.738  1.00  0.00    -0.508 OA
ATOM     27  H   UNL     1      -5.773  11.827   2.484  1.00  0.00     0.293 HD
ENDBRANCH   8  26
TORSDOF 6
ENDMDL
MODEL 9
REMARK VINA RESULT:    -4.066      2.988      8.821
REMARK INTER + INTRA:          -5.223
REMARK INTER:                  -4.893
REMARK INTRA:                  -0.330
REMARK UNBOUND:                -0.325
REMARK SMILES O=c1c(O)c(-c2ccc(O)c(O)c2)oc2cc(O)cc(O)c12
REMARK SMILES IDX 5 1 3 2 2 3 1 4 22 5 20 6 19 7 17 8 16 9 15 10 14 11 6 12
REMARK SMILES IDX 7 13 8 14 9 15 13 16 11 17 10 18 12 20 4 22 21 24 18 26
REMARK H PARENT 10 19 12 21 4 23 21 25 18 27
REMARK Flexibility Score: inf
ROOT
ATOM      1  C   UNL     1       2.991   6.455   2.325  1.00  0.00     0.180 A 
ATOM      2  C   UNL     1       4.239   6.295   1.692  1.00  0.00     0.208 A 
ATOM      3  C   UNL     1       5.049   7.425   1.495  1.00  0.00     0.238 A 
ATOM      4  O   UNL     1       6.172   7.293   0.939  1.00  0.00    -0.285 OA
ATOM      5  C   UNL     1       4.592   8.691   1.914  1.00  0.00     0.111 A 
ATOM      6  C   UNL     1       5.344   9.880   1.749  1.00  0.00     0.134 A 
ATOM      7  C   UNL     1       4.816  11.103   2.185  1.00  0.00     0.093 A 
ATOM      8  C   UNL     1       3.550  11.162   2.780  1.00  0.00     0.123 A 
ATOM      9  C   UNL     1       2.806   9.994   2.946  1.00  0.00     0.094 A 
ATOM     10  C   UNL     1       3.315   8.764   2.519  1.00  0.00     0.146 A 
ATOM     11  O   UNL     1       2.587   7.667   2.694  1.00  0.00    -0.452 OA
ENDROOT
BRANCH   1  12
ATOM     12  C   UNL     1       2.090   5.310   2.587  1.00  0.00     0.025 A 
ATOM     13  C   UNL     1       1.126   4.957   1.628  1.00  0.00     0.016 A 
ATOM     14  C   UNL     1       0.251   3.893   1.862  1.00  0.00     0.051 A 
ATOM     15  C   UNL     1       0.319   3.174   3.063  1.00  0.00     0.157 A 
ATOM     16  C   UNL     1       2.140   4.599   3.799  1.00  0.00     0.062 A 
ATOM     17  C   UNL     1       1.261   3.531   4.035  1.00  0.00     0.158 A 
BRANCH  15  18
ATOM     18  O   UNL     1      -0.551   2.111   3.299  1.00  0.00    -0.504 OA
ATOM     19  H   UNL     1      -1.305   2.183   3.972  1.00  0.00     0.293 HD
ENDBRANCH  15  18
BRANCH  17  20
ATOM     20  O   UNL     1       1.316   2.824   5.235  1.00  0.00    -0.504 OA
ATOM     21  H   UNL     1       1.376   3.300   6.128  1.00  0.00     0.293 HD
ENDBRANCH  17  20
ENDBRANCH   1  12
BRANCH   2  22
ATOM     22  O   UNL     1       4.647   5.038   1.242  1.00  0.00    -0.502 OA
ATOM     23  H   UNL     1       4.623   4.778   0.263  1.00  0.00     0.293 HD
ENDBRANCH   2  22
BRANCH   6  24
ATOM     24  O   UNL     1       6.608   9.854   1.158  1.00  0.00    -0.507 OA
ATOM     25  H   UNL     1       7.209  10.669   1.147  1.00  0.00     0.293 HD
ENDBRANCH   6  24
BRANCH   8  26
ATOM     26  O   UNL     1       3.025  12.378   3.212  1.00  0.00    -0.508 OA
ATOM     27  H   UNL     1       2.099  12.441   3.619  1.00  0.00     0.293 HD
ENDBRANCH   8  26
TORSDOF 6
ENDMDL
