MODEL 1
REMARK VINA RESULT:    -3.983      0.000      0.000
REMARK INTER + INTRA:          -5.260
REMARK INTER:                  -5.147
REMARK INTRA:                  -0.113
REMARK UNBOUND:                -0.113
REMARK SMILES CCCCCCC(=O)[O-]
REMARK SMILES IDX 5 1 6 2 7 3 8 4 9 5 4 6 3 7 2 8 1 9
REMARK H PARENT
REMARK Flexibility Score: inf
ROOT
ATOM      1  C   UNL     1      -4.919  -6.741  -6.347  1.00  0.00     0.006 C 
ENDROOT
BRANCH   1   2
ATOM      2  C   UNL     1      -6.226  -6.064  -6.787  1.00  0.00     0.053 C 
BRANCH   2   3
ATOM      3  C   UNL     1      -7.240  -6.029  -5.685  1.00  0.00     0.041 C 
ATOM      4  O   UNL     1      -7.107  -6.774  -4.679  1.00  0.00    -0.550 OA
ATOM      5  O   UNL     1      -8.349  -5.199  -5.786  1.00  0.00    -0.550 OA
ENDBRANCH   2   3
ENDBRANCH   1   2
BRANCH   1   6
ATOM      6  C   UNL     1      -3.909  -5.789  -5.680  1.00  0.00     0.000 C 
BRANCH   6   7
ATOM      7  C   UNL     1      -4.148  -4.315  -6.049  1.00  0.00    -0.000 C 
BRANCH   7   8
ATOM      8  C   UNL     1      -2.977  -3.409  -5.639  1.00  0.00    -0.003 C 
ATOM      9  C   UNL     1      -3.243  -1.933  -5.936  1.00  0.00     0.004 C 
ENDBRANCH   7   8
ENDBRANCH   6   7
ENDBRANCH   1   6
TORSDOF 5
ENDMDL
MODEL 2
REMARK VINA RESULT:    -3.793      4.437      6.359
REMARK INTER + INTRA:          -5.015
REMARK INTER:                  -4.724
REMARK INTRA:                  -0.291
REMARK UNBOUND:                -0.113
REMARK SMILES CCCCCCC(=O)[O-]
REMARK SMILES IDX 5 1 6 2 7 3 8 4 9 5 4 6 3 7 2 8 1 9
REMARK H PARENT
REMARK Flexibility Score: inf
ROOT
ATOM      1  C   UNL     1     -11.125  -4.119  -3.095  1.00  0.00     0.006 C 
ENDROOT
BRANCH   1   2
ATOM      2  C   UNL     1     -10.788  -3.268  -1.860  1.00  0.00     0.053 C 
BRANCH   2   3
ATOM      3  C   UNL     1      -9.310  -3.098  -1.682  1.00  0.00     0.041 C 
ATOM      4  O   UNL     1      -8.796  -1.949  -1.719  1.00  0.00    -0.550 OA
ATOM      5  O   UNL     1      -8.497  -4.211  -1.511  1.00  0.00    -0.550 OA
ENDBRANCH   2   3
ENDBRANCH   1   2
BRANCH   1   6
ATOM      6  C   UNL     1     -11.053  -3.353  -4.428  1.00  0.00     0.000 C 
BRANCH   6   7
ATOM      7  C   UNL     1      -9.797  -3.701  -5.246  1.00  0.00    -0.000 C 
BRANCH   7   8
ATOM      8  C   UNL     1      -9.439  -5.193  -5.168  1.00  0.00    -0.003 C 
ATOM      9  C   UNL     1      -8.008  -5.479  -5.625  1.00  0.00     0.004 C 
ENDBRANCH   7   8
ENDBRANCH   6   7
ENDBRANCH   1   6
TORSDOF 5
ENDMDL
MODEL 3
REMARK VINA RESULT:    -3.741      4.959      5.950
REMARK INTER + INTRA:          -4.947
REMARK INTER:                  -4.710
REMARK INTRA:                  -0.237
REMARK UNBOUND:                -0.113
REMARK SMILES CCCCCCC(=O)[O-]
REMARK SMILES IDX 5 1 6 2 7 3 8 4 9 5 4 6 3 7 2 8 1 9
REMARK H PARENT
REMARK Flexibility Score: inf
ROOT
ATOM      1  C   UNL     1     -10.699  -3.683  -3.516  1.00  0.00     0.006 C 
ENDROOT
BRANCH   1   2
ATOM      2  C   UNL     1     -11.124  -5.076  -4.005  1.00  0.00     0.053 C 
BRANCH   2   3
ATOM      3  C   UNL     1     -10.150  -5.647  -4.989  1.00  0.00     0.041 C 
ATOM      4  O   UNL     1     -10.562  -6.147  -6.070  1.00  0.00    -0.550 OA
ATOM      5  O   UNL     1      -8.793  -5.660  -4.697  1.00  0.00    -0.550 OA
ENDBRANCH   2   3
ENDBRANCH   1   2
BRANCH   1   6
ATOM      6  C   UNL     1     -11.047  -3.397  -2.043  1.00  0.00     0.000 C 
BRANCH   6   7
ATOM      7  C   UNL     1      -9.800  -3.291  -1.148  1.00  0.00    -0.000 C 
BRANCH   7   8
ATOM      8  C   UNL     1      -8.507  -3.118  -1.959  1.00  0.00    -0.003 C 
ATOM      9  C   UNL     1      -7.785  -1.807  -1.643  1.00  0.00     0.004 C 
ENDBRANCH   7   8
ENDBRANCH   6   7
ENDBRANCH   1   6
TORSDOF 5
ENDMDL
MODEL 4
REMARK VINA RESULT:    -3.607      3.224      4.832
REMARK INTER + INTRA:          -4.774
REMARK INTER:                  -4.664
REMARK INTRA:                  -0.111
REMARK UNBOUND:                -0.113
REMARK SMILES CCCCCCC(=O)[O-]
REMARK SMILES IDX 5 1 6 2 7 3 8 4 9 5 4 6 3 7 2 8 1 9
REMARK H PARENT
REMARK Flexibility Score: inf
ROOT
ATOM      1  C   UNL     1      -8.936  -4.148  -4.680  1.00  0.00     0.006 C 
ENDROOT
BRANCH   1   2
ATOM      2  C   UNL     1     -10.021  -4.143  -3.592  1.00  0.00     0.053 C 
BRANCH   2   3
ATOM      3  C   UNL     1      -9.516  -3.582  -2.298  1.00  0.00     0.041 C 
ATOM      4  O   UNL     1      -9.985  -2.503  -1.849  1.00  0.00    -0.550 OA
ATOM      5  O   UNL     1      -8.503  -4.233  -1.606  1.00  0.00    -0.550 OA
ENDBRANCH   2   3
ENDBRANCH   1   2
BRANCH   1   6
ATOM      6  C   UNL     1      -8.752  -5.506  -5.382  1.00  0.00     0.000 C 
BRANCH   6   7
ATOM      7  C   UNL     1      -7.395  -5.627  -6.097  1.00  0.00    -0.000 C 
BRANCH   7   8
ATOM      8  C   UNL     1      -6.434  -6.585  -5.377  1.00  0.00    -0.003 C 
ATOM      9  C   UNL     1      -4.973  -6.354  -5.762  1.00  0.00     0.004 C 
ENDBRANCH   7   8
ENDBRANCH   6   7
ENDBRANCH   1   6
TORSDOF 5
ENDMDL
MODEL 5
REMARK VINA RESULT:    -3.605      2.469      4.215
REMARK INTER + INTRA:          -4.772
REMARK INTER:                  -4.562
REMARK INTRA:                  -0.211
REMARK UNBOUND:                -0.113
REMARK SMILES CCCCCCC(=O)[O-]
REMARK SMILES IDX 5 1 6 2 7 3 8 4 9 5 4 6 3 7 2 8 1 9
REMARK H PARENT
REMARK Flexibility Score: inf
ROOT
ATOM      1  C   UNL     1      -6.449  -5.419  -7.500  1.00  0.00     0.006 C 
ENDROOT
BRANCH   1   2
ATOM      2  C   UNL     1      -5.455  -5.375  -6.328  1.00  0.00     0.053 C 
BRANCH   2   3
ATOM      3  C   UNL     1      -4.836  -6.714  -6.065  1.00  0.00     0.041 C 
ATOM      4  O   UNL     1      -3.600  -6.808  -5.845  1.00  0.00    -0.550 OA
ATOM      5  O   UNL     1      -5.619  -7.861  -6.099  1.00  0.00    -0.550 OA
ENDBRANCH   2   3
ENDBRANCH   1   2
BRANCH   1   6
ATOM      6  C   UNL     1      -7.909  -5.141  -7.100  1.00  0.00     0.000 C 
BRANCH   6   7
ATOM      7  C   UNL     1      -8.118  -5.140  -5.576  1.00  0.00    -0.000 C 
BRANCH   7   8
ATOM      8  C   UNL     1      -9.230  -4.175  -5.135  1.00  0.00    -0.003 C 
ATOM      9  C   UNL     1      -9.138  -3.807  -3.654  1.00  0.00     0.004 C 
ENDBRANCH   7   8
ENDBRANCH   6   7
ENDBRANCH   1   6
TORSDOF 5
ENDMDL
MODEL 6
REMARK VINA RESULT:    -3.601      4.106      6.028
REMARK INTER + INTRA:          -4.767
REMARK INTER:                  -4.637
REMARK INTRA:                  -0.130
REMARK UNBOUND:                -0.113
REMARK SMILES CCCCCCC(=O)[O-]
REMARK SMILES IDX 5 1 6 2 7 3 8 4 9 5 4 6 3 7 2 8 1 9
REMARK H PARENT
REMARK Flexibility Score: inf
ROOT
ATOM      1  C   UNL     1      -9.099  -4.166  -4.178  1.00  0.00     0.006 C 
ENDROOT
BRANCH   1   2
ATOM      2  C   UNL     1      -8.834  -4.533  -5.646  1.00  0.00     0.053 C 
BRANCH   2   3
ATOM      3  C   UNL     1      -7.680  -5.476  -5.791  1.00  0.00     0.041 C 
ATOM      4  O   UNL     1      -6.893  -5.369  -6.769  1.00  0.00    -0.550 OA
ATOM      5  O   UNL     1      -7.494  -6.495  -4.865  1.00  0.00    -0.550 OA
ENDBRANCH   2   3
ENDBRANCH   1   2
BRANCH   1   6
ATOM      6  C   UNL     1     -10.540  -4.438  -3.709  1.00  0.00     0.000 C 
BRANCH   6   7
ATOM      7  C   UNL     1     -11.064  -3.362  -2.743  1.00  0.00    -0.000 C 
BRANCH   7   8
ATOM      8  C   UNL     1     -10.256  -3.299  -1.437  1.00  0.00    -0.003 C 
ATOM      9  C   UNL     1     -11.125  -3.515  -0.197  1.00  0.00     0.004 C 
ENDBRANCH   7   8
ENDBRANCH   6   7
ENDBRANCH   1   6
TORSDOF 5
ENDMDL
MODEL 7
REMARK VINA RESULT:    -3.594      2.345      3.601
REMARK INTER + INTRA:          -4.758
REMARK INTER:                  -4.586
REMARK INTRA:                  -0.172
REMARK UNBOUND:                -0.113
REMARK SMILES CCCCCCC(=O)[O-]
REMARK SMILES IDX 5 1 6 2 7 3 8 4 9 5 4 6 3 7 2 8 1 9
REMARK H PARENT
REMARK Flexibility Score: inf
ROOT
ATOM      1  C   UNL     1      -7.705  -5.211  -5.615  1.00  0.00     0.006 C 
ENDROOT
BRANCH   1   2
ATOM      2  C   UNL     1      -9.183  -5.029  -5.236  1.00  0.00     0.053 C 
BRANCH   2   3
ATOM      3  C   UNL     1      -9.369  -3.974  -4.189  1.00  0.00     0.041 C 
ATOM      4  O   UNL     1      -9.615  -2.786  -4.525  1.00  0.00    -0.550 OA
ATOM      5  O   UNL     1      -9.235  -4.297  -2.845  1.00  0.00    -0.550 OA
ENDBRANCH   2   3
ENDBRANCH   1   2
BRANCH   1   6
ATOM      6  C   UNL     1      -7.422  -5.102  -7.125  1.00  0.00     0.000 C 
BRANCH   6   7
ATOM      7  C   UNL     1      -5.952  -5.387  -7.476  1.00  0.00    -0.000 C 
BRANCH   7   8
ATOM      8  C   UNL     1      -5.012  -5.195  -6.276  1.00  0.00    -0.003 C 
ATOM      9  C   UNL     1      -4.194  -6.448  -5.963  1.00  0.00     0.004 C 
ENDBRANCH   7   8
ENDBRANCH   6   7
ENDBRANCH   1   6
TORSDOF 5
ENDMDL
MODEL 8
REMARK VINA RESULT:    -3.589      4.161      5.557
REMARK INTER + INTRA:          -4.751
REMARK INTER:                  -4.540
REMARK INTRA:                  -0.212
REMARK UNBOUND:                -0.113
REMARK SMILES CCCCCCC(=O)[O-]
REMARK SMILES IDX 5 1 6 2 7 3 8 4 9 5 4 6 3 7 2 8 1 9
REMARK H PARENT
REMARK Flexibility Score: inf
ROOT
ATOM      1  C   UNL     1     -10.116  -3.754  -4.188  1.00  0.00     0.006 C 
ENDROOT
BRANCH   1   2
ATOM      2  C   UNL     1     -10.129  -5.114  -4.903  1.00  0.00     0.053 C 
BRANCH   2   3
ATOM      3  C   UNL     1      -8.802  -5.439  -5.518  1.00  0.00     0.041 C 
ATOM      4  O   UNL     1      -8.487  -4.956  -6.637  1.00  0.00    -0.550 OA
ATOM      5  O   UNL     1      -7.928  -6.303  -4.870  1.00  0.00    -0.550 OA
ENDBRANCH   2   3
ENDBRANCH   1   2
BRANCH   1   6
ATOM      6  C   UNL     1     -10.947  -3.713  -2.893  1.00  0.00     0.000 C 
BRANCH   6   7
ATOM      7  C   UNL     1     -10.142  -3.199  -1.687  1.00  0.00    -0.000 C 
BRANCH   7   8
ATOM      8  C   UNL     1      -8.625  -3.323  -1.896  1.00  0.00    -0.003 C 
ATOM      9  C   UNL     1      -7.889  -2.002  -1.669  1.00  0.00     0.004 C 
ENDBRANCH   7   8
ENDBRANCH   6   7
ENDBRANCH   1   6
TORSDOF 5
ENDMDL
