MODEL 1
REMARK VINA RESULT:    -4.582      0.000      0.000
REMARK INTER + INTRA:          -9.736
REMARK INTER:                  -8.065
REMARK INTRA:                  -1.671
REMARK UNBOUND:                -1.671
REMARK SMILES CCCCCCC=CCCCCCCCC(=O)[O-]
REMARK SMILES IDX 10 1 11 2 12 3 13 4 14 5 15 6 16 7 17 8 18 9 9 10 8 11 7 12
REMARK SMILES IDX 6 13 5 14 4 15 3 16 2 17 1 18
REMARK H PARENT
REMARK Flexibility Score: inf
ROOT
ATOM      1  C   UNL     1      30.166   7.515  49.831  1.00  0.00     0.004 C 
ENDROOT
BRANCH   1   2
ATOM      2  C   UNL     1      30.062   6.504  48.671  1.00  0.00     0.000 C 
BRANCH   2   3
ATOM      3  C   UNL     1      31.400   5.882  48.224  1.00  0.00     0.000 C 
BRANCH   3   4
ATOM      4  C   UNL     1      31.932   6.381  46.867  1.00  0.00     0.000 C 
BRANCH   4   5
ATOM      5  C   UNL     1      33.430   6.749  46.850  1.00  0.00     0.006 C 
BRANCH   5   6
ATOM      6  C   UNL     1      34.238   6.072  45.732  1.00  0.00     0.053 C 
BRANCH   6   7
ATOM      7  C   UNL     1      34.989   4.876  46.229  1.00  0.00     0.041 C 
ATOM      8  O   UNL     1      35.688   4.192  45.437  1.00  0.00    -0.550 OA
ATOM      9  O   UNL     1      34.942   4.536  47.575  1.00  0.00    -0.550 OA
ENDBRANCH   6   7
ENDBRANCH   5   6
ENDBRANCH   4   5
ENDBRANCH   3   4
ENDBRANCH   2   3
ENDBRANCH   1   2
BRANCH   1  10
ATOM     10  C   UNL     1      31.428   8.395  49.796  1.00  0.00     0.027 C 
BRANCH  10  11
ATOM     11  C   UNL     1      31.348   9.462  48.732  1.00  0.00    -0.031 C 
ATOM     12  C   UNL     1      32.260  10.434  48.548  1.00  0.00    -0.031 C 
BRANCH  12  13
ATOM     13  C   UNL     1      33.560  10.549  49.307  1.00  0.00     0.027 C 
BRANCH  13  14
ATOM     14  C   UNL     1      34.784  10.332  48.400  1.00  0.00     0.004 C 
BRANCH  14  15
ATOM     15  C   UNL     1      35.111  11.520  47.478  1.00  0.00     0.000 C 
BRANCH  15  16
ATOM     16  C   UNL     1      35.402  11.090  46.030  1.00  0.00    -0.000 C 
BRANCH  16  17
ATOM     17  C   UNL     1      34.363  10.090  45.494  1.00  0.00    -0.003 C 
ATOM     18  C   UNL     1      34.546   9.786  44.007  1.00  0.00     0.004 C 
ENDBRANCH  16  17
ENDBRANCH  15  16
ENDBRANCH  14  15
ENDBRANCH  13  14
ENDBRANCH  12  13
ENDBRANCH  10  11
ENDBRANCH   1  10
TORSDOF 13
ENDMDL
MODEL 2
REMARK VINA RESULT:    -4.442      2.572      5.260
REMARK INTER + INTRA:          -9.489
REMARK INTER:                  -7.960
REMARK INTRA:                  -1.529
REMARK UNBOUND:                -1.671
REMARK SMILES CCCCCCC=CCCCCCCCC(=O)[O-]
REMARK SMILES IDX 10 1 11 2 12 3 13 4 14 5 15 6 16 7 17 8 18 9 9 10 8 11 7 12
REMARK SMILES IDX 6 13 5 14 4 15 3 16 2 17 1 18
REMARK H PARENT
REMARK Flexibility Score: inf
ROOT
ATOM      1  C   UNL     1      31.760   9.593  48.594  1.00  0.00     0.004 C 
ENDROOT
BRANCH   1   2
ATOM      2  C   UNL     1      32.899  10.508  49.088  1.00  0.00     0.000 C 
BRANCH   2   3
ATOM      3  C   UNL     1      34.292  10.185  48.513  1.00  0.00     0.000 C 
BRANCH   3   4
ATOM      4  C   UNL     1      35.095  11.404  48.021  1.00  0.00     0.000 C 
BRANCH   4   5
ATOM      5  C   UNL     1      35.443  11.391  46.518  1.00  0.00     0.006 C 
BRANCH   5   6
ATOM      6  C   UNL     1      34.684  10.335  45.700  1.00  0.00     0.053 C 
BRANCH   6   7
ATOM      7  C   UNL     1      34.395  10.805  44.308  1.00  0.00     0.041 C 
ATOM      8  O   UNL     1      34.098   9.978  43.407  1.00  0.00    -0.550 OA
ATOM      9  O   UNL     1      34.419  12.164  44.015  1.00  0.00    -0.550 OA
ENDBRANCH   6   7
ENDBRANCH   5   6
ENDBRANCH   4   5
ENDBRANCH   3   4
ENDBRANCH   2   3
ENDBRANCH   1   2
BRANCH   1  10
ATOM     10  C   UNL     1      31.202   8.639  49.663  1.00  0.00     0.027 C 
BRANCH  10  11
ATOM     11  C   UNL     1      29.961   7.920  49.194  1.00  0.00    -0.031 C 
ATOM     12  C   UNL     1      29.955   6.753  48.525  1.00  0.00    -0.031 C 
BRANCH  12  13
ATOM     13  C   UNL     1      31.181   5.925  48.229  1.00  0.00     0.027 C 
BRANCH  13  14
ATOM     14  C   UNL     1      31.907   6.396  46.956  1.00  0.00     0.004 C 
BRANCH  14  15
ATOM     15  C   UNL     1      33.429   6.564  47.116  1.00  0.00     0.000 C 
BRANCH  15  16
ATOM     16  C   UNL     1      33.961   5.964  48.429  1.00  0.00    -0.000 C 
BRANCH  16  17
ATOM     17  C   UNL     1      35.174   5.046  48.207  1.00  0.00    -0.003 C 
ATOM     18  C   UNL     1      35.353   4.643  46.743  1.00  0.00     0.004 C 
ENDBRANCH  16  17
ENDBRANCH  15  16
ENDBRANCH  14  15
ENDBRANCH  13  14
ENDBRANCH  12  13
ENDBRANCH  10  11
ENDBRANCH   1  10
TORSDOF 13
ENDMDL
MODEL 3
REMARK VINA RESULT:    -4.422      1.951      5.421
REMARK INTER + INTRA:          -9.454
REMARK INTER:                  -7.880
REMARK INTRA:                  -1.574
REMARK UNBOUND:                -1.671
REMARK SMILES CCCCCCC=CCCCCCCCC(=O)[O-]
REMARK SMILES IDX 10 1 11 2 12 3 13 4 14 5 15 6 16 7 17 8 18 9 9 10 8 11 7 12
REMARK SMILES IDX 6 13 5 14 4 15 3 16 2 17 1 18
REMARK H PARENT
REMARK Flexibility Score: inf
ROOT
ATOM      1  C   UNL     1      35.296  11.910  47.190  1.00  0.00     0.004 C 
ENDROOT
BRANCH   1   2
ATOM      2  C   UNL     1      34.653  11.157  48.373  1.00  0.00     0.000 C 
BRANCH   2   3
ATOM      3  C   UNL     1      34.188   9.721  48.057  1.00  0.00     0.000 C 
BRANCH   3   4
ATOM      4  C   UNL     1      32.661   9.533  47.969  1.00  0.00     0.000 C 
BRANCH   4   5
ATOM      5  C   UNL     1      32.086   8.435  48.888  1.00  0.00     0.006 C 
BRANCH   5   6
ATOM      6  C   UNL     1      30.589   8.156  48.684  1.00  0.00     0.053 C 
BRANCH   6   7
ATOM      7  C   UNL     1      30.322   6.710  48.402  1.00  0.00     0.041 C 
ATOM      8  O   UNL     1      29.178   6.337  48.034  1.00  0.00    -0.550 OA
ATOM      9  O   UNL     1      31.347   5.779  48.515  1.00  0.00    -0.550 OA
ENDBRANCH   6   7
ENDBRANCH   5   6
ENDBRANCH   4   5
ENDBRANCH   3   4
ENDBRANCH   2   3
ENDBRANCH   1   2
BRANCH   1  10
ATOM     10  C   UNL     1      35.602  11.030  45.967  1.00  0.00     0.027 C 
BRANCH  10  11
ATOM     11  C   UNL     1      34.674  11.316  44.812  1.00  0.00    -0.031 C 
ATOM     12  C   UNL     1      34.320  10.423  43.871  1.00  0.00    -0.031 C 
BRANCH  12  13
ATOM     13  C   UNL     1      34.710   8.965  43.878  1.00  0.00     0.027 C 
BRANCH  13  14
ATOM     14  C   UNL     1      33.741   8.108  44.711  1.00  0.00     0.004 C 
BRANCH  14  15
ATOM     15  C   UNL     1      34.265   6.700  45.048  1.00  0.00     0.000 C 
BRANCH  15  16
ATOM     16  C   UNL     1      33.913   6.259  46.480  1.00  0.00    -0.000 C 
BRANCH  16  17
ATOM     17  C   UNL     1      34.708   5.021  46.926  1.00  0.00    -0.003 C 
ATOM     18  C   UNL     1      35.398   4.309  45.763  1.00  0.00     0.004 C 
ENDBRANCH  16  17
ENDBRANCH  15  16
ENDBRANCH  14  15
ENDBRANCH  13  14
ENDBRANCH  12  13
ENDBRANCH  10  11
ENDBRANCH   1  10
TORSDOF 13
ENDMDL
MODEL 4
REMARK VINA RESULT:    -4.378      1.330      2.035
REMARK INTER + INTRA:          -9.375
REMARK INTER:                  -7.705
REMARK INTRA:                  -1.670
REMARK UNBOUND:                -1.671
REMARK SMILES CCCCCCC=CCCCCCCCC(=O)[O-]
REMARK SMILES IDX 10 1 11 2 12 3 13 4 14 5 15 6 16 7 17 8 18 9 9 10 8 11 7 12
REMARK SMILES IDX 6 13 5 14 4 15 3 16 2 17 1 18
REMARK H PARENT
REMARK Flexibility Score: inf
ROOT
ATOM      1  C   UNL     1      30.992   9.013  48.830  1.00  0.00     0.004 C 
ENDROOT
BRANCH   1   2
ATOM      2  C   UNL     1      30.210   7.789  49.350  1.00  0.00     0.000 C 
BRANCH   2   3
ATOM      3  C   UNL     1      30.349   6.514  48.494  1.00  0.00     0.000 C 
BRANCH   3   4
ATOM      4  C   UNL     1      31.551   6.501  47.531  1.00  0.00     0.000 C 
BRANCH   4   5
ATOM      5  C   UNL     1      32.640   5.460  47.863  1.00  0.00     0.006 C 
BRANCH   5   6
ATOM      6  C   UNL     1      34.074   5.928  47.576  1.00  0.00     0.053 C 
BRANCH   6   7
ATOM      7  C   UNL     1      34.506   5.592  46.182  1.00  0.00     0.041 C 
ATOM      8  O   UNL     1      34.254   6.379  45.233  1.00  0.00    -0.550 OA
ATOM      9  O   UNL     1      35.216   4.423  45.938  1.00  0.00    -0.550 OA
ENDBRANCH   6   7
ENDBRANCH   5   6
ENDBRANCH   4   5
ENDBRANCH   3   4
ENDBRANCH   2   3
ENDBRANCH   1   2
BRANCH   1  10
ATOM     10  C   UNL     1      31.995   9.601  49.836  1.00  0.00     0.027 C 
BRANCH  10  11
ATOM     11  C   UNL     1      33.321   8.882  49.805  1.00  0.00    -0.031 C 
ATOM     12  C   UNL     1      34.326   9.158  48.954  1.00  0.00    -0.031 C 
BRANCH  12  13
ATOM     13  C   UNL     1      34.327  10.298  47.965  1.00  0.00     0.027 C 
BRANCH  13  14
ATOM     14  C   UNL     1      33.878   9.850  46.562  1.00  0.00     0.004 C 
BRANCH  14  15
ATOM     15  C   UNL     1      34.902  10.130  45.447  1.00  0.00     0.000 C 
BRANCH  15  16
ATOM     16  C   UNL     1      34.272  10.790  44.209  1.00  0.00    -0.000 C 
BRANCH  16  17
ATOM     17  C   UNL     1      34.473  12.314  44.189  1.00  0.00    -0.003 C 
ATOM     18  C   UNL     1      35.364  12.810  45.327  1.00  0.00     0.004 C 
ENDBRANCH  16  17
ENDBRANCH  15  16
ENDBRANCH  14  15
ENDBRANCH  13  14
ENDBRANCH  12  13
ENDBRANCH  10  11
ENDBRANCH   1  10
TORSDOF 13
ENDMDL
MODEL 5
REMARK VINA RESULT:    -4.334      2.636      4.325
REMARK INTER + INTRA:          -9.299
REMARK INTER:                  -7.857
REMARK INTRA:                  -1.443
REMARK UNBOUND:                -1.671
REMARK SMILES CCCCCCC=CCCCCCCCC(=O)[O-]
REMARK SMILES IDX 10 1 11 2 12 3 13 4 14 5 15 6 16 7 17 8 18 9 9 10 8 11 7 12
REMARK SMILES IDX 6 13 5 14 4 15 3 16 2 17 1 18
REMARK H PARENT
REMARK Flexibility Score: inf
ROOT
ATOM      1  C   UNL     1      33.041  10.894  49.163  1.00  0.00     0.004 C 
ENDROOT
BRANCH   1   2
ATOM      2  C   UNL     1      31.977  10.095  48.381  1.00  0.00     0.000 C 
BRANCH   2   3
ATOM      3  C   UNL     1      31.605   8.731  48.994  1.00  0.00     0.000 C 
BRANCH   3   4
ATOM      4  C   UNL     1      32.511   7.557  48.575  1.00  0.00     0.000 C 
BRANCH   4   5
ATOM      5  C   UNL     1      31.782   6.213  48.368  1.00  0.00     0.006 C 
BRANCH   5   6
ATOM      6  C   UNL     1      30.407   6.335  47.696  1.00  0.00     0.053 C 
BRANCH   6   7
ATOM      7  C   UNL     1      29.295   5.944  48.620  1.00  0.00     0.041 C 
ATOM      8  O   UNL     1      28.220   5.478  48.158  1.00  0.00    -0.550 OA
ATOM      9  O   UNL     1      29.460   6.063  49.994  1.00  0.00    -0.550 OA
ENDBRANCH   6   7
ENDBRANCH   5   6
ENDBRANCH   4   5
ENDBRANCH   3   4
ENDBRANCH   2   3
ENDBRANCH   1   2
BRANCH   1  10
ATOM     10  C   UNL     1      34.472  10.750  48.617  1.00  0.00     0.027 C 
BRANCH  10  11
ATOM     11  C   UNL     1      35.110  12.087  48.332  1.00  0.00    -0.031 C 
ATOM     12  C   UNL     1      35.778  12.395  47.206  1.00  0.00    -0.031 C 
BRANCH  12  13
ATOM     13  C   UNL     1      35.906  11.489  46.006  1.00  0.00     0.027 C 
BRANCH  13  14
ATOM     14  C   UNL     1      34.899  11.846  44.898  1.00  0.00     0.004 C 
BRANCH  14  15
ATOM     15  C   UNL     1      34.240  10.631  44.221  1.00  0.00     0.000 C 
BRANCH  15  16
ATOM     16  C   UNL     1      34.292   9.362  45.089  1.00  0.00    -0.000 C 
BRANCH  16  17
ATOM     17  C   UNL     1      34.300   8.074  44.249  1.00  0.00    -0.003 C 
ATOM     18  C   UNL     1      33.999   6.825  45.076  1.00  0.00     0.004 C 
ENDBRANCH  16  17
ENDBRANCH  15  16
ENDBRANCH  14  15
ENDBRANCH  13  14
ENDBRANCH  12  13
ENDBRANCH  10  11
ENDBRANCH   1  10
TORSDOF 13
ENDMDL
MODEL 6
REMARK VINA RESULT:    -4.208      3.046      5.765
REMARK INTER + INTRA:          -9.076
REMARK INTER:                  -7.627
REMARK INTRA:                  -1.449
REMARK UNBOUND:                -1.671
REMARK SMILES CCCCCCC=CCCCCCCCC(=O)[O-]
REMARK SMILES IDX 10 1 11 2 12 3 13 4 14 5 15 6 16 7 17 8 18 9 9 10 8 11 7 12
REMARK SMILES IDX 6 13 5 14 4 15 3 16 2 17 1 18
REMARK H PARENT
REMARK Flexibility Score: inf
ROOT
ATOM      1  C   UNL     1      34.936   5.582  45.871  1.00  0.00     0.004 C 
ENDROOT
BRANCH   1   2
ATOM      2  C   UNL     1      33.844   6.392  45.142  1.00  0.00     0.000 C 
BRANCH   2   3
ATOM      3  C   UNL     1      33.947   7.921  45.304  1.00  0.00     0.000 C 
BRANCH   3   4
ATOM      4  C   UNL     1      34.425   8.681  44.052  1.00  0.00     0.000 C 
BRANCH   4   5
ATOM      5  C   UNL     1      34.466  10.216  44.198  1.00  0.00     0.006 C 
BRANCH   5   6
ATOM      6  C   UNL     1      35.004  10.711  45.550  1.00  0.00     0.053 C 
BRANCH   6   7
ATOM      7  C   UNL     1      35.339  12.170  45.519  1.00  0.00     0.041 C 
ATOM      8  O   UNL     1      36.151  12.651  46.352  1.00  0.00    -0.550 OA
ATOM      9  O   UNL     1      34.780  12.991  44.548  1.00  0.00    -0.550 OA
ENDBRANCH   6   7
ENDBRANCH   5   6
ENDBRANCH   4   5
ENDBRANCH   3   4
ENDBRANCH   2   3
ENDBRANCH   1   2
BRANCH   1  10
ATOM     10  C   UNL     1      34.420   4.733  47.044  1.00  0.00     0.027 C 
BRANCH  10  11
ATOM     11  C   UNL     1      34.123   5.569  48.265  1.00  0.00    -0.031 C 
ATOM     12  C   UNL     1      32.909   6.048  48.590  1.00  0.00    -0.031 C 
BRANCH  12  13
ATOM     13  C   UNL     1      31.633   5.740  47.845  1.00  0.00     0.027 C 
BRANCH  13  14
ATOM     14  C   UNL     1      30.594   6.867  47.981  1.00  0.00     0.004 C 
BRANCH  14  15
ATOM     15  C   UNL     1      30.620   7.597  49.336  1.00  0.00     0.000 C 
BRANCH  15  16
ATOM     16  C   UNL     1      30.929   9.098  49.198  1.00  0.00    -0.000 C 
BRANCH  16  17
ATOM     17  C   UNL     1      32.015   9.382  48.147  1.00  0.00    -0.003 C 
ATOM     18  C   UNL     1      32.996  10.468  48.587  1.00  0.00     0.004 C 
ENDBRANCH  16  17
ENDBRANCH  15  16
ENDBRANCH  14  15
ENDBRANCH  13  14
ENDBRANCH  12  13
ENDBRANCH  10  11
ENDBRANCH   1  10
TORSDOF 13
ENDMDL
MODEL 7
REMARK VINA RESULT:    -4.130      2.675      4.622
REMARK INTER + INTRA:          -8.940
REMARK INTER:                  -7.334
REMARK INTRA:                  -1.605
REMARK UNBOUND:                -1.671
REMARK SMILES CCCCCCC=CCCCCCCCC(=O)[O-]
REMARK SMILES IDX 10 1 11 2 12 3 13 4 14 5 15 6 16 7 17 8 18 9 9 10 8 11 7 12
REMARK SMILES IDX 6 13 5 14 4 15 3 16 2 17 1 18
REMARK H PARENT
REMARK Flexibility Score: inf
ROOT
ATOM      1  C   UNL     1      31.030   6.810  47.721  1.00  0.00     0.004 C 
ENDROOT
BRANCH   1   2
ATOM      2  C   UNL     1      30.293   7.644  48.789  1.00  0.00     0.000 C 
BRANCH   2   3
ATOM      3  C   UNL     1      31.146   8.732  49.471  1.00  0.00     0.000 C 
BRANCH   3   4
ATOM      4  C   UNL     1      31.600   9.880  48.550  1.00  0.00     0.000 C 
BRANCH   4   5
ATOM      5  C   UNL     1      32.946   9.647  47.833  1.00  0.00     0.006 C 
BRANCH   5   6
ATOM      6  C   UNL     1      34.174   9.713  48.753  1.00  0.00     0.053 C 
BRANCH   6   7
ATOM      7  C   UNL     1      34.950  10.980  48.562  1.00  0.00     0.041 C 
ATOM      8  O   UNL     1      34.907  11.590  47.462  1.00  0.00    -0.550 OA
ATOM      9  O   UNL     1      35.694  11.504  49.612  1.00  0.00    -0.550 OA
ENDBRANCH   6   7
ENDBRANCH   5   6
ENDBRANCH   4   5
ENDBRANCH   3   4
ENDBRANCH   2   3
ENDBRANCH   1   2
BRANCH   1  10
ATOM     10  C   UNL     1      31.839   5.630  48.283  1.00  0.00     0.027 C 
BRANCH  10  11
ATOM     11  C   UNL     1      33.240   6.034  48.673  1.00  0.00    -0.031 C 
ATOM     12  C   UNL     1      34.358   5.648  48.033  1.00  0.00    -0.031 C 
BRANCH  12  13
ATOM     13  C   UNL     1      34.384   4.835  46.762  1.00  0.00     0.027 C 
BRANCH  13  14
ATOM     14  C   UNL     1      34.690   5.699  45.525  1.00  0.00     0.004 C 
BRANCH  14  15
ATOM     15  C   UNL     1      33.855   6.989  45.427  1.00  0.00     0.000 C 
BRANCH  15  16
ATOM     16  C   UNL     1      34.294   7.898  44.267  1.00  0.00    -0.000 C 
BRANCH  16  17
ATOM     17  C   UNL     1      34.637   9.322  44.733  1.00  0.00    -0.003 C 
ATOM     18  C   UNL     1      34.247  10.391  43.711  1.00  0.00     0.004 C 
ENDBRANCH  16  17
ENDBRANCH  15  16
ENDBRANCH  14  15
ENDBRANCH  13  14
ENDBRANCH  12  13
ENDBRANCH  10  11
ENDBRANCH   1  10
TORSDOF 13
ENDMDL
MODEL 8
REMARK VINA RESULT:    -4.116      2.571      4.743
REMARK INTER + INTRA:          -8.914
REMARK INTER:                  -7.394
REMARK INTRA:                  -1.520
REMARK UNBOUND:                -1.671
REMARK SMILES CCCCCCC=CCCCCCCCC(=O)[O-]
REMARK SMILES IDX 10 1 11 2 12 3 13 4 14 5 15 6 16 7 17 8 18 9 9 10 8 11 7 12
REMARK SMILES IDX 6 13 5 14 4 15 3 16 2 17 1 18
REMARK H PARENT
REMARK Flexibility Score: inf
ROOT
ATOM      1  C   UNL     1      33.974   8.218  45.323  1.00  0.00     0.004 C 
ENDROOT
BRANCH   1   2
ATOM      2  C   UNL     1      33.936   6.677  45.253  1.00  0.00     0.000 C 
BRANCH   2   3
ATOM      3  C   UNL     1      33.400   5.979  46.519  1.00  0.00     0.000 C 
BRANCH   3   4
ATOM      4  C   UNL     1      33.411   6.842  47.795  1.00  0.00     0.000 C 
BRANCH   4   5
ATOM      5  C   UNL     1      32.044   6.988  48.495  1.00  0.00     0.006 C 
BRANCH   5   6
ATOM      6  C   UNL     1      30.857   6.433  47.692  1.00  0.00     0.053 C 
BRANCH   6   7
ATOM      7  C   UNL     1      29.647   6.227  48.549  1.00  0.00     0.041 C 
ATOM      8  O   UNL     1      29.662   6.570  49.760  1.00  0.00    -0.550 OA
ATOM      9  O   UNL     1      28.491   5.685  48.000  1.00  0.00    -0.550 OA
ENDBRANCH   6   7
ENDBRANCH   5   6
ENDBRANCH   4   5
ENDBRANCH   3   4
ENDBRANCH   2   3
ENDBRANCH   1   2
BRANCH   1  10
ATOM     10  C   UNL     1      34.691   8.890  44.140  1.00  0.00     0.027 C 
BRANCH  10  11
ATOM     11  C   UNL     1      34.233  10.312  43.930  1.00  0.00    -0.031 C 
ATOM     12  C   UNL     1      34.682  11.374  44.622  1.00  0.00    -0.031 C 
BRANCH  12  13
ATOM     13  C   UNL     1      35.789  11.328  45.647  1.00  0.00     0.027 C 
BRANCH  13  14
ATOM     14  C   UNL     1      35.370  11.967  46.983  1.00  0.00     0.004 C 
BRANCH  14  15
ATOM     15  C   UNL     1      35.604  11.074  48.216  1.00  0.00     0.000 C 
BRANCH  15  16
ATOM     16  C   UNL     1      34.409  10.154  48.521  1.00  0.00    -0.000 C 
BRANCH  16  17
ATOM     17  C   UNL     1      33.210  10.919  49.104  1.00  0.00    -0.003 C 
ATOM     18  C   UNL     1      31.875  10.472  48.510  1.00  0.00     0.004 C 
ENDBRANCH  16  17
ENDBRANCH  15  16
ENDBRANCH  14  15
ENDBRANCH  13  14
ENDBRANCH  12  13
ENDBRANCH  10  11
ENDBRANCH   1  10
TORSDOF 13
ENDMDL
MODEL 9
REMARK VINA RESULT:    -4.049      4.023      6.679
REMARK INTER + INTRA:          -8.796
REMARK INTER:                  -7.457
REMARK INTRA:                  -1.339
REMARK UNBOUND:                -1.671
REMARK SMILES CCCCCCC=CCCCCCCCC(=O)[O-]
REMARK SMILES IDX 10 1 11 2 12 3 13 4 14 5 15 6 16 7 17 8 18 9 9 10 8 11 7 12
REMARK SMILES IDX 6 13 5 14 4 15 3 16 2 17 1 18
REMARK H PARENT
REMARK Flexibility Score: inf
ROOT
ATOM      1  C   UNL     1      33.620  10.197  48.180  1.00  0.00     0.004 C 
ENDROOT
BRANCH   1   2
ATOM      2  C   UNL     1      33.983   9.949  46.701  1.00  0.00     0.000 C 
BRANCH   2   3
ATOM      3  C   UNL     1      34.918  11.001  46.073  1.00  0.00     0.000 C 
BRANCH   3   4
ATOM      4  C   UNL     1      35.979  11.585  47.026  1.00  0.00     0.000 C 
BRANCH   4   5
ATOM      5  C   UNL     1      36.744  12.807  46.478  1.00  0.00     0.006 C 
BRANCH   5   6
ATOM      6  C   UNL     1      35.880  13.788  45.672  1.00  0.00     0.053 C 
BRANCH   6   7
ATOM      7  C   UNL     1      35.757  15.117  46.351  1.00  0.00     0.041 C 
ATOM      8  O   UNL     1      35.447  15.180  47.569  1.00  0.00    -0.550 OA
ATOM      9  O   UNL     1      36.020  16.285  45.645  1.00  0.00    -0.550 OA
ENDBRANCH   6   7
ENDBRANCH   5   6
ENDBRANCH   4   5
ENDBRANCH   3   4
ENDBRANCH   2   3
ENDBRANCH   1   2
BRANCH   1  10
ATOM     10  C   UNL     1      32.125  10.038  48.503  1.00  0.00     0.027 C 
BRANCH  10  11
ATOM     11  C   UNL     1      31.896   9.239  49.762  1.00  0.00    -0.031 C 
ATOM     12  C   UNL     1      30.976   8.267  49.899  1.00  0.00    -0.031 C 
BRANCH  12  13
ATOM     13  C   UNL     1      30.097   7.752  48.786  1.00  0.00     0.027 C 
BRANCH  13  14
ATOM     14  C   UNL     1      30.190   6.223  48.633  1.00  0.00     0.004 C 
BRANCH  14  15
ATOM     15  C   UNL     1      31.542   5.718  48.099  1.00  0.00     0.000 C 
BRANCH  15  16
ATOM     16  C   UNL     1      32.092   6.584  46.953  1.00  0.00    -0.000 C 
BRANCH  16  17
ATOM     17  C   UNL     1      33.597   6.367  46.722  1.00  0.00    -0.003 C 
ATOM     18  C   UNL     1      34.009   6.574  45.264  1.00  0.00     0.004 C 
ENDBRANCH  16  17
ENDBRANCH  15  16
ENDBRANCH  14  15
ENDBRANCH  13  14
ENDBRANCH  12  13
ENDBRANCH  10  11
ENDBRANCH   1  10
TORSDOF 13
ENDMDL
