MODEL 1
REMARK VINA RESULT:     5.714      0.000      0.000
REMARK INTER + INTRA:           6.676
REMARK INTER:                   6.716
REMARK INTRA:                  -0.040
REMARK UNBOUND:                -0.040
REMARK SMILES O=C([O-])CCC(=O)[O-]
REMARK SMILES IDX 4 1 2 2 1 3 3 4 5 5 6 6 7 7 8 8
REMARK H PARENT
REMARK Flexibility Score: inf
ROOT
ATOM      1  C   UNL     1     -27.891 -19.411  -7.744  1.00  0.00     0.059 C 
ENDROOT
BRANCH   1   2
ATOM      2  C   UNL     1     -26.618 -18.753  -8.178  1.00  0.00     0.042 C 
ATOM      3  O   UNL     1     -26.228 -18.851  -9.371  1.00  0.00    -0.550 OA
ATOM      4  O   UNL     1     -25.881 -17.997  -7.274  1.00  0.00    -0.550 OA
ENDBRANCH   1   2
BRANCH   1   5
ATOM      5  C   UNL     1     -28.767 -19.791  -8.942  1.00  0.00     0.059 C 
BRANCH   5   6
ATOM      6  C   UNL     1     -30.220 -19.820  -8.578  1.00  0.00     0.042 C 
ATOM      7  O   UNL     1     -31.087 -20.091  -9.451  1.00  0.00    -0.550 OA
ATOM      8  O   UNL     1     -30.614 -19.587  -7.266  1.00  0.00    -0.550 OA
ENDBRANCH   5   6
ENDBRANCH   1   5
TORSDOF 3
ENDMDL
MODEL 2
REMARK VINA RESULT:     5.858      1.300      1.853
REMARK INTER + INTRA:           6.845
REMARK INTER:                   5.770
REMARK INTRA:                   1.075
REMARK UNBOUND:                -0.040
REMARK SMILES O=C([O-])CCC(=O)[O-]
REMARK SMILES IDX 4 1 2 2 1 3 3 4 5 5 6 6 7 7 8 8
REMARK H PARENT
REMARK Flexibility Score: inf
ROOT
ATOM      1  C   UNL     1     -28.761 -19.563  -9.732  1.00  0.00     0.059 C 
ENDROOT
BRANCH   1   2
ATOM      2  C   UNL     1     -27.905 -19.392  -8.515  1.00  0.00     0.042 C 
ATOM      3  O   UNL     1     -28.283 -19.850  -7.404  1.00  0.00    -0.550 OA
ATOM      4  O   UNL     1     -26.671 -18.761  -8.614  1.00  0.00    -0.550 OA
ENDBRANCH   1   2
BRANCH   1   5
ATOM      5  C   UNL     1     -30.132 -20.151  -9.381  1.00  0.00     0.059 C 
BRANCH   5   6
ATOM      6  C   UNL     1     -30.736 -19.469  -8.191  1.00  0.00     0.042 C 
ATOM      7  O   UNL     1     -30.928 -18.224  -8.204  1.00  0.00    -0.550 OA
ATOM      8  O   UNL     1     -31.125 -20.214  -7.084  1.00  0.00    -0.550 OA
ENDBRANCH   5   6
ENDBRANCH   1   5
TORSDOF 3
ENDMDL
MODEL 3
REMARK VINA RESULT:     7.008     16.961     18.484
REMARK INTER + INTRA:           8.197
REMARK INTER:                   8.234
REMARK INTRA:                  -0.037
REMARK UNBOUND:                -0.040
REMARK SMILES O=C([O-])CCC(=O)[O-]
REMARK SMILES IDX 4 1 2 2 1 3 3 4 5 5 6 6 7 7 8 8
REMARK H PARENT
REMARK Flexibility Score: inf
ROOT
ATOM      1  C   UNL     1     -21.782 -13.210 -23.735  1.00  0.00     0.059 C 
ENDROOT
BRANCH   1   2
ATOM      2  C   UNL     1     -22.184 -14.252 -22.736  1.00  0.00     0.042 C 
ATOM      3  O   UNL     1     -22.759 -15.306 -23.116  1.00  0.00    -0.550 OA
ATOM      4  O   UNL     1     -21.887 -14.078 -21.390  1.00  0.00    -0.550 OA
ENDBRANCH   1   2
BRANCH   1   5
ATOM      5  C   UNL     1     -20.766 -13.756 -24.743  1.00  0.00     0.059 C 
BRANCH   5   6
ATOM      6  C   UNL     1     -19.516 -12.930 -24.769  1.00  0.00     0.042 C 
ATOM      7  O   UNL     1     -19.587 -11.677 -24.876  1.00  0.00    -0.550 OA
ATOM      8  O   UNL     1     -18.275 -13.540 -24.636  1.00  0.00    -0.550 OA
ENDBRANCH   5   6
ENDBRANCH   1   5
TORSDOF 3
ENDMDL
MODEL 4
REMARK VINA RESULT:     7.011     16.970     18.170
REMARK INTER + INTRA:           8.201
REMARK INTER:                   8.239
REMARK INTRA:                  -0.038
REMARK UNBOUND:                -0.040
REMARK SMILES O=C([O-])CCC(=O)[O-]
REMARK SMILES IDX 4 1 2 2 1 3 3 4 5 5 6 6 7 7 8 8
REMARK H PARENT
REMARK Flexibility Score: inf
ROOT
ATOM      1  C   UNL     1     -20.762 -13.751 -24.772  1.00  0.00     0.059 C 
ENDROOT
BRANCH   1   2
ATOM      2  C   UNL     1     -19.523 -12.909 -24.763  1.00  0.00     0.042 C 
ATOM      3  O   UNL     1     -19.608 -11.656 -24.857  1.00  0.00    -0.550 OA
ATOM      4  O   UNL     1     -18.277 -13.504 -24.612  1.00  0.00    -0.550 OA
ENDBRANCH   1   2
BRANCH   1   5
ATOM      5  C   UNL     1     -21.799 -13.240 -23.767  1.00  0.00     0.059 C 
BRANCH   5   6
ATOM      6  C   UNL     1     -22.170 -14.296 -22.770  1.00  0.00     0.042 C 
ATOM      7  O   UNL     1     -22.697 -15.373 -23.155  1.00  0.00    -0.550 OA
ATOM      8  O   UNL     1     -21.895 -14.108 -21.421  1.00  0.00    -0.550 OA
ENDBRANCH   5   6
ENDBRANCH   1   5
TORSDOF 3
ENDMDL
MODEL 5
REMARK VINA RESULT:     7.187     22.483     23.283
REMARK INTER + INTRA:           8.407
REMARK INTER:                   8.446
REMARK INTRA:                  -0.038
REMARK UNBOUND:                -0.040
REMARK SMILES O=C([O-])CCC(=O)[O-]
REMARK SMILES IDX 4 1 2 2 1 3 3 4 5 5 6 6 7 7 8 8
REMARK H PARENT
REMARK Flexibility Score: inf
ROOT
ATOM      1  C   UNL     1     -13.726  -8.155 -22.832  1.00  0.00     0.059 C 
ENDROOT
BRANCH   1   2
ATOM      2  C   UNL     1     -15.036  -7.752 -23.437  1.00  0.00     0.042 C 
ATOM      3  O   UNL     1     -16.116  -8.024 -22.850  1.00  0.00    -0.550 OA
ATOM      4  O   UNL     1     -15.061  -7.039 -24.630  1.00  0.00    -0.550 OA
ENDBRANCH   1   2
BRANCH   1   5
ATOM      5  C   UNL     1     -13.512  -7.503 -21.462  1.00  0.00     0.059 C 
BRANCH   5   6
ATOM      6  C   UNL     1     -12.597  -8.317 -20.599  1.00  0.00     0.042 C 
ATOM      7  O   UNL     1     -11.759  -9.097 -21.125  1.00  0.00    -0.550 OA
ATOM      8  O   UNL     1     -12.642  -8.185 -19.217  1.00  0.00    -0.550 OA
ENDBRANCH   5   6
ENDBRANCH   1   5
TORSDOF 3
ENDMDL
MODEL 6
REMARK VINA RESULT:     7.195     10.768     12.421
REMARK INTER + INTRA:           8.417
REMARK INTER:                   8.451
REMARK INTRA:                  -0.034
REMARK UNBOUND:                -0.040
REMARK SMILES O=C([O-])CCC(=O)[O-]
REMARK SMILES IDX 4 1 2 2 1 3 3 4 5 5 6 6 7 7 8 8
REMARK H PARENT
REMARK Flexibility Score: inf
ROOT
ATOM      1  C   UNL     1     -18.512 -16.703 -15.640  1.00  0.00     0.059 C 
ENDROOT
BRANCH   1   2
ATOM      2  C   UNL     1     -17.381 -16.249 -16.512  1.00  0.00     0.042 C 
ATOM      3  O   UNL     1     -16.197 -16.285 -16.084  1.00  0.00    -0.550 OA
ATOM      4  O   UNL     1     -17.631 -15.823 -17.810  1.00  0.00    -0.550 OA
ENDBRANCH   1   2
BRANCH   1   5
ATOM      5  C   UNL     1     -19.512 -17.565 -16.418  1.00  0.00     0.059 C 
BRANCH   5   6
ATOM      6  C   UNL     1     -20.812 -17.699 -15.685  1.00  0.00     0.042 C 
ATOM      7  O   UNL     1     -21.299 -18.839 -15.461  1.00  0.00    -0.550 OA
ATOM      8  O   UNL     1     -21.467 -16.567 -15.216  1.00  0.00    -0.550 OA
ENDBRANCH   5   6
ENDBRANCH   1   5
TORSDOF 3
ENDMDL
MODEL 7
REMARK VINA RESULT:     7.341     22.421     23.033
REMARK INTER + INTRA:           8.589
REMARK INTER:                   8.630
REMARK INTRA:                  -0.041
REMARK UNBOUND:                -0.040
REMARK SMILES O=C([O-])CCC(=O)[O-]
REMARK SMILES IDX 4 1 2 2 1 3 3 4 5 5 6 6 7 7 8 8
REMARK H PARENT
REMARK Flexibility Score: inf
ROOT
ATOM      1  C   UNL     1     -13.519  -7.469 -21.444  1.00  0.00     0.059 C 
ENDROOT
BRANCH   1   2
ATOM      2  C   UNL     1     -12.691  -8.318 -20.529  1.00  0.00     0.042 C 
ATOM      3  O   UNL     1     -11.915  -9.189 -21.002  1.00  0.00    -0.550 OA
ATOM      4  O   UNL     1     -12.748  -8.120 -19.155  1.00  0.00    -0.550 OA
ENDBRANCH   1   2
BRANCH   1   5
ATOM      5  C   UNL     1     -13.692  -8.123 -22.819  1.00  0.00     0.059 C 
BRANCH   5   6
ATOM      6  C   UNL     1     -14.999  -7.750 -23.448  1.00  0.00     0.042 C 
ATOM      7  O   UNL     1     -16.084  -8.084 -22.902  1.00  0.00    -0.550 OA
ATOM      8  O   UNL     1     -15.020  -6.998 -24.617  1.00  0.00    -0.550 OA
ENDBRANCH   5   6
ENDBRANCH   1   5
TORSDOF 3
ENDMDL
