MODEL 1
REMARK VINA RESULT:    -3.812      0.000      0.000
REMARK INTER + INTRA:          -6.217
REMARK INTER:                  -5.595
REMARK INTRA:                  -0.622
REMARK UNBOUND:                -0.622
REMARK SMILES O=C([O-])CCCCCCCC(=O)[O-]
REMARK SMILES IDX 7 1 6 2 5 3 4 4 2 5 1 6 3 7 8 8 9 9 10 10 11 11 12 12 13 13
REMARK H PARENT
REMARK Flexibility Score: inf
ROOT
ATOM      1  C   UNL     1      13.431  63.831   7.529  1.00  0.00     0.000 C 
ENDROOT
BRANCH   1   2
ATOM      2  C   UNL     1      13.401  65.005   6.538  1.00  0.00     0.000 C 
BRANCH   2   3
ATOM      3  C   UNL     1      12.463  64.706   5.362  1.00  0.00     0.006 C 
BRANCH   3   4
ATOM      4  C   UNL     1      11.889  65.998   4.773  1.00  0.00     0.053 C 
BRANCH   4   5
ATOM      5  C   UNL     1      11.596  65.825   3.317  1.00  0.00     0.041 C 
ATOM      6  O   UNL     1      10.482  65.373   2.943  1.00  0.00    -0.550 OA
ATOM      7  O   UNL     1      12.572  66.118   2.372  1.00  0.00    -0.550 OA
ENDBRANCH   4   5
ENDBRANCH   3   4
ENDBRANCH   2   3
ENDBRANCH   1   2
BRANCH   1   8
ATOM      8  C   UNL     1      12.692  62.591   7.001  1.00  0.00     0.000 C 
BRANCH   8   9
ATOM      9  C   UNL     1      11.577  62.117   7.947  1.00  0.00     0.006 C 
BRANCH   9  10
ATOM     10  C   UNL     1      11.170  63.232   8.914  1.00  0.00     0.053 C 
BRANCH  10  11
ATOM     11  C   UNL     1       9.919  63.903   8.443  1.00  0.00     0.041 C 
ATOM     12  O   UNL     1       9.979  65.015   7.855  1.00  0.00    -0.550 OA
ATOM     13  O   UNL     1       8.681  63.326   8.697  1.00  0.00    -0.550 OA
ENDBRANCH  10  11
ENDBRANCH   9  10
ENDBRANCH   8   9
ENDBRANCH   1   8
TORSDOF 8
ENDMDL
MODEL 2
REMARK VINA RESULT:    -3.674      0.186      5.010
REMARK INTER + INTRA:          -6.014
REMARK INTER:                  -5.494
REMARK INTRA:                  -0.520
REMARK UNBOUND:                -0.622
REMARK SMILES O=C([O-])CCCCCCCC(=O)[O-]
REMARK SMILES IDX 7 1 6 2 5 3 4 4 2 5 1 6 3 7 8 8 9 9 10 10 11 11 12 12 13 13
REMARK H PARENT
REMARK Flexibility Score: inf
ROOT
ATOM      1  C   UNL     1      13.406  64.037   7.684  1.00  0.00     0.000 C 
ENDROOT
BRANCH   1   2
ATOM      2  C   UNL     1      12.909  62.720   7.068  1.00  0.00     0.000 C 
BRANCH   2   3
ATOM      3  C   UNL     1      11.632  62.236   7.767  1.00  0.00     0.006 C 
BRANCH   3   4
ATOM      4  C   UNL     1      11.194  63.218   8.857  1.00  0.00     0.053 C 
BRANCH   4   5
ATOM      5  C   UNL     1       9.925  63.904   8.465  1.00  0.00     0.041 C 
ATOM      6  O   UNL     1       9.959  65.032   7.907  1.00  0.00    -0.550 OA
ATOM      7  O   UNL     1       8.699  63.320   8.761  1.00  0.00    -0.550 OA
ENDBRANCH   4   5
ENDBRANCH   3   4
ENDBRANCH   2   3
ENDBRANCH   1   2
BRANCH   1   8
ATOM      8  C   UNL     1      13.307  65.221   6.708  1.00  0.00     0.000 C 
BRANCH   8   9
ATOM      9  C   UNL     1      12.539  64.870   5.425  1.00  0.00     0.006 C 
BRANCH   9  10
ATOM     10  C   UNL     1      12.127  66.136   4.670  1.00  0.00     0.053 C 
BRANCH  10  11
ATOM     11  C   UNL     1      11.740  65.805   3.263  1.00  0.00     0.041 C 
ATOM     12  O   UNL     1      12.556  65.988   2.321  1.00  0.00    -0.550 OA
ATOM     13  O   UNL     1      10.461  65.342   2.984  1.00  0.00    -0.550 OA
ENDBRANCH  10  11
ENDBRANCH   9  10
ENDBRANCH   8   9
ENDBRANCH   1   8
TORSDOF 8
ENDMDL
MODEL 3
REMARK VINA RESULT:    -3.503      1.066      4.848
REMARK INTER + INTRA:          -5.764
REMARK INTER:                  -5.016
REMARK INTRA:                  -0.748
REMARK UNBOUND:                -0.622
REMARK SMILES O=C([O-])CCCCCCCC(=O)[O-]
REMARK SMILES IDX 7 1 6 2 5 3 4 4 2 5 1 6 3 7 8 8 9 9 10 10 11 11 12 12 13 13
REMARK H PARENT
REMARK Flexibility Score: inf
ROOT
ATOM      1  C   UNL     1      12.704  62.842   6.666  1.00  0.00     0.000 C 
ENDROOT
BRANCH   1   2
ATOM      2  C   UNL     1      11.848  62.117   7.716  1.00  0.00     0.000 C 
BRANCH   2   3
ATOM      3  C   UNL     1      11.316  63.102   8.765  1.00  0.00     0.006 C 
BRANCH   3   4
ATOM      4  C   UNL     1       9.855  63.466   8.488  1.00  0.00     0.053 C 
BRANCH   4   5
ATOM      5  C   UNL     1       9.624  64.925   8.722  1.00  0.00     0.041 C 
ATOM      6  O   UNL     1       8.479  65.421   8.556  1.00  0.00    -0.550 OA
ATOM      7  O   UNL     1      10.686  65.748   9.076  1.00  0.00    -0.550 OA
ENDBRANCH   4   5
ENDBRANCH   3   4
ENDBRANCH   2   3
ENDBRANCH   1   2
BRANCH   1   8
ATOM      8  C   UNL     1      13.475  64.036   7.253  1.00  0.00     0.000 C 
BRANCH   8   9
ATOM      9  C   UNL     1      13.250  65.333   6.461  1.00  0.00     0.006 C 
BRANCH   9  10
ATOM     10  C   UNL     1      11.930  65.281   5.688  1.00  0.00     0.053 C 
BRANCH  10  11
ATOM     11  C   UNL     1      12.087  65.907   4.339  1.00  0.00     0.041 C 
ATOM     12  O   UNL     1      11.770  65.267   3.302  1.00  0.00    -0.550 OA
ATOM     13  O   UNL     1      12.631  67.180   4.221  1.00  0.00    -0.550 OA
ENDBRANCH  10  11
ENDBRANCH   9  10
ENDBRANCH   8   9
ENDBRANCH   1   8
TORSDOF 8
ENDMDL
MODEL 4
REMARK VINA RESULT:    -3.438      2.039      4.928
REMARK INTER + INTRA:          -5.668
REMARK INTER:                  -4.966
REMARK INTRA:                  -0.702
REMARK UNBOUND:                -0.622
REMARK SMILES O=C([O-])CCCCCCCC(=O)[O-]
REMARK SMILES IDX 7 1 6 2 5 3 4 4 2 5 1 6 3 7 8 8 9 9 10 10 11 11 12 12 13 13
REMARK H PARENT
REMARK Flexibility Score: inf
ROOT
ATOM      1  C   UNL     1      10.111  65.683   8.485  1.00  0.00     0.000 C 
ENDROOT
BRANCH   1   2
ATOM      2  C   UNL     1       9.843  64.177   8.343  1.00  0.00     0.000 C 
BRANCH   2   3
ATOM      3  C   UNL     1      10.943  63.358   9.029  1.00  0.00     0.006 C 
BRANCH   3   4
ATOM      4  C   UNL     1      11.580  62.366   8.052  1.00  0.00     0.053 C 
BRANCH   4   5
ATOM      5  C   UNL     1      12.770  62.978   7.385  1.00  0.00     0.041 C 
ATOM      6  O   UNL     1      13.003  62.750   6.169  1.00  0.00    -0.550 OA
ATOM      7  O   UNL     1      13.652  63.762   8.119  1.00  0.00    -0.550 OA
ENDBRANCH   4   5
ENDBRANCH   3   4
ENDBRANCH   2   3
ENDBRANCH   1   2
BRANCH   1   8
ATOM      8  C   UNL     1      11.180  66.189   7.504  1.00  0.00     0.000 C 
BRANCH   8   9
ATOM      9  C   UNL     1      10.765  66.020   6.034  1.00  0.00     0.006 C 
BRANCH   9  10
ATOM     10  C   UNL     1      11.990  66.034   5.115  1.00  0.00     0.053 C 
BRANCH  10  11
ATOM     11  C   UNL     1      11.644  65.470   3.774  1.00  0.00     0.041 C 
ATOM     12  O   UNL     1      10.730  65.991   3.082  1.00  0.00    -0.550 OA
ATOM     13  O   UNL     1      12.298  64.337   3.306  1.00  0.00    -0.550 OA
ENDBRANCH  10  11
ENDBRANCH   9  10
ENDBRANCH   8   9
ENDBRANCH   1   8
TORSDOF 8
ENDMDL
MODEL 5
REMARK VINA RESULT:    -3.428      1.264      1.722
REMARK INTER + INTRA:          -5.652
REMARK INTER:                  -5.338
REMARK INTRA:                  -0.315
REMARK UNBOUND:                -0.622
REMARK SMILES O=C([O-])CCCCCCCC(=O)[O-]
REMARK SMILES IDX 7 1 6 2 5 3 4 4 2 5 1 6 3 7 8 8 9 9 10 10 11 11 12 12 13 13
REMARK H PARENT
REMARK Flexibility Score: inf
ROOT
ATOM      1  C   UNL     1      13.094  64.666   6.293  1.00  0.00     0.000 C 
ENDROOT
BRANCH   1   2
ATOM      2  C   UNL     1      12.026  65.348   5.425  1.00  0.00     0.000 C 
BRANCH   2   3
ATOM      3  C   UNL     1      12.189  64.963   3.950  1.00  0.00     0.006 C 
BRANCH   3   4
ATOM      4  C   UNL     1      11.082  65.584   3.093  1.00  0.00     0.053 C 
BRANCH   4   5
ATOM      5  C   UNL     1      11.645  66.634   2.190  1.00  0.00     0.041 C 
ATOM      6  O   UNL     1      10.932  67.605   1.824  1.00  0.00    -0.550 OA
ATOM      7  O   UNL     1      12.944  66.515   1.710  1.00  0.00    -0.550 OA
ENDBRANCH   4   5
ENDBRANCH   3   4
ENDBRANCH   2   3
ENDBRANCH   1   2
BRANCH   1   8
ATOM      8  C   UNL     1      13.079  63.135   6.157  1.00  0.00     0.000 C 
BRANCH   8   9
ATOM      9  C   UNL     1      12.319  62.445   7.301  1.00  0.00     0.006 C 
BRANCH   9  10
ATOM     10  C   UNL     1      12.004  63.437   8.424  1.00  0.00     0.053 C 
BRANCH  10  11
ATOM     11  C   UNL     1      10.694  63.104   9.064  1.00  0.00     0.041 C 
ATOM     12  O   UNL     1      10.654  62.355  10.076  1.00  0.00    -0.550 OA
ATOM     13  O   UNL     1       9.510  63.579   8.514  1.00  0.00    -0.550 OA
ENDBRANCH  10  11
ENDBRANCH   9  10
ENDBRANCH   8   9
ENDBRANCH   1   8
TORSDOF 8
ENDMDL
MODEL 6
REMARK VINA RESULT:    -3.398      1.640      2.565
REMARK INTER + INTRA:          -5.609
REMARK INTER:                  -5.132
REMARK INTRA:                  -0.477
REMARK UNBOUND:                -0.622
REMARK SMILES O=C([O-])CCCCCCCC(=O)[O-]
REMARK SMILES IDX 7 1 6 2 5 3 4 4 2 5 1 6 3 7 8 8 9 9 10 10 11 11 12 12 13 13
REMARK H PARENT
REMARK Flexibility Score: inf
ROOT
ATOM      1  C   UNL     1      11.509  62.241   7.948  1.00  0.00     0.000 C 
ENDROOT
BRANCH   1   2
ATOM      2  C   UNL     1      12.875  62.893   7.684  1.00  0.00     0.000 C 
BRANCH   2   3
ATOM      3  C   UNL     1      12.999  63.332   6.219  1.00  0.00     0.006 C 
BRANCH   3   4
ATOM      4  C   UNL     1      13.058  64.857   6.105  1.00  0.00     0.053 C 
BRANCH   4   5
ATOM      5  C   UNL     1      12.030  65.351   5.137  1.00  0.00     0.041 C 
ATOM      6  O   UNL     1      10.973  65.892   5.556  1.00  0.00    -0.550 OA
ATOM      7  O   UNL     1      12.216  65.169   3.773  1.00  0.00    -0.550 OA
ENDBRANCH   4   5
ENDBRANCH   3   4
ENDBRANCH   2   3
ENDBRANCH   1   2
BRANCH   1   8
ATOM      8  C   UNL     1      10.742  62.917   9.095  1.00  0.00     0.000 C 
BRANCH   8   9
ATOM      9  C   UNL     1       9.412  63.535   8.637  1.00  0.00     0.006 C 
BRANCH   9  10
ATOM     10  C   UNL     1       9.480  65.064   8.664  1.00  0.00     0.053 C 
BRANCH  10  11
ATOM     11  C   UNL     1       8.105  65.650   8.680  1.00  0.00     0.041 C 
ATOM     12  O   UNL     1       7.117  64.942   9.012  1.00  0.00    -0.550 OA
ATOM     13  O   UNL     1       7.903  66.965   8.280  1.00  0.00    -0.550 OA
ENDBRANCH  10  11
ENDBRANCH   9  10
ENDBRANCH   8   9
ENDBRANCH   1   8
TORSDOF 8
ENDMDL
MODEL 7
REMARK VINA RESULT:    -3.396      2.768      4.103
REMARK INTER + INTRA:          -5.606
REMARK INTER:                  -4.979
REMARK INTRA:                  -0.627
REMARK UNBOUND:                -0.622
REMARK SMILES O=C([O-])CCCCCCCC(=O)[O-]
REMARK SMILES IDX 7 1 6 2 5 3 4 4 2 5 1 6 3 7 8 8 9 9 10 10 11 11 12 12 13 13
REMARK H PARENT
REMARK Flexibility Score: inf
ROOT
ATOM      1  C   UNL     1      12.732  63.937   6.604  1.00  0.00     0.000 C 
ENDROOT
BRANCH   1   2
ATOM      2  C   UNL     1      14.070  64.681   6.728  1.00  0.00     0.000 C 
BRANCH   2   3
ATOM      3  C   UNL     1      13.986  65.788   7.787  1.00  0.00     0.006 C 
BRANCH   3   4
ATOM      4  C   UNL     1      14.125  65.212   9.198  1.00  0.00     0.053 C 
BRANCH   4   5
ATOM      5  C   UNL     1      13.136  65.847  10.123  1.00  0.00     0.041 C 
ATOM      6  O   UNL     1      12.138  66.460   9.661  1.00  0.00    -0.550 OA
ATOM      7  O   UNL     1      13.341  65.804  11.497  1.00  0.00    -0.550 OA
ENDBRANCH   4   5
ENDBRANCH   3   4
ENDBRANCH   2   3
ENDBRANCH   1   2
BRANCH   1   8
ATOM      8  C   UNL     1      12.748  62.570   7.306  1.00  0.00     0.000 C 
BRANCH   8   9
ATOM      9  C   UNL     1      11.364  62.159   7.834  1.00  0.00     0.006 C 
BRANCH   9  10
ATOM     10  C   UNL     1      10.916  63.081   8.971  1.00  0.00     0.053 C 
BRANCH  10  11
ATOM     11  C   UNL     1       9.664  63.807   8.594  1.00  0.00     0.041 C 
ATOM     12  O   UNL     1       9.722  64.988   8.162  1.00  0.00    -0.550 OA
ATOM     13  O   UNL     1       8.428  63.198   8.768  1.00  0.00    -0.550 OA
ENDBRANCH  10  11
ENDBRANCH   9  10
ENDBRANCH   8   9
ENDBRANCH   1   8
TORSDOF 8
ENDMDL
MODEL 8
REMARK VINA RESULT:    -3.395      1.562      2.102
REMARK INTER + INTRA:          -5.605
REMARK INTER:                  -4.866
REMARK INTRA:                  -0.739
REMARK UNBOUND:                -0.622
REMARK SMILES O=C([O-])CCCCCCCC(=O)[O-]
REMARK SMILES IDX 7 1 6 2 5 3 4 4 2 5 1 6 3 7 8 8 9 9 10 10 11 11 12 12 13 13
REMARK H PARENT
REMARK Flexibility Score: inf
ROOT
ATOM      1  C   UNL     1      13.015  63.010   6.407  1.00  0.00     0.000 C 
ENDROOT
BRANCH   1   2
ATOM      2  C   UNL     1      13.755  64.268   6.886  1.00  0.00     0.000 C 
BRANCH   2   3
ATOM      3  C   UNL     1      13.085  65.538   6.345  1.00  0.00     0.006 C 
BRANCH   3   4
ATOM      4  C   UNL     1      12.281  65.238   5.077  1.00  0.00     0.053 C 
BRANCH   4   5
ATOM      5  C   UNL     1      11.024  66.048   5.050  1.00  0.00     0.041 C 
ATOM      6  O   UNL     1      10.343  66.127   3.994  1.00  0.00    -0.550 OA
ATOM      7  O   UNL     1      10.629  66.756   6.178  1.00  0.00    -0.550 OA
ENDBRANCH   4   5
ENDBRANCH   3   4
ENDBRANCH   2   3
ENDBRANCH   1   2
BRANCH   1   8
ATOM      8  C   UNL     1      12.309  62.266   7.552  1.00  0.00     0.000 C 
BRANCH   8   9
ATOM      9  C   UNL     1      10.999  62.945   7.981  1.00  0.00     0.006 C 
BRANCH   9  10
ATOM     10  C   UNL     1      11.016  63.272   9.477  1.00  0.00     0.053 C 
BRANCH  10  11
ATOM     11  C   UNL     1      11.409  64.698   9.697  1.00  0.00     0.041 C 
ATOM     12  O   UNL     1      12.533  64.976  10.192  1.00  0.00    -0.550 OA
ATOM     13  O   UNL     1      10.516  65.720   9.403  1.00  0.00    -0.550 OA
ENDBRANCH  10  11
ENDBRANCH   9  10
ENDBRANCH   8   9
ENDBRANCH   1   8
TORSDOF 8
ENDMDL
MODEL 9
REMARK VINA RESULT:    -3.378      3.463      6.001
REMARK INTER + INTRA:          -5.580
REMARK INTER:                  -5.252
REMARK INTRA:                  -0.328
REMARK UNBOUND:                -0.622
REMARK SMILES O=C([O-])CCCCCCCC(=O)[O-]
REMARK SMILES IDX 7 1 6 2 5 3 4 4 2 5 1 6 3 7 8 8 9 9 10 10 11 11 12 12 13 13
REMARK H PARENT
REMARK Flexibility Score: inf
ROOT
ATOM      1  C   UNL     1       8.945  65.008   8.767  1.00  0.00     0.000 C 
ENDROOT
BRANCH   1   2
ATOM      2  C   UNL     1       7.440  65.211   9.003  1.00  0.00     0.000 C 
BRANCH   2   3
ATOM      3  C   UNL     1       6.640  63.994   8.521  1.00  0.00     0.006 C 
BRANCH   3   4
ATOM      4  C   UNL     1       5.140  64.194   8.753  1.00  0.00     0.053 C 
BRANCH   4   5
ATOM      5  C   UNL     1       4.683  65.480   8.142  1.00  0.00     0.041 C 
ATOM      6  O   UNL     1       4.784  65.664   6.901  1.00  0.00    -0.550 OA
ATOM      7  O   UNL     1       4.188  66.497   8.950  1.00  0.00    -0.550 OA
ENDBRANCH   4   5
ENDBRANCH   3   4
ENDBRANCH   2   3
ENDBRANCH   1   2
BRANCH   1   8
ATOM      8  C   UNL     1       9.317  63.532   8.555  1.00  0.00     0.000 C 
BRANCH   8   9
ATOM      9  C   UNL     1      10.658  63.159   9.206  1.00  0.00     0.006 C 
BRANCH   9  10
ATOM     10  C   UNL     1      11.491  62.274   8.276  1.00  0.00     0.053 C 
BRANCH  10  11
ATOM     11  C   UNL     1      12.492  63.095   7.527  1.00  0.00     0.041 C 
ATOM     12  O   UNL     1      12.926  64.170   8.020  1.00  0.00    -0.550 OA
ATOM     13  O   UNL     1      12.908  62.702   6.262  1.00  0.00    -0.550 OA
ENDBRANCH  10  11
ENDBRANCH   9  10
ENDBRANCH   8   9
ENDBRANCH   1   8
TORSDOF 8
ENDMDL
