MODEL 1
REMARK VINA RESULT:     0.000      0.000      0.000
REMARK INTER + INTRA:          -5.600
REMARK INTER:                   0.000
REMARK INTRA:                  -5.600
REMARK UNBOUND:                -5.600
REMARK SMILES CCCCCCCCCCCCCCCCCCCCCCCC(=O)[O-]
REMARK SMILES IDX 13 1 14 2 15 3 16 4 17 5 18 6 19 7 20 8 21 9 22 10 23 11
REMARK SMILES IDX 24 12 25 13 26 14 12 15 11 16 10 17 9 18 8 19 7 20 6 21 5 22
REMARK SMILES IDX 4 23 3 24 2 25 1 26
REMARK H PARENT
REMARK Flexibility Score: inf
ROOT
ATOM      1  C   UNL     1     185.556 184.874 185.364  1.00  0.00     0.000 C 
ENDROOT
BRANCH   1   2
ATOM      2  C   UNL     1     184.090 185.163 184.992  1.00  0.00     0.000 C 
BRANCH   2   3
ATOM      3  C   UNL     1     183.102 184.716 186.082  1.00  0.00     0.000 C 
BRANCH   3   4
ATOM      4  C   UNL     1     183.755 183.798 187.129  1.00  0.00     0.000 C 
BRANCH   4   5
ATOM      5  C   UNL     1     183.315 184.122 188.568  1.00  0.00     0.000 C 
BRANCH   5   6
ATOM      6  C   UNL     1     184.042 183.332 189.671  1.00  0.00     0.000 C 
BRANCH   6   7
ATOM      7  C   UNL     1     185.572 183.385 189.537  1.00  0.00     0.000 C 
BRANCH   7   8
ATOM      8  C   UNL     1     186.153 184.780 189.836  1.00  0.00     0.000 C 
BRANCH   8   9
ATOM      9  C   UNL     1     187.073 185.352 188.739  1.00  0.00     0.000 C 
BRANCH   9  10
ATOM     10  C   UNL     1     186.638 186.750 188.260  1.00  0.00     0.006 C 
BRANCH  10  11
ATOM     11  C   UNL     1     185.311 187.193 188.892  1.00  0.00     0.053 C 
BRANCH  11  12
ATOM     12  C   UNL     1     184.351 187.714 187.865  1.00  0.00     0.041 C 
ATOM     13  O   UNL     1     184.782 188.190 186.782  1.00  0.00    -0.550 OA
ATOM     14  O   UNL     1     182.982 187.670 188.101  1.00  0.00    -0.550 OA
ENDBRANCH  11  12
ENDBRANCH  10  11
ENDBRANCH   9  10
ENDBRANCH   8   9
ENDBRANCH   7   8
ENDBRANCH   6   7
ENDBRANCH   5   6
ENDBRANCH   4   5
ENDBRANCH   3   4
ENDBRANCH   2   3
ENDBRANCH   1   2
BRANCH   1  15
ATOM     15  C   UNL     1     186.363 184.300 184.188  1.00  0.00     0.000 C 
BRANCH  15  16
ATOM     16  C   UNL     1     187.235 183.103 184.600  1.00  0.00     0.000 C 
BRANCH  16  17
ATOM     17  C   UNL     1     187.199 182.828 186.113  1.00  0.00     0.000 C 
BRANCH  17  18
ATOM     18  C   UNL     1     186.596 181.456 186.478  1.00  0.00    -0.000 C 
BRANCH  18  19
ATOM     19  C   UNL     1     185.998 180.742 185.252  1.00  0.00    -0.000 C 
BRANCH  19  20
ATOM     20  C   UNL     1     184.461 180.711 185.271  1.00  0.00    -0.000 C 
BRANCH  20  21
ATOM     21  C   UNL     1     183.841 181.516 184.116  1.00  0.00    -0.000 C 
BRANCH  21  22
ATOM     22  C   UNL     1     182.317 181.675 184.255  1.00  0.00    -0.000 C 
BRANCH  22  23
ATOM     23  C   UNL     1     181.734 180.807 185.385  1.00  0.00    -0.000 C 
BRANCH  23  24
ATOM     24  C   UNL     1     180.733 181.571 186.271  1.00  0.00    -0.000 C 
BRANCH  24  25
ATOM     25  C   UNL     1     180.961 181.426 187.787  1.00  0.00    -0.003 C 
ATOM     26  C   UNL     1     182.082 180.445 188.133  1.00  0.00     0.004 C 
ENDBRANCH  24  25
ENDBRANCH  23  24
ENDBRANCH  22  23
ENDBRANCH  21  22
ENDBRANCH  20  21
ENDBRANCH  19  20
ENDBRANCH  18  19
ENDBRANCH  17  18
ENDBRANCH  16  17
ENDBRANCH  15  16
ENDBRANCH   1  15
TORSDOF 22
ENDMDL
MODEL 2
REMARK VINA RESULT:     0.001      9.587     12.676
REMARK INTER + INTRA:          -5.597
REMARK INTER:                   0.000
REMARK INTRA:                  -5.597
REMARK UNBOUND:                -5.600
REMARK SMILES CCCCCCCCCCCCCCCCCCCCCCCC(=O)[O-]
REMARK SMILES IDX 13 1 14 2 15 3 16 4 17 5 18 6 19 7 20 8 21 9 22 10 23 11
REMARK SMILES IDX 24 12 25 13 26 14 12 15 11 16 10 17 9 18 8 19 7 20 6 21 5 22
REMARK SMILES IDX 4 23 3 24 2 25 1 26
REMARK H PARENT
REMARK Flexibility Score: inf
ROOT
ATOM      1  C   UNL     1     179.165 187.113 198.155  1.00  0.00     0.000 C 
ENDROOT
BRANCH   1   2
ATOM      2  C   UNL     1     178.786 188.398 198.913  1.00  0.00     0.000 C 
BRANCH   2   3
ATOM      3  C   UNL     1     180.004 189.278 199.238  1.00  0.00     0.000 C 
BRANCH   3   4
ATOM      4  C   UNL     1     179.881 190.695 198.651  1.00  0.00     0.000 C 
BRANCH   4   5
ATOM      5  C   UNL     1     180.934 190.988 197.567  1.00  0.00     0.000 C 
BRANCH   5   6
ATOM      6  C   UNL     1     180.489 190.695 196.123  1.00  0.00     0.000 C 
BRANCH   6   7
ATOM      7  C   UNL     1     178.962 190.723 195.949  1.00  0.00     0.000 C 
BRANCH   7   8
ATOM      8  C   UNL     1     178.409 189.447 195.287  1.00  0.00     0.000 C 
BRANCH   8   9
ATOM      9  C   UNL     1     179.329 188.812 194.225  1.00  0.00     0.000 C 
BRANCH   9  10
ATOM     10  C   UNL     1     178.957 187.353 193.906  1.00  0.00     0.006 C 
BRANCH  10  11
ATOM     11  C   UNL     1     177.778 186.855 194.754  1.00  0.00     0.053 C 
BRANCH  11  12
ATOM     12  C   UNL     1     177.807 185.366 194.930  1.00  0.00     0.041 C 
ATOM     13  O   UNL     1     176.977 184.804 195.693  1.00  0.00    -0.550 OA
ATOM     14  O   UNL     1     178.745 184.599 194.250  1.00  0.00    -0.550 OA
ENDBRANCH  11  12
ENDBRANCH  10  11
ENDBRANCH   9  10
ENDBRANCH   8   9
ENDBRANCH   7   8
ENDBRANCH   6   7
ENDBRANCH   5   6
ENDBRANCH   4   5
ENDBRANCH   3   4
ENDBRANCH   2   3
ENDBRANCH   1   2
BRANCH   1  15
ATOM     15  C   UNL     1     180.555 187.197 197.505  1.00  0.00     0.000 C 
BRANCH  15  16
ATOM     16  C   UNL     1     180.946 185.900 196.778  1.00  0.00     0.000 C 
BRANCH  16  17
ATOM     17  C   UNL     1     181.987 186.126 195.669  1.00  0.00     0.000 C 
BRANCH  17  18
ATOM     18  C   UNL     1     182.500 187.579 195.587  1.00  0.00    -0.000 C 
BRANCH  18  19
ATOM     19  C   UNL     1     183.896 187.664 194.944  1.00  0.00    -0.000 C 
BRANCH  19  20
ATOM     20  C   UNL     1     184.877 188.521 195.761  1.00  0.00    -0.000 C 
BRANCH  20  21
ATOM     21  C   UNL     1     184.166 189.621 196.569  1.00  0.00    -0.000 C 
BRANCH  21  22
ATOM     22  C   UNL     1     184.588 189.635 198.048  1.00  0.00    -0.000 C 
BRANCH  22  23
ATOM     23  C   UNL     1     183.648 188.802 198.938  1.00  0.00    -0.000 C 
BRANCH  23  24
ATOM     24  C   UNL     1     184.341 187.572 199.555  1.00  0.00    -0.000 C 
BRANCH  24  25
ATOM     25  C   UNL     1     183.866 186.214 199.007  1.00  0.00    -0.003 C 
ATOM     26  C   UNL     1     184.861 185.578 198.036  1.00  0.00     0.004 C 
ENDBRANCH  24  25
ENDBRANCH  23  24
ENDBRANCH  22  23
ENDBRANCH  21  22
ENDBRANCH  20  21
ENDBRANCH  19  20
ENDBRANCH  18  19
ENDBRANCH  17  18
ENDBRANCH  16  17
ENDBRANCH  15  16
ENDBRANCH   1  15
TORSDOF 22
ENDMDL
MODEL 3
REMARK VINA RESULT:     0.005      5.814      8.484
REMARK INTER + INTRA:          -5.588
REMARK INTER:                   0.000
REMARK INTRA:                  -5.588
REMARK UNBOUND:                -5.600
REMARK SMILES CCCCCCCCCCCCCCCCCCCCCCCC(=O)[O-]
REMARK SMILES IDX 13 1 14 2 15 3 16 4 17 5 18 6 19 7 20 8 21 9 22 10 23 11
REMARK SMILES IDX 24 12 25 13 26 14 12 15 11 16 10 17 9 18 8 19 7 20 6 21 5 22
REMARK SMILES IDX 4 23 3 24 2 25 1 26
REMARK H PARENT
REMARK Flexibility Score: inf
ROOT
ATOM      1  C   UNL     1     179.606 185.420 189.405  1.00  0.00     0.000 C 
ENDROOT
BRANCH   1   2
ATOM      2  C   UNL     1     179.821 186.716 188.602  1.00  0.00     0.000 C 
BRANCH   2   3
ATOM      3  C   UNL     1     180.200 186.451 187.136  1.00  0.00     0.000 C 
BRANCH   3   4
ATOM      4  C   UNL     1     179.542 187.448 186.167  1.00  0.00     0.000 C 
BRANCH   4   5
ATOM      5  C   UNL     1     178.695 186.760 185.082  1.00  0.00     0.000 C 
BRANCH   5   6
ATOM      6  C   UNL     1     178.213 185.340 185.426  1.00  0.00     0.000 C 
BRANCH   6   7
ATOM      7  C   UNL     1     176.732 185.110 185.083  1.00  0.00     0.000 C 
BRANCH   7   8
ATOM      8  C   UNL     1     175.867 184.817 186.324  1.00  0.00     0.000 C 
BRANCH   8   9
ATOM      9  C   UNL     1     176.434 185.351 187.654  1.00  0.00     0.000 C 
BRANCH   9  10
ATOM     10  C   UNL     1     175.616 186.523 188.227  1.00  0.00     0.006 C 
BRANCH  10  11
ATOM     11  C   UNL     1     176.328 187.872 188.043  1.00  0.00     0.053 C 
BRANCH  11  12
ATOM     12  C   UNL     1     175.896 188.563 186.785  1.00  0.00     0.041 C 
ATOM     13  O   UNL     1     176.596 189.493 186.304  1.00  0.00    -0.550 OA
ATOM     14  O   UNL     1     174.725 188.180 186.142  1.00  0.00    -0.550 OA
ENDBRANCH  11  12
ENDBRANCH  10  11
ENDBRANCH   9  10
ENDBRANCH   8   9
ENDBRANCH   7   8
ENDBRANCH   6   7
ENDBRANCH   5   6
ENDBRANCH   4   5
ENDBRANCH   3   4
ENDBRANCH   2   3
ENDBRANCH   1   2
BRANCH   1  15
ATOM     15  C   UNL     1     180.017 184.164 188.621  1.00  0.00     0.000 C 
BRANCH  15  16
ATOM     16  C   UNL     1     178.979 183.035 188.733  1.00  0.00     0.000 C 
BRANCH  16  17
ATOM     17  C   UNL     1     178.744 182.305 187.399  1.00  0.00     0.000 C 
BRANCH  17  18
ATOM     18  C   UNL     1     177.388 181.573 187.325  1.00  0.00    -0.000 C 
BRANCH  18  19
ATOM     19  C   UNL     1     176.691 181.506 188.696  1.00  0.00    -0.000 C 
BRANCH  19  20
ATOM     20  C   UNL     1     175.216 181.938 188.637  1.00  0.00    -0.000 C 
BRANCH  20  21
ATOM     21  C   UNL     1     174.822 182.851 189.810  1.00  0.00    -0.000 C 
BRANCH  21  22
ATOM     22  C   UNL     1     175.886 182.880 190.921  1.00  0.00    -0.000 C 
BRANCH  22  23
ATOM     23  C   UNL     1     176.397 184.303 191.212  1.00  0.00    -0.000 C 
BRANCH  23  24
ATOM     24  C   UNL     1     177.564 184.326 192.216  1.00  0.00    -0.000 C 
BRANCH  24  25
ATOM     25  C   UNL     1     178.295 182.983 192.396  1.00  0.00    -0.003 C 
ATOM     26  C   UNL     1     179.818 183.124 192.391  1.00  0.00     0.004 C 
ENDBRANCH  24  25
ENDBRANCH  23  24
ENDBRANCH  22  23
ENDBRANCH  21  22
ENDBRANCH  20  21
ENDBRANCH  19  20
ENDBRANCH  18  19
ENDBRANCH  17  18
ENDBRANCH  16  17
ENDBRANCH  15  16
ENDBRANCH   1  15
TORSDOF 22
ENDMDL
MODEL 4
REMARK VINA RESULT:     0.008      4.955      9.008
REMARK INTER + INTRA:          -5.582
REMARK INTER:                   0.000
REMARK INTRA:                  -5.582
REMARK UNBOUND:                -5.600
REMARK SMILES CCCCCCCCCCCCCCCCCCCCCCCC(=O)[O-]
REMARK SMILES IDX 13 1 14 2 15 3 16 4 17 5 18 6 19 7 20 8 21 9 22 10 23 11
REMARK SMILES IDX 24 12 25 13 26 14 12 15 11 16 10 17 9 18 8 19 7 20 6 21 5 22
REMARK SMILES IDX 4 23 3 24 2 25 1 26
REMARK H PARENT
REMARK Flexibility Score: inf
ROOT
ATOM      1  C   UNL     1     186.339 188.218 192.525  1.00  0.00     0.000 C 
ENDROOT
BRANCH   1   2
ATOM      2  C   UNL     1     186.975 189.206 193.521  1.00  0.00     0.000 C 
BRANCH   2   3
ATOM      3  C   UNL     1     187.467 190.496 192.846  1.00  0.00     0.000 C 
BRANCH   3   4
ATOM      4  C   UNL     1     187.473 190.393 191.311  1.00  0.00     0.000 C 
BRANCH   4   5
ATOM      5  C   UNL     1     187.143 191.728 190.619  1.00  0.00     0.000 C 
BRANCH   5   6
ATOM      6  C   UNL     1     187.035 191.665 189.085  1.00  0.00     0.000 C 
BRANCH   6   7
ATOM      7  C   UNL     1     185.600 191.879 188.577  1.00  0.00     0.000 C 
BRANCH   7   8
ATOM      8  C   UNL     1     185.019 190.637 187.876  1.00  0.00     0.000 C 
BRANCH   8   9
ATOM      9  C   UNL     1     185.940 189.400 187.872  1.00  0.00     0.000 C 
BRANCH   9  10
ATOM     10  C   UNL     1     185.472 188.301 188.843  1.00  0.00     0.006 C 
BRANCH  10  11
ATOM     11  C   UNL     1     186.554 187.237 189.080  1.00  0.00     0.053 C 
BRANCH  11  12
ATOM     12  C   UNL     1     185.961 185.878 189.300  1.00  0.00     0.041 C 
ATOM     13  O   UNL     1     184.816 185.609 188.849  1.00  0.00    -0.550 OA
ATOM     14  O   UNL     1     186.672 184.908 189.996  1.00  0.00    -0.550 OA
ENDBRANCH  11  12
ENDBRANCH  10  11
ENDBRANCH   9  10
ENDBRANCH   8   9
ENDBRANCH   7   8
ENDBRANCH   6   7
ENDBRANCH   5   6
ENDBRANCH   4   5
ENDBRANCH   3   4
ENDBRANCH   2   3
ENDBRANCH   1   2
BRANCH   1  15
ATOM     15  C   UNL     1     186.406 186.762 193.011  1.00  0.00     0.000 C 
BRANCH  15  16
ATOM     16  C   UNL     1     185.033 186.070 192.988  1.00  0.00     0.000 C 
BRANCH  16  17
ATOM     17  C   UNL     1     183.964 186.884 192.241  1.00  0.00     0.000 C 
BRANCH  17  18
ATOM     18  C   UNL     1     182.774 187.306 193.127  1.00  0.00    -0.000 C 
BRANCH  18  19
ATOM     19  C   UNL     1     183.171 187.424 194.610  1.00  0.00    -0.000 C 
BRANCH  19  20
ATOM     20  C   UNL     1     183.556 188.857 195.013  1.00  0.00    -0.000 C 
BRANCH  20  21
ATOM     21  C   UNL     1     182.933 189.916 194.087  1.00  0.00    -0.000 C 
BRANCH  21  22
ATOM     22  C   UNL     1     183.851 191.132 193.876  1.00  0.00    -0.000 C 
BRANCH  22  23
ATOM     23  C   UNL     1     183.876 191.606 192.412  1.00  0.00    -0.000 C 
BRANCH  23  24
ATOM     24  C   UNL     1     183.697 190.454 191.406  1.00  0.00    -0.000 C 
BRANCH  24  25
ATOM     25  C   UNL     1     182.446 190.555 190.515  1.00  0.00    -0.003 C 
ATOM     26  C   UNL     1     182.001 189.207 189.949  1.00  0.00     0.004 C 
ENDBRANCH  24  25
ENDBRANCH  23  24
ENDBRANCH  22  23
ENDBRANCH  21  22
ENDBRANCH  20  21
ENDBRANCH  19  20
ENDBRANCH  18  19
ENDBRANCH  17  18
ENDBRANCH  16  17
ENDBRANCH  15  16
ENDBRANCH   1  15
TORSDOF 22
ENDMDL
MODEL 5
REMARK VINA RESULT:     0.011      6.178      9.369
REMARK INTER + INTRA:          -5.576
REMARK INTER:                   0.000
REMARK INTRA:                  -5.576
REMARK UNBOUND:                -5.600
REMARK SMILES CCCCCCCCCCCCCCCCCCCCCCCC(=O)[O-]
REMARK SMILES IDX 13 1 14 2 15 3 16 4 17 5 18 6 19 7 20 8 21 9 22 10 23 11
REMARK SMILES IDX 24 12 25 13 26 14 12 15 11 16 10 17 9 18 8 19 7 20 6 21 5 22
REMARK SMILES IDX 4 23 3 24 2 25 1 26
REMARK H PARENT
REMARK Flexibility Score: inf
ROOT
ATOM      1  C   UNL     1     183.616 188.652 192.195  1.00  0.00     0.000 C 
ENDROOT
BRANCH   1   2
ATOM      2  C   UNL     1     182.204 188.565 192.803  1.00  0.00     0.000 C 
BRANCH   2   3
ATOM      3  C   UNL     1     182.008 187.312 193.672  1.00  0.00     0.000 C 
BRANCH   3   4
ATOM      4  C   UNL     1     182.211 187.596 195.171  1.00  0.00     0.000 C 
BRANCH   4   5
ATOM      5  C   UNL     1     183.601 187.171 195.679  1.00  0.00     0.000 C 
BRANCH   5   6
ATOM      6  C   UNL     1     184.444 188.295 196.305  1.00  0.00     0.000 C 
BRANCH   6   7
ATOM      7  C   UNL     1     183.869 189.696 196.036  1.00  0.00     0.000 C 
BRANCH   7   8
ATOM      8  C   UNL     1     184.956 190.741 195.725  1.00  0.00     0.000 C 
BRANCH   8   9
ATOM      9  C   UNL     1     184.693 191.603 194.474  1.00  0.00     0.000 C 
BRANCH   9  10
ATOM     10  C   UNL     1     183.194 191.843 194.216  1.00  0.00     0.006 C 
BRANCH  10  11
ATOM     11  C   UNL     1     182.916 192.276 192.769  1.00  0.00     0.053 C 
BRANCH  11  12
ATOM     12  C   UNL     1     183.182 193.737 192.563  1.00  0.00     0.041 C 
ATOM     13  O   UNL     1     182.938 194.559 193.486  1.00  0.00    -0.550 OA
ATOM     14  O   UNL     1     183.703 194.192 191.357  1.00  0.00    -0.550 OA
ENDBRANCH  11  12
ENDBRANCH  10  11
ENDBRANCH   9  10
ENDBRANCH   8   9
ENDBRANCH   7   8
ENDBRANCH   6   7
ENDBRANCH   5   6
ENDBRANCH   4   5
ENDBRANCH   3   4
ENDBRANCH   2   3
ENDBRANCH   1   2
BRANCH   1  15
ATOM     15  C   UNL     1     184.250 187.271 191.970  1.00  0.00     0.000 C 
BRANCH  15  16
ATOM     16  C   UNL     1     185.712 187.209 192.443  1.00  0.00     0.000 C 
BRANCH  16  17
ATOM     17  C   UNL     1     186.181 188.513 193.110  1.00  0.00     0.000 C 
BRANCH  17  18
ATOM     18  C   UNL     1     187.638 188.891 192.773  1.00  0.00    -0.000 C 
BRANCH  18  19
ATOM     19  C   UNL     1     187.865 190.413 192.815  1.00  0.00    -0.000 C 
BRANCH  19  20
ATOM     20  C   UNL     1     187.715 191.076 191.436  1.00  0.00    -0.000 C 
BRANCH  20  21
ATOM     21  C   UNL     1     186.376 191.817 191.281  1.00  0.00    -0.000 C 
BRANCH  21  22
ATOM     22  C   UNL     1     185.454 191.161 190.239  1.00  0.00    -0.000 C 
BRANCH  22  23
ATOM     23  C   UNL     1     186.219 190.246 189.266  1.00  0.00    -0.000 C 
BRANCH  23  24
ATOM     24  C   UNL     1     185.453 188.953 188.932  1.00  0.00    -0.000 C 
BRANCH  24  25
ATOM     25  C   UNL     1     186.325 187.688 188.827  1.00  0.00    -0.003 C 
ATOM     26  C   UNL     1     187.774 187.921 189.257  1.00  0.00     0.004 C 
ENDBRANCH  24  25
ENDBRANCH  23  24
ENDBRANCH  22  23
ENDBRANCH  21  22
ENDBRANCH  20  21
ENDBRANCH  19  20
ENDBRANCH  18  19
ENDBRANCH  17  18
ENDBRANCH  16  17
ENDBRANCH  15  16
ENDBRANCH   1  15
TORSDOF 22
ENDMDL
MODEL 6
REMARK VINA RESULT:     0.019      5.015      7.678
REMARK INTER + INTRA:          -5.555
REMARK INTER:                   0.000
REMARK INTRA:                  -5.555
REMARK UNBOUND:                -5.600
REMARK SMILES CCCCCCCCCCCCCCCCCCCCCCCC(=O)[O-]
REMARK SMILES IDX 13 1 14 2 15 3 16 4 17 5 18 6 19 7 20 8 21 9 22 10 23 11
REMARK SMILES IDX 24 12 25 13 26 14 12 15 11 16 10 17 9 18 8 19 7 20 6 21 5 22
REMARK SMILES IDX 4 23 3 24 2 25 1 26
REMARK H PARENT
REMARK Flexibility Score: inf
ROOT
ATOM      1  C   UNL     1     184.565 188.447 187.093  1.00  0.00     0.000 C 
ENDROOT
BRANCH   1   2
ATOM      2  C   UNL     1     183.905 187.469 188.082  1.00  0.00     0.000 C 
BRANCH   2   3
ATOM      3  C   UNL     1     184.480 187.583 189.503  1.00  0.00     0.000 C 
BRANCH   3   4
ATOM      4  C   UNL     1     184.671 186.211 190.174  1.00  0.00     0.000 C 
BRANCH   4   5
ATOM      5  C   UNL     1     186.130 185.943 190.585  1.00  0.00     0.000 C 
BRANCH   5   6
ATOM      6  C   UNL     1     187.163 186.048 189.448  1.00  0.00     0.000 C 
BRANCH   6   7
ATOM      7  C   UNL     1     188.306 187.025 189.766  1.00  0.00     0.000 C 
BRANCH   7   8
ATOM      8  C   UNL     1     187.993 187.947 190.959  1.00  0.00     0.000 C 
BRANCH   8   9
ATOM      9  C   UNL     1     187.921 189.449 190.621  1.00  0.00     0.000 C 
BRANCH   9  10
ATOM     10  C   UNL     1     186.647 190.125 191.161  1.00  0.00     0.006 C 
BRANCH  10  11
ATOM     11  C   UNL     1     186.051 189.369 192.357  1.00  0.00     0.053 C 
BRANCH  11  12
ATOM     12  C   UNL     1     184.647 189.806 192.649  1.00  0.00     0.041 C 
ATOM     13  O   UNL     1     184.390 191.025 192.832  1.00  0.00    -0.550 OA
ATOM     14  O   UNL     1     183.622 188.869 192.714  1.00  0.00    -0.550 OA
ENDBRANCH  11  12
ENDBRANCH  10  11
ENDBRANCH   9  10
ENDBRANCH   8   9
ENDBRANCH   7   8
ENDBRANCH   6   7
ENDBRANCH   5   6
ENDBRANCH   4   5
ENDBRANCH   3   4
ENDBRANCH   2   3
ENDBRANCH   1   2
BRANCH   1  15
ATOM     15  C   UNL     1     185.901 189.002 187.612  1.00  0.00     0.000 C 
BRANCH  15  16
ATOM     16  C   UNL     1     187.066 188.736 186.645  1.00  0.00     0.000 C 
BRANCH  16  17
ATOM     17  C   UNL     1     188.323 189.557 186.982  1.00  0.00     0.000 C 
BRANCH  17  18
ATOM     18  C   UNL     1     188.601 190.700 185.984  1.00  0.00    -0.000 C 
BRANCH  18  19
ATOM     19  C   UNL     1     187.923 192.016 186.408  1.00  0.00    -0.000 C 
BRANCH  19  20
ATOM     20  C   UNL     1     187.853 192.186 187.934  1.00  0.00    -0.000 C 
BRANCH  20  21
ATOM     21  C   UNL     1     186.456 192.613 188.417  1.00  0.00    -0.000 C 
BRANCH  21  22
ATOM     22  C   UNL     1     185.428 192.671 187.274  1.00  0.00    -0.000 C 
BRANCH  22  23
ATOM     23  C   UNL     1     184.028 192.208 187.715  1.00  0.00    -0.000 C 
BRANCH  23  24
ATOM     24  C   UNL     1     183.970 191.809 189.202  1.00  0.00    -0.000 C 
BRANCH  24  25
ATOM     25  C   UNL     1     182.815 190.862 189.577  1.00  0.00    -0.003 C 
ATOM     26  C   UNL     1     181.831 190.634 188.430  1.00  0.00     0.004 C 
ENDBRANCH  24  25
ENDBRANCH  23  24
ENDBRANCH  22  23
ENDBRANCH  21  22
ENDBRANCH  20  21
ENDBRANCH  19  20
ENDBRANCH  18  19
ENDBRANCH  17  18
ENDBRANCH  16  17
ENDBRANCH  15  16
ENDBRANCH   1  15
TORSDOF 22
ENDMDL
MODEL 7
REMARK VINA RESULT:     0.025      7.090      9.632
REMARK INTER + INTRA:          -5.543
REMARK INTER:                   0.000
REMARK INTRA:                  -5.543
REMARK UNBOUND:                -5.600
REMARK SMILES CCCCCCCCCCCCCCCCCCCCCCCC(=O)[O-]
REMARK SMILES IDX 13 1 14 2 15 3 16 4 17 5 18 6 19 7 20 8 21 9 22 10 23 11
REMARK SMILES IDX 24 12 25 13 26 14 12 15 11 16 10 17 9 18 8 19 7 20 6 21 5 22
REMARK SMILES IDX 4 23 3 24 2 25 1 26
REMARK H PARENT
REMARK Flexibility Score: inf
ROOT
ATOM      1  C   UNL     1     179.438 186.545 190.967  1.00  0.00     0.000 C 
ENDROOT
BRANCH   1   2
ATOM      2  C   UNL     1     179.939 187.933 190.528  1.00  0.00     0.000 C 
BRANCH   2   3
ATOM      3  C   UNL     1     180.020 188.078 188.999  1.00  0.00     0.000 C 
BRANCH   3   4
ATOM      4  C   UNL     1     179.543 189.458 188.513  1.00  0.00     0.000 C 
BRANCH   4   5
ATOM      5  C   UNL     1     178.375 189.371 187.514  1.00  0.00     0.000 C 
BRANCH   5   6
ATOM      6  C   UNL     1     177.587 188.049 187.537  1.00  0.00     0.000 C 
BRANCH   6   7
ATOM      7  C   UNL     1     176.067 188.256 187.445  1.00  0.00     0.000 C 
BRANCH   7   8
ATOM      8  C   UNL     1     175.315 187.752 188.691  1.00  0.00     0.000 C 
BRANCH   8   9
ATOM      9  C   UNL     1     176.146 187.731 189.990  1.00  0.00     0.000 C 
BRANCH   9  10
ATOM     10  C   UNL     1     175.754 188.850 190.971  1.00  0.00     0.006 C 
BRANCH  10  11
ATOM     11  C   UNL     1     176.863 189.900 191.128  1.00  0.00     0.053 C 
BRANCH  11  12
ATOM     12  C   UNL     1     176.630 191.092 190.249  1.00  0.00     0.041 C 
ATOM     13  O   UNL     1     177.498 192.002 190.176  1.00  0.00    -0.550 OA
ATOM     14  O   UNL     1     175.460 191.197 189.506  1.00  0.00    -0.550 OA
ENDBRANCH  11  12
ENDBRANCH  10  11
ENDBRANCH   9  10
ENDBRANCH   8   9
ENDBRANCH   7   8
ENDBRANCH   6   7
ENDBRANCH   5   6
ENDBRANCH   4   5
ENDBRANCH   3   4
ENDBRANCH   2   3
ENDBRANCH   1   2
BRANCH   1  15
ATOM     15  C   UNL     1     179.372 185.543 189.803  1.00  0.00     0.000 C 
BRANCH  15  16
ATOM     16  C   UNL     1     178.098 184.683 189.837  1.00  0.00     0.000 C 
BRANCH  16  17
ATOM     17  C   UNL     1     177.459 184.505 188.449  1.00  0.00     0.000 C 
BRANCH  17  18
ATOM     18  C   UNL     1     175.974 184.091 188.500  1.00  0.00    -0.000 C 
BRANCH  18  19
ATOM     19  C   UNL     1     175.511 183.771 189.933  1.00  0.00    -0.000 C 
BRANCH  19  20
ATOM     20  C   UNL     1     174.238 184.535 190.332  1.00  0.00    -0.000 C 
BRANCH  20  21
ATOM     21  C   UNL     1     174.306 185.083 191.768  1.00  0.00    -0.000 C 
BRANCH  21  22
ATOM     22  C   UNL     1     175.507 184.532 192.556  1.00  0.00    -0.000 C 
BRANCH  22  23
ATOM     23  C   UNL     1     176.446 185.644 193.055  1.00  0.00    -0.000 C 
BRANCH  23  24
ATOM     24  C   UNL     1     177.673 185.099 193.810  1.00  0.00    -0.000 C 
BRANCH  24  25
ATOM     25  C   UNL     1     177.995 183.617 193.544  1.00  0.00    -0.003 C 
ATOM     26  C   UNL     1     179.417 183.394 193.031  1.00  0.00     0.004 C 
ENDBRANCH  24  25
ENDBRANCH  23  24
ENDBRANCH  22  23
ENDBRANCH  21  22
ENDBRANCH  20  21
ENDBRANCH  19  20
ENDBRANCH  18  19
ENDBRANCH  17  18
ENDBRANCH  16  17
ENDBRANCH  15  16
ENDBRANCH   1  15
TORSDOF 22
ENDMDL
MODEL 8
REMARK VINA RESULT:     0.036      7.049      9.968
REMARK INTER + INTRA:          -5.517
REMARK INTER:                   0.000
REMARK INTRA:                  -5.517
REMARK UNBOUND:                -5.600
REMARK SMILES CCCCCCCCCCCCCCCCCCCCCCCC(=O)[O-]
REMARK SMILES IDX 13 1 14 2 15 3 16 4 17 5 18 6 19 7 20 8 21 9 22 10 23 11
REMARK SMILES IDX 24 12 25 13 26 14 12 15 11 16 10 17 9 18 8 19 7 20 6 21 5 22
REMARK SMILES IDX 4 23 3 24 2 25 1 26
REMARK H PARENT
REMARK Flexibility Score: inf
ROOT
ATOM      1  C   UNL     1     178.742 192.957 185.677  1.00  0.00     0.000 C 
ENDROOT
BRANCH   1   2
ATOM      2  C   UNL     1     177.704 193.409 186.720  1.00  0.00     0.000 C 
BRANCH   2   3
ATOM      3  C   UNL     1     176.305 192.828 186.457  1.00  0.00     0.000 C 
BRANCH   3   4
ATOM      4  C   UNL     1     175.687 192.188 187.712  1.00  0.00     0.000 C 
BRANCH   4   5
ATOM      5  C   UNL     1     175.066 190.806 187.437  1.00  0.00     0.000 C 
BRANCH   5   6
ATOM      6  C   UNL     1     175.013 190.393 185.955  1.00  0.00     0.000 C 
BRANCH   6   7
ATOM      7  C   UNL     1     175.361 188.912 185.733  1.00  0.00     0.000 C 
BRANCH   7   8
ATOM      8  C   UNL     1     175.966 188.640 184.344  1.00  0.00     0.000 C 
BRANCH   8   9
ATOM      9  C   UNL     1     177.072 187.566 184.313  1.00  0.00     0.000 C 
BRANCH   9  10
ATOM     10  C   UNL     1     177.030 186.627 185.532  1.00  0.00     0.006 C 
BRANCH  10  11
ATOM     11  C   UNL     1     178.422 186.098 185.907  1.00  0.00     0.053 C 
BRANCH  11  12
ATOM     12  C   UNL     1     179.077 185.390 184.759  1.00  0.00     0.041 C 
ATOM     13  O   UNL     1     180.182 185.799 184.313  1.00  0.00    -0.550 OA
ATOM     14  O   UNL     1     178.472 184.279 184.184  1.00  0.00    -0.550 OA
ENDBRANCH  11  12
ENDBRANCH  10  11
ENDBRANCH   9  10
ENDBRANCH   8   9
ENDBRANCH   7   8
ENDBRANCH   6   7
ENDBRANCH   5   6
ENDBRANCH   4   5
ENDBRANCH   3   4
ENDBRANCH   2   3
ENDBRANCH   1   2
BRANCH   1  15
ATOM     15  C   UNL     1     178.216 191.837 184.766  1.00  0.00     0.000 C 
BRANCH  15  16
ATOM     16  C   UNL     1     179.118 190.592 184.782  1.00  0.00     0.000 C 
BRANCH  16  17
ATOM     17  C   UNL     1     179.676 190.275 186.180  1.00  0.00     0.000 C 
BRANCH  17  18
ATOM     18  C   UNL     1     178.652 189.604 187.119  1.00  0.00    -0.000 C 
BRANCH  18  19
ATOM     19  C   UNL     1     178.664 190.227 188.527  1.00  0.00    -0.000 C 
BRANCH  19  20
ATOM     20  C   UNL     1     177.928 189.364 189.565  1.00  0.00    -0.000 C 
BRANCH  20  21
ATOM     21  C   UNL     1     177.175 188.185 188.925  1.00  0.00    -0.000 C 
BRANCH  21  22
ATOM     22  C   UNL     1     177.635 186.823 189.470  1.00  0.00    -0.000 C 
BRANCH  22  23
ATOM     23  C   UNL     1     179.021 186.891 190.136  1.00  0.00    -0.000 C 
BRANCH  23  24
ATOM     24  C   UNL     1     180.149 186.366 189.228  1.00  0.00    -0.000 C 
BRANCH  24  25
ATOM     25  C   UNL     1     181.203 187.415 188.827  1.00  0.00    -0.003 C 
ATOM     26  C   UNL     1     181.630 187.308 187.363  1.00  0.00     0.004 C 
ENDBRANCH  24  25
ENDBRANCH  23  24
ENDBRANCH  22  23
ENDBRANCH  21  22
ENDBRANCH  20  21
ENDBRANCH  19  20
ENDBRANCH  18  19
ENDBRANCH  17  18
ENDBRANCH  16  17
ENDBRANCH  15  16
ENDBRANCH   1  15
TORSDOF 22
ENDMDL
MODEL 9
REMARK VINA RESULT:     0.048      8.228     11.328
REMARK INTER + INTRA:          -5.491
REMARK INTER:                   0.000
REMARK INTRA:                  -5.491
REMARK UNBOUND:                -5.600
REMARK SMILES CCCCCCCCCCCCCCCCCCCCCCCC(=O)[O-]
REMARK SMILES IDX 13 1 14 2 15 3 16 4 17 5 18 6 19 7 20 8 21 9 22 10 23 11
REMARK SMILES IDX 24 12 25 13 26 14 12 15 11 16 10 17 9 18 8 19 7 20 6 21 5 22
REMARK SMILES IDX 4 23 3 24 2 25 1 26
REMARK H PARENT
REMARK Flexibility Score: inf
ROOT
ATOM      1  C   UNL     1     181.883 181.044 195.830  1.00  0.00     0.000 C 
ENDROOT
BRANCH   1   2
ATOM      2  C   UNL     1     180.985 182.123 196.463  1.00  0.00     0.000 C 
BRANCH   2   3
ATOM      3  C   UNL     1     179.680 181.547 197.036  1.00  0.00     0.000 C 
BRANCH   3   4
ATOM      4  C   UNL     1     179.326 180.176 196.435  1.00  0.00     0.000 C 
BRANCH   4   5
ATOM      5  C   UNL     1     178.271 180.265 195.317  1.00  0.00     0.000 C 
BRANCH   5   6
ATOM      6  C   UNL     1     178.819 180.132 193.885  1.00  0.00     0.000 C 
BRANCH   6   7
ATOM      7  C   UNL     1     178.930 181.482 193.159  1.00  0.00     0.000 C 
BRANCH   7   8
ATOM      8  C   UNL     1     178.056 182.579 193.794  1.00  0.00     0.000 C 
BRANCH   8   9
ATOM      9  C   UNL     1     178.691 183.983 193.825  1.00  0.00     0.000 C 
BRANCH   9  10
ATOM     10  C   UNL     1     178.578 184.663 195.201  1.00  0.00     0.006 C 
BRANCH  10  11
ATOM     11  C   UNL     1     179.822 185.498 195.541  1.00  0.00     0.053 C 
BRANCH  11  12
ATOM     12  C   UNL     1     179.916 185.786 197.009  1.00  0.00     0.041 C 
ATOM     13  O   UNL     1     179.352 185.025 197.839  1.00  0.00    -0.550 OA
ATOM     14  O   UNL     1     180.628 186.891 197.461  1.00  0.00    -0.550 OA
ENDBRANCH  11  12
ENDBRANCH  10  11
ENDBRANCH   9  10
ENDBRANCH   8   9
ENDBRANCH   7   8
ENDBRANCH   6   7
ENDBRANCH   5   6
ENDBRANCH   4   5
ENDBRANCH   3   4
ENDBRANCH   2   3
ENDBRANCH   1   2
BRANCH   1  15
ATOM     15  C   UNL     1     182.546 181.517 194.526  1.00  0.00     0.000 C 
BRANCH  15  16
ATOM     16  C   UNL     1     182.167 182.962 194.162  1.00  0.00     0.000 C 
BRANCH  16  17
ATOM     17  C   UNL     1     183.371 183.919 194.178  1.00  0.00     0.000 C 
BRANCH  17  18
ATOM     18  C   UNL     1     183.586 184.621 195.534  1.00  0.00    -0.000 C 
BRANCH  18  19
ATOM     19  C   UNL     1     184.679 183.935 196.374  1.00  0.00    -0.000 C 
BRANCH  19  20
ATOM     20  C   UNL     1     184.187 183.523 197.771  1.00  0.00    -0.000 C 
BRANCH  20  21
ATOM     21  C   UNL     1     183.128 184.488 198.331  1.00  0.00    -0.000 C 
BRANCH  21  22
ATOM     22  C   UNL     1     182.317 183.873 199.484  1.00  0.00    -0.000 C 
BRANCH  22  23
ATOM     23  C   UNL     1     182.886 182.521 199.950  1.00  0.00    -0.000 C 
BRANCH  23  24
ATOM     24  C   UNL     1     181.803 181.435 200.099  1.00  0.00    -0.000 C 
BRANCH  24  25
ATOM     25  C   UNL     1     182.152 180.077 199.462  1.00  0.00    -0.003 C 
ATOM     26  C   UNL     1     183.590 180.007 198.949  1.00  0.00     0.004 C 
ENDBRANCH  24  25
ENDBRANCH  23  24
ENDBRANCH  22  23
ENDBRANCH  21  22
ENDBRANCH  20  21
ENDBRANCH  19  20
ENDBRANCH  18  19
ENDBRANCH  17  18
ENDBRANCH  16  17
ENDBRANCH  15  16
ENDBRANCH   1  15
TORSDOF 22
ENDMDL
