MODEL 1
REMARK VINA RESULT:    -5.917      0.000      0.000
REMARK INTER + INTRA:          -6.921
REMARK INTER:                  -6.781
REMARK INTRA:                  -0.140
REMARK UNBOUND:                -0.140
REMARK SMILES O=C([O-])C=Cc1ccc(O)cc1
REMARK SMILES IDX 6 1 7 2 12 3 8 4 11 5 9 6 5 7 4 8 2 9 1 10 3 11 10 12
REMARK H PARENT 10 13
REMARK Flexibility Score: inf
ROOT
ATOM      1  C   UNL     1      16.606  26.814   1.217  1.00  0.00    -0.025 A 
ATOM      2  C   UNL     1      15.615  27.125   0.270  1.00  0.00     0.012 A 
ATOM      3  C   UNL     1      16.653  25.507   1.745  1.00  0.00     0.012 A 
ATOM      4  C   UNL     1      14.708  26.152  -0.159  1.00  0.00     0.047 A 
ATOM      5  C   UNL     1      15.744  24.536   1.313  1.00  0.00     0.047 A 
ATOM      6  C   UNL     1      14.773  24.854   0.360  1.00  0.00     0.115 A 
ENDROOT
BRANCH   1   7
ATOM      7  C   UNL     1      17.538  27.885   1.648  1.00  0.00     0.010 C 
ATOM      8  C   UNL     1      18.415  28.483   0.828  1.00  0.00     0.025 C 
BRANCH   8   9
ATOM      9  C   UNL     1      19.317  29.551   1.289  1.00  0.00     0.064 C 
ATOM     10  O   UNL     1      20.066  30.166   0.483  1.00  0.00    -0.545 OA
ATOM     11  O   UNL     1      19.342  29.890   2.636  1.00  0.00    -0.545 OA
ENDBRANCH   8   9
ENDBRANCH   1   7
BRANCH   6  12
ATOM     12  O   UNL     1      13.875  23.875  -0.061  1.00  0.00    -0.508 OA
ATOM     13  H   UNL     1      14.191  22.960  -0.360  1.00  0.00     0.293 HD
ENDBRANCH   6  12
TORSDOF 3
ENDMDL
MODEL 2
REMARK VINA RESULT:    -5.907      0.108      1.684
REMARK INTER + INTRA:          -6.910
REMARK INTER:                  -6.772
REMARK INTRA:                  -0.138
REMARK UNBOUND:                -0.140
REMARK SMILES O=C([O-])C=Cc1ccc(O)cc1
REMARK SMILES IDX 6 1 7 2 12 3 8 4 11 5 9 6 5 7 4 8 2 9 1 10 3 11 10 12
REMARK H PARENT 10 13
REMARK Flexibility Score: inf
ROOT
ATOM      1  C   UNL     1      16.490  26.829   1.172  1.00  0.00    -0.025 A 
ATOM      2  C   UNL     1      16.572  25.544   1.735  1.00  0.00     0.012 A 
ATOM      3  C   UNL     1      15.526  27.071   0.171  1.00  0.00     0.012 A 
ATOM      4  C   UNL     1      15.699  24.531   1.328  1.00  0.00     0.047 A 
ATOM      5  C   UNL     1      14.654  26.055  -0.232  1.00  0.00     0.047 A 
ATOM      6  C   UNL     1      14.735  24.785   0.346  1.00  0.00     0.115 A 
ENDROOT
BRANCH   1   7
ATOM      7  C   UNL     1      17.447  27.867   1.629  1.00  0.00     0.010 C 
ATOM      8  C   UNL     1      18.377  28.422   0.839  1.00  0.00     0.025 C 
BRANCH   8   9
ATOM      9  C   UNL     1      19.302  29.459   1.325  1.00  0.00     0.064 C 
ATOM     10  O   UNL     1      19.367  29.755   2.549  1.00  0.00    -0.545 OA
ATOM     11  O   UNL     1      20.121  30.122   0.420  1.00  0.00    -0.545 OA
ENDBRANCH   8   9
ENDBRANCH   1   7
BRANCH   6  12
ATOM     12  O   UNL     1      13.859  23.783  -0.067  1.00  0.00    -0.508 OA
ATOM     13  H   UNL     1      13.096  23.472   0.523  1.00  0.00     0.293 HD
ENDBRANCH   6  12
TORSDOF 3
ENDMDL
MODEL 3
REMARK VINA RESULT:    -5.887      2.115      5.740
REMARK INTER + INTRA:          -6.887
REMARK INTER:                  -6.738
REMARK INTRA:                  -0.149
REMARK UNBOUND:                -0.140
REMARK SMILES O=C([O-])C=Cc1ccc(O)cc1
REMARK SMILES IDX 6 1 7 2 12 3 8 4 11 5 9 6 5 7 4 8 2 9 1 10 3 11 10 12
REMARK H PARENT 10 13
REMARK Flexibility Score: inf
ROOT
ATOM      1  C   UNL     1      16.022  26.004   0.891  1.00  0.00    -0.025 A 
ATOM      2  C   UNL     1      15.152  26.705   0.038  1.00  0.00     0.012 A 
ATOM      3  C   UNL     1      16.877  26.738   1.740  1.00  0.00     0.012 A 
ATOM      4  C   UNL     1      15.116  28.102   0.048  1.00  0.00     0.047 A 
ATOM      5  C   UNL     1      16.838  28.136   1.746  1.00  0.00     0.047 A 
ATOM      6  C   UNL     1      15.957  28.821   0.905  1.00  0.00     0.115 A 
ENDROOT
BRANCH   1   7
ATOM      7  C   UNL     1      16.030  24.521   0.836  1.00  0.00     0.010 C 
ATOM      8  C   UNL     1      14.948  23.781   0.554  1.00  0.00     0.025 C 
BRANCH   8   9
ATOM      9  C   UNL     1      14.997  22.311   0.497  1.00  0.00     0.064 C 
ATOM     10  O   UNL     1      13.994  21.638   0.136  1.00  0.00    -0.545 OA
ATOM     11  O   UNL     1      16.170  21.653   0.844  1.00  0.00    -0.545 OA
ENDBRANCH   8   9
ENDBRANCH   1   7
BRANCH   6  12
ATOM     12  O   UNL     1      15.930  30.214   0.924  1.00  0.00    -0.508 OA
ATOM     13  H   UNL     1      16.264  30.739   1.723  1.00  0.00     0.293 HD
ENDBRANCH   6  12
TORSDOF 3
ENDMDL
MODEL 4
REMARK VINA RESULT:    -5.863      2.248      5.920
REMARK INTER + INTRA:          -6.859
REMARK INTER:                  -6.717
REMARK INTRA:                  -0.142
REMARK UNBOUND:                -0.140
REMARK SMILES O=C([O-])C=Cc1ccc(O)cc1
REMARK SMILES IDX 6 1 7 2 12 3 8 4 11 5 9 6 5 7 4 8 2 9 1 10 3 11 10 12
REMARK H PARENT 10 13
REMARK Flexibility Score: inf
ROOT
ATOM      1  C   UNL     1      15.886  25.788   0.905  1.00  0.00    -0.025 A 
ATOM      2  C   UNL     1      16.629  26.505   1.859  1.00  0.00     0.012 A 
ATOM      3  C   UNL     1      15.104  26.505  -0.025  1.00  0.00     0.012 A 
ATOM      4  C   UNL     1      16.613  27.902   1.871  1.00  0.00     0.047 A 
ATOM      5  C   UNL     1      15.091  27.903  -0.010  1.00  0.00     0.047 A 
ATOM      6  C   UNL     1      15.846  28.605   0.933  1.00  0.00     0.115 A 
ENDROOT
BRANCH   1   7
ATOM      7  C   UNL     1      15.928  24.305   0.940  1.00  0.00     0.010 C 
ATOM      8  C   UNL     1      14.967  23.521   0.431  1.00  0.00     0.025 C 
BRANCH   8   9
ATOM      9  C   UNL     1      15.048  22.051   0.474  1.00  0.00     0.064 C 
ATOM     10  O   UNL     1      14.050  21.334   0.197  1.00  0.00    -0.545 OA
ATOM     11  O   UNL     1      16.247  21.444   0.824  1.00  0.00    -0.545 OA
ENDBRANCH   8   9
ENDBRANCH   1   7
BRANCH   6  12
ATOM     12  O   UNL     1      15.823  29.998   0.935  1.00  0.00    -0.508 OA
ATOM     13  H   UNL     1      16.676  30.542   0.877  1.00  0.00     0.293 HD
ENDBRANCH   6  12
TORSDOF 3
ENDMDL
MODEL 5
REMARK VINA RESULT:    -5.852      2.273      2.794
REMARK INTER + INTRA:          -6.847
REMARK INTER:                  -6.706
REMARK INTRA:                  -0.141
REMARK UNBOUND:                -0.140
REMARK SMILES O=C([O-])C=Cc1ccc(O)cc1
REMARK SMILES IDX 6 1 7 2 12 3 8 4 11 5 9 6 5 7 4 8 2 9 1 10 3 11 10 12
REMARK H PARENT 10 13
REMARK Flexibility Score: inf
ROOT
ATOM      1  C   UNL     1      18.142  26.704   0.410  1.00  0.00    -0.025 A 
ATOM      2  C   UNL     1      17.400  26.010   1.381  1.00  0.00     0.012 A 
ATOM      3  C   UNL     1      18.900  25.964  -0.521  1.00  0.00     0.012 A 
ATOM      4  C   UNL     1      17.394  24.613   1.409  1.00  0.00     0.047 A 
ATOM      5  C   UNL     1      18.892  24.566  -0.490  1.00  0.00     0.047 A 
ATOM      6  C   UNL     1      18.138  23.887   0.471  1.00  0.00     0.115 A 
ENDROOT
BRANCH   1   7
ATOM      7  C   UNL     1      18.124  28.188   0.428  1.00  0.00     0.010 C 
ATOM      8  C   UNL     1      18.463  28.924   1.497  1.00  0.00     0.025 C 
BRANCH   8   9
ATOM      9  C   UNL     1      18.444  30.395   1.474  1.00  0.00     0.064 C 
ATOM     10  O   UNL     1      17.370  31.037   1.623  1.00  0.00    -0.545 OA
ATOM     11  O   UNL     1      19.633  31.090   1.289  1.00  0.00    -0.545 OA
ENDBRANCH   8   9
ENDBRANCH   1   7
BRANCH   6  12
ATOM     12  O   UNL     1      18.139  22.494   0.490  1.00  0.00    -0.508 OA
ATOM     13  H   UNL     1      17.389  21.970   0.924  1.00  0.00     0.293 HD
ENDBRANCH   6  12
TORSDOF 3
ENDMDL
MODEL 6
REMARK VINA RESULT:    -5.735      1.448      5.938
REMARK INTER + INTRA:          -6.712
REMARK INTER:                  -6.570
REMARK INTRA:                  -0.142
REMARK UNBOUND:                -0.140
REMARK SMILES O=C([O-])C=Cc1ccc(O)cc1
REMARK SMILES IDX 6 1 7 2 12 3 8 4 11 5 9 6 5 7 4 8 2 9 1 10 3 11 10 12
REMARK H PARENT 10 13
REMARK Flexibility Score: inf
ROOT
ATOM      1  C   UNL     1      17.408  26.124   0.924  1.00  0.00    -0.025 A 
ATOM      2  C   UNL     1      18.429  25.942  -0.024  1.00  0.00     0.012 A 
ATOM      3  C   UNL     1      17.339  27.348   1.622  1.00  0.00     0.012 A 
ATOM      4  C   UNL     1      19.345  26.964  -0.289  1.00  0.00     0.047 A 
ATOM      5  C   UNL     1      18.258  28.368   1.354  1.00  0.00     0.047 A 
ATOM      6  C   UNL     1      19.259  28.181   0.397  1.00  0.00     0.115 A 
ENDROOT
BRANCH   1   7
ATOM      7  C   UNL     1      16.466  25.005   1.177  1.00  0.00     0.010 C 
ATOM      8  C   UNL     1      15.719  24.431   0.223  1.00  0.00     0.025 C 
BRANCH   8   9
ATOM      9  C   UNL     1      14.803  23.314   0.510  1.00  0.00     0.064 C 
ATOM     10  O   UNL     1      14.730  22.809   1.662  1.00  0.00    -0.545 OA
ATOM     11  O   UNL     1      14.003  22.809  -0.507  1.00  0.00    -0.545 OA
ENDBRANCH   8   9
ENDBRANCH   1   7
BRANCH   6  12
ATOM     12  O   UNL     1      20.166  29.207   0.141  1.00  0.00    -0.508 OA
ATOM     13  H   UNL     1      19.914  30.007  -0.427  1.00  0.00     0.293 HD
ENDBRANCH   6  12
TORSDOF 3
ENDMDL
MODEL 7
REMARK VINA RESULT:    -5.528      8.885     11.593
REMARK INTER + INTRA:          -6.476
REMARK INTER:                  -6.340
REMARK INTRA:                  -0.135
REMARK UNBOUND:                -0.140
REMARK SMILES O=C([O-])C=Cc1ccc(O)cc1
REMARK SMILES IDX 6 1 7 2 12 3 8 4 11 5 9 6 5 7 4 8 2 9 1 10 3 11 10 12
REMARK H PARENT 10 13
REMARK Flexibility Score: inf
ROOT
ATOM      1  C   UNL     1      22.613  35.210   4.514  1.00  0.00    -0.025 A 
ATOM      2  C   UNL     1      23.242  34.070   5.045  1.00  0.00     0.012 A 
ATOM      3  C   UNL     1      22.852  36.461   5.121  1.00  0.00     0.012 A 
ATOM      4  C   UNL     1      24.107  34.178   6.138  1.00  0.00     0.047 A 
ATOM      5  C   UNL     1      23.718  36.564   6.214  1.00  0.00     0.047 A 
ATOM      6  C   UNL     1      24.349  35.426   6.723  1.00  0.00     0.115 A 
ENDROOT
BRANCH   1   7
ATOM      7  C   UNL     1      21.695  35.042   3.360  1.00  0.00     0.010 C 
ATOM      8  C   UNL     1      22.108  34.760   2.116  1.00  0.00     0.025 C 
BRANCH   8   9
ATOM      9  C   UNL     1      21.166  34.589   0.997  1.00  0.00     0.064 C 
ATOM     10  O   UNL     1      21.030  35.480   0.116  1.00  0.00    -0.545 OA
ATOM     11  O   UNL     1      20.416  33.423   0.909  1.00  0.00    -0.545 OA
ENDBRANCH   8   9
ENDBRANCH   1   7
BRANCH   6  12
ATOM     12  O   UNL     1      25.210  35.545   7.812  1.00  0.00    -0.508 OA
ATOM     13  H   UNL     1      26.144  35.925   7.709  1.00  0.00     0.293 HD
ENDBRANCH   6  12
TORSDOF 3
ENDMDL
MODEL 8
REMARK VINA RESULT:    -5.504      1.585      2.196
REMARK INTER + INTRA:          -6.448
REMARK INTER:                  -6.309
REMARK INTRA:                  -0.139
REMARK UNBOUND:                -0.140
REMARK SMILES O=C([O-])C=Cc1ccc(O)cc1
REMARK SMILES IDX 6 1 7 2 12 3 8 4 11 5 9 6 5 7 4 8 2 9 1 10 3 11 10 12
REMARK H PARENT 10 13
REMARK Flexibility Score: inf
ROOT
ATOM      1  C   UNL     1      15.628  25.425   0.307  1.00  0.00    -0.025 A 
ATOM      2  C   UNL     1      14.759  25.099  -0.748  1.00  0.00     0.012 A 
ATOM      3  C   UNL     1      15.825  24.485   1.340  1.00  0.00     0.012 A 
ATOM      4  C   UNL     1      14.120  23.856  -0.786  1.00  0.00     0.047 A 
ATOM      5  C   UNL     1      15.184  23.243   1.298  1.00  0.00     0.047 A 
ATOM      6  C   UNL     1      14.334  22.924   0.236  1.00  0.00     0.115 A 
ENDROOT
BRANCH   1   7
ATOM      7  C   UNL     1      16.274  26.761   0.307  1.00  0.00     0.010 C 
ATOM      8  C   UNL     1      16.749  27.359   1.410  1.00  0.00     0.025 C 
BRANCH   8   9
ATOM      9  C   UNL     1      17.394  28.681   1.370  1.00  0.00     0.064 C 
ATOM     10  O   UNL     1      18.557  28.854   1.825  1.00  0.00    -0.545 OA
ATOM     11  O   UNL     1      16.712  29.758   0.819  1.00  0.00    -0.545 OA
ENDBRANCH   8   9
ENDBRANCH   1   7
BRANCH   6  12
ATOM     12  O   UNL     1      13.703  21.682   0.209  1.00  0.00    -0.508 OA
ATOM     13  H   UNL     1      13.436  21.204   1.062  1.00  0.00     0.293 HD
ENDBRANCH   6  12
TORSDOF 3
ENDMDL
MODEL 9
REMARK VINA RESULT:    -5.462      1.839      5.865
REMARK INTER + INTRA:          -6.400
REMARK INTER:                  -6.260
REMARK INTRA:                  -0.140
REMARK UNBOUND:                -0.140
REMARK SMILES O=C([O-])C=Cc1ccc(O)cc1
REMARK SMILES IDX 6 1 7 2 12 3 8 4 11 5 9 6 5 7 4 8 2 9 1 10 3 11 10 12
REMARK H PARENT 10 13
REMARK Flexibility Score: inf
ROOT
ATOM      1  C   UNL     1      18.289  27.570   0.904  1.00  0.00    -0.025 A 
ATOM      2  C   UNL     1      17.813  28.600   1.733  1.00  0.00     0.012 A 
ATOM      3  C   UNL     1      19.397  27.826   0.070  1.00  0.00     0.012 A 
ATOM      4  C   UNL     1      18.441  29.849   1.748  1.00  0.00     0.047 A 
ATOM      5  C   UNL     1      20.022  29.077   0.089  1.00  0.00     0.047 A 
ATOM      6  C   UNL     1      19.549  30.090   0.928  1.00  0.00     0.115 A 
ENDROOT
BRANCH   1   7
ATOM      7  C   UNL     1      17.582  26.265   0.916  1.00  0.00     0.010 C 
ATOM      8  C   UNL     1      17.775  25.305  -0.000  1.00  0.00     0.025 C 
BRANCH   8   9
ATOM      9  C   UNL     1      17.063  24.017   0.050  1.00  0.00     0.064 C 
ATOM     10  O   UNL     1      15.825  23.946  -0.174  1.00  0.00    -0.545 OA
ATOM     11  O   UNL     1      17.769  22.859   0.347  1.00  0.00    -0.545 OA
ENDBRANCH   8   9
ENDBRANCH   1   7
BRANCH   6  12
ATOM     12  O   UNL     1      20.183  31.330   0.935  1.00  0.00    -0.508 OA
ATOM     13  H   UNL     1      21.065  31.471   1.414  1.00  0.00     0.293 HD
ENDBRANCH   6  12
TORSDOF 3
ENDMDL
