MODEL 1
REMARK VINA RESULT:    -4.595      0.000      0.000
REMARK INTER + INTRA:          -7.844
REMARK INTER:                  -7.415
REMARK INTRA:                  -0.429
REMARK UNBOUND:                -0.429
REMARK SMILES CCCCCCCCCCCCO
REMARK SMILES IDX 7 1 6 2 5 3 4 4 3 5 2 6 1 7 8 8 9 9 10 10 11 11 12 12 13 13
REMARK H PARENT 13 14
REMARK Flexibility Score: inf
ROOT
ATOM      1  C   UNL     1      10.498 -26.711  14.119  1.00  0.00     0.000 C 
ENDROOT
BRANCH   1   2
ATOM      2  C   UNL     1      11.862 -26.483  13.442  1.00  0.00    -0.000 C 
BRANCH   2   3
ATOM      3  C   UNL     1      12.193 -25.011  13.138  1.00  0.00    -0.000 C 
BRANCH   3   4
ATOM      4  C   UNL     1      13.197 -24.848  11.982  1.00  0.00    -0.000 C 
BRANCH   4   5
ATOM      5  C   UNL     1      14.089 -23.601  12.156  1.00  0.00    -0.000 C 
BRANCH   5   6
ATOM      6  C   UNL     1      15.587 -23.884  11.959  1.00  0.00    -0.003 C 
ATOM      7  C   UNL     1      16.258 -24.451  13.208  1.00  0.00     0.004 C 
ENDBRANCH   5   6
ENDBRANCH   4   5
ENDBRANCH   3   4
ENDBRANCH   2   3
ENDBRANCH   1   2
BRANCH   1   8
ATOM      8  C   UNL     1       9.538 -25.522  13.943  1.00  0.00     0.000 C 
BRANCH   8   9
ATOM      9  C   UNL     1       8.106 -25.966  13.606  1.00  0.00     0.000 C 
BRANCH   9  10
ATOM     10  C   UNL     1       7.047 -25.209  14.425  1.00  0.00     0.002 C 
BRANCH  10  11
ATOM     11  C   UNL     1       7.659 -24.182  15.393  1.00  0.00     0.028 C 
BRANCH  11  12
ATOM     12  C   UNL     1       6.928 -24.100  16.738  1.00  0.00     0.156 C 
BRANCH  12  13
ATOM     13  O   UNL     1       6.150 -22.938  16.799  1.00  0.00    -0.396 OA
ATOM     14  H   UNL     1       6.680 -22.227  16.353  1.00  0.00     0.210 HD
ENDBRANCH  12  13
ENDBRANCH  11  12
ENDBRANCH  10  11
ENDBRANCH   9  10
ENDBRANCH   8   9
ENDBRANCH   1   8
TORSDOF 11
ENDMDL
MODEL 2
REMARK VINA RESULT:    -4.336      2.785      6.374
REMARK INTER + INTRA:          -7.427
REMARK INTER:                  -6.548
REMARK INTRA:                  -0.879
REMARK UNBOUND:                -0.429
REMARK SMILES CCCCCCCCCCCCO
REMARK SMILES IDX 7 1 6 2 5 3 4 4 3 5 2 6 1 7 8 8 9 9 10 10 11 11 12 12 13 13
REMARK H PARENT 13 14
REMARK Flexibility Score: inf
ROOT
ATOM      1  C   UNL     1      10.972 -26.809  14.989  1.00  0.00     0.000 C 
ENDROOT
BRANCH   1   2
ATOM      2  C   UNL     1      10.040 -27.531  13.998  1.00  0.00    -0.000 C 
BRANCH   2   3
ATOM      3  C   UNL     1       8.817 -26.712  13.550  1.00  0.00    -0.000 C 
BRANCH   3   4
ATOM      4  C   UNL     1       8.863 -25.250  14.031  1.00  0.00    -0.000 C 
BRANCH   4   5
ATOM      5  C   UNL     1       7.456 -24.689  14.327  1.00  0.00    -0.000 C 
BRANCH   5   6
ATOM      6  C   UNL     1       7.321 -24.077  15.731  1.00  0.00    -0.003 C 
ATOM      7  C   UNL     1       8.191 -24.775  16.774  1.00  0.00     0.004 C 
ENDBRANCH   5   6
ENDBRANCH   4   5
ENDBRANCH   3   4
ENDBRANCH   2   3
ENDBRANCH   1   2
BRANCH   1   8
ATOM      8  C   UNL     1      12.447 -26.845  14.555  1.00  0.00     0.000 C 
BRANCH   8   9
ATOM      9  C   UNL     1      12.640 -26.434  13.087  1.00  0.00     0.000 C 
BRANCH   9  10
ATOM     10  C   UNL     1      12.455 -24.923  12.869  1.00  0.00     0.002 C 
BRANCH  10  11
ATOM     11  C   UNL     1      13.777 -24.194  12.573  1.00  0.00     0.028 C 
BRANCH  11  12
ATOM     12  C   UNL     1      13.985 -23.890  11.085  1.00  0.00     0.156 C 
BRANCH  12  13
ATOM     13  O   UNL     1      12.796 -23.423  10.512  1.00  0.00    -0.396 OA
ATOM     14  H   UNL     1      13.064 -22.792   9.794  1.00  0.00     0.210 HD
ENDBRANCH  12  13
ENDBRANCH  11  12
ENDBRANCH  10  11
ENDBRANCH   9  10
ENDBRANCH   8   9
ENDBRANCH   1   8
TORSDOF 11
ENDMDL
MODEL 3
REMARK VINA RESULT:    -4.306      0.900      0.999
REMARK INTER + INTRA:          -7.378
REMARK INTER:                  -6.854
REMARK INTRA:                  -0.524
REMARK UNBOUND:                -0.429
REMARK SMILES CCCCCCCCCCCCO
REMARK SMILES IDX 7 1 6 2 5 3 4 4 3 5 2 6 1 7 8 8 9 9 10 10 11 11 12 12 13 13
REMARK H PARENT 13 14
REMARK Flexibility Score: inf
ROOT
ATOM      1  C   UNL     1      11.055 -26.434  13.822  1.00  0.00     0.000 C 
ENDROOT
BRANCH   1   2
ATOM      2  C   UNL     1      12.422 -25.792  13.523  1.00  0.00    -0.000 C 
BRANCH   2   3
ATOM      3  C   UNL     1      12.920 -25.979  12.079  1.00  0.00    -0.000 C 
BRANCH   3   4
ATOM      4  C   UNL     1      13.221 -24.646  11.370  1.00  0.00    -0.000 C 
BRANCH   4   5
ATOM      5  C   UNL     1      13.968 -23.654  12.286  1.00  0.00    -0.000 C 
BRANCH   5   6
ATOM      6  C   UNL     1      15.489 -23.633  12.059  1.00  0.00    -0.003 C 
ATOM      7  C   UNL     1      16.266 -24.370  13.147  1.00  0.00     0.004 C 
ENDBRANCH   5   6
ENDBRANCH   4   5
ENDBRANCH   3   4
ENDBRANCH   2   3
ENDBRANCH   1   2
BRANCH   1   8
ATOM      8  C   UNL     1       9.908 -25.410  13.855  1.00  0.00     0.000 C 
BRANCH   8   9
ATOM      9  C   UNL     1       8.526 -26.068  13.714  1.00  0.00     0.000 C 
BRANCH   9  10
ATOM     10  C   UNL     1       7.382 -25.130  14.134  1.00  0.00     0.002 C 
BRANCH  10  11
ATOM     11  C   UNL     1       6.725 -25.545  15.462  1.00  0.00     0.028 C 
BRANCH  11  12
ATOM     12  C   UNL     1       7.042 -24.594  16.623  1.00  0.00     0.156 C 
BRANCH  12  13
ATOM     13  O   UNL     1       8.155 -23.803  16.314  1.00  0.00    -0.396 OA
ATOM     14  H   UNL     1       8.627 -24.268  15.574  1.00  0.00     0.210 HD
ENDBRANCH  12  13
ENDBRANCH  11  12
ENDBRANCH  10  11
ENDBRANCH   9  10
ENDBRANCH   8   9
ENDBRANCH   1   8
TORSDOF 11
ENDMDL
MODEL 4
REMARK VINA RESULT:    -4.290      3.253      6.870
REMARK INTER + INTRA:          -7.352
REMARK INTER:                  -6.637
REMARK INTRA:                  -0.715
REMARK UNBOUND:                -0.429
REMARK SMILES CCCCCCCCCCCCO
REMARK SMILES IDX 7 1 6 2 5 3 4 4 3 5 2 6 1 7 8 8 9 9 10 10 11 11 12 12 13 13
REMARK H PARENT 13 14
REMARK Flexibility Score: inf
ROOT
ATOM      1  C   UNL     1      10.809 -26.620  14.389  1.00  0.00     0.000 C 
ENDROOT
BRANCH   1   2
ATOM      2  C   UNL     1       9.355 -27.095  14.208  1.00  0.00    -0.000 C 
BRANCH   2   3
ATOM      3  C   UNL     1       8.466 -26.151  13.380  1.00  0.00    -0.000 C 
BRANCH   3   4
ATOM      4  C   UNL     1       7.266 -25.605  14.175  1.00  0.00    -0.000 C 
BRANCH   4   5
ATOM      5  C   UNL     1       7.576 -24.247  14.840  1.00  0.00    -0.000 C 
BRANCH   5   6
ATOM      6  C   UNL     1       7.374 -24.248  16.364  1.00  0.00    -0.003 C 
ATOM      7  C   UNL     1       8.476 -24.992  17.113  1.00  0.00     0.004 C 
ENDBRANCH   5   6
ENDBRANCH   4   5
ENDBRANCH   3   4
ENDBRANCH   2   3
ENDBRANCH   1   2
BRANCH   1   8
ATOM      8  C   UNL     1      11.157 -25.414  13.500  1.00  0.00     0.000 C 
BRANCH   8   9
ATOM      9  C   UNL     1      12.664 -25.309  13.213  1.00  0.00     0.000 C 
BRANCH   9  10
ATOM     10  C   UNL     1      12.964 -24.534  11.920  1.00  0.00     0.002 C 
BRANCH  10  11
ATOM     11  C   UNL     1      14.145 -23.558  12.067  1.00  0.00     0.028 C 
BRANCH  11  12
ATOM     12  C   UNL     1      15.409 -24.213  12.635  1.00  0.00     0.156 C 
BRANCH  12  13
ATOM     13  O   UNL     1      16.545 -23.484  12.262  1.00  0.00    -0.396 OA
ATOM     14  H   UNL     1      16.774 -22.912  13.040  1.00  0.00     0.210 HD
ENDBRANCH  12  13
ENDBRANCH  11  12
ENDBRANCH  10  11
ENDBRANCH   9  10
ENDBRANCH   8   9
ENDBRANCH   1   8
TORSDOF 11
ENDMDL
MODEL 5
REMARK VINA RESULT:    -4.267      1.362      1.602
REMARK INTER + INTRA:          -7.315
REMARK INTER:                  -6.765
REMARK INTRA:                  -0.550
REMARK UNBOUND:                -0.429
REMARK SMILES CCCCCCCCCCCCO
REMARK SMILES IDX 7 1 6 2 5 3 4 4 3 5 2 6 1 7 8 8 9 9 10 10 11 11 12 12 13 13
REMARK H PARENT 13 14
REMARK Flexibility Score: inf
ROOT
ATOM      1  C   UNL     1       9.888 -25.513  13.870  1.00  0.00     0.000 C 
ENDROOT
BRANCH   1   2
ATOM      2  C   UNL     1      11.118 -26.424  14.036  1.00  0.00    -0.000 C 
BRANCH   2   3
ATOM      3  C   UNL     1      12.233 -26.198  12.999  1.00  0.00    -0.000 C 
BRANCH   3   4
ATOM      4  C   UNL     1      12.855 -24.792  13.084  1.00  0.00    -0.000 C 
BRANCH   4   5
ATOM      5  C   UNL     1      13.159 -24.204  11.689  1.00  0.00    -0.000 C 
BRANCH   5   6
ATOM      6  C   UNL     1      14.654 -23.942  11.445  1.00  0.00    -0.003 C 
ATOM      7  C   UNL     1      15.515 -24.194  12.680  1.00  0.00     0.004 C 
ENDBRANCH   5   6
ENDBRANCH   4   5
ENDBRANCH   3   4
ENDBRANCH   2   3
ENDBRANCH   1   2
BRANCH   1   8
ATOM      8  C   UNL     1       8.575 -26.303  13.736  1.00  0.00     0.000 C 
BRANCH   8   9
ATOM      9  C   UNL     1       7.333 -25.415  13.921  1.00  0.00     0.000 C 
BRANCH   9  10
ATOM     10  C   UNL     1       7.594 -24.228  14.862  1.00  0.00     0.002 C 
BRANCH  10  11
ATOM     11  C   UNL     1       7.200 -24.521  16.321  1.00  0.00     0.028 C 
BRANCH  11  12
ATOM     12  C   UNL     1       8.387 -24.924  17.203  1.00  0.00     0.156 C 
BRANCH  12  13
ATOM     13  O   UNL     1       8.251 -26.251  17.628  1.00  0.00    -0.396 OA
ATOM     14  H   UNL     1       8.695 -26.808  16.936  1.00  0.00     0.210 HD
ENDBRANCH  12  13
ENDBRANCH  11  12
ENDBRANCH  10  11
ENDBRANCH   9  10
ENDBRANCH   8   9
ENDBRANCH   1   8
TORSDOF 11
ENDMDL
MODEL 6
REMARK VINA RESULT:    -4.221      2.813      6.769
REMARK INTER + INTRA:          -7.241
REMARK INTER:                  -6.587
REMARK INTRA:                  -0.654
REMARK UNBOUND:                -0.429
REMARK SMILES CCCCCCCCCCCCO
REMARK SMILES IDX 7 1 6 2 5 3 4 4 3 5 2 6 1 7 8 8 9 9 10 10 11 11 12 12 13 13
REMARK H PARENT 13 14
REMARK Flexibility Score: inf
ROOT
ATOM      1  C   UNL     1      10.425 -27.161  13.558  1.00  0.00     0.000 C 
ENDROOT
BRANCH   1   2
ATOM      2  C   UNL     1       9.208 -26.720  14.391  1.00  0.00    -0.000 C 
BRANCH   2   3
ATOM      3  C   UNL     1       8.066 -26.085  13.578  1.00  0.00    -0.000 C 
BRANCH   3   4
ATOM      4  C   UNL     1       7.423 -24.879  14.287  1.00  0.00    -0.000 C 
BRANCH   4   5
ATOM      5  C   UNL     1       8.225 -24.437  15.529  1.00  0.00    -0.000 C 
BRANCH   5   6
ATOM      6  C   UNL     1       7.393 -24.411  16.822  1.00  0.00    -0.003 C 
ATOM      7  C   UNL     1       6.997 -25.804  17.306  1.00  0.00     0.004 C 
ENDBRANCH   5   6
ENDBRANCH   4   5
ENDBRANCH   3   4
ENDBRANCH   2   3
ENDBRANCH   1   2
BRANCH   1   8
ATOM      8  C   UNL     1      11.742 -26.533  14.046  1.00  0.00     0.000 C 
BRANCH   8   9
ATOM      9  C   UNL     1      12.056 -25.203  13.341  1.00  0.00     0.000 C 
BRANCH   9  10
ATOM     10  C   UNL     1      13.527 -25.101  12.907  1.00  0.00     0.002 C 
BRANCH  10  11
ATOM     11  C   UNL     1      13.875 -23.739  12.282  1.00  0.00     0.028 C 
BRANCH  11  12
ATOM     12  C   UNL     1      13.952 -23.772  10.751  1.00  0.00     0.156 C 
BRANCH  12  13
ATOM     13  O   UNL     1      12.794 -23.219  10.193  1.00  0.00    -0.396 OA
ATOM     14  H   UNL     1      12.040 -23.526  10.761  1.00  0.00     0.210 HD
ENDBRANCH  12  13
ENDBRANCH  11  12
ENDBRANCH  10  11
ENDBRANCH   9  10
ENDBRANCH   8   9
ENDBRANCH   1   8
TORSDOF 11
ENDMDL
MODEL 7
REMARK VINA RESULT:    -4.218     12.063     14.077
REMARK INTER + INTRA:          -7.236
REMARK INTER:                  -6.706
REMARK INTRA:                  -0.530
REMARK UNBOUND:                -0.429
REMARK SMILES CCCCCCCCCCCCO
REMARK SMILES IDX 7 1 6 2 5 3 4 4 3 5 2 6 1 7 8 8 9 9 10 10 11 11 12 12 13 13
REMARK H PARENT 13 14
REMARK Flexibility Score: inf
ROOT
ATOM      1  C   UNL     1      22.602 -23.037  17.991  1.00  0.00     0.000 C 
ENDROOT
BRANCH   1   2
ATOM      2  C   UNL     1      21.178 -23.582  18.209  1.00  0.00    -0.000 C 
BRANCH   2   3
ATOM      3  C   UNL     1      21.114 -24.983  18.843  1.00  0.00    -0.000 C 
BRANCH   3   4
ATOM      4  C   UNL     1      20.380 -24.996  20.196  1.00  0.00    -0.000 C 
BRANCH   4   5
ATOM      5  C   UNL     1      21.334 -25.285  21.375  1.00  0.00    -0.000 C 
BRANCH   5   6
ATOM      6  C   UNL     1      22.750 -25.689  20.933  1.00  0.00    -0.003 C 
ATOM      7  C   UNL     1      23.329 -26.836  21.757  1.00  0.00     0.004 C 
ENDBRANCH   5   6
ENDBRANCH   4   5
ENDBRANCH   3   4
ENDBRANCH   2   3
ENDBRANCH   1   2
BRANCH   1   8
ATOM      8  C   UNL     1      22.714 -21.529  18.274  1.00  0.00     0.000 C 
BRANCH   8   9
ATOM      9  C   UNL     1      24.125 -20.983  18.003  1.00  0.00     0.000 C 
BRANCH   9  10
ATOM     10  C   UNL     1      24.106 -19.692  17.169  1.00  0.00     0.002 C 
BRANCH  10  11
ATOM     11  C   UNL     1      22.685 -19.152  16.932  1.00  0.00     0.028 C 
BRANCH  11  12
ATOM     12  C   UNL     1      22.588 -18.192  15.740  1.00  0.00     0.156 C 
BRANCH  12  13
ATOM     13  O   UNL     1      22.076 -18.856  14.620  1.00  0.00    -0.396 OA
ATOM     14  H   UNL     1      21.569 -19.635  14.968  1.00  0.00     0.210 HD
ENDBRANCH  12  13
ENDBRANCH  11  12
ENDBRANCH  10  11
ENDBRANCH   9  10
ENDBRANCH   8   9
ENDBRANCH   1   8
TORSDOF 11
ENDMDL
MODEL 8
REMARK VINA RESULT:    -3.989      1.649      2.362
REMARK INTER + INTRA:          -6.866
REMARK INTER:                  -6.196
REMARK INTRA:                  -0.670
REMARK UNBOUND:                -0.429
REMARK SMILES CCCCCCCCCCCCO
REMARK SMILES IDX 7 1 6 2 5 3 4 4 3 5 2 6 1 7 8 8 9 9 10 10 11 11 12 12 13 13
REMARK H PARENT 13 14
REMARK Flexibility Score: inf
ROOT
ATOM      1  C   UNL     1      12.402 -26.531  13.108  1.00  0.00     0.000 C 
ENDROOT
BRANCH   1   2
ATOM      2  C   UNL     1      12.366 -24.992  13.089  1.00  0.00    -0.000 C 
BRANCH   2   3
ATOM      3  C   UNL     1      13.656 -24.323  12.584  1.00  0.00    -0.000 C 
BRANCH   3   4
ATOM      4  C   UNL     1      13.561 -23.864  11.118  1.00  0.00    -0.000 C 
BRANCH   4   5
ATOM      5  C   UNL     1      14.619 -24.545  10.223  1.00  0.00    -0.000 C 
BRANCH   5   6
ATOM      6  C   UNL     1      14.184 -25.922   9.697  1.00  0.00    -0.003 C 
ATOM      7  C   UNL     1      14.938 -27.077  10.351  1.00  0.00     0.004 C 
ENDBRANCH   5   6
ENDBRANCH   4   5
ENDBRANCH   3   4
ENDBRANCH   2   3
ENDBRANCH   1   2
BRANCH   1   8
ATOM      8  C   UNL     1      11.378 -27.140  14.082  1.00  0.00     0.000 C 
BRANCH   8   9
ATOM      9  C   UNL     1       9.929 -26.792  13.706  1.00  0.00     0.000 C 
BRANCH   9  10
ATOM     10  C   UNL     1       9.180 -26.080  14.845  1.00  0.00     0.002 C 
BRANCH  10  11
ATOM     11  C   UNL     1       7.874 -25.414  14.379  1.00  0.00     0.028 C 
BRANCH  11  12
ATOM     12  C   UNL     1       7.500 -24.170  15.193  1.00  0.00     0.156 C 
BRANCH  12  13
ATOM     13  O   UNL     1       8.464 -23.924  16.178  1.00  0.00    -0.396 OA
ATOM     14  H   UNL     1       8.103 -23.190  16.741  1.00  0.00     0.210 HD
ENDBRANCH  12  13
ENDBRANCH  11  12
ENDBRANCH  10  11
ENDBRANCH   9  10
ENDBRANCH   8   9
ENDBRANCH   1   8
TORSDOF 11
ENDMDL
MODEL 9
REMARK VINA RESULT:    -3.989      3.285      7.100
REMARK INTER + INTRA:          -6.866
REMARK INTER:                  -6.300
REMARK INTRA:                  -0.566
REMARK UNBOUND:                -0.429
REMARK SMILES CCCCCCCCCCCCO
REMARK SMILES IDX 7 1 6 2 5 3 4 4 3 5 2 6 1 7 8 8 9 9 10 10 11 11 12 12 13 13
REMARK H PARENT 13 14
REMARK Flexibility Score: inf
ROOT
ATOM      1  C   UNL     1      13.105 -26.467  13.887  1.00  0.00     0.000 C 
ENDROOT
BRANCH   1   2
ATOM      2  C   UNL     1      11.797 -27.049  14.453  1.00  0.00    -0.000 C 
BRANCH   2   3
ATOM      3  C   UNL     1      10.546 -26.774  13.600  1.00  0.00    -0.000 C 
BRANCH   3   4
ATOM      4  C   UNL     1       9.515 -25.882  14.315  1.00  0.00    -0.000 C 
BRANCH   4   5
ATOM      5  C   UNL     1       8.107 -26.008  13.697  1.00  0.00    -0.000 C 
BRANCH   5   6
ATOM      6  C   UNL     1       7.183 -24.825  14.027  1.00  0.00    -0.003 C 
ATOM      7  C   UNL     1       7.474 -24.200  15.389  1.00  0.00     0.004 C 
ENDBRANCH   5   6
ENDBRANCH   4   5
ENDBRANCH   3   4
ENDBRANCH   2   3
ENDBRANCH   1   2
BRANCH   1   8
ATOM      8  C   UNL     1      12.898 -25.707  12.565  1.00  0.00     0.000 C 
BRANCH   8   9
ATOM      9  C   UNL     1      13.071 -24.188  12.726  1.00  0.00     0.000 C 
BRANCH   9  10
ATOM     10  C   UNL     1      14.354 -23.668  12.058  1.00  0.00     0.002 C 
BRANCH  10  11
ATOM     11  C   UNL     1      15.091 -24.752  11.251  1.00  0.00     0.028 C 
BRANCH  11  12
ATOM     12  C   UNL     1      15.156 -24.455   9.749  1.00  0.00     0.156 C 
BRANCH  12  13
ATOM     13  O   UNL     1      14.073 -25.045   9.088  1.00  0.00    -0.396 OA
ATOM     14  H   UNL     1      14.202 -26.026   9.168  1.00  0.00     0.210 HD
ENDBRANCH  12  13
ENDBRANCH  11  12
ENDBRANCH  10  11
ENDBRANCH   9  10
ENDBRANCH   8   9
ENDBRANCH   1   8
TORSDOF 11
ENDMDL
