MODEL 1
REMARK VINA RESULT:    -5.048      0.000      0.000
REMARK INTER + INTRA:          -5.463
REMARK INTER:                  -5.343
REMARK INTRA:                  -0.120
REMARK UNBOUND:                -0.120
REMARK SMILES C=C(C)[C@H]1CC=C(C)CC1
REMARK SMILES IDX 8 1 7 2 6 3 5 4 4 5 10 6 9 7 2 8 1 9 3 10
REMARK H PARENT
REMARK Flexibility Score: inf
ROOT
ATOM      1  C   UNL     1      11.792  15.392  45.703  1.00  0.00     0.039 C 
ATOM      2  C   UNL     1      12.090  15.893  44.316  1.00  0.00    -0.077 C 
ATOM      3  C   UNL     1      11.136  16.576  43.647  1.00  0.00    -0.027 C 
ATOM      4  C   UNL     1      11.329  17.050  42.230  1.00  0.00     0.035 C 
ATOM      5  C   UNL     1      12.813  17.331  41.931  1.00  0.00     0.018 C 
ATOM      6  C   UNL     1      13.621  16.069  42.273  1.00  0.00     0.013 C 
ATOM      7  C   UNL     1      13.497  15.734  43.769  1.00  0.00     0.031 C 
ENDROOT
BRANCH   5   8
ATOM      8  C   UNL     1      13.105  17.799  40.504  1.00  0.00    -0.077 C 
ATOM      9  C   UNL     1      12.889  16.945  39.491  1.00  0.00     0.008 C 
ATOM     10  C   UNL     1      13.645  19.169  40.158  1.00  0.00     0.039 C 
ENDBRANCH   5   8
TORSDOF 1
ENDMDL
MODEL 2
REMARK VINA RESULT:    -4.999      9.463     12.111
REMARK INTER + INTRA:          -5.412
REMARK INTER:                  -5.289
REMARK INTRA:                  -0.122
REMARK UNBOUND:                -0.120
REMARK SMILES C=C(C)[C@H]1CC=C(C)CC1
REMARK SMILES IDX 8 1 7 2 6 3 5 4 4 5 10 6 9 7 2 8 1 9 3 10
REMARK H PARENT
REMARK Flexibility Score: inf
ROOT
ATOM      1  C   UNL     1       3.976  14.497  44.487  1.00  0.00     0.039 C 
ATOM      2  C   UNL     1       3.499  14.739  45.892  1.00  0.00    -0.077 C 
ATOM      3  C   UNL     1       4.410  14.885  46.878  1.00  0.00    -0.027 C 
ATOM      4  C   UNL     1       4.015  15.059  48.322  1.00  0.00     0.035 C 
ATOM      5  C   UNL     1       2.645  15.753  48.447  1.00  0.00     0.018 C 
ATOM      6  C   UNL     1       1.623  14.955  47.621  1.00  0.00     0.013 C 
ATOM      7  C   UNL     1       2.015  14.948  46.134  1.00  0.00     0.031 C 
ENDROOT
BRANCH   5   8
ATOM      8  C   UNL     1       2.153  15.954  49.882  1.00  0.00    -0.077 C 
ATOM      9  C   UNL     1       2.653  15.166  50.848  1.00  0.00     0.008 C 
ATOM     10  C   UNL     1       1.117  16.979  50.284  1.00  0.00     0.039 C 
ENDBRANCH   5   8
TORSDOF 1
ENDMDL
MODEL 3
REMARK VINA RESULT:    -4.937      1.652      4.606
REMARK INTER + INTRA:          -5.346
REMARK INTER:                  -5.234
REMARK INTRA:                  -0.112
REMARK UNBOUND:                -0.120
REMARK SMILES C=C(C)[C@H]1CC=C(C)CC1
REMARK SMILES IDX 8 1 7 2 6 3 5 4 4 5 10 6 9 7 2 8 1 9 3 10
REMARK H PARENT
REMARK Flexibility Score: inf
ROOT
ATOM      1  C   UNL     1      13.260  19.010  40.115  1.00  0.00     0.039 C 
ATOM      2  C   UNL     1      13.059  17.669  40.766  1.00  0.00    -0.077 C 
ATOM      3  C   UNL     1      14.026  16.734  40.654  1.00  0.00    -0.027 C 
ATOM      4  C   UNL     1      13.873  15.344  41.215  1.00  0.00     0.035 C 
ATOM      5  C   UNL     1      12.953  15.337  42.449  1.00  0.00     0.018 C 
ATOM      6  C   UNL     1      11.619  15.995  42.060  1.00  0.00     0.013 C 
ATOM      7  C   UNL     1      11.837  17.458  41.642  1.00  0.00     0.031 C 
ENDROOT
BRANCH   5   8
ATOM      8  C   UNL     1      12.723  13.960  43.075  1.00  0.00    -0.077 C 
ATOM      9  C   UNL     1      12.400  13.892  44.377  1.00  0.00     0.008 C 
ATOM     10  C   UNL     1      12.857  12.656  42.320  1.00  0.00     0.039 C 
ENDBRANCH   5   8
TORSDOF 1
ENDMDL
MODEL 4
REMARK VINA RESULT:    -4.931      2.021      4.391
REMARK INTER + INTRA:          -5.339
REMARK INTER:                  -5.222
REMARK INTRA:                  -0.117
REMARK UNBOUND:                -0.120
REMARK SMILES C=C(C)[C@H]1CC=C(C)CC1
REMARK SMILES IDX 8 1 7 2 6 3 5 4 4 5 10 6 9 7 2 8 1 9 3 10
REMARK H PARENT
REMARK Flexibility Score: inf
ROOT
ATOM      1  C   UNL     1      13.597  19.150  40.105  1.00  0.00     0.039 C 
ATOM      2  C   UNL     1      13.271  17.738  40.510  1.00  0.00    -0.077 C 
ATOM      3  C   UNL     1      12.574  16.956  39.659  1.00  0.00    -0.027 C 
ATOM      4  C   UNL     1      12.147  15.556  40.017  1.00  0.00     0.035 C 
ATOM      5  C   UNL     1      13.129  14.908  41.010  1.00  0.00     0.018 C 
ATOM      6  C   UNL     1      13.271  15.838  42.225  1.00  0.00     0.013 C 
ATOM      7  C   UNL     1      13.854  17.197  41.803  1.00  0.00     0.031 C 
ENDROOT
BRANCH   5   8
ATOM      8  C   UNL     1      12.762  13.488  41.445  1.00  0.00    -0.077 C 
ATOM      9  C   UNL     1      12.445  12.588  40.500  1.00  0.00     0.008 C 
ATOM     10  C   UNL     1      12.713  13.032  42.887  1.00  0.00     0.039 C 
ENDBRANCH   5   8
TORSDOF 1
ENDMDL
MODEL 5
REMARK VINA RESULT:    -4.874     10.522     12.137
REMARK INTER + INTRA:          -5.279
REMARK INTER:                  -5.166
REMARK INTRA:                  -0.113
REMARK UNBOUND:                -0.120
REMARK SMILES C=C(C)[C@H]1CC=C(C)CC1
REMARK SMILES IDX 8 1 7 2 6 3 5 4 4 5 10 6 9 7 2 8 1 9 3 10
REMARK H PARENT
REMARK Flexibility Score: inf
ROOT
ATOM      1  C   UNL     1       1.372  16.906  50.252  1.00  0.00     0.039 C 
ATOM      2  C   UNL     1       2.006  15.744  49.537  1.00  0.00    -0.077 C 
ATOM      3  C   UNL     1       1.484  14.510  49.701  1.00  0.00    -0.027 C 
ATOM      4  C   UNL     1       2.101  13.285  49.078  1.00  0.00     0.035 C 
ATOM      5  C   UNL     1       2.832  13.631  47.767  1.00  0.00     0.018 C 
ATOM      6  C   UNL     1       3.845  14.749  48.061  1.00  0.00     0.013 C 
ATOM      7  C   UNL     1       3.126  16.017  48.550  1.00  0.00     0.031 C 
ENDROOT
BRANCH   5   8
ATOM      8  C   UNL     1       3.509  12.446  47.074  1.00  0.00    -0.077 C 
ATOM      9  C   UNL     1       3.867  12.575  45.786  1.00  0.00     0.008 C 
ATOM     10  C   UNL     1       3.786  11.120  47.746  1.00  0.00     0.039 C 
ENDBRANCH   5   8
TORSDOF 1
ENDMDL
MODEL 6
REMARK VINA RESULT:    -4.868      8.799     10.700
REMARK INTER + INTRA:          -5.272
REMARK INTER:                  -5.150
REMARK INTRA:                  -0.123
REMARK UNBOUND:                -0.120
REMARK SMILES C=C(C)[C@H]1CC=C(C)CC1
REMARK SMILES IDX 8 1 7 2 6 3 5 4 4 5 10 6 9 7 2 8 1 9 3 10
REMARK H PARENT
REMARK Flexibility Score: inf
ROOT
ATOM      1  C   UNL     1       1.716  14.912  50.237  1.00  0.00     0.039 C 
ATOM      2  C   UNL     1       2.293  15.140  48.867  1.00  0.00    -0.077 C 
ATOM      3  C   UNL     1       3.492  15.750  48.753  1.00  0.00    -0.027 C 
ATOM      4  C   UNL     1       4.106  16.080  47.417  1.00  0.00     0.035 C 
ATOM      5  C   UNL     1       3.660  15.079  46.335  1.00  0.00     0.018 C 
ATOM      6  C   UNL     1       2.124  15.043  46.314  1.00  0.00     0.013 C 
ATOM      7  C   UNL     1       1.574  14.554  47.664  1.00  0.00     0.031 C 
ENDROOT
BRANCH   5   8
ATOM      8  C   UNL     1       4.221  15.349  44.937  1.00  0.00    -0.077 C 
ATOM      9  C   UNL     1       4.717  16.568  44.669  1.00  0.00     0.008 C 
ATOM     10  C   UNL     1       4.238  14.328  43.821  1.00  0.00     0.039 C 
ENDBRANCH   5   8
TORSDOF 1
ENDMDL
MODEL 7
REMARK VINA RESULT:    -4.856     11.629     12.766
REMARK INTER + INTRA:          -5.259
REMARK INTER:                  -5.142
REMARK INTRA:                  -0.118
REMARK UNBOUND:                -0.120
REMARK SMILES C=C(C)[C@H]1CC=C(C)CC1
REMARK SMILES IDX 8 1 7 2 6 3 5 4 4 5 10 6 9 7 2 8 1 9 3 10
REMARK H PARENT
REMARK Flexibility Score: inf
ROOT
ATOM      1  C   UNL     1       1.247  16.918  50.288  1.00  0.00     0.039 C 
ATOM      2  C   UNL     1       1.960  15.677  49.826  1.00  0.00    -0.077 C 
ATOM      3  C   UNL     1       2.844  15.082  50.655  1.00  0.00    -0.027 C 
ATOM      4  C   UNL     1       3.652  13.879  50.244  1.00  0.00     0.035 C 
ATOM      5  C   UNL     1       2.899  13.029  49.203  1.00  0.00     0.018 C 
ATOM      6  C   UNL     1       2.509  13.939  48.028  1.00  0.00     0.013 C 
ATOM      7  C   UNL     1       1.563  15.056  48.499  1.00  0.00     0.031 C 
ENDROOT
BRANCH   5   8
ATOM      8  C   UNL     1       3.655  11.793  48.712  1.00  0.00    -0.077 C 
ATOM      9  C   UNL     1       4.243  10.997  49.620  1.00  0.00     0.008 C 
ATOM     10  C   UNL     1       3.802  11.415  47.254  1.00  0.00     0.039 C 
ENDBRANCH   5   8
TORSDOF 1
ENDMDL
MODEL 8
REMARK VINA RESULT:    -4.780     12.163     12.608
REMARK INTER + INTRA:          -5.179
REMARK INTER:                  -5.056
REMARK INTRA:                  -0.123
REMARK UNBOUND:                -0.120
REMARK SMILES C=C(C)[C@H]1CC=C(C)CC1
REMARK SMILES IDX 8 1 7 2 6 3 5 4 4 5 10 6 9 7 2 8 1 9 3 10
REMARK H PARENT
REMARK Flexibility Score: inf
ROOT
ATOM      1  C   UNL     1       5.349  10.626  50.921  1.00  0.00     0.039 C 
ATOM      2  C   UNL     1       4.540  11.762  50.358  1.00  0.00    -0.077 C 
ATOM      3  C   UNL     1       3.688  11.518  49.340  1.00  0.00    -0.027 C 
ATOM      4  C   UNL     1       2.895  12.612  48.673  1.00  0.00     0.035 C 
ATOM      5  C   UNL     1       2.596  13.763  49.651  1.00  0.00     0.018 C 
ATOM      6  C   UNL     1       3.928  14.245  50.250  1.00  0.00     0.013 C 
ATOM      7  C   UNL     1       4.606  13.116  51.042  1.00  0.00     0.031 C 
ENDROOT
BRANCH   5   8
ATOM      8  C   UNL     1       1.810  14.931  49.053  1.00  0.00    -0.077 C 
ATOM      9  C   UNL     1       1.638  14.974  47.721  1.00  0.00     0.008 C 
ATOM     10  C   UNL     1       1.222  16.061  49.868  1.00  0.00     0.039 C 
ENDBRANCH   5   8
TORSDOF 1
ENDMDL
MODEL 9
REMARK VINA RESULT:    -4.752      0.931      4.408
REMARK INTER + INTRA:          -5.150
REMARK INTER:                  -5.042
REMARK INTRA:                  -0.108
REMARK UNBOUND:                -0.120
REMARK SMILES C=C(C)[C@H]1CC=C(C)CC1
REMARK SMILES IDX 8 1 7 2 6 3 5 4 4 5 10 6 9 7 2 8 1 9 3 10
REMARK H PARENT
REMARK Flexibility Score: inf
ROOT
ATOM      1  C   UNL     1      13.180  17.925  40.133  1.00  0.00     0.039 C 
ATOM      2  C   UNL     1      12.888  17.194  41.415  1.00  0.00    -0.077 C 
ATOM      3  C   UNL     1      11.641  17.243  41.929  1.00  0.00    -0.027 C 
ATOM      4  C   UNL     1      11.284  16.598  43.242  1.00  0.00     0.035 C 
ATOM      5  C   UNL     1      12.171  15.369  43.522  1.00  0.00     0.018 C 
ATOM      6  C   UNL     1      13.642  15.805  43.429  1.00  0.00     0.013 C 
ATOM      7  C   UNL     1      13.969  16.312  42.015  1.00  0.00     0.031 C 
ENDROOT
BRANCH   5   8
ATOM      8  C   UNL     1      11.891  14.661  44.848  1.00  0.00    -0.077 C 
ATOM      9  C   UNL     1      11.754  13.325  44.846  1.00  0.00     0.008 C 
ATOM     10  C   UNL     1      11.738  15.376  46.173  1.00  0.00     0.039 C 
ENDBRANCH   5   8
TORSDOF 1
ENDMDL
