MODEL 1
REMARK VINA RESULT:    -2.258      0.000      0.000
REMARK INTER + INTRA:          -3.004
REMARK INTER:                  -2.786
REMARK INTRA:                  -0.218
REMARK UNBOUND:                -0.218
REMARK SMILES CCCCCC(=O)[O-]
REMARK SMILES IDX 4 1 5 2 6 3 7 4 8 5 3 6 2 7 1 8
REMARK H PARENT
REMARK Flexibility Score: inf
ROOT
ATOM      1  C   UNL     1      55.598 -35.778  21.960  1.00  0.00     0.006 C 
ENDROOT
BRANCH   1   2
ATOM      2  C   UNL     1      56.586 -36.693  22.697  1.00  0.00     0.053 C 
BRANCH   2   3
ATOM      3  C   UNL     1      57.966 -36.117  22.651  1.00  0.00     0.041 C 
ATOM      4  O   UNL     1      58.846 -36.640  21.918  1.00  0.00    -0.550 OA
ATOM      5  O   UNL     1      58.267 -34.973  23.378  1.00  0.00    -0.550 OA
ENDBRANCH   2   3
ENDBRANCH   1   2
BRANCH   1   6
ATOM      6  C   UNL     1      54.396 -35.383  22.832  1.00  0.00     0.000 C 
BRANCH   6   7
ATOM      7  C   UNL     1      54.774 -34.401  23.951  1.00  0.00    -0.003 C 
ATOM      8  C   UNL     1      55.092 -33.020  23.383  1.00  0.00     0.004 C 
ENDBRANCH   6   7
ENDBRANCH   1   6
TORSDOF 4
ENDMDL
MODEL 2
REMARK VINA RESULT:    -2.161      2.238      3.545
REMARK INTER + INTRA:          -2.884
REMARK INTER:                  -2.643
REMARK INTRA:                  -0.241
REMARK UNBOUND:                -0.218
REMARK SMILES CCCCCC(=O)[O-]
REMARK SMILES IDX 4 1 5 2 6 3 7 4 8 5 3 6 2 7 1 8
REMARK H PARENT
REMARK Flexibility Score: inf
ROOT
ATOM      1  C   UNL     1      55.513 -35.891  21.952  1.00  0.00     0.006 C 
ENDROOT
BRANCH   1   2
ATOM      2  C   UNL     1      54.456 -35.328  22.912  1.00  0.00     0.053 C 
BRANCH   2   3
ATOM      3  C   UNL     1      54.983 -34.119  23.618  1.00  0.00     0.041 C 
ATOM      4  O   UNL     1      55.024 -33.008  23.026  1.00  0.00    -0.550 OA
ATOM      5  O   UNL     1      55.384 -34.207  24.945  1.00  0.00    -0.550 OA
ENDBRANCH   2   3
ENDBRANCH   1   2
BRANCH   1   6
ATOM      6  C   UNL     1      56.610 -36.684  22.680  1.00  0.00     0.000 C 
BRANCH   6   7
ATOM      7  C   UNL     1      58.022 -36.176  22.352  1.00  0.00    -0.003 C 
ATOM      8  C   UNL     1      58.546 -35.264  23.458  1.00  0.00     0.004 C 
ENDBRANCH   6   7
ENDBRANCH   1   6
TORSDOF 4
ENDMDL
MODEL 3
REMARK VINA RESULT:    -2.154      1.669      2.149
REMARK INTER + INTRA:          -2.875
REMARK INTER:                  -2.770
REMARK INTRA:                  -0.106
REMARK UNBOUND:                -0.218
REMARK SMILES CCCCCC(=O)[O-]
REMARK SMILES IDX 4 1 5 2 6 3 7 4 8 5 3 6 2 7 1 8
REMARK H PARENT
REMARK Flexibility Score: inf
ROOT
ATOM      1  C   UNL     1      55.057 -34.898  23.066  1.00  0.00     0.006 C 
ENDROOT
BRANCH   1   2
ATOM      2  C   UNL     1      55.649 -36.000  22.178  1.00  0.00     0.053 C 
BRANCH   2   3
ATOM      3  C   UNL     1      56.977 -36.441  22.709  1.00  0.00     0.041 C 
ATOM      4  O   UNL     1      57.042 -37.125  23.763  1.00  0.00    -0.550 OA
ATOM      5  O   UNL     1      58.140 -36.137  22.012  1.00  0.00    -0.550 OA
ENDBRANCH   2   3
ENDBRANCH   1   2
BRANCH   1   6
ATOM      6  C   UNL     1      53.876 -35.395  23.917  1.00  0.00     0.000 C 
BRANCH   6   7
ATOM      7  C   UNL     1      52.718 -34.388  23.964  1.00  0.00    -0.003 C 
ATOM      8  C   UNL     1      51.537 -34.871  23.126  1.00  0.00     0.004 C 
ENDBRANCH   6   7
ENDBRANCH   1   6
TORSDOF 4
ENDMDL
MODEL 4
REMARK VINA RESULT:    -2.152      2.595      3.233
REMARK INTER + INTRA:          -2.873
REMARK INTER:                  -2.772
REMARK INTRA:                  -0.101
REMARK UNBOUND:                -0.218
REMARK SMILES CCCCCC(=O)[O-]
REMARK SMILES IDX 4 1 5 2 6 3 7 4 8 5 3 6 2 7 1 8
REMARK H PARENT
REMARK Flexibility Score: inf
ROOT
ATOM      1  C   UNL     1      53.581 -34.866  23.554  1.00  0.00     0.006 C 
ENDROOT
BRANCH   1   2
ATOM      2  C   UNL     1      55.072 -34.773  23.205  1.00  0.00     0.053 C 
BRANCH   2   3
ATOM      3  C   UNL     1      55.444 -35.834  22.217  1.00  0.00     0.041 C 
ATOM      4  O   UNL     1      54.723 -36.038  21.205  1.00  0.00    -0.550 OA
ATOM      5  O   UNL     1      56.612 -36.566  22.388  1.00  0.00    -0.550 OA
ENDBRANCH   2   3
ENDBRANCH   1   2
BRANCH   1   6
ATOM      6  C   UNL     1      52.953 -33.492  23.838  1.00  0.00     0.000 C 
BRANCH   6   7
ATOM      7  C   UNL     1      51.460 -33.439  23.480  1.00  0.00    -0.003 C 
ATOM      8  C   UNL     1      50.958 -34.806  23.022  1.00  0.00     0.004 C 
ENDBRANCH   6   7
ENDBRANCH   1   6
TORSDOF 4
ENDMDL
MODEL 5
REMARK VINA RESULT:    -2.104      4.553      5.953
REMARK INTER + INTRA:          -2.814
REMARK INTER:                  -2.747
REMARK INTRA:                  -0.067
REMARK UNBOUND:                -0.218
REMARK SMILES CCCCCC(=O)[O-]
REMARK SMILES IDX 4 1 5 2 6 3 7 4 8 5 3 6 2 7 1 8
REMARK H PARENT
REMARK Flexibility Score: inf
ROOT
ATOM      1  C   UNL     1      52.701 -33.995  23.987  1.00  0.00     0.006 C 
ENDROOT
BRANCH   1   2
ATOM      2  C   UNL     1      51.226 -33.631  23.771  1.00  0.00     0.053 C 
BRANCH   2   3
ATOM      3  C   UNL     1      51.111 -32.303  23.090  1.00  0.00     0.041 C 
ATOM      4  O   UNL     1      52.078 -31.497  23.106  1.00  0.00    -0.550 OA
ATOM      5  O   UNL     1      49.953 -31.975  22.397  1.00  0.00    -0.550 OA
ENDBRANCH   2   3
ENDBRANCH   1   2
BRANCH   1   6
ATOM      6  C   UNL     1      53.131 -35.228  23.177  1.00  0.00     0.000 C 
BRANCH   6   7
ATOM      7  C   UNL     1      54.656 -35.406  23.135  1.00  0.00    -0.003 C 
ATOM      8  C   UNL     1      55.117 -35.856  21.751  1.00  0.00     0.004 C 
ENDBRANCH   6   7
ENDBRANCH   1   6
TORSDOF 4
ENDMDL
MODEL 6
REMARK VINA RESULT:    -2.098      3.694      4.760
REMARK INTER + INTRA:          -2.807
REMARK INTER:                  -2.698
REMARK INTRA:                  -0.109
REMARK UNBOUND:                -0.218
REMARK SMILES CCCCCC(=O)[O-]
REMARK SMILES IDX 4 1 5 2 6 3 7 4 8 5 3 6 2 7 1 8
REMARK H PARENT
REMARK Flexibility Score: inf
ROOT
ATOM      1  C   UNL     1      54.590 -34.775  23.113  1.00  0.00     0.006 C 
ENDROOT
BRANCH   1   2
ATOM      2  C   UNL     1      53.312 -35.302  23.780  1.00  0.00     0.053 C 
BRANCH   2   3
ATOM      3  C   UNL     1      52.151 -34.414  23.458  1.00  0.00     0.041 C 
ATOM      4  O   UNL     1      51.160 -34.871  22.831  1.00  0.00    -0.550 OA
ATOM      5  O   UNL     1      52.141 -33.096  23.895  1.00  0.00    -0.550 OA
ENDBRANCH   2   3
ENDBRANCH   1   2
BRANCH   1   6
ATOM      6  C   UNL     1      55.097 -35.698  21.994  1.00  0.00     0.000 C 
BRANCH   6   7
ATOM      7  C   UNL     1      56.323 -36.521  22.416  1.00  0.00    -0.003 C 
ATOM      8  C   UNL     1      57.218 -35.725  23.362  1.00  0.00     0.004 C 
ENDBRANCH   6   7
ENDBRANCH   1   6
TORSDOF 4
ENDMDL
MODEL 7
REMARK VINA RESULT:    -2.082      4.403      5.689
REMARK INTER + INTRA:          -2.787
REMARK INTER:                  -2.743
REMARK INTRA:                  -0.044
REMARK UNBOUND:                -0.218
REMARK SMILES CCCCCC(=O)[O-]
REMARK SMILES IDX 4 1 5 2 6 3 7 4 8 5 3 6 2 7 1 8
REMARK H PARENT
REMARK Flexibility Score: inf
ROOT
ATOM      1  C   UNL     1      52.859 -35.115  23.237  1.00  0.00     0.006 C 
ENDROOT
BRANCH   1   2
ATOM      2  C   UNL     1      52.179 -33.984  24.022  1.00  0.00     0.053 C 
BRANCH   2   3
ATOM      3  C   UNL     1      51.033 -33.424  23.240  1.00  0.00     0.041 C 
ATOM      4  O   UNL     1      50.072 -34.165  22.907  1.00  0.00    -0.550 OA
ATOM      5  O   UNL     1      51.001 -32.072  22.924  1.00  0.00    -0.550 OA
ENDBRANCH   2   3
ENDBRANCH   1   2
BRANCH   1   6
ATOM      6  C   UNL     1      54.389 -34.969  23.196  1.00  0.00     0.000 C 
BRANCH   6   7
ATOM      7  C   UNL     1      55.029 -35.785  22.064  1.00  0.00    -0.003 C 
ATOM      8  C   UNL     1      56.352 -36.401  22.512  1.00  0.00     0.004 C 
ENDBRANCH   6   7
ENDBRANCH   1   6
TORSDOF 4
ENDMDL
MODEL 8
REMARK VINA RESULT:    -2.063      1.898      3.573
REMARK INTER + INTRA:          -2.763
REMARK INTER:                  -2.570
REMARK INTRA:                  -0.193
REMARK UNBOUND:                -0.218
REMARK SMILES CCCCCC(=O)[O-]
REMARK SMILES IDX 4 1 5 2 6 3 7 4 8 5 3 6 2 7 1 8
REMARK H PARENT
REMARK Flexibility Score: inf
ROOT
ATOM      1  C   UNL     1      54.847 -34.339  24.026  1.00  0.00     0.006 C 
ENDROOT
BRANCH   1   2
ATOM      2  C   UNL     1      55.005 -32.921  23.460  1.00  0.00     0.053 C 
BRANCH   2   3
ATOM      3  C   UNL     1      56.316 -32.334  23.880  1.00  0.00     0.041 C 
ATOM      4  O   UNL     1      57.257 -33.085  24.247  1.00  0.00    -0.550 OA
ATOM      5  O   UNL     1      56.514 -30.960  23.820  1.00  0.00    -0.550 OA
ENDBRANCH   2   3
ENDBRANCH   1   2
BRANCH   1   6
ATOM      6  C   UNL     1      54.181 -35.302  23.030  1.00  0.00     0.000 C 
BRANCH   6   7
ATOM      7  C   UNL     1      55.145 -35.776  21.932  1.00  0.00    -0.003 C 
ATOM      8  C   UNL     1      56.453 -36.284  22.533  1.00  0.00     0.004 C 
ENDBRANCH   6   7
ENDBRANCH   1   6
TORSDOF 4
ENDMDL
