MODEL 1
REMARK VINA RESULT:    -3.607      0.000      0.000
REMARK INTER + INTRA:          -5.538
REMARK INTER:                  -4.873
REMARK INTRA:                  -0.666
REMARK UNBOUND:                -0.666
REMARK SMILES CCCCCCC=CC(=O)[O-]
REMARK SMILES IDX 5 1 6 2 7 3 8 4 9 5 10 6 11 7 4 8 3 9 2 10 1 11
REMARK H PARENT
REMARK Flexibility Score: inf
ROOT
ATOM      1  C   UNL     1       4.489  13.832   6.586  1.00  0.00     0.004 C 
ENDROOT
BRANCH   1   2
ATOM      2  C   UNL     1       4.674  12.381   6.116  1.00  0.00     0.027 C 
BRANCH   2   3
ATOM      3  C   UNL     1       4.139  11.410   7.130  1.00  0.00    -0.025 C 
ATOM      4  C   UNL     1       4.923  10.482   7.689  1.00  0.00     0.020 C 
BRANCH   4   5
ATOM      5  C   UNL     1       4.418   9.513   8.674  1.00  0.00     0.064 C 
ATOM      6  O   UNL     1       4.286   9.825   9.888  1.00  0.00    -0.545 OA
ATOM      7  O   UNL     1       4.081   8.232   8.259  1.00  0.00    -0.545 OA
ENDBRANCH   4   5
ENDBRANCH   2   3
ENDBRANCH   1   2
BRANCH   1   8
ATOM      8  C   UNL     1       5.436  14.208   7.738  1.00  0.00     0.000 C 
BRANCH   8   9
ATOM      9  C   UNL     1       6.896  14.356   7.276  1.00  0.00    -0.000 C 
BRANCH   9  10
ATOM     10  C   UNL     1       7.847  13.401   8.015  1.00  0.00    -0.003 C 
ATOM     11  C   UNL     1       8.233  12.183   7.178  1.00  0.00     0.004 C 
ENDBRANCH   9  10
ENDBRANCH   8   9
ENDBRANCH   1   8
TORSDOF 6
ENDMDL
MODEL 2
REMARK VINA RESULT:    -3.526      3.441      5.506
REMARK INTER + INTRA:          -5.428
REMARK INTER:                  -5.265
REMARK INTRA:                  -0.163
REMARK UNBOUND:                -0.666
REMARK SMILES CCCCCCC=CC(=O)[O-]
REMARK SMILES IDX 5 1 6 2 7 3 8 4 9 5 10 6 11 7 4 8 3 9 2 10 1 11
REMARK H PARENT
REMARK Flexibility Score: inf
ROOT
ATOM      1  C   UNL     1       4.825   8.272   9.055  1.00  0.00     0.004 C 
ENDROOT
BRANCH   1   2
ATOM      2  C   UNL     1       3.997   7.084   9.570  1.00  0.00     0.027 C 
BRANCH   2   3
ATOM      3  C   UNL     1       4.026   5.942   8.595  1.00  0.00    -0.025 C 
ATOM      4  C   UNL     1       2.945   5.184   8.375  1.00  0.00     0.020 C 
BRANCH   4   5
ATOM      5  C   UNL     1       2.954   4.052   7.435  1.00  0.00     0.064 C 
ATOM      6  O   UNL     1       2.894   4.238   6.191  1.00  0.00    -0.545 OA
ATOM      7  O   UNL     1       3.029   2.757   7.929  1.00  0.00    -0.545 OA
ENDBRANCH   4   5
ENDBRANCH   2   3
ENDBRANCH   1   2
BRANCH   1   8
ATOM      8  C   UNL     1       3.951   9.456   8.612  1.00  0.00     0.000 C 
BRANCH   8   9
ATOM      9  C   UNL     1       4.753  10.533   7.860  1.00  0.00    -0.000 C 
BRANCH   9  10
ATOM     10  C   UNL     1       3.849  11.521   7.107  1.00  0.00    -0.003 C 
ATOM     11  C   UNL     1       4.504  12.886   6.901  1.00  0.00     0.004 C 
ENDBRANCH   9  10
ENDBRANCH   8   9
ENDBRANCH   1   8
TORSDOF 6
ENDMDL
MODEL 3
REMARK VINA RESULT:    -3.473      3.160      4.592
REMARK INTER + INTRA:          -5.357
REMARK INTER:                  -4.698
REMARK INTRA:                  -0.659
REMARK UNBOUND:                -0.666
REMARK SMILES CCCCCCC=CC(=O)[O-]
REMARK SMILES IDX 5 1 6 2 7 3 8 4 9 5 10 6 11 7 4 8 3 9 2 10 1 11
REMARK H PARENT
REMARK Flexibility Score: inf
ROOT
ATOM      1  C   UNL     1       5.252  10.308   7.165  1.00  0.00     0.004 C 
ENDROOT
BRANCH   1   2
ATOM      2  C   UNL     1       6.243  10.481   8.327  1.00  0.00     0.027 C 
BRANCH   2   3
ATOM      3  C   UNL     1       7.651  10.615   7.822  1.00  0.00    -0.025 C 
ATOM      4  C   UNL     1       7.910  11.066   6.589  1.00  0.00     0.020 C 
BRANCH   4   5
ATOM      5  C   UNL     1       9.281  11.194   6.068  1.00  0.00     0.064 C 
ATOM      6  O   UNL     1       9.778  10.312   5.319  1.00  0.00    -0.545 OA
ATOM      7  O   UNL     1      10.039  12.305   6.410  1.00  0.00    -0.545 OA
ENDBRANCH   4   5
ENDBRANCH   2   3
ENDBRANCH   1   2
BRANCH   1   8
ATOM      8  C   UNL     1       4.186  11.414   7.125  1.00  0.00     0.000 C 
BRANCH   8   9
ATOM      9  C   UNL     1       4.534  12.534   6.129  1.00  0.00    -0.000 C 
BRANCH   9  10
ATOM     10  C   UNL     1       4.516  13.926   6.778  1.00  0.00    -0.003 C 
ATOM     11  C   UNL     1       5.649  14.126   7.785  1.00  0.00     0.004 C 
ENDBRANCH   9  10
ENDBRANCH   8   9
ENDBRANCH   1   8
TORSDOF 6
ENDMDL
MODEL 4
REMARK VINA RESULT:    -3.435      3.425      6.473
REMARK INTER + INTRA:          -5.305
REMARK INTER:                  -5.100
REMARK INTRA:                  -0.205
REMARK UNBOUND:                -0.666
REMARK SMILES CCCCCCC=CC(=O)[O-]
REMARK SMILES IDX 5 1 6 2 7 3 8 4 9 5 10 6 11 7 4 8 3 9 2 10 1 11
REMARK H PARENT
REMARK Flexibility Score: inf
ROOT
ATOM      1  C   UNL     1       4.082   7.889   8.704  1.00  0.00     0.004 C 
ENDROOT
BRANCH   1   2
ATOM      2  C   UNL     1       4.014   9.124   9.617  1.00  0.00     0.027 C 
BRANCH   2   3
ATOM      3  C   UNL     1       4.526  10.347   8.912  1.00  0.00    -0.025 C 
ATOM      4  C   UNL     1       4.090  10.685   7.693  1.00  0.00     0.020 C 
BRANCH   4   5
ATOM      5  C   UNL     1       4.587  11.870   6.978  1.00  0.00     0.064 C 
ATOM      6  O   UNL     1       4.876  12.930   7.596  1.00  0.00    -0.545 OA
ATOM      7  O   UNL     1       4.741  11.821   5.599  1.00  0.00    -0.545 OA
ENDBRANCH   4   5
ENDBRANCH   2   3
ENDBRANCH   1   2
BRANCH   1   8
ATOM      8  C   UNL     1       3.843   6.575   9.465  1.00  0.00     0.000 C 
BRANCH   8   9
ATOM      9  C   UNL     1       4.095   5.333   8.592  1.00  0.00    -0.000 C 
BRANCH   9  10
ATOM     10  C   UNL     1       2.792   4.676   8.113  1.00  0.00    -0.003 C 
ATOM     11  C   UNL     1       2.832   4.286   6.636  1.00  0.00     0.004 C 
ENDBRANCH   9  10
ENDBRANCH   8   9
ENDBRANCH   1   8
TORSDOF 6
ENDMDL
MODEL 5
REMARK VINA RESULT:    -3.396     16.925     18.130
REMARK INTER + INTRA:          -5.253
REMARK INTER:                  -4.940
REMARK INTRA:                  -0.313
REMARK UNBOUND:                -0.666
REMARK SMILES CCCCCCC=CC(=O)[O-]
REMARK SMILES IDX 5 1 6 2 7 3 8 4 9 5 10 6 11 7 4 8 3 9 2 10 1 11
REMARK H PARENT
REMARK Flexibility Score: inf
ROOT
ATOM      1  C   UNL     1       3.971   4.048  -8.931  1.00  0.00     0.004 C 
ENDROOT
BRANCH   1   2
ATOM      2  C   UNL     1       4.608   2.768  -9.497  1.00  0.00     0.027 C 
BRANCH   2   3
ATOM      3  C   UNL     1       4.684   1.693  -8.451  1.00  0.00    -0.025 C 
ATOM      4  C   UNL     1       4.484   1.964  -7.156  1.00  0.00     0.020 C 
BRANCH   4   5
ATOM      5  C   UNL     1       4.567   0.929  -6.113  1.00  0.00     0.064 C 
ATOM      6  O   UNL     1       5.406   1.013  -5.177  1.00  0.00    -0.545 OA
ATOM      7  O   UNL     1       3.705  -0.159  -6.162  1.00  0.00    -0.545 OA
ENDBRANCH   4   5
ENDBRANCH   2   3
ENDBRANCH   1   2
BRANCH   1   8
ATOM      8  C   UNL     1       2.552   4.292  -9.469  1.00  0.00     0.000 C 
BRANCH   8   9
ATOM      9  C   UNL     1       2.195   5.787  -9.533  1.00  0.00    -0.000 C 
BRANCH   9  10
ATOM     10  C   UNL     1       3.387   6.692  -9.184  1.00  0.00    -0.003 C 
ATOM     11  C   UNL     1       2.959   8.034  -8.592  1.00  0.00     0.004 C 
ENDBRANCH   9  10
ENDBRANCH   8   9
ENDBRANCH   1   8
TORSDOF 6
ENDMDL
MODEL 6
REMARK VINA RESULT:    -3.356      2.136      3.662
REMARK INTER + INTRA:          -5.199
REMARK INTER:                  -4.960
REMARK INTRA:                  -0.239
REMARK UNBOUND:                -0.666
REMARK SMILES CCCCCCC=CC(=O)[O-]
REMARK SMILES IDX 5 1 6 2 7 3 8 4 9 5 10 6 11 7 4 8 3 9 2 10 1 11
REMARK H PARENT
REMARK Flexibility Score: inf
ROOT
ATOM      1  C   UNL     1       4.060  10.260   8.294  1.00  0.00     0.004 C 
ENDROOT
BRANCH   1   2
ATOM      2  C   UNL     1       4.458   9.777   9.698  1.00  0.00     0.027 C 
BRANCH   2   3
ATOM      3  C   UNL     1       4.176   8.312   9.866  1.00  0.00    -0.025 C 
ATOM      4  C   UNL     1       4.076   7.494   8.812  1.00  0.00     0.020 C 
BRANCH   4   5
ATOM      5  C   UNL     1       3.786   6.059   8.952  1.00  0.00     0.064 C 
ATOM      6  O   UNL     1       3.950   5.465  10.052  1.00  0.00    -0.545 OA
ATOM      7  O   UNL     1       3.326   5.345   7.854  1.00  0.00    -0.545 OA
ENDBRANCH   4   5
ENDBRANCH   2   3
ENDBRANCH   1   2
BRANCH   1   8
ATOM      8  C   UNL     1       4.880  11.475   7.830  1.00  0.00     0.000 C 
BRANCH   8   9
ATOM      9  C   UNL     1       4.166  12.284   6.733  1.00  0.00    -0.000 C 
BRANCH   9  10
ATOM     10  C   UNL     1       4.537  13.775   6.767  1.00  0.00    -0.003 C 
ATOM     11  C   UNL     1       5.610  14.096   7.806  1.00  0.00     0.004 C 
ENDBRANCH   9  10
ENDBRANCH   8   9
ENDBRANCH   1   8
TORSDOF 6
ENDMDL
MODEL 7
REMARK VINA RESULT:    -3.338     16.648     17.844
REMARK INTER + INTRA:          -5.175
REMARK INTER:                  -4.557
REMARK INTRA:                  -0.618
REMARK UNBOUND:                -0.666
REMARK SMILES CCCCCCC=CC(=O)[O-]
REMARK SMILES IDX 5 1 6 2 7 3 8 4 9 5 10 6 11 7 4 8 3 9 2 10 1 11
REMARK H PARENT
REMARK Flexibility Score: inf
ROOT
ATOM      1  C   UNL     1       2.269   4.471  -9.361  1.00  0.00     0.004 C 
ENDROOT
BRANCH   1   2
ATOM      2  C   UNL     1       3.660   3.974  -9.786  1.00  0.00     0.027 C 
BRANCH   2   3
ATOM      3  C   UNL     1       4.271   3.103  -8.726  1.00  0.00    -0.025 C 
ATOM      4  C   UNL     1       5.419   3.435  -8.125  1.00  0.00     0.020 C 
BRANCH   4   5
ATOM      5  C   UNL     1       6.042   2.590  -7.094  1.00  0.00     0.064 C 
ATOM      6  O   UNL     1       6.041   1.334  -7.193  1.00  0.00    -0.545 OA
ATOM      7  O   UNL     1       6.640   3.188  -5.993  1.00  0.00    -0.545 OA
ENDBRANCH   4   5
ENDBRANCH   2   3
ENDBRANCH   1   2
BRANCH   1   8
ATOM      8  C   UNL     1       2.144   6.002  -9.418  1.00  0.00     0.000 C 
BRANCH   8   9
ATOM      9  C   UNL     1       3.497   6.698  -9.644  1.00  0.00    -0.000 C 
BRANCH   9  10
ATOM     10  C   UNL     1       3.901   7.595  -8.463  1.00  0.00    -0.003 C 
ATOM     11  C   UNL     1       5.239   7.193  -7.843  1.00  0.00     0.004 C 
ENDBRANCH   9  10
ENDBRANCH   8   9
ENDBRANCH   1   8
TORSDOF 6
ENDMDL
MODEL 8
REMARK VINA RESULT:    -3.247      9.978     11.598
REMARK INTER + INTRA:          -5.051
REMARK INTER:                  -4.408
REMARK INTRA:                  -0.643
REMARK UNBOUND:                -0.666
REMARK SMILES CCCCCCC=CC(=O)[O-]
REMARK SMILES IDX 5 1 6 2 7 3 8 4 9 5 10 6 11 7 4 8 3 9 2 10 1 11
REMARK H PARENT
REMARK Flexibility Score: inf
ROOT
ATOM      1  C   UNL     1       7.221   2.059   7.568  1.00  0.00     0.004 C 
ENDROOT
BRANCH   1   2
ATOM      2  C   UNL     1       8.406   1.082   7.496  1.00  0.00     0.027 C 
BRANCH   2   3
ATOM      3  C   UNL     1       7.969  -0.263   6.991  1.00  0.00    -0.025 C 
ATOM      4  C   UNL     1       7.475  -0.419   5.757  1.00  0.00     0.020 C 
BRANCH   4   5
ATOM      5  C   UNL     1       7.028  -1.724   5.246  1.00  0.00     0.064 C 
ATOM      6  O   UNL     1       6.319  -1.810   4.209  1.00  0.00    -0.545 OA
ATOM      7  O   UNL     1       7.395  -2.882   5.920  1.00  0.00    -0.545 OA
ENDBRANCH   4   5
ENDBRANCH   2   3
ENDBRANCH   1   2
BRANCH   1   8
ATOM      8  C   UNL     1       7.549   3.434   6.965  1.00  0.00     0.000 C 
BRANCH   8   9
ATOM      9  C   UNL     1       7.234   3.510   5.461  1.00  0.00    -0.000 C 
BRANCH   9  10
ATOM     10  C   UNL     1       8.490   3.743   4.608  1.00  0.00    -0.003 C 
ATOM     11  C   UNL     1       9.127   2.442   4.122  1.00  0.00     0.004 C 
ENDBRANCH   9  10
ENDBRANCH   8   9
ENDBRANCH   1   8
TORSDOF 6
ENDMDL
MODEL 9
REMARK VINA RESULT:    -3.217     10.141     12.326
REMARK INTER + INTRA:          -5.011
REMARK INTER:                  -4.370
REMARK INTRA:                  -0.641
REMARK UNBOUND:                -0.666
REMARK SMILES CCCCCCC=CC(=O)[O-]
REMARK SMILES IDX 5 1 6 2 7 3 8 4 9 5 10 6 11 7 4 8 3 9 2 10 1 11
REMARK H PARENT
REMARK Flexibility Score: inf
ROOT
ATOM      1  C   UNL     1       6.896   0.100   8.132  1.00  0.00     0.004 C 
ENDROOT
BRANCH   1   2
ATOM      2  C   UNL     1       6.940   1.574   7.701  1.00  0.00     0.027 C 
BRANCH   2   3
ATOM      3  C   UNL     1       7.922   1.783   6.584  1.00  0.00    -0.025 C 
ATOM      4  C   UNL     1       7.646   2.588   5.552  1.00  0.00     0.020 C 
BRANCH   4   5
ATOM      5  C   UNL     1       8.587   2.796   4.441  1.00  0.00     0.064 C 
ATOM      6  O   UNL     1       8.876   3.955   4.040  1.00  0.00    -0.545 OA
ATOM      7  O   UNL     1       9.167   1.696   3.823  1.00  0.00    -0.545 OA
ENDBRANCH   4   5
ENDBRANCH   2   3
ENDBRANCH   1   2
BRANCH   1   8
ATOM      8  C   UNL     1       5.656  -0.637   7.600  1.00  0.00     0.000 C 
BRANCH   8   9
ATOM      9  C   UNL     1       6.017  -1.921   6.834  1.00  0.00    -0.000 C 
BRANCH   9  10
ATOM     10  C   UNL     1       7.330  -1.787   6.046  1.00  0.00    -0.003 C 
ATOM     11  C   UNL     1       7.117  -1.273   4.623  1.00  0.00     0.004 C 
ENDBRANCH   9  10
ENDBRANCH   8   9
ENDBRANCH   1   8
TORSDOF 6
ENDMDL
