MODEL 1
REMARK VINA RESULT:    -3.601      0.000      0.000
REMARK INTER + INTRA:          -4.028
REMARK INTER:                  -4.023
REMARK INTRA:                  -0.005
REMARK UNBOUND:                -0.005
REMARK SMILES CCCC(=O)[O-]
REMARK SMILES IDX 3 1 4 2 5 3 6 4 2 5 1 6
REMARK H PARENT
REMARK Flexibility Score: inf
ROOT
ATOM      1  C   UNL     1      77.992  21.150  30.644  1.00  0.00     0.052 C 
ENDROOT
BRANCH   1   2
ATOM      2  C   UNL     1      77.640  21.456  29.221  1.00  0.00     0.041 C 
ATOM      3  O   UNL     1      77.823  22.611  28.756  1.00  0.00    -0.550 OA
ATOM      4  O   UNL     1      77.077  20.472  28.417  1.00  0.00    -0.550 OA
ENDBRANCH   1   2
BRANCH   1   5
ATOM      5  C   UNL     1      76.773  20.656  31.436  1.00  0.00     0.003 C 
ATOM      6  C   UNL     1      76.932  20.871  32.941  1.00  0.00     0.004 C 
ENDBRANCH   1   5
TORSDOF 2
ENDMDL
MODEL 2
REMARK VINA RESULT:    -3.480      3.204      4.158
REMARK INTER + INTRA:          -3.892
REMARK INTER:                  -3.868
REMARK INTRA:                  -0.024
REMARK UNBOUND:                -0.005
REMARK SMILES CCCC(=O)[O-]
REMARK SMILES IDX 3 1 4 2 5 3 6 4 2 5 1 6
REMARK H PARENT
REMARK Flexibility Score: inf
ROOT
ATOM      1  C   UNL     1      76.962  20.843  32.504  1.00  0.00     0.052 C 
ENDROOT
BRANCH   1   2
ATOM      2  C   UNL     1      75.877  19.983  33.076  1.00  0.00     0.041 C 
ATOM      3  O   UNL     1      75.323  19.104  32.367  1.00  0.00    -0.550 OA
ATOM      4  O   UNL     1      75.455  20.178  34.386  1.00  0.00    -0.550 OA
ENDBRANCH   1   2
BRANCH   1   5
ATOM      5  C   UNL     1      76.790  21.040  30.992  1.00  0.00     0.003 C 
ATOM      6  C   UNL     1      78.117  20.950  30.239  1.00  0.00     0.004 C 
ENDBRANCH   1   5
TORSDOF 2
ENDMDL
MODEL 3
REMARK VINA RESULT:    -3.138     13.072     13.952
REMARK INTER + INTRA:          -3.511
REMARK INTER:                  -3.505
REMARK INTRA:                  -0.005
REMARK UNBOUND:                -0.005
REMARK SMILES CCCC(=O)[O-]
REMARK SMILES IDX 3 1 4 2 5 3 6 4 2 5 1 6
REMARK H PARENT
REMARK Flexibility Score: inf
ROOT
ATOM      1  C   UNL     1      69.830  10.194  33.342  1.00  0.00     0.052 C 
ENDROOT
BRANCH   1   2
ATOM      2  C   UNL     1      70.820   9.102  33.612  1.00  0.00     0.041 C 
ATOM      3  O   UNL     1      70.487   7.896  33.476  1.00  0.00    -0.550 OA
ATOM      4  O   UNL     1      72.102   9.418  34.045  1.00  0.00    -0.550 OA
ENDBRANCH   1   2
BRANCH   1   5
ATOM      5  C   UNL     1      70.252  11.059  32.147  1.00  0.00     0.003 C 
ATOM      6  C   UNL     1      69.054  11.658  31.411  1.00  0.00     0.004 C 
ENDBRANCH   1   5
TORSDOF 2
ENDMDL
MODEL 4
REMARK VINA RESULT:    -3.127     13.052     13.837
REMARK INTER + INTRA:          -3.498
REMARK INTER:                  -3.487
REMARK INTRA:                  -0.011
REMARK UNBOUND:                -0.005
REMARK SMILES CCCC(=O)[O-]
REMARK SMILES IDX 3 1 4 2 5 3 6 4 2 5 1 6
REMARK H PARENT
REMARK Flexibility Score: inf
ROOT
ATOM      1  C   UNL     1      68.415  10.569  32.659  1.00  0.00     0.052 C 
ENDROOT
BRANCH   1   2
ATOM      2  C   UNL     1      69.440  11.348  31.894  1.00  0.00     0.041 C 
ATOM      3  O   UNL     1      69.086  12.140  30.983  1.00  0.00    -0.550 OA
ATOM      4  O   UNL     1      70.792  11.174  32.168  1.00  0.00    -0.550 OA
ENDBRANCH   1   2
BRANCH   1   5
ATOM      5  C   UNL     1      69.020   9.315  33.304  1.00  0.00     0.003 C 
ATOM      6  C   UNL     1      68.058   8.128  33.283  1.00  0.00     0.004 C 
ENDBRANCH   1   5
TORSDOF 2
ENDMDL
MODEL 5
REMARK VINA RESULT:    -3.125     13.976     14.853
REMARK INTER + INTRA:          -3.496
REMARK INTER:                  -3.475
REMARK INTRA:                  -0.021
REMARK UNBOUND:                -0.005
REMARK SMILES CCCC(=O)[O-]
REMARK SMILES IDX 3 1 4 2 5 3 6 4 2 5 1 6
REMARK H PARENT
REMARK Flexibility Score: inf
ROOT
ATOM      1  C   UNL     1      69.518  10.140  33.281  1.00  0.00     0.052 C 
ENDROOT
BRANCH   1   2
ATOM      2  C   UNL     1      69.141   8.692  33.354  1.00  0.00     0.041 C 
ATOM      3  O   UNL     1      67.942   8.341  33.207  1.00  0.00    -0.550 OA
ATOM      4  O   UNL     1      70.112   7.733  33.619  1.00  0.00    -0.550 OA
ENDBRANCH   1   2
BRANCH   1   5
ATOM      5  C   UNL     1      68.460  10.965  32.536  1.00  0.00     0.003 C 
ATOM      6  C   UNL     1      69.049  11.732  31.353  1.00  0.00     0.004 C 
ENDBRANCH   1   5
TORSDOF 2
ENDMDL
MODEL 6
REMARK VINA RESULT:    -3.117     13.075     13.917
REMARK INTER + INTRA:          -3.486
REMARK INTER:                  -3.481
REMARK INTRA:                  -0.006
REMARK UNBOUND:                -0.005
REMARK SMILES CCCC(=O)[O-]
REMARK SMILES IDX 3 1 4 2 5 3 6 4 2 5 1 6
REMARK H PARENT
REMARK Flexibility Score: inf
ROOT
ATOM      1  C   UNL     1      69.842  10.123  33.306  1.00  0.00     0.052 C 
ENDROOT
BRANCH   1   2
ATOM      2  C   UNL     1      70.860   9.070  33.618  1.00  0.00     0.041 C 
ATOM      3  O   UNL     1      72.021   9.396  33.977  1.00  0.00    -0.550 OA
ATOM      4  O   UNL     1      70.535   7.726  33.478  1.00  0.00    -0.550 OA
ENDBRANCH   1   2
BRANCH   1   5
ATOM      5  C   UNL     1      70.302  11.036  32.162  1.00  0.00     0.003 C 
ATOM      6  C   UNL     1      69.130  11.713  31.451  1.00  0.00     0.004 C 
ENDBRANCH   1   5
TORSDOF 2
ENDMDL
MODEL 7
REMARK VINA RESULT:    -3.032     13.174     14.054
REMARK INTER + INTRA:          -3.391
REMARK INTER:                  -3.386
REMARK INTRA:                  -0.005
REMARK UNBOUND:                -0.005
REMARK SMILES CCCC(=O)[O-]
REMARK SMILES IDX 3 1 4 2 5 3 6 4 2 5 1 6
REMARK H PARENT
REMARK Flexibility Score: inf
ROOT
ATOM      1  C   UNL     1      65.470  17.486  35.660  1.00  0.00     0.052 C 
ENDROOT
BRANCH   1   2
ATOM      2  C   UNL     1      64.716  17.847  36.903  1.00  0.00     0.041 C 
ATOM      3  O   UNL     1      63.659  18.525  36.829  1.00  0.00    -0.550 OA
ATOM      4  O   UNL     1      65.200  17.460  38.147  1.00  0.00    -0.550 OA
ENDBRANCH   1   2
BRANCH   1   5
ATOM      5  C   UNL     1      66.736  18.339  35.497  1.00  0.00     0.003 C 
ATOM      6  C   UNL     1      67.300  18.278  34.078  1.00  0.00     0.004 C 
ENDBRANCH   1   5
TORSDOF 2
ENDMDL
MODEL 8
REMARK VINA RESULT:    -3.001     17.923     18.529
REMARK INTER + INTRA:          -3.357
REMARK INTER:                  -3.351
REMARK INTRA:                  -0.006
REMARK UNBOUND:                -0.005
REMARK SMILES CCCC(=O)[O-]
REMARK SMILES IDX 3 1 4 2 5 3 6 4 2 5 1 6
REMARK H PARENT
REMARK Flexibility Score: inf
ROOT
ATOM      1  C   UNL     1      62.282  19.085  39.641  1.00  0.00     0.052 C 
ENDROOT
BRANCH   1   2
ATOM      2  C   UNL     1      60.912  19.156  39.041  1.00  0.00     0.041 C 
ATOM      3  O   UNL     1      59.914  19.406  39.765  1.00  0.00    -0.550 OA
ATOM      4  O   UNL     1      60.734  18.911  37.684  1.00  0.00    -0.550 OA
ENDBRANCH   1   2
BRANCH   1   5
ATOM      5  C   UNL     1      62.532  17.735  40.326  1.00  0.00     0.003 C 
ATOM      6  C   UNL     1      63.836  17.720  41.124  1.00  0.00     0.004 C 
ENDBRANCH   1   5
TORSDOF 2
ENDMDL
MODEL 9
REMARK VINA RESULT:    -1.438      1.693      2.121
REMARK INTER + INTRA:          -1.612
REMARK INTER:                  -1.599
REMARK INTRA:                  -0.013
REMARK UNBOUND:                -0.005
REMARK SMILES CCCC(=O)[O-]
REMARK SMILES IDX 3 1 4 2 5 3 6 4 2 5 1 6
REMARK H PARENT
REMARK Flexibility Score: inf
ROOT
ATOM      1  C   UNL     1      77.000  20.760  32.493  1.00  0.00     0.052 C 
ENDROOT
BRANCH   1   2
ATOM      2  C   UNL     1      77.072  20.752  30.997  1.00  0.00     0.041 C 
ATOM      3  O   UNL     1      78.125  21.112  30.411  1.00  0.00    -0.550 OA
ATOM      4  O   UNL     1      75.961  20.377  30.250  1.00  0.00    -0.550 OA
ENDBRANCH   1   2
BRANCH   1   5
ATOM      5  C   UNL     1      75.828  19.913  33.009  1.00  0.00     0.003 C 
ATOM      6  C   UNL     1      75.344  20.368  34.386  1.00  0.00     0.004 C 
ENDBRANCH   1   5
TORSDOF 2
ENDMDL
