MODEL 1
REMARK VINA RESULT:    -4.368      0.000      0.000
REMARK INTER + INTRA:          -5.304
REMARK INTER:                  -6.155
REMARK INTRA:                   0.852
REMARK UNBOUND:                 0.852
REMARK SMILES CC1=CCC(=C(C)C)C(=O)CC(C)=CCC1
REMARK SMILES IDX 12 1 14 2 13 3 15 4 16 5 2 6 1 7 3 8 11 10 9 11 10 12 5 13
REMARK SMILES IDX 6 14 7 15 8 16 4 17
REMARK H PARENT
REMARK Flexibility Score: 60.00
ROOT
ATOM      1  C   UNL     1      85.014   3.322  28.018  1.00  0.00    -0.070 C 
ATOM      2  C   UNL     1      84.228   2.471  28.717  1.00  0.00    -0.027 C 
ATOM      3  C   UNL     1      86.459   3.461  28.428  1.00  0.00     0.039 C 
ENDROOT
BRANCH   2   4
ATOM      4  C   UNL     1      82.802   2.110  28.375  1.00  0.00     0.032 C 
BRANCH   4   5
ATOM      5  C   UNL     1      81.790   3.258  28.493  1.00  0.00     0.034 C 
BRANCH   5   6
ATOM      6  C   UNL     1      81.756   3.914  29.860  1.00  0.00    -0.077 C 
ATOM      7  C   UNL     1      81.462   3.038  31.054  1.00  0.00     0.039 C 
ATOM      8  C   UNL     1      81.902   5.245  30.083  1.00  0.00    -0.023 CG0
ATOM      9  G   UNL     1      82.336   6.323  29.108  1.00  0.00     0.000 G0
ENDBRANCH   5   6
ENDBRANCH   4   5
ENDBRANCH   2   4
BRANCH   1  10
ATOM     10  C   UNL     1      84.500   4.203  26.900  1.00  0.00     0.111 C 
BRANCH  10  11
ATOM     11  C   UNL     1      84.089   5.556  27.421  1.00  0.00     0.163 C 
ATOM     12  O   UNL     1      84.980   6.421  27.640  1.00  0.00    -0.294 OA
BRANCH  11  13
ATOM     13  C   UNL     1      82.670   5.904  27.694  1.00  0.00    -0.002 C 
ATOM     14  C   UNL     1      81.772   5.981  26.675  1.00  0.00    -0.069 C 
ATOM     15  C   UNL     1      80.355   6.458  26.902  1.00  0.00     0.039 C 
ATOM     16  C   UNL     1      82.159   5.565  25.274  1.00  0.00     0.039 C 
BRANCH  13  17
ATOM     17  C   UNL     1      82.329   6.332  29.110  1.00  0.00     0.066 CG0
ATOM     18  G   UNL     1      81.898   5.246  30.077  1.00  0.00     0.000 G0
ENDBRANCH  13  17
ENDBRANCH  11  13
ENDBRANCH  10  11
ENDBRANCH   1  10
TORSDOF 0
ENDMDL
MODEL 2
REMARK VINA RESULT:    -3.709      1.441      3.623
REMARK INTER + INTRA:          -4.375
REMARK INTER:                  -5.843
REMARK INTRA:                   1.468
REMARK UNBOUND:                 0.852
REMARK SMILES CC1=CCC(=C(C)C)C(=O)CC(C)=CCC1
REMARK SMILES IDX 12 1 14 2 13 3 15 4 16 5 2 6 1 7 3 8 11 10 9 11 10 12 5 13
REMARK SMILES IDX 6 14 7 15 8 16 4 17
REMARK H PARENT
REMARK Flexibility Score: 60.00
ROOT
ATOM      1  C   UNL     1      85.130   3.512  27.920  1.00  0.00    -0.070 C 
ATOM      2  C   UNL     1      84.846   4.491  27.031  1.00  0.00    -0.027 C 
ATOM      3  C   UNL     1      86.481   3.525  28.591  1.00  0.00     0.039 C 
ENDROOT
BRANCH   2   4
ATOM      4  C   UNL     1      83.510   4.709  26.362  1.00  0.00     0.032 C 
BRANCH   4   5
ATOM      5  C   UNL     1      82.948   6.134  26.471  1.00  0.00     0.034 C 
BRANCH   5   6
ATOM      6  C   UNL     1      81.643   6.226  27.238  1.00  0.00    -0.077 C 
ATOM      7  C   UNL     1      80.455   6.836  26.535  1.00  0.00     0.039 C 
ATOM      8  C   UNL     1      81.483   5.864  28.537  1.00  0.00    -0.023 CG0
ATOM      9  G   UNL     1      82.447   5.109  29.432  1.00  0.00     0.000 G0
ENDBRANCH   5   6
ENDBRANCH   4   5
ENDBRANCH   2   4
BRANCH   1  10
ATOM     10  C   UNL     1      84.198   2.356  28.213  1.00  0.00     0.111 C 
BRANCH  10  11
ATOM     11  C   UNL     1      82.771   2.827  28.334  1.00  0.00     0.163 C 
ATOM     12  O   UNL     1      81.962   2.567  27.403  1.00  0.00    -0.294 OA
BRANCH  11  13
ATOM     13  C   UNL     1      82.287   3.597  29.510  1.00  0.00    -0.002 C 
ATOM     14  C   UNL     1      81.597   2.975  30.504  1.00  0.00    -0.069 C 
ATOM     15  C   UNL     1      80.980   3.749  31.646  1.00  0.00     0.039 C 
ATOM     16  C   UNL     1      81.447   1.470  30.511  1.00  0.00     0.039 C 
BRANCH  13  17
ATOM     17  C   UNL     1      82.443   5.106  29.454  1.00  0.00     0.066 CG0
ATOM     18  G   UNL     1      81.495   5.867  28.546  1.00  0.00     0.000 G0
ENDBRANCH  13  17
ENDBRANCH  11  13
ENDBRANCH  10  11
ENDBRANCH   1  10
TORSDOF 0
ENDMDL
MODEL 3
REMARK VINA RESULT:    -3.600      1.729      4.487
REMARK INTER + INTRA:          -4.222
REMARK INTER:                  -7.181
REMARK INTRA:                   2.960
REMARK UNBOUND:                 0.852
REMARK SMILES CC1=CCC(=C(C)C)C(=O)CC(C)=CCC1
REMARK SMILES IDX 12 1 14 2 13 3 15 4 16 5 2 6 1 7 3 8 11 10 9 11 10 12 5 13
REMARK SMILES IDX 6 14 7 15 8 16 4 17
REMARK H PARENT
REMARK Flexibility Score: 60.00
ROOT
ATOM      1  C   UNL     1      82.090   5.723  27.275  1.00  0.00    -0.070 C 
ATOM      2  C   UNL     1      82.529   5.132  26.140  1.00  0.00    -0.027 C 
ATOM      3  C   UNL     1      80.748   6.412  27.249  1.00  0.00     0.039 C 
ENDROOT
BRANCH   2   4
ATOM      4  C   UNL     1      83.779   4.294  26.014  1.00  0.00     0.032 C 
BRANCH   4   5
ATOM      5  C   UNL     1      84.922   4.676  26.965  1.00  0.00     0.034 C 
BRANCH   5   6
ATOM      6  C   UNL     1      85.253   3.611  27.992  1.00  0.00    -0.077 C 
ATOM      7  C   UNL     1      86.702   3.421  28.369  1.00  0.00     0.039 C 
ATOM      8  C   UNL     1      84.347   2.766  28.548  1.00  0.00    -0.023 CG0
ATOM      9  G   UNL     1      82.833   2.815  28.463  1.00  0.00     0.000 G0
ENDBRANCH   5   6
ENDBRANCH   4   5
ENDBRANCH   2   4
BRANCH   1  10
ATOM     10  C   UNL     1      82.910   5.804  28.544  1.00  0.00     0.111 C 
BRANCH  10  11
ATOM     11  C   UNL     1      82.266   5.016  29.657  1.00  0.00     0.163 C 
ATOM     12  O   UNL     1      81.878   5.626  30.690  1.00  0.00    -0.294 OA
BRANCH  11  13
ATOM     13  C   UNL     1      82.083   3.543  29.583  1.00  0.00    -0.002 C 
ATOM     14  C   UNL     1      81.414   2.882  30.566  1.00  0.00    -0.069 C 
ATOM     15  C   UNL     1      81.323   1.373  30.586  1.00  0.00     0.039 C 
ATOM     16  C   UNL     1      80.710   3.645  31.665  1.00  0.00     0.039 C 
BRANCH  13  17
ATOM     17  C   UNL     1      82.820   2.815  28.473  1.00  0.00     0.066 CG0
ATOM     18  G   UNL     1      84.335   2.778  28.557  1.00  0.00     0.000 G0
ENDBRANCH  13  17
ENDBRANCH  11  13
ENDBRANCH  10  11
ENDBRANCH   1  10
TORSDOF 0
ENDMDL
MODEL 4
REMARK VINA RESULT:    -3.372     12.196     13.444
REMARK INTER + INTRA:          -3.900
REMARK INTER:                  -4.095
REMARK INTRA:                   0.195
REMARK UNBOUND:                 0.852
REMARK SMILES CC1=CCC(=C(C)C)C(=O)CC(C)=CCC1
REMARK SMILES IDX 12 1 14 2 13 3 15 4 16 5 2 6 1 7 3 8 11 10 9 11 10 12 5 13
REMARK SMILES IDX 6 14 7 15 8 16 4 17
REMARK H PARENT
REMARK Flexibility Score: 60.00
ROOT
ATOM      1  C   UNL     1      85.303  -8.389  30.621  1.00  0.00    -0.070 C 
ATOM      2  C   UNL     1      84.479  -8.558  31.682  1.00  0.00    -0.027 C 
ATOM      3  C   UNL     1      86.402  -7.362  30.726  1.00  0.00     0.039 C 
ENDROOT
BRANCH   2   4
ATOM      4  C   UNL     1      83.412  -9.619  31.804  1.00  0.00     0.032 C 
BRANCH   4   5
ATOM      5  C   UNL     1      81.973  -9.091  31.907  1.00  0.00     0.034 C 
BRANCH   5   6
ATOM      6  C   UNL     1      81.702  -7.868  31.053  1.00  0.00    -0.077 C 
ATOM      7  C   UNL     1      81.524  -6.544  31.755  1.00  0.00     0.039 C 
ATOM      8  C   UNL     1      81.536  -7.887  29.706  1.00  0.00    -0.023 CG0
ATOM      9  G   UNL     1      81.791  -9.029  28.740  1.00  0.00     0.000 G0
ENDBRANCH   5   6
ENDBRANCH   4   5
ENDBRANCH   2   4
BRANCH   1  10
ATOM     10  C   UNL     1      85.127  -9.116  29.305  1.00  0.00     0.111 C 
BRANCH  10  11
ATOM     11  C   UNL     1      84.235  -8.339  28.371  1.00  0.00     0.163 C 
ATOM     12  O   UNL     1      84.549  -7.155  28.072  1.00  0.00    -0.294 OA
BRANCH  11  13
ATOM     13  C   UNL     1      82.993  -8.918  27.796  1.00  0.00    -0.002 C 
ATOM     14  C   UNL     1      82.906  -9.175  26.463  1.00  0.00    -0.069 C 
ATOM     15  C   UNL     1      81.615  -9.640  25.827  1.00  0.00     0.039 C 
ATOM     16  C   UNL     1      84.117  -9.027  25.570  1.00  0.00     0.039 C 
BRANCH  13  17
ATOM     17  C   UNL     1      81.796  -9.033  28.723  1.00  0.00     0.066 CG0
ATOM     18  G   UNL     1      81.555  -7.886  29.686  1.00  0.00     0.000 G0
ENDBRANCH  13  17
ENDBRANCH  11  13
ENDBRANCH  10  11
ENDBRANCH   1  10
TORSDOF 0
ENDMDL
MODEL 5
REMARK VINA RESULT:    -3.341     12.152     13.576
REMARK INTER + INTRA:          -3.857
REMARK INTER:                  -4.155
REMARK INTRA:                   0.298
REMARK UNBOUND:                 0.852
REMARK SMILES CC1=CCC(=C(C)C)C(=O)CC(C)=CCC1
REMARK SMILES IDX 12 1 14 2 13 3 15 4 16 5 2 6 1 7 3 8 11 10 9 11 10 12 5 13
REMARK SMILES IDX 6 14 7 15 8 16 4 17
REMARK H PARENT
REMARK Flexibility Score: 60.00
ROOT
ATOM      1  C   UNL     1      84.736  -7.999  28.352  1.00  0.00    -0.070 C 
ATOM      2  C   UNL     1      84.303  -8.591  29.490  1.00  0.00    -0.027 C 
ATOM      3  C   UNL     1      85.473  -6.688  28.464  1.00  0.00     0.039 C 
ENDROOT
BRANCH   2   4
ATOM      4  C   UNL     1      83.663  -9.955  29.581  1.00  0.00     0.032 C 
BRANCH   4   5
ATOM      5  C   UNL     1      82.179  -9.958  29.974  1.00  0.00     0.034 C 
BRANCH   5   6
ATOM      6  C   UNL     1      81.418  -8.727  29.521  1.00  0.00    -0.077 C 
ATOM      7  C   UNL     1      81.176  -7.636  30.536  1.00  0.00     0.039 C 
ATOM      8  C   UNL     1      80.876  -8.564  28.287  1.00  0.00    -0.023 CG0
ATOM      9  G   UNL     1      81.074  -9.418  27.049  1.00  0.00     0.000 G0
ENDBRANCH   5   6
ENDBRANCH   4   5
ENDBRANCH   2   4
BRANCH   1  10
ATOM     10  C   UNL     1      84.445  -8.540  26.969  1.00  0.00     0.111 C 
BRANCH  10  11
ATOM     11  C   UNL     1      83.131  -8.018  26.446  1.00  0.00     0.163 C 
ATOM     12  O   UNL     1      82.943  -6.772  26.404  1.00  0.00    -0.294 OA
BRANCH  11  13
ATOM     13  C   UNL     1      82.044  -8.923  25.988  1.00  0.00    -0.002 C 
ATOM     14  C   UNL     1      81.855  -9.152  24.661  1.00  0.00    -0.069 C 
ATOM     15  C   UNL     1      80.681  -9.961  24.156  1.00  0.00     0.039 C 
ATOM     16  C   UNL     1      82.836  -8.623  23.640  1.00  0.00     0.039 C 
BRANCH  13  17
ATOM     17  C   UNL     1      81.073  -9.418  27.044  1.00  0.00     0.066 CG0
ATOM     18  G   UNL     1      80.906  -8.563  28.286  1.00  0.00     0.000 G0
ENDBRANCH  13  17
ENDBRANCH  11  13
ENDBRANCH  10  11
ENDBRANCH   1  10
TORSDOF 0
ENDMDL
MODEL 6
REMARK VINA RESULT:    -3.300      1.975      4.065
REMARK INTER + INTRA:          -3.799
REMARK INTER:                  -5.247
REMARK INTRA:                   1.448
REMARK UNBOUND:                 0.852
REMARK SMILES CC1=CCC(=C(C)C)C(=O)CC(C)=CCC1
REMARK SMILES IDX 12 1 14 2 13 3 15 4 16 5 2 6 1 7 3 8 11 10 9 11 10 12 5 13
REMARK SMILES IDX 6 14 7 15 8 16 4 17
REMARK H PARENT
REMARK Flexibility Score: 60.00
ROOT
ATOM      1  C   UNL     1      81.894   3.628  30.158  1.00  0.00    -0.070 C 
ATOM      2  C   UNL     1      81.552   4.911  30.421  1.00  0.00    -0.027 C 
ATOM      3  C   UNL     1      80.992   2.530  30.664  1.00  0.00     0.039 C 
ENDROOT
BRANCH   2   4
ATOM      4  C   UNL     1      82.261   6.134  29.892  1.00  0.00     0.032 C 
BRANCH   4   5
ATOM      5  C   UNL     1      82.636   6.081  28.404  1.00  0.00     0.034 C 
BRANCH   5   6
ATOM      6  C   UNL     1      81.450   6.181  27.464  1.00  0.00    -0.077 C 
ATOM      7  C   UNL     1      80.520   7.357  27.627  1.00  0.00     0.039 C 
ATOM      8  C   UNL     1      81.124   5.251  26.530  1.00  0.00    -0.023 CG0
ATOM      9  G   UNL     1      81.937   4.060  26.059  1.00  0.00     0.000 G0
ENDBRANCH   5   6
ENDBRANCH   4   5
ENDBRANCH   2   4
BRANCH   1  10
ATOM     10  C   UNL     1      83.176   3.234  29.457  1.00  0.00     0.111 C 
BRANCH  10  11
ATOM     11  C   UNL     1      82.905   2.778  28.046  1.00  0.00     0.163 C 
ATOM     12  O   UNL     1      82.463   1.613  27.856  1.00  0.00    -0.294 OA
BRANCH  11  13
ATOM     13  C   UNL     1      83.152   3.653  26.869  1.00  0.00    -0.002 C 
ATOM     14  C   UNL     1      84.386   4.182  26.652  1.00  0.00    -0.069 C 
ATOM     15  C   UNL     1      84.637   5.177  25.542  1.00  0.00     0.039 C 
ATOM     16  C   UNL     1      85.563   3.767  27.505  1.00  0.00     0.039 C 
BRANCH  13  17
ATOM     17  C   UNL     1      81.939   4.057  26.050  1.00  0.00     0.066 CG0
ATOM     18  G   UNL     1      81.136   5.246  26.543  1.00  0.00     0.000 G0
ENDBRANCH  13  17
ENDBRANCH  11  13
ENDBRANCH  10  11
ENDBRANCH   1  10
TORSDOF 0
ENDMDL
MODEL 7
REMARK VINA RESULT:    -3.001     12.541     14.134
REMARK INTER + INTRA:          -3.377
REMARK INTER:                  -3.725
REMARK INTRA:                   0.348
REMARK UNBOUND:                 0.852
REMARK SMILES CC1=CCC(=C(C)C)C(=O)CC(C)=CCC1
REMARK SMILES IDX 12 1 14 2 13 3 15 4 16 5 2 6 1 7 3 8 11 10 9 11 10 12 5 13
REMARK SMILES IDX 6 14 7 15 8 16 4 17
REMARK H PARENT
REMARK Flexibility Score: 60.00
ROOT
ATOM      1  C   UNL     1      81.228  -8.686  29.176  1.00  0.00    -0.070 C 
ATOM      2  C   UNL     1      80.748  -8.456  27.932  1.00  0.00    -0.027 C 
ATOM      3  C   UNL     1      81.112  -7.586  30.201  1.00  0.00     0.039 C 
ENDROOT
BRANCH   2   4
ATOM      4  C   UNL     1      80.664  -9.476  26.821  1.00  0.00     0.032 C 
BRANCH   4   5
ATOM      5  C   UNL     1      82.009  -9.884  26.203  1.00  0.00     0.034 C 
BRANCH   5   6
ATOM      6  C   UNL     1      82.983  -8.734  26.031  1.00  0.00    -0.077 C 
ATOM      7  C   UNL     1      82.669  -7.696  24.981  1.00  0.00     0.039 C 
ATOM      8  C   UNL     1      84.155  -8.607  26.704  1.00  0.00    -0.023 CG0
ATOM      9  G   UNL     1      84.654  -9.410  27.891  1.00  0.00     0.000 G0
ENDBRANCH   5   6
ENDBRANCH   4   5
ENDBRANCH   2   4
BRANCH   1  10
ATOM     10  C   UNL     1      81.949  -9.957  29.570  1.00  0.00     0.111 C 
BRANCH  10  11
ATOM     11  C   UNL     1      83.338  -9.660  30.073  1.00  0.00     0.163 C 
ATOM     12  O   UNL     1      83.679 -10.085  31.210  1.00  0.00    -0.294 OA
BRANCH  11  13
ATOM     13  C   UNL     1      84.318  -8.872  29.279  1.00  0.00    -0.002 C 
ATOM     14  C   UNL     1      84.744  -7.658  29.720  1.00  0.00    -0.069 C 
ATOM     15  C   UNL     1      85.636  -6.777  28.876  1.00  0.00     0.039 C 
ATOM     16  C   UNL     1      84.356  -7.159  31.093  1.00  0.00     0.039 C 
BRANCH  13  17
ATOM     17  C   UNL     1      84.666  -9.402  27.899  1.00  0.00     0.066 CG0
ATOM     18  G   UNL     1      84.158  -8.613  26.707  1.00  0.00     0.000 G0
ENDBRANCH  13  17
ENDBRANCH  11  13
ENDBRANCH  10  11
ENDBRANCH   1  10
TORSDOF 0
ENDMDL
MODEL 8
REMARK VINA RESULT:    -2.850      1.621      3.449
REMARK INTER + INTRA:          -3.164
REMARK INTER:                  -3.936
REMARK INTRA:                   0.772
REMARK UNBOUND:                 0.852
REMARK SMILES CC1=CCC(=C(C)C)C(=O)CC(C)=CCC1
REMARK SMILES IDX 12 1 14 2 13 3 15 4 16 5 2 6 1 7 3 8 11 10 9 11 10 12 5 13
REMARK SMILES IDX 6 14 7 15 8 16 4 17
REMARK H PARENT
REMARK Flexibility Score: 60.00
ROOT
ATOM      1  C   UNL     1      81.840   3.556  30.075  1.00  0.00    -0.070 C 
ATOM      2  C   UNL     1      82.685   2.546  29.764  1.00  0.00    -0.027 C 
ATOM      3  C   UNL     1      81.488   3.773  31.525  1.00  0.00     0.039 C 
ENDROOT
BRANCH   2   4
ATOM      4  C   UNL     1      83.246   2.260  28.392  1.00  0.00     0.032 C 
BRANCH   4   5
ATOM      5  C   UNL     1      84.778   2.199  28.310  1.00  0.00     0.034 C 
BRANCH   5   6
ATOM      6  C   UNL     1      85.436   3.538  28.042  1.00  0.00    -0.077 C 
ATOM      7  C   UNL     1      86.791   3.792  28.657  1.00  0.00     0.039 C 
ATOM      8  C   UNL     1      84.865   4.555  27.348  1.00  0.00    -0.023 CG0
ATOM      9  G   UNL     1      83.596   4.535  26.517  1.00  0.00     0.000 G0
ENDBRANCH   5   6
ENDBRANCH   4   5
ENDBRANCH   2   4
BRANCH   1  10
ATOM     10  C   UNL     1      81.165   4.426  29.037  1.00  0.00     0.111 C 
BRANCH  10  11
ATOM     11  C   UNL     1      82.139   5.405  28.432  1.00  0.00     0.163 C 
ATOM     12  O   UNL     1      82.705   6.245  29.183  1.00  0.00    -0.294 OA
BRANCH  11  13
ATOM     13  C   UNL     1      82.447   5.421  26.978  1.00  0.00    -0.002 C 
ATOM     14  C   UNL     1      81.624   6.065  26.107  1.00  0.00    -0.069 C 
ATOM     15  C   UNL     1      81.837   5.990  24.612  1.00  0.00     0.039 C 
ATOM     16  C   UNL     1      80.475   6.907  26.614  1.00  0.00     0.039 C 
BRANCH  13  17
ATOM     17  C   UNL     1      83.598   4.548  26.511  1.00  0.00     0.066 CG0
ATOM     18  G   UNL     1      84.860   4.559  27.353  1.00  0.00     0.000 G0
ENDBRANCH  13  17
ENDBRANCH  11  13
ENDBRANCH  10  11
ENDBRANCH   1  10
TORSDOF 0
ENDMDL
MODEL 9
REMARK VINA RESULT:    -2.697     11.992     13.902
REMARK INTER + INTRA:          -2.950
REMARK INTER:                  -4.306
REMARK INTRA:                   1.357
REMARK UNBOUND:                 0.852
REMARK SMILES CC1=CCC(=C(C)C)C(=O)CC(C)=CCC1
REMARK SMILES IDX 12 1 14 2 13 3 15 4 16 5 2 6 1 7 3 8 11 10 9 11 10 12 5 13
REMARK SMILES IDX 6 14 7 15 8 16 4 17
REMARK H PARENT
REMARK Flexibility Score: 60.00
ROOT
ATOM      1  C   UNL     1      81.470  -8.711  29.968  1.00  0.00    -0.070 C 
ATOM      2  C   UNL     1      82.494  -9.497  30.374  1.00  0.00    -0.027 C 
ATOM      3  C   UNL     1      80.286  -8.546  30.888  1.00  0.00     0.039 C 
ENDROOT
BRANCH   2   4
ATOM      4  C   UNL     1      83.804  -9.677  29.647  1.00  0.00     0.032 C 
BRANCH   4   5
ATOM      5  C   UNL     1      84.861  -8.598  29.924  1.00  0.00     0.034 C 
BRANCH   5   6
ATOM      6  C   UNL     1      84.949  -7.530  28.851  1.00  0.00    -0.077 C 
ATOM      7  C   UNL     1      85.508  -6.183  29.241  1.00  0.00     0.039 C 
ATOM      8  C   UNL     1      84.495  -7.673  27.579  1.00  0.00    -0.023 CG0
ATOM      9  G   UNL     1      84.022  -8.934  26.882  1.00  0.00     0.000 G0
ENDBRANCH   5   6
ENDBRANCH   4   5
ENDBRANCH   2   4
BRANCH   1  10
ATOM     10  C   UNL     1      81.411  -8.058  28.604  1.00  0.00     0.111 C 
BRANCH  10  11
ATOM     11  C   UNL     1      81.545  -9.082  27.505  1.00  0.00     0.163 C 
ATOM     12  O   UNL     1      80.773 -10.079  27.503  1.00  0.00    -0.294 OA
BRANCH  11  13
ATOM     13  C   UNL     1      82.564  -8.961  26.429  1.00  0.00    -0.002 C 
ATOM     14  C   UNL     1      82.196  -9.039  25.122  1.00  0.00    -0.069 C 
ATOM     15  C   UNL     1      83.220  -9.051  24.010  1.00  0.00     0.039 C 
ATOM     16  C   UNL     1      80.735  -9.090  24.735  1.00  0.00     0.039 C 
BRANCH  13  17
ATOM     17  C   UNL     1      84.018  -8.929  26.862  1.00  0.00     0.066 CG0
ATOM     18  G   UNL     1      84.501  -7.681  27.576  1.00  0.00     0.000 G0
ENDBRANCH  13  17
ENDBRANCH  11  13
ENDBRANCH  10  11
ENDBRANCH   1  10
TORSDOF 0
ENDMDL
