MODEL 1
REMARK VINA RESULT:    -4.353      0.000      0.000
REMARK INTER + INTRA:          -4.353
REMARK INTER:                  -4.353
REMARK INTRA:                   0.000
REMARK UNBOUND:                 0.000
REMARK SMILES CC1=CC(=O)[C@@H]2C[C@H]1C2(C)C
REMARK SMILES IDX 1 1 2 2 3 3 4 4 5 5 6 6 7 7 8 8 9 9 10 10 11 11
REMARK H PARENT
REMARK Flexibility Score: inf
ROOT
ATOM      1  C   UNL     1      16.886   6.134  26.486  1.00  0.00     0.040 C 
ATOM      2  C   UNL     1      16.293   7.416  25.992  1.00  0.00    -0.066 C 
ATOM      3  C   UNL     1      17.044   8.329  25.314  1.00  0.00     0.047 C 
ATOM      4  C   UNL     1      16.326   9.558  24.844  1.00  0.00     0.159 C 
ATOM      5  O   UNL     1      16.901  10.456  24.175  1.00  0.00    -0.295 OA
ATOM      6  C   UNL     1      14.851   9.644  25.234  1.00  0.00     0.067 C 
ATOM      7  C   UNL     1      14.830   9.241  26.725  1.00  0.00     0.021 C 
ATOM      8  C   UNL     1      14.813   7.775  26.239  1.00  0.00     0.022 C 
ATOM      9  C   UNL     1      14.174   8.282  24.913  1.00  0.00    -0.019 C 
ATOM     10  C   UNL     1      14.557   7.560  23.590  1.00  0.00     0.012 C 
ATOM     11  C   UNL     1      12.629   8.357  24.994  1.00  0.00     0.012 C 
ENDROOT
TORSDOF 0
ENDMDL
MODEL 2
REMARK VINA RESULT:    -4.128      1.819      3.496
REMARK INTER + INTRA:          -4.128
REMARK INTER:                  -4.128
REMARK INTRA:                   0.000
REMARK UNBOUND:                 0.000
REMARK SMILES CC1=CC(=O)[C@@H]2C[C@H]1C2(C)C
REMARK SMILES IDX 1 1 2 2 3 3 4 4 5 5 6 6 7 7 8 8 9 9 10 10 11 11
REMARK H PARENT
REMARK Flexibility Score: inf
ROOT
ATOM      1  C   UNL     1      13.078   7.244  23.448  1.00  0.00     0.040 C 
ATOM      2  C   UNL     1      13.797   7.906  24.581  1.00  0.00    -0.066 C 
ATOM      3  C   UNL     1      13.141   8.280  25.715  1.00  0.00     0.047 C 
ATOM      4  C   UNL     1      13.979   8.904  26.790  1.00  0.00     0.159 C 
ATOM      5  O   UNL     1      13.496   9.256  27.898  1.00  0.00    -0.295 OA
ATOM      6  C   UNL     1      15.458   9.082  26.446  1.00  0.00     0.067 C 
ATOM      7  C   UNL     1      15.446   9.667  25.018  1.00  0.00     0.021 C 
ATOM      8  C   UNL     1      15.308   8.213  24.516  1.00  0.00     0.022 C 
ATOM      9  C   UNL     1      15.988   7.753  25.838  1.00  0.00    -0.019 C 
ATOM     10  C   UNL     1      15.524   6.412  26.476  1.00  0.00     0.012 C 
ATOM     11  C   UNL     1      17.533   7.729  25.730  1.00  0.00     0.012 C 
ENDROOT
TORSDOF 0
ENDMDL
MODEL 3
REMARK VINA RESULT:    -4.005      4.524      5.649
REMARK INTER + INTRA:          -4.005
REMARK INTER:                  -4.005
REMARK INTRA:                   0.000
REMARK UNBOUND:                 0.000
REMARK SMILES CC1=CC(=O)[C@@H]2C[C@H]1C2(C)C
REMARK SMILES IDX 1 1 2 2 3 3 4 4 5 5 6 6 7 7 8 8 9 9 10 10 11 11
REMARK H PARENT
REMARK Flexibility Score: inf
ROOT
ATOM      1  C   UNL     1      15.190  11.242  27.221  1.00  0.00     0.040 C 
ATOM      2  C   UNL     1      15.767  12.482  26.615  1.00  0.00    -0.066 C 
ATOM      3  C   UNL     1      16.832  12.427  25.767  1.00  0.00     0.047 C 
ATOM      4  C   UNL     1      17.296  13.736  25.202  1.00  0.00     0.159 C 
ATOM      5  O   UNL     1      18.245  13.813  24.378  1.00  0.00    -0.295 OA
ATOM      6  C   UNL     1      16.538  14.969  25.695  1.00  0.00     0.067 C 
ATOM      7  C   UNL     1      16.434  14.762  27.222  1.00  0.00     0.021 C 
ATOM      8  C   UNL     1      15.199  13.882  26.932  1.00  0.00     0.022 C 
ATOM      9  C   UNL     1      15.013  14.678  25.608  1.00  0.00    -0.019 C 
ATOM     10  C   UNL     1      14.475  13.917  24.363  1.00  0.00     0.012 C 
ATOM     11  C   UNL     1      14.157  15.955  25.803  1.00  0.00     0.012 C 
ENDROOT
TORSDOF 0
ENDMDL
MODEL 4
REMARK VINA RESULT:    -3.874      1.777      3.032
REMARK INTER + INTRA:          -3.874
REMARK INTER:                  -3.874
REMARK INTRA:                   0.000
REMARK UNBOUND:                 0.000
REMARK SMILES CC1=CC(=O)[C@@H]2C[C@H]1C2(C)C
REMARK SMILES IDX 1 1 2 2 3 3 4 4 5 5 6 6 7 7 8 8 9 9 10 10 11 11
REMARK H PARENT
REMARK Flexibility Score: inf
ROOT
ATOM      1  C   UNL     1      16.803  10.396  24.639  1.00  0.00     0.040 C 
ATOM      2  C   UNL     1      16.049   9.177  25.067  1.00  0.00    -0.066 C 
ATOM      3  C   UNL     1      16.670   8.152  25.716  1.00  0.00     0.047 C 
ATOM      4  C   UNL     1      15.799   7.000  26.120  1.00  0.00     0.159 C 
ATOM      5  O   UNL     1      16.247   6.012  26.758  1.00  0.00    -0.295 OA
ATOM      6  C   UNL     1      14.332   7.111  25.704  1.00  0.00     0.067 C 
ATOM      7  C   UNL     1      14.391   7.575  24.232  1.00  0.00     0.021 C 
ATOM      8  C   UNL     1      14.542   9.011  24.782  1.00  0.00     0.022 C 
ATOM      9  C   UNL     1      13.819   8.532  26.074  1.00  0.00    -0.019 C 
ATOM     10  C   UNL     1      14.260   9.145  27.433  1.00  0.00     0.012 C 
ATOM     11  C   UNL     1      12.278   8.649  25.966  1.00  0.00     0.012 C 
ENDROOT
TORSDOF 0
ENDMDL
MODEL 5
REMARK VINA RESULT:    -3.859      4.609      6.290
REMARK INTER + INTRA:          -3.859
REMARK INTER:                  -3.859
REMARK INTRA:                   0.000
REMARK UNBOUND:                 0.000
REMARK SMILES CC1=CC(=O)[C@@H]2C[C@H]1C2(C)C
REMARK SMILES IDX 1 1 2 2 3 3 4 4 5 5 6 6 7 7 8 8 9 9 10 10 11 11
REMARK H PARENT
REMARK Flexibility Score: inf
ROOT
ATOM      1  C   UNL     1      14.314  15.803  24.719  1.00  0.00     0.040 C 
ATOM      2  C   UNL     1      15.309  14.929  25.414  1.00  0.00    -0.066 C 
ATOM      3  C   UNL     1      15.615  15.111  26.730  1.00  0.00     0.047 C 
ATOM      4  C   UNL     1      16.603  14.151  27.319  1.00  0.00     0.159 C 
ATOM      5  O   UNL     1      16.938  14.191  28.532  1.00  0.00    -0.295 OA
ATOM      6  C   UNL     1      17.176  13.120  26.345  1.00  0.00     0.067 C 
ATOM      7  C   UNL     1      17.531  13.945  25.089  1.00  0.00     0.021 C 
ATOM      8  C   UNL     1      16.050  13.794  24.676  1.00  0.00     0.022 C 
ATOM      9  C   UNL     1      16.002  12.498  25.537  1.00  0.00    -0.019 C 
ATOM     10  C   UNL     1      14.682  12.164  26.289  1.00  0.00     0.012 C 
ATOM     11  C   UNL     1      16.435  11.243  24.739  1.00  0.00     0.012 C 
ENDROOT
TORSDOF 0
ENDMDL
MODEL 6
REMARK VINA RESULT:    -3.850      4.748      6.139
REMARK INTER + INTRA:          -3.850
REMARK INTER:                  -3.850
REMARK INTRA:                   0.000
REMARK UNBOUND:                 0.000
REMARK SMILES CC1=CC(=O)[C@@H]2C[C@H]1C2(C)C
REMARK SMILES IDX 1 1 2 2 3 3 4 4 5 5 6 6 7 7 8 8 9 9 10 10 11 11
REMARK H PARENT
REMARK Flexibility Score: inf
ROOT
ATOM      1  C   UNL     1      17.093  13.963  29.023  1.00  0.00     0.040 C 
ATOM      2  C   UNL     1      16.616  13.715  27.627  1.00  0.00    -0.066 C 
ATOM      3  C   UNL     1      16.243  12.470  27.216  1.00  0.00     0.047 C 
ATOM      4  C   UNL     1      15.754  12.359  25.804  1.00  0.00     0.159 C 
ATOM      5  O   UNL     1      15.345  11.271  25.319  1.00  0.00    -0.295 OA
ATOM      6  C   UNL     1      15.784  13.656  24.995  1.00  0.00     0.067 C 
ATOM      7  C   UNL     1      17.171  14.260  25.302  1.00  0.00     0.021 C 
ATOM      8  C   UNL     1      16.537  14.848  26.582  1.00  0.00     0.022 C 
ATOM      9  C   UNL     1      15.161  14.791  25.857  1.00  0.00    -0.019 C 
ATOM     10  C   UNL     1      13.897  14.466  26.704  1.00  0.00     0.012 C 
ATOM     11  C   UNL     1      14.876  16.070  25.031  1.00  0.00     0.012 C 
ENDROOT
TORSDOF 0
ENDMDL
MODEL 7
REMARK VINA RESULT:    -3.843      4.577      5.965
REMARK INTER + INTRA:          -3.843
REMARK INTER:                  -3.843
REMARK INTRA:                   0.000
REMARK UNBOUND:                 0.000
REMARK SMILES CC1=CC(=O)[C@@H]2C[C@H]1C2(C)C
REMARK SMILES IDX 1 1 2 2 3 3 4 4 5 5 6 6 7 7 8 8 9 9 10 10 11 11
REMARK H PARENT
REMARK Flexibility Score: inf
ROOT
ATOM      1  C   UNL     1      16.772  13.997  28.748  1.00  0.00     0.040 C 
ATOM      2  C   UNL     1      16.131  14.007  27.396  1.00  0.00    -0.066 C 
ATOM      3  C   UNL     1      15.666  15.161  26.841  1.00  0.00     0.047 C 
ATOM      4  C   UNL     1      15.074  15.044  25.469  1.00  0.00     0.159 C 
ATOM      5  O   UNL     1      14.645  16.044  24.835  1.00  0.00    -0.295 OA
ATOM      6  C   UNL     1      15.027  13.628  24.894  1.00  0.00     0.067 C 
ATOM      7  C   UNL     1      14.494  12.766  26.058  1.00  0.00     0.021 C 
ATOM      8  C   UNL     1      15.950  12.714  26.573  1.00  0.00     0.022 C 
ATOM      9  C   UNL     1      16.416  12.962  25.109  1.00  0.00    -0.019 C 
ATOM     10  C   UNL     1      17.691  13.821  24.879  1.00  0.00     0.012 C 
ATOM     11  C   UNL     1      16.568  11.645  24.308  1.00  0.00     0.012 C 
ENDROOT
TORSDOF 0
ENDMDL
MODEL 8
REMARK VINA RESULT:    -3.801      4.599      6.330
REMARK INTER + INTRA:          -3.801
REMARK INTER:                  -3.801
REMARK INTRA:                   0.000
REMARK UNBOUND:                 0.000
REMARK SMILES CC1=CC(=O)[C@@H]2C[C@H]1C2(C)C
REMARK SMILES IDX 1 1 2 2 3 3 4 4 5 5 6 6 7 7 8 8 9 9 10 10 11 11
REMARK H PARENT
REMARK Flexibility Score: inf
ROOT
ATOM      1  C   UNL     1      14.059  16.235  26.351  1.00  0.00     0.040 C 
ATOM      2  C   UNL     1      14.959  15.063  26.118  1.00  0.00    -0.066 C 
ATOM      3  C   UNL     1      16.122  15.192  25.419  1.00  0.00     0.047 C 
ATOM      4  C   UNL     1      16.952  13.951  25.282  1.00  0.00     0.159 C 
ATOM      5  O   UNL     1      18.064  13.949  24.693  1.00  0.00    -0.295 OA
ATOM      6  C   UNL     1      16.353  12.690  25.906  1.00  0.00     0.067 C 
ATOM      7  C   UNL     1      14.878  12.706  25.448  1.00  0.00     0.021 C 
ATOM      8  C   UNL     1      14.609  13.653  26.638  1.00  0.00     0.022 C 
ATOM      9  C   UNL     1      15.855  13.035  27.338  1.00  0.00    -0.019 C 
ATOM     10  C   UNL     1      16.736  13.962  28.223  1.00  0.00     0.012 C 
ATOM     11  C   UNL     1      15.502  11.771  28.161  1.00  0.00     0.012 C 
ENDROOT
TORSDOF 0
ENDMDL
MODEL 9
REMARK VINA RESULT:    -3.674      8.169      9.471
REMARK INTER + INTRA:          -3.674
REMARK INTER:                  -3.674
REMARK INTRA:                   0.000
REMARK UNBOUND:                 0.000
REMARK SMILES CC1=CC(=O)[C@@H]2C[C@H]1C2(C)C
REMARK SMILES IDX 1 1 2 2 3 3 4 4 5 5 6 6 7 7 8 8 9 9 10 10 11 11
REMARK H PARENT
REMARK Flexibility Score: inf
ROOT
ATOM      1  C   UNL     1      15.631   2.763  14.966  1.00  0.00     0.040 C 
ATOM      2  C   UNL     1      15.099   3.258  16.274  1.00  0.00    -0.066 C 
ATOM      3  C   UNL     1      15.221   2.521  17.413  1.00  0.00     0.047 C 
ATOM      4  C   UNL     1      14.677   3.141  18.664  1.00  0.00     0.159 C 
ATOM      5  O   UNL     1      14.764   2.576  19.786  1.00  0.00    -0.295 OA
ATOM      6  C   UNL     1      14.010   4.505  18.483  1.00  0.00     0.067 C 
ATOM      7  C   UNL     1      13.114   4.325  17.239  1.00  0.00     0.021 C 
ATOM      8  C   UNL     1      14.375   4.615  16.395  1.00  0.00     0.022 C 
ATOM      9  C   UNL     1      14.941   5.398  17.615  1.00  0.00    -0.019 C 
ATOM     10  C   UNL     1      16.473   5.343  17.877  1.00  0.00     0.012 C 
ATOM     11  C   UNL     1      14.502   6.884  17.618  1.00  0.00     0.012 C 
ENDROOT
TORSDOF 0
ENDMDL
