MODEL 1
REMARK VINA RESULT:    -4.714      0.000      0.000
REMARK INTER + INTRA:          -7.020
REMARK INTER:                  -6.368
REMARK INTRA:                  -0.652
REMARK UNBOUND:                -0.652
REMARK SMILES COc1ccc(-c2cc(=O)c3c(OC)c(OC)c(OC)c(OC)c3o2)cc1
REMARK SMILES IDX 7 1 8 2 9 3 10 4 11 5 24 6 25 7 21 8 18 9 15 10 12 11 6 12
REMARK SMILES IDX 3 13 4 14 27 15 5 16 26 17 2 18 1 19 22 20 23 21 13 22 14 23
REMARK SMILES IDX 19 24 20 25 16 26 17 27
REMARK H PARENT
REMARK Flexibility Score: inf
ROOT
ATOM      1  C   UNL     1       1.929  -1.495  -8.161  1.00  0.00     0.138 A 
ATOM      2  C   UNL     1       1.729  -1.280  -9.529  1.00  0.00     0.100 A 
ATOM      3  C   UNL     1       0.757  -2.015 -10.199  1.00  0.00     0.197 A 
ATOM      4  O   UNL     1       0.587  -1.805 -11.431  1.00  0.00    -0.289 OA
ATOM      5  C   UNL     1      -0.017  -2.968  -9.495  1.00  0.00     0.115 A 
ATOM      6  C   UNL     1       0.256  -3.149  -8.119  1.00  0.00     0.188 A 
ATOM      7  O   UNL     1       1.201  -2.414  -7.533  1.00  0.00    -0.452 OA
ATOM      8  C   UNL     1      -0.475  -4.095  -7.362  1.00  0.00     0.209 A 
ATOM      9  C   UNL     1      -1.534  -4.813  -7.974  1.00  0.00     0.211 A 
ATOM     10  C   UNL     1      -1.814  -4.620  -9.352  1.00  0.00     0.208 A 
ATOM     11  C   UNL     1      -1.023  -3.738 -10.119  1.00  0.00     0.179 A 
ENDROOT
BRANCH   1  12
ATOM     12  C   UNL     1       2.939  -0.727  -7.395  1.00  0.00     0.018 A 
ATOM     13  C   UNL     1       4.829   0.784  -5.937  1.00  0.00     0.118 A 
ATOM     14  C   UNL     1       5.227   0.035  -7.050  1.00  0.00     0.047 A 
ATOM     15  C   UNL     1       3.475   0.776  -5.555  1.00  0.00     0.047 A 
ATOM     16  C   UNL     1       4.295  -0.712  -7.776  1.00  0.00     0.016 A 
ATOM     17  C   UNL     1       2.542   0.029  -6.280  1.00  0.00     0.016 A 
BRANCH  13  18
ATOM     18  O   UNL     1       5.801   1.519  -5.245  1.00  0.00    -0.497 OA
ATOM     19  C   UNL     1       6.146   2.869  -5.532  1.00  0.00     0.278 C 
ENDBRANCH  13  18
ENDBRANCH   1  12
BRANCH   8  20
ATOM     20  O   UNL     1      -0.188  -4.353  -6.008  1.00  0.00    -0.490 OA
ATOM     21  C   UNL     1      -0.720  -3.674  -4.876  1.00  0.00     0.278 C 
ENDBRANCH   8  20
BRANCH  11  22
ATOM     22  O   UNL     1      -1.238  -3.576 -11.500  1.00  0.00    -0.492 OA
ATOM     23  C   UNL     1      -0.901  -4.537 -12.501  1.00  0.00     0.278 C 
ENDBRANCH  11  22
BRANCH   9  24
ATOM     24  O   UNL     1      -2.322  -5.741  -7.265  1.00  0.00    -0.490 OA
ATOM     25  C   UNL     1      -2.089  -7.137  -7.104  1.00  0.00     0.279 C 
ENDBRANCH   9  24
BRANCH  10  26
ATOM     26  O   UNL     1      -2.888  -5.254 -10.008  1.00  0.00    -0.490 OA
ATOM     27  C   UNL     1      -4.244  -4.823 -10.077  1.00  0.00     0.278 C 
ENDBRANCH  10  26
TORSDOF 6
ENDMDL
MODEL 2
REMARK VINA RESULT:    -4.687      5.180      8.942
REMARK INTER + INTRA:          -6.983
REMARK INTER:                  -6.339
REMARK INTRA:                  -0.644
REMARK UNBOUND:                -0.652
REMARK SMILES COc1ccc(-c2cc(=O)c3c(OC)c(OC)c(OC)c(OC)c3o2)cc1
REMARK SMILES IDX 7 1 8 2 9 3 10 4 11 5 24 6 25 7 21 8 18 9 15 10 12 11 6 12
REMARK SMILES IDX 3 13 4 14 27 15 5 16 26 17 2 18 1 19 22 20 23 21 13 22 14 23
REMARK SMILES IDX 19 24 20 25 16 26 17 27
REMARK H PARENT
REMARK Flexibility Score: inf
ROOT
ATOM      1  C   UNL     1      -1.812   1.477  -8.026  1.00  0.00     0.138 A 
ATOM      2  C   UNL     1      -1.687   1.270  -9.404  1.00  0.00     0.100 A 
ATOM      3  C   UNL     1      -0.750   2.008 -10.121  1.00  0.00     0.197 A 
ATOM      4  O   UNL     1      -0.648   1.806 -11.361  1.00  0.00    -0.289 OA
ATOM      5  C   UNL     1       0.062   2.956  -9.454  1.00  0.00     0.115 A 
ATOM      6  C   UNL     1      -0.137   3.128  -8.064  1.00  0.00     0.188 A 
ATOM      7  O   UNL     1      -1.049   2.391  -7.433  1.00  0.00    -0.452 OA
ATOM      8  C   UNL     1       0.636   4.068  -7.342  1.00  0.00     0.209 A 
ATOM      9  C   UNL     1       1.662   4.789  -8.005  1.00  0.00     0.211 A 
ATOM     10  C   UNL     1       1.867   4.605  -9.397  1.00  0.00     0.208 A 
ATOM     11  C   UNL     1       1.034   3.728 -10.126  1.00  0.00     0.179 A 
ENDROOT
BRANCH   1  12
ATOM     12  C   UNL     1      -2.781   0.706  -7.211  1.00  0.00     0.018 A 
ATOM     13  C   UNL     1      -4.593  -0.812  -5.665  1.00  0.00     0.118 A 
ATOM     14  C   UNL     1      -5.053  -0.030  -6.731  1.00  0.00     0.047 A 
ATOM     15  C   UNL     1      -3.217  -0.833  -5.375  1.00  0.00     0.047 A 
ATOM     16  C   UNL     1      -4.159   0.721  -7.500  1.00  0.00     0.016 A 
ATOM     17  C   UNL     1      -2.322  -0.083  -6.144  1.00  0.00     0.016 A 
BRANCH  13  18
ATOM     18  O   UNL     1      -5.528  -1.549  -4.926  1.00  0.00    -0.497 OA
ATOM     19  C   UNL     1      -5.952  -2.868  -5.250  1.00  0.00     0.278 C 
ENDBRANCH  13  18
ENDBRANCH   1  12
BRANCH   8  20
ATOM     20  O   UNL     1       0.423   4.318  -5.972  1.00  0.00    -0.490 OA
ATOM     21  C   UNL     1       1.052   3.666  -4.875  1.00  0.00     0.278 C 
ENDBRANCH   8  20
BRANCH  11  22
ATOM     22  O   UNL     1       1.174   3.575 -11.518  1.00  0.00    -0.492 OA
ATOM     23  C   UNL     1       0.782   4.540 -12.494  1.00  0.00     0.278 C 
ENDBRANCH  11  22
BRANCH   9  24
ATOM     24  O   UNL     1       2.488   5.711  -7.334  1.00  0.00    -0.490 OA
ATOM     25  C   UNL     1       2.231   7.089  -7.083  1.00  0.00     0.279 C 
ENDBRANCH   9  24
BRANCH  10  26
ATOM     26  O   UNL     1       2.905   5.241 -10.106  1.00  0.00    -0.490 OA
ATOM     27  C   UNL     1       4.263   4.826 -10.223  1.00  0.00     0.278 C 
ENDBRANCH  10  26
TORSDOF 6
ENDMDL
MODEL 3
REMARK VINA RESULT:    -4.390      5.393      9.401
REMARK INTER + INTRA:          -6.582
REMARK INTER:                  -5.875
REMARK INTRA:                  -0.707
REMARK UNBOUND:                -0.652
REMARK SMILES COc1ccc(-c2cc(=O)c3c(OC)c(OC)c(OC)c(OC)c3o2)cc1
REMARK SMILES IDX 7 1 8 2 9 3 10 4 11 5 24 6 25 7 21 8 18 9 15 10 12 11 6 12
REMARK SMILES IDX 3 13 4 14 27 15 5 16 26 17 2 18 1 19 22 20 23 21 13 22 14 23
REMARK SMILES IDX 19 24 20 25 16 26 17 27
REMARK H PARENT
REMARK Flexibility Score: inf
ROOT
ATOM      1  C   UNL     1      -0.653   2.139  -7.609  1.00  0.00     0.138 A 
ATOM      2  C   UNL     1       0.210   2.743  -6.688  1.00  0.00     0.100 A 
ATOM      3  C   UNL     1       1.198   3.609  -7.147  1.00  0.00     0.197 A 
ATOM      4  O   UNL     1       1.963   4.148  -6.303  1.00  0.00    -0.289 OA
ATOM      5  C   UNL     1       1.320   3.868  -8.533  1.00  0.00     0.115 A 
ATOM      6  C   UNL     1       0.427   3.204  -9.407  1.00  0.00     0.188 A 
ATOM      7  O   UNL     1      -0.498   2.386  -8.907  1.00  0.00    -0.452 OA
ATOM      8  C   UNL     1       0.506   3.412 -10.804  1.00  0.00     0.209 A 
ATOM      9  C   UNL     1       1.440   4.347 -11.321  1.00  0.00     0.211 A 
ATOM     10  C   UNL     1       2.325   5.022 -10.441  1.00  0.00     0.208 A 
ATOM     11  C   UNL     1       2.297   4.743  -9.058  1.00  0.00     0.179 A 
ENDROOT
BRANCH   1  12
ATOM     12  C   UNL     1      -1.734   1.223  -7.173  1.00  0.00     0.018 A 
ATOM     13  C   UNL     1      -3.754  -0.567  -6.340  1.00  0.00     0.118 A 
ATOM     14  C   UNL     1      -3.950   0.252  -7.458  1.00  0.00     0.047 A 
ATOM     15  C   UNL     1      -2.537  -0.489  -5.639  1.00  0.00     0.047 A 
ATOM     16  C   UNL     1      -2.952   1.137  -7.875  1.00  0.00     0.016 A 
ATOM     17  C   UNL     1      -1.538   0.396  -6.055  1.00  0.00     0.016 A 
BRANCH  13  18
ATOM     18  O   UNL     1      -4.784  -1.441  -5.964  1.00  0.00    -0.497 OA
ATOM     19  C   UNL     1      -6.095  -1.028  -5.595  1.00  0.00     0.278 C 
ENDBRANCH  13  18
ENDBRANCH   1  12
BRANCH   8  20
ATOM     20  O   UNL     1      -0.318   2.719 -11.712  1.00  0.00    -0.490 OA
ATOM     21  C   UNL     1      -1.632   3.079 -12.122  1.00  0.00     0.278 C 
ENDBRANCH   8  20
BRANCH  11  22
ATOM     22  O   UNL     1       3.206   5.349  -8.171  1.00  0.00    -0.492 OA
ATOM     23  C   UNL     1       4.595   5.036  -8.078  1.00  0.00     0.278 C 
ENDBRANCH  11  22
BRANCH   9  24
ATOM     24  O   UNL     1       1.541   4.626 -12.699  1.00  0.00    -0.490 OA
ATOM     25  C   UNL     1       0.812   5.594 -13.446  1.00  0.00     0.279 C 
ENDBRANCH   9  24
BRANCH  10  26
ATOM     26  O   UNL     1       3.233   6.005 -10.879  1.00  0.00    -0.490 OA
ATOM     27  C   UNL     1       3.013   7.409 -10.988  1.00  0.00     0.278 C 
ENDBRANCH  10  26
TORSDOF 6
ENDMDL
MODEL 4
REMARK VINA RESULT:    -4.363      1.410      3.711
REMARK INTER + INTRA:          -6.546
REMARK INTER:                  -5.852
REMARK INTRA:                  -0.694
REMARK UNBOUND:                -0.652
REMARK SMILES COc1ccc(-c2cc(=O)c3c(OC)c(OC)c(OC)c(OC)c3o2)cc1
REMARK SMILES IDX 7 1 8 2 9 3 10 4 11 5 24 6 25 7 21 8 18 9 15 10 12 11 6 12
REMARK SMILES IDX 3 13 4 14 27 15 5 16 26 17 2 18 1 19 22 20 23 21 13 22 14 23
REMARK SMILES IDX 19 24 20 25 16 26 17 27
REMARK H PARENT
REMARK Flexibility Score: inf
ROOT
ATOM      1  C   UNL     1       0.789  -2.125  -7.712  1.00  0.00     0.138 A 
ATOM      2  C   UNL     1      -0.013  -2.715  -6.730  1.00  0.00     0.100 A 
ATOM      3  C   UNL     1      -1.017  -3.600  -7.111  1.00  0.00     0.197 A 
ATOM      4  O   UNL     1      -1.727  -4.126  -6.212  1.00  0.00    -0.289 OA
ATOM      5  C   UNL     1      -1.215  -3.893  -8.481  1.00  0.00     0.115 A 
ATOM      6  C   UNL     1      -0.381  -3.242  -9.420  1.00  0.00     0.188 A 
ATOM      7  O   UNL     1       0.563  -2.405  -8.993  1.00  0.00    -0.452 OA
ATOM      8  C   UNL     1      -0.537  -3.484 -10.805  1.00  0.00     0.209 A 
ATOM      9  C   UNL     1      -1.489  -4.439 -11.246  1.00  0.00     0.211 A 
ATOM     10  C   UNL     1      -2.315  -5.101 -10.301  1.00  0.00     0.208 A 
ATOM     11  C   UNL     1      -2.211  -4.789  -8.929  1.00  0.00     0.179 A 
ENDROOT
BRANCH   1  12
ATOM     12  C   UNL     1       1.883  -1.189  -7.360  1.00  0.00     0.018 A 
ATOM     13  C   UNL     1       4.008   0.550  -6.696  1.00  0.00     0.118 A 
ATOM     14  C   UNL     1       2.860   0.495  -5.896  1.00  0.00     0.047 A 
ATOM     15  C   UNL     1       4.090  -0.273  -7.833  1.00  0.00     0.047 A 
ATOM     16  C   UNL     1       1.808  -0.366  -6.220  1.00  0.00     0.016 A 
ATOM     17  C   UNL     1       3.038  -1.135  -8.158  1.00  0.00     0.016 A 
BRANCH  13  18
ATOM     18  O   UNL     1       5.037   1.427  -6.327  1.00  0.00    -0.497 OA
ATOM     19  C   UNL     1       6.183   1.052  -5.570  1.00  0.00     0.278 C 
ENDBRANCH  13  18
ENDBRANCH   1  12
BRANCH   8  20
ATOM     20  O   UNL     1       0.226  -2.806 -11.775  1.00  0.00    -0.490 OA
ATOM     21  C   UNL     1       1.540  -3.132 -12.212  1.00  0.00     0.278 C 
ENDBRANCH   8  20
BRANCH  11  22
ATOM     22  O   UNL     1      -3.062  -5.383  -7.977  1.00  0.00    -0.492 OA
ATOM     23  C   UNL     1      -4.455  -5.105  -7.835  1.00  0.00     0.278 C 
ENDBRANCH  11  22
BRANCH   9  24
ATOM     24  O   UNL     1      -1.666  -4.752 -12.608  1.00  0.00    -0.490 OA
ATOM     25  C   UNL     1      -0.931  -5.690 -13.389  1.00  0.00     0.279 C 
ENDBRANCH   9  24
BRANCH  10  26
ATOM     26  O   UNL     1      -3.237  -6.103 -10.663  1.00  0.00    -0.490 OA
ATOM     27  C   UNL     1      -3.000  -7.502 -10.789  1.00  0.00     0.278 C 
ENDBRANCH  10  26
TORSDOF 6
ENDMDL
MODEL 5
REMARK VINA RESULT:    -4.344      2.266      8.053
REMARK INTER + INTRA:          -6.521
REMARK INTER:                  -5.803
REMARK INTRA:                  -0.718
REMARK UNBOUND:                -0.652
REMARK SMILES COc1ccc(-c2cc(=O)c3c(OC)c(OC)c(OC)c(OC)c3o2)cc1
REMARK SMILES IDX 7 1 8 2 9 3 10 4 11 5 24 6 25 7 21 8 18 9 15 10 12 11 6 12
REMARK SMILES IDX 3 13 4 14 27 15 5 16 26 17 2 18 1 19 22 20 23 21 13 22 14 23
REMARK SMILES IDX 19 24 20 25 16 26 17 27
REMARK H PARENT
REMARK Flexibility Score: inf
ROOT
ATOM      1  C   UNL     1      -1.103  -4.187  -6.880  1.00  0.00     0.138 A 
ATOM      2  C   UNL     1      -0.990  -3.343  -5.770  1.00  0.00     0.100 A 
ATOM      3  C   UNL     1      -0.266  -2.161  -5.885  1.00  0.00     0.197 A 
ATOM      4  O   UNL     1      -0.178  -1.409  -4.877  1.00  0.00    -0.289 OA
ATOM      5  C   UNL     1       0.346  -1.826  -7.117  1.00  0.00     0.115 A 
ATOM      6  C   UNL     1       0.208  -2.739  -8.189  1.00  0.00     0.188 A 
ATOM      7  O   UNL     1      -0.498  -3.855  -8.016  1.00  0.00    -0.452 OA
ATOM      8  C   UNL     1       0.806  -2.466  -9.442  1.00  0.00     0.209 A 
ATOM      9  C   UNL     1       1.486  -1.237  -9.641  1.00  0.00     0.211 A 
ATOM     10  C   UNL     1       1.611  -0.317  -8.568  1.00  0.00     0.208 A 
ATOM     11  C   UNL     1       1.086  -0.636  -7.297  1.00  0.00     0.179 A 
ENDROOT
BRANCH   1  12
ATOM     12  C   UNL     1      -1.877  -5.450  -6.817  1.00  0.00     0.018 A 
ATOM     13  C   UNL     1      -3.376  -7.843  -6.751  1.00  0.00     0.118 A 
ATOM     14  C   UNL     1      -3.382  -6.973  -5.655  1.00  0.00     0.047 A 
ATOM     15  C   UNL     1      -2.616  -7.510  -7.886  1.00  0.00     0.047 A 
ATOM     16  C   UNL     1      -2.644  -5.786  -5.684  1.00  0.00     0.016 A 
ATOM     17  C   UNL     1      -1.877  -6.323  -7.917  1.00  0.00     0.016 A 
BRANCH  13  18
ATOM     18  O   UNL     1      -4.136  -9.019  -6.673  1.00  0.00    -0.497 OA
ATOM     19  C   UNL     1      -5.413  -9.113  -6.053  1.00  0.00     0.278 C 
ENDBRANCH  13  18
ENDBRANCH   1  12
BRANCH   8  20
ATOM     20  O   UNL     1       0.750  -3.380 -10.512  1.00  0.00    -0.490 OA
ATOM     21  C   UNL     1      -0.284  -3.500 -11.482  1.00  0.00     0.278 C 
ENDBRANCH   8  20
BRANCH  11  22
ATOM     22  O   UNL     1       1.252   0.229  -6.199  1.00  0.00    -0.492 OA
ATOM     23  C   UNL     1       2.488   0.479  -5.531  1.00  0.00     0.278 C 
ENDBRANCH  11  22
BRANCH   9  24
ATOM     24  O   UNL     1       2.070  -0.892 -10.876  1.00  0.00    -0.490 OA
ATOM     25  C   UNL     1       1.457  -0.217 -11.970  1.00  0.00     0.279 C 
ENDBRANCH   9  24
BRANCH  10  26
ATOM     26  O   UNL     1       2.219   0.945  -8.712  1.00  0.00    -0.490 OA
ATOM     27  C   UNL     1       1.600   2.175  -9.078  1.00  0.00     0.278 C 
ENDBRANCH  10  26
TORSDOF 6
ENDMDL
MODEL 6
REMARK VINA RESULT:    -4.315      4.480      6.349
REMARK INTER + INTRA:          -6.481
REMARK INTER:                  -5.755
REMARK INTRA:                  -0.726
REMARK UNBOUND:                -0.652
REMARK SMILES COc1ccc(-c2cc(=O)c3c(OC)c(OC)c(OC)c(OC)c3o2)cc1
REMARK SMILES IDX 7 1 8 2 9 3 10 4 11 5 24 6 25 7 21 8 18 9 15 10 12 11 6 12
REMARK SMILES IDX 3 13 4 14 27 15 5 16 26 17 2 18 1 19 22 20 23 21 13 22 14 23
REMARK SMILES IDX 19 24 20 25 16 26 17 27
REMARK H PARENT
REMARK Flexibility Score: inf
ROOT
ATOM      1  C   UNL     1       0.873   3.529  -6.693  1.00  0.00     0.138 A 
ATOM      2  C   UNL     1       0.748   2.614  -5.642  1.00  0.00     0.100 A 
ATOM      3  C   UNL     1       0.000   1.456  -5.832  1.00  0.00     0.197 A 
ATOM      4  O   UNL     1      -0.099   0.641  -4.876  1.00  0.00    -0.289 OA
ATOM      5  C   UNL     1      -0.623   1.216  -7.080  1.00  0.00     0.115 A 
ATOM      6  C   UNL     1      -0.471   2.196  -8.089  1.00  0.00     0.188 A 
ATOM      7  O   UNL     1       0.257   3.285  -7.846  1.00  0.00    -0.452 OA
ATOM      8  C   UNL     1      -1.079   2.020  -9.355  1.00  0.00     0.209 A 
ATOM      9  C   UNL     1      -1.784   0.821  -9.632  1.00  0.00     0.211 A 
ATOM     10  C   UNL     1      -1.923  -0.167  -8.622  1.00  0.00     0.208 A 
ATOM     11  C   UNL     1      -1.386   0.056  -7.336  1.00  0.00     0.179 A 
ENDROOT
BRANCH   1  12
ATOM     12  C   UNL     1       1.672   4.769  -6.550  1.00  0.00     0.018 A 
ATOM     13  C   UNL     1       3.162   7.148  -6.229  1.00  0.00     0.118 A 
ATOM     14  C   UNL     1       2.611   6.818  -7.473  1.00  0.00     0.047 A 
ATOM     15  C   UNL     1       2.962   6.280  -5.141  1.00  0.00     0.047 A 
ATOM     16  C   UNL     1       1.871   5.644  -7.635  1.00  0.00     0.016 A 
ATOM     17  C   UNL     1       2.222   5.105  -5.302  1.00  0.00     0.016 A 
BRANCH  13  18
ATOM     18  O   UNL     1       3.893   8.338  -6.117  1.00  0.00    -0.497 OA
ATOM     19  C   UNL     1       4.450   9.048  -7.218  1.00  0.00     0.278 C 
ENDBRANCH  13  18
ENDBRANCH   1  12
BRANCH   8  20
ATOM     20  O   UNL     1      -1.010   3.002 -10.362  1.00  0.00    -0.490 OA
ATOM     21  C   UNL     1       0.038   3.186 -11.307  1.00  0.00     0.278 C 
ENDBRANCH   8  20
BRANCH  11  22
ATOM     22  O   UNL     1      -1.565  -0.877  -6.297  1.00  0.00    -0.492 OA
ATOM     23  C   UNL     1      -2.788  -1.101  -5.596  1.00  0.00     0.278 C 
ENDBRANCH  11  22
BRANCH   9  24
ATOM     24  O   UNL     1      -2.379   0.570 -10.884  1.00  0.00    -0.490 OA
ATOM     25  C   UNL     1      -1.783  -0.041 -12.024  1.00  0.00     0.279 C 
ENDBRANCH   9  24
BRANCH  10  26
ATOM     26  O   UNL     1      -2.556  -1.405  -8.848  1.00  0.00    -0.490 OA
ATOM     27  C   UNL     1      -1.961  -2.621  -9.292  1.00  0.00     0.278 C 
ENDBRANCH  10  26
TORSDOF 6
ENDMDL
MODEL 7
REMARK VINA RESULT:    -4.273      1.660      4.055
REMARK INTER + INTRA:          -6.425
REMARK INTER:                  -5.728
REMARK INTRA:                  -0.697
REMARK UNBOUND:                -0.652
REMARK SMILES COc1ccc(-c2cc(=O)c3c(OC)c(OC)c(OC)c(OC)c3o2)cc1
REMARK SMILES IDX 7 1 8 2 9 3 10 4 11 5 24 6 25 7 21 8 18 9 15 10 12 11 6 12
REMARK SMILES IDX 3 13 4 14 27 15 5 16 26 17 2 18 1 19 22 20 23 21 13 22 14 23
REMARK SMILES IDX 19 24 20 25 16 26 17 27
REMARK H PARENT
REMARK Flexibility Score: inf
ROOT
ATOM      1  C   UNL     1       0.215  -2.812  -7.173  1.00  0.00     0.138 A 
ATOM      2  C   UNL     1      -0.044  -3.526  -5.999  1.00  0.00     0.100 A 
ATOM      3  C   UNL     1      -0.898  -4.624  -6.044  1.00  0.00     0.197 A 
ATOM      4  O   UNL     1      -1.116  -5.259  -4.977  1.00  0.00    -0.289 OA
ATOM      5  C   UNL     1      -1.493  -5.004  -7.270  1.00  0.00     0.115 A 
ATOM      6  C   UNL     1      -1.203  -4.221  -8.412  1.00  0.00     0.188 A 
ATOM      7  O   UNL     1      -0.378  -3.182  -8.305  1.00  0.00    -0.452 OA
ATOM      8  C   UNL     1      -1.777  -4.543  -9.665  1.00  0.00     0.209 A 
ATOM      9  C   UNL     1      -2.589  -5.700  -9.787  1.00  0.00     0.211 A 
ATOM     10  C   UNL     1      -2.866  -6.492  -8.642  1.00  0.00     0.208 A 
ATOM     11  C   UNL     1      -2.360  -6.113  -7.380  1.00  0.00     0.179 A 
ENDROOT
BRANCH   1  12
ATOM     12  C   UNL     1       1.130  -1.645  -7.185  1.00  0.00     0.018 A 
ATOM     13  C   UNL     1       2.826   0.613  -7.205  1.00  0.00     0.118 A 
ATOM     14  C   UNL     1       2.982  -0.399  -8.159  1.00  0.00     0.047 A 
ATOM     15  C   UNL     1       1.813   0.492  -6.238  1.00  0.00     0.047 A 
ATOM     16  C   UNL     1       2.143  -1.517  -8.155  1.00  0.00     0.016 A 
ATOM     17  C   UNL     1       0.972  -0.626  -6.232  1.00  0.00     0.016 A 
BRANCH  13  18
ATOM     18  O   UNL     1       3.690   1.716  -7.254  1.00  0.00    -0.497 OA
ATOM     19  C   UNL     1       4.186   2.403  -6.110  1.00  0.00     0.278 C 
ENDBRANCH  13  18
ENDBRANCH   1  12
BRANCH   8  20
ATOM     20  O   UNL     1      -1.568  -3.750 -10.810  1.00  0.00    -0.490 OA
ATOM     21  C   UNL     1      -0.462  -3.809 -11.702  1.00  0.00     0.278 C 
ENDBRANCH   8  20
BRANCH  11  22
ATOM     22  O   UNL     1      -2.673  -6.844  -6.218  1.00  0.00    -0.492 OA
ATOM     23  C   UNL     1      -3.941  -6.838  -5.561  1.00  0.00     0.278 C 
ENDBRANCH  11  22
BRANCH   9  24
ATOM     24  O   UNL     1      -3.157  -6.094 -11.014  1.00  0.00    -0.490 OA
ATOM     25  C   UNL     1      -2.579  -6.930 -12.012  1.00  0.00     0.279 C 
ENDBRANCH   9  24
BRANCH  10  26
ATOM     26  O   UNL     1      -3.613  -7.685  -8.703  1.00  0.00    -0.490 OA
ATOM     27  C   UNL     1      -3.130  -9.006  -8.925  1.00  0.00     0.278 C 
ENDBRANCH  10  26
TORSDOF 6
ENDMDL
MODEL 8
REMARK VINA RESULT:    -4.229      4.750      8.691
REMARK INTER + INTRA:          -6.366
REMARK INTER:                  -5.806
REMARK INTRA:                  -0.560
REMARK UNBOUND:                -0.652
REMARK SMILES COc1ccc(-c2cc(=O)c3c(OC)c(OC)c(OC)c(OC)c3o2)cc1
REMARK SMILES IDX 7 1 8 2 9 3 10 4 11 5 24 6 25 7 21 8 18 9 15 10 12 11 6 12
REMARK SMILES IDX 3 13 4 14 27 15 5 16 26 17 2 18 1 19 22 20 23 21 13 22 14 23
REMARK SMILES IDX 19 24 20 25 16 26 17 27
REMARK H PARENT
REMARK Flexibility Score: inf
ROOT
ATOM      1  C   UNL     1      -1.229   1.552  -7.586  1.00  0.00     0.138 A 
ATOM      2  C   UNL     1      -1.383   2.119  -8.855  1.00  0.00     0.100 A 
ATOM      3  C   UNL     1      -0.346   2.875  -9.393  1.00  0.00     0.197 A 
ATOM      4  O   UNL     1      -0.500   3.375 -10.540  1.00  0.00    -0.289 OA
ATOM      5  C   UNL     1       0.847   3.062  -8.655  1.00  0.00     0.115 A 
ATOM      6  C   UNL     1       0.922   2.478  -7.369  1.00  0.00     0.188 A 
ATOM      7  O   UNL     1      -0.104   1.765  -6.908  1.00  0.00    -0.452 OA
ATOM      8  C   UNL     1       2.084   2.639  -6.577  1.00  0.00     0.209 A 
ATOM      9  C   UNL     1       3.203   3.330  -7.107  1.00  0.00     0.211 A 
ATOM     10  C   UNL     1       3.129   3.904  -8.403  1.00  0.00     0.208 A 
ATOM     11  C   UNL     1       1.936   3.812  -9.151  1.00  0.00     0.179 A 
ENDROOT
BRANCH   1  12
ATOM     12  C   UNL     1      -2.294   0.723  -6.973  1.00  0.00     0.018 A 
ATOM     13  C   UNL     1      -4.360  -0.809  -5.805  1.00  0.00     0.118 A 
ATOM     14  C   UNL     1      -3.074  -0.814  -5.251  1.00  0.00     0.047 A 
ATOM     15  C   UNL     1      -4.610  -0.031  -6.949  1.00  0.00     0.047 A 
ATOM     16  C   UNL     1      -2.050  -0.055  -5.824  1.00  0.00     0.016 A 
ATOM     17  C   UNL     1      -3.586   0.729  -7.523  1.00  0.00     0.016 A 
BRANCH  13  18
ATOM     18  O   UNL     1      -5.354  -1.585  -5.191  1.00  0.00    -0.497 OA
ATOM     19  C   UNL     1      -5.693  -2.912  -5.577  1.00  0.00     0.278 C 
ENDBRANCH  13  18
ENDBRANCH   1  12
BRANCH   8  20
ATOM     20  O   UNL     1       2.173   2.131  -5.266  1.00  0.00    -0.490 OA
ATOM     21  C   UNL     1       2.644   0.847  -4.875  1.00  0.00     0.278 C 
ENDBRANCH   8  20
BRANCH  11  22
ATOM     22  O   UNL     1       1.814   4.427 -10.412  1.00  0.00    -0.492 OA
ATOM     23  C   UNL     1       2.498   4.016 -11.595  1.00  0.00     0.278 C 
ENDBRANCH  11  22
BRANCH   9  24
ATOM     24  O   UNL     1       4.401   3.491  -6.383  1.00  0.00    -0.490 OA
ATOM     25  C   UNL     1       4.686   4.459  -5.377  1.00  0.00     0.279 C 
ENDBRANCH   9  24
BRANCH  10  26
ATOM     26  O   UNL     1       4.222   4.550  -9.015  1.00  0.00    -0.490 OA
ATOM     27  C   UNL     1       4.625   5.908  -8.870  1.00  0.00     0.278 C 
ENDBRANCH  10  26
TORSDOF 6
ENDMDL
MODEL 9
REMARK VINA RESULT:    -4.194      5.373      9.994
REMARK INTER + INTRA:          -6.317
REMARK INTER:                  -5.664
REMARK INTRA:                  -0.653
REMARK UNBOUND:                -0.652
REMARK SMILES COc1ccc(-c2cc(=O)c3c(OC)c(OC)c(OC)c(OC)c3o2)cc1
REMARK SMILES IDX 7 1 8 2 9 3 10 4 11 5 24 6 25 7 21 8 18 9 15 10 12 11 6 12
REMARK SMILES IDX 3 13 4 14 27 15 5 16 26 17 2 18 1 19 22 20 23 21 13 22 14 23
REMARK SMILES IDX 19 24 20 25 16 26 17 27
REMARK H PARENT
REMARK Flexibility Score: inf
ROOT
ATOM      1  C   UNL     1       0.426   2.912  -6.599  1.00  0.00     0.138 A 
ATOM      2  C   UNL     1       0.730   3.791  -5.554  1.00  0.00     0.100 A 
ATOM      3  C   UNL     1       1.425   4.964  -5.831  1.00  0.00     0.197 A 
ATOM      4  O   UNL     1       1.687   5.746  -4.878  1.00  0.00    -0.289 OA
ATOM      5  C   UNL     1       1.816   5.254  -7.160  1.00  0.00     0.115 A 
ATOM      6  C   UNL     1       1.494   4.308  -8.161  1.00  0.00     0.188 A 
ATOM      7  O   UNL     1       0.826   3.203  -7.833  1.00  0.00    -0.452 OA
ATOM      8  C   UNL     1       1.868   4.535  -9.507  1.00  0.00     0.209 A 
ATOM      9  C   UNL     1       2.505   5.752  -9.861  1.00  0.00     0.211 A 
ATOM     10  C   UNL     1       2.815   6.705  -8.856  1.00  0.00     0.208 A 
ATOM     11  C   UNL     1       2.516   6.431  -7.504  1.00  0.00     0.179 A 
ENDROOT
BRANCH   1  12
ATOM     12  C   UNL     1      -0.328   1.658  -6.362  1.00  0.00     0.018 A 
ATOM     13  C   UNL     1      -1.816  -0.701  -5.909  1.00  0.00     0.118 A 
ATOM     14  C   UNL     1      -0.689  -0.412  -5.130  1.00  0.00     0.047 A 
ATOM     15  C   UNL     1      -2.198   0.200  -6.919  1.00  0.00     0.047 A 
ATOM     16  C   UNL     1       0.048   0.755  -5.349  1.00  0.00     0.016 A 
ATOM     17  C   UNL     1      -1.462   1.368  -7.139  1.00  0.00     0.016 A 
BRANCH  13  18
ATOM     18  O   UNL     1      -2.523  -1.882  -5.648  1.00  0.00    -0.497 OA
ATOM     19  C   UNL     1      -3.452  -2.480  -6.546  1.00  0.00     0.278 C 
ENDBRANCH  13  18
ENDBRANCH   1  12
BRANCH   8  20
ATOM     20  O   UNL     1       1.626   3.589 -10.521  1.00  0.00    -0.490 OA
ATOM     21  C   UNL     1       0.460   3.477 -11.329  1.00  0.00     0.278 C 
ENDBRANCH   8  20
BRANCH  11  22
ATOM     22  O   UNL     1       2.870   7.330  -6.480  1.00  0.00    -0.492 OA
ATOM     23  C   UNL     1       4.197   7.546  -6.000  1.00  0.00     0.278 C 
ENDBRANCH  11  22
BRANCH   9  24
ATOM     24  O   UNL     1       2.868   6.053 -11.188  1.00  0.00    -0.490 OA
ATOM     25  C   UNL     1       4.061   5.679 -11.871  1.00  0.00     0.279 C 
ENDBRANCH   9  24
BRANCH  10  26
ATOM     26  O   UNL     1       3.391   7.958  -9.145  1.00  0.00    -0.490 OA
ATOM     27  C   UNL     1       2.720   9.176  -9.457  1.00  0.00     0.278 C 
ENDBRANCH  10  26
TORSDOF 6
ENDMDL
