MODEL 1
REMARK VINA RESULT:    -6.284      0.000      0.000
REMARK INTER + INTRA:          -7.862
REMARK INTER:                  -7.570
REMARK INTRA:                  -0.292
REMARK UNBOUND:                -0.292
REMARK SMILES O=c1c(O)c(-c2ccc(O)cc2O)oc2cc(O)cc(O)c12
REMARK SMILES IDX 5 1 3 2 2 3 1 4 22 5 20 6 19 7 17 8 16 9 15 10 14 11 6 12
REMARK SMILES IDX 8 13 7 14 9 15 11 16 12 17 10 18 13 20 4 22 21 24 18 26
REMARK H PARENT 10 19 13 21 4 23 21 25 18 27
REMARK Flexibility Score: inf
ROOT
ATOM      1  C   UNL     1       5.940  -4.623   8.618  1.00  0.00     0.184 A 
ATOM      2  C   UNL     1       7.148  -3.924   8.771  1.00  0.00     0.208 A 
ATOM      3  C   UNL     1       7.803  -3.437   7.627  1.00  0.00     0.238 A 
ATOM      4  O   UNL     1       8.856  -2.765   7.774  1.00  0.00    -0.285 OA
ATOM      5  C   UNL     1       7.247  -3.672   6.346  1.00  0.00     0.111 A 
ATOM      6  C   UNL     1       7.844  -3.260   5.116  1.00  0.00     0.134 A 
ATOM      7  C   UNL     1       7.141  -3.431   3.917  1.00  0.00     0.093 A 
ATOM      8  C   UNL     1       5.894  -4.058   3.895  1.00  0.00     0.123 A 
ATOM      9  C   UNL     1       5.329  -4.516   5.083  1.00  0.00     0.094 A 
ATOM     10  C   UNL     1       5.989  -4.328   6.300  1.00  0.00     0.146 A 
ATOM     11  O   UNL     1       5.410  -4.770   7.410  1.00  0.00    -0.451 OA
ENDROOT
BRANCH   1  12
ATOM     12  C   UNL     1       5.211  -5.174   9.778  1.00  0.00     0.063 A 
ATOM     13  C   UNL     1       3.214  -5.180  11.165  1.00  0.00     0.047 A 
ATOM     14  C   UNL     1       3.934  -4.676  10.078  1.00  0.00     0.020 A 
ATOM     15  C   UNL     1       3.755  -6.197  11.956  1.00  0.00     0.119 A 
ATOM     16  C   UNL     1       5.018  -6.718  11.651  1.00  0.00     0.093 A 
ATOM     17  C   UNL     1       5.745  -6.222  10.558  1.00  0.00     0.130 A 
BRANCH  15  18
ATOM     18  O   UNL     1       3.027  -6.686  13.038  1.00  0.00    -0.508 OA
ATOM     19  H   UNL     1       3.205  -7.606  13.424  1.00  0.00     0.293 HD
ENDBRANCH  15  18
BRANCH  17  20
ATOM     20  O   UNL     1       6.981  -6.782  10.235  1.00  0.00    -0.507 OA
ATOM     21  H   UNL     1       7.675  -6.985  10.945  1.00  0.00     0.293 HD
ENDBRANCH  17  20
ENDBRANCH   1  12
BRANCH   2  22
ATOM     22  O   UNL     1       7.664  -3.691  10.048  1.00  0.00    -0.502 OA
ATOM     23  H   UNL     1       7.608  -4.378  10.790  1.00  0.00     0.293 HD
ENDBRANCH   2  22
BRANCH   6  24
ATOM     24  O   UNL     1       9.124  -2.708   5.017  1.00  0.00    -0.507 OA
ATOM     25  H   UNL     1       9.480  -1.972   5.608  1.00  0.00     0.293 HD
ENDBRANCH   6  24
BRANCH   8  26
ATOM     26  O   UNL     1       5.210  -4.238   2.695  1.00  0.00    -0.508 OA
ATOM     27  H   UNL     1       4.247  -4.554   2.676  1.00  0.00     0.293 HD
ENDBRANCH   8  26
TORSDOF 6
ENDMDL
MODEL 2
REMARK VINA RESULT:    -6.017      2.673      6.958
REMARK INTER + INTRA:          -7.541
REMARK INTER:                  -7.130
REMARK INTRA:                  -0.411
REMARK UNBOUND:                -0.292
REMARK SMILES O=c1c(O)c(-c2ccc(O)cc2O)oc2cc(O)cc(O)c12
REMARK SMILES IDX 5 1 3 2 2 3 1 4 22 5 20 6 19 7 17 8 16 9 15 10 14 11 6 12
REMARK SMILES IDX 8 13 7 14 9 15 11 16 12 17 10 18 13 20 4 22 21 24 18 26
REMARK H PARENT 10 19 13 21 4 23 21 25 18 27
REMARK Flexibility Score: inf
ROOT
ATOM      1  C   UNL     1       4.260  -5.585   8.907  1.00  0.00     0.184 A 
ATOM      2  C   UNL     1       4.011  -6.710   8.104  1.00  0.00     0.208 A 
ATOM      3  C   UNL     1       2.912  -7.530   8.403  1.00  0.00     0.238 A 
ATOM      4  O   UNL     1       2.663  -8.505   7.648  1.00  0.00    -0.285 OA
ATOM      5  C   UNL     1       2.086  -7.222   9.512  1.00  0.00     0.111 A 
ATOM      6  C   UNL     1       0.969  -8.006   9.932  1.00  0.00     0.134 A 
ATOM      7  C   UNL     1       0.146  -7.536  10.963  1.00  0.00     0.093 A 
ATOM      8  C   UNL     1       0.436  -6.345  11.632  1.00  0.00     0.123 A 
ATOM      9  C   UNL     1       1.558  -5.603  11.269  1.00  0.00     0.094 A 
ATOM     10  C   UNL     1       2.378  -6.027  10.220  1.00  0.00     0.146 A 
ATOM     11  O   UNL     1       3.431  -5.284   9.899  1.00  0.00    -0.451 OA
ENDROOT
BRANCH   1  12
ATOM     12  C   UNL     1       5.409  -4.691   8.656  1.00  0.00     0.063 A 
ATOM     13  C   UNL     1       6.439  -2.967   7.286  1.00  0.00     0.047 A 
ATOM     14  C   UNL     1       5.371  -3.829   7.548  1.00  0.00     0.020 A 
ATOM     15  C   UNL     1       7.550  -2.944   8.133  1.00  0.00     0.119 A 
ATOM     16  C   UNL     1       7.587  -3.782   9.254  1.00  0.00     0.093 A 
ATOM     17  C   UNL     1       6.517  -4.648   9.528  1.00  0.00     0.130 A 
BRANCH  15  18
ATOM     18  O   UNL     1       8.608  -2.081   7.855  1.00  0.00    -0.508 OA
ATOM     19  H   UNL     1       9.089  -2.101   6.963  1.00  0.00     0.293 HD
ENDBRANCH  15  18
BRANCH  17  20
ATOM     20  O   UNL     1       6.544  -5.443  10.674  1.00  0.00    -0.507 OA
ATOM     21  H   UNL     1       6.237  -6.408  10.659  1.00  0.00     0.293 HD
ENDBRANCH  17  20
ENDBRANCH   1  12
BRANCH   2  22
ATOM     22  O   UNL     1       4.832  -6.980   7.005  1.00  0.00    -0.502 OA
ATOM     23  H   UNL     1       5.348  -6.254   6.522  1.00  0.00     0.293 HD
ENDBRANCH   2  22
BRANCH   6  24
ATOM     24  O   UNL     1       0.644  -9.253   9.393  1.00  0.00    -0.507 OA
ATOM     25  H   UNL     1       0.643  -9.471   8.408  1.00  0.00     0.293 HD
ENDBRANCH   6  24
BRANCH   8  26
ATOM     26  O   UNL     1      -0.379  -5.894  12.667  1.00  0.00    -0.508 OA
ATOM     27  H   UNL     1      -0.863  -6.540  13.281  1.00  0.00     0.293 HD
ENDBRANCH   8  26
TORSDOF 6
ENDMDL
MODEL 3
REMARK VINA RESULT:    -5.859      2.139      3.264
REMARK INTER + INTRA:          -7.350
REMARK INTER:                  -7.010
REMARK INTRA:                  -0.339
REMARK UNBOUND:                -0.292
REMARK SMILES O=c1c(O)c(-c2ccc(O)cc2O)oc2cc(O)cc(O)c12
REMARK SMILES IDX 5 1 3 2 2 3 1 4 22 5 20 6 19 7 17 8 16 9 15 10 14 11 6 12
REMARK SMILES IDX 8 13 7 14 9 15 11 16 12 17 10 18 13 20 4 22 21 24 18 26
REMARK H PARENT 10 19 13 21 4 23 21 25 18 27
REMARK Flexibility Score: inf
ROOT
ATOM      1  C   UNL     1       4.151  -5.792   9.292  1.00  0.00     0.184 A 
ATOM      2  C   UNL     1       5.304  -6.203   9.980  1.00  0.00     0.208 A 
ATOM      3  C   UNL     1       6.563  -5.932   9.421  1.00  0.00     0.238 A 
ATOM      4  O   UNL     1       7.593  -6.255  10.068  1.00  0.00    -0.285 OA
ATOM      5  C   UNL     1       6.650  -5.267   8.173  1.00  0.00     0.111 A 
ATOM      6  C   UNL     1       7.872  -4.976   7.495  1.00  0.00     0.134 A 
ATOM      7  C   UNL     1       7.846  -4.199   6.329  1.00  0.00     0.093 A 
ATOM      8  C   UNL     1       6.639  -3.759   5.784  1.00  0.00     0.123 A 
ATOM      9  C   UNL     1       5.437  -4.088   6.407  1.00  0.00     0.094 A 
ATOM     10  C   UNL     1       5.432  -4.831   7.589  1.00  0.00     0.146 A 
ATOM     11  O   UNL     1       4.265  -5.113   8.157  1.00  0.00    -0.451 OA
ENDROOT
BRANCH   1  12
ATOM     12  C   UNL     1       2.797  -6.061   9.817  1.00  0.00     0.063 A 
ATOM     13  C   UNL     1       0.735  -7.344   9.687  1.00  0.00     0.047 A 
ATOM     14  C   UNL     1       2.019  -7.060   9.211  1.00  0.00     0.020 A 
ATOM     15  C   UNL     1       0.220  -6.644  10.780  1.00  0.00     0.119 A 
ATOM     16  C   UNL     1       0.997  -5.662  11.407  1.00  0.00     0.093 A 
ATOM     17  C   UNL     1       2.288  -5.374  10.939  1.00  0.00     0.130 A 
BRANCH  15  18
ATOM     18  O   UNL     1      -1.062  -6.936  11.240  1.00  0.00    -0.508 OA
ATOM     19  H   UNL     1      -1.720  -6.202  11.479  1.00  0.00     0.293 HD
ENDBRANCH  15  18
BRANCH  17  20
ATOM     20  O   UNL     1       3.071  -4.428  11.601  1.00  0.00    -0.507 OA
ATOM     21  H   UNL     1       4.012  -4.639  11.910  1.00  0.00     0.293 HD
ENDBRANCH  17  20
ENDBRANCH   1  12
BRANCH   2  22
ATOM     22  O   UNL     1       5.189  -6.842  11.218  1.00  0.00    -0.502 OA
ATOM     23  H   UNL     1       4.309  -7.209  11.560  1.00  0.00     0.293 HD
ENDBRANCH   2  22
BRANCH   6  24
ATOM     24  O   UNL     1       9.123  -5.445   7.904  1.00  0.00    -0.507 OA
ATOM     25  H   UNL     1       9.999  -5.203   7.467  1.00  0.00     0.293 HD
ENDBRANCH   6  24
BRANCH   8  26
ATOM     26  O   UNL     1       6.621  -3.001   4.615  1.00  0.00    -0.508 OA
ATOM     27  H   UNL     1       5.761  -2.827   4.109  1.00  0.00     0.293 HD
ENDBRANCH   8  26
TORSDOF 6
ENDMDL
MODEL 4
REMARK VINA RESULT:    -5.651     14.269     15.782
REMARK INTER + INTRA:          -7.100
REMARK INTER:                  -6.674
REMARK INTRA:                  -0.426
REMARK UNBOUND:                -0.292
REMARK SMILES O=c1c(O)c(-c2ccc(O)cc2O)oc2cc(O)cc(O)c12
REMARK SMILES IDX 5 1 3 2 2 3 1 4 22 5 20 6 19 7 17 8 16 9 15 10 14 11 6 12
REMARK SMILES IDX 8 13 7 14 9 15 11 16 12 17 10 18 13 20 4 22 21 24 18 26
REMARK H PARENT 10 19 13 21 4 23 21 25 18 27
REMARK Flexibility Score: inf
ROOT
ATOM      1  C   UNL     1      -1.583   7.362  10.508  1.00  0.00     0.184 A 
ATOM      2  C   UNL     1      -1.829   8.013   9.289  1.00  0.00     0.208 A 
ATOM      3  C   UNL     1      -3.154   8.310   8.931  1.00  0.00     0.238 A 
ATOM      4  O   UNL     1      -3.364   8.941   7.863  1.00  0.00    -0.285 OA
ATOM      5  C   UNL     1      -4.215   7.935   9.791  1.00  0.00     0.111 A 
ATOM      6  C   UNL     1      -5.599   8.149   9.510  1.00  0.00     0.134 A 
ATOM      7  C   UNL     1      -6.555   7.856  10.491  1.00  0.00     0.093 A 
ATOM      8  C   UNL     1      -6.184   7.296  11.714  1.00  0.00     0.123 A 
ATOM      9  C   UNL     1      -4.842   7.029  11.975  1.00  0.00     0.094 A 
ATOM     10  C   UNL     1      -3.861   7.343  11.031  1.00  0.00     0.146 A 
ATOM     11  O   UNL     1      -2.593   7.082  11.324  1.00  0.00    -0.451 OA
ENDROOT
BRANCH   1  12
ATOM     12  C   UNL     1      -0.215   7.007  10.937  1.00  0.00     0.063 A 
ATOM     13  C   UNL     1       1.715   5.543  10.723  1.00  0.00     0.047 A 
ATOM     14  C   UNL     1       0.418   5.903  10.345  1.00  0.00     0.020 A 
ATOM     15  C   UNL     1       2.399   6.290  11.685  1.00  0.00     0.119 A 
ATOM     16  C   UNL     1       1.787   7.408  12.264  1.00  0.00     0.093 A 
ATOM     17  C   UNL     1       0.487   7.779  11.886  1.00  0.00     0.130 A 
BRANCH  15  18
ATOM     18  O   UNL     1       3.690   5.917  12.054  1.00  0.00    -0.508 OA
ATOM     19  H   UNL     1       4.480   6.060  11.435  1.00  0.00     0.293 HD
ENDBRANCH  15  18
BRANCH  17  20
ATOM     20  O   UNL     1      -0.095   8.922  12.435  1.00  0.00    -0.507 OA
ATOM     21  H   UNL     1       0.102   9.846  12.069  1.00  0.00     0.293 HD
ENDBRANCH  17  20
ENDBRANCH   1  12
BRANCH   2  22
ATOM     22  O   UNL     1      -0.761   8.387   8.469  1.00  0.00    -0.502 OA
ATOM     23  H   UNL     1      -0.608   9.346   8.180  1.00  0.00     0.293 HD
ENDBRANCH   2  22
BRANCH   6  24
ATOM     24  O   UNL     1      -6.083   8.618   8.286  1.00  0.00    -0.507 OA
ATOM     25  H   UNL     1      -6.972   8.362   7.883  1.00  0.00     0.293 HD
ENDBRANCH   6  24
BRANCH   8  26
ATOM     26  O   UNL     1      -7.144   6.993  12.677  1.00  0.00    -0.508 OA
ATOM     27  H   UNL     1      -8.068   6.665  12.420  1.00  0.00     0.293 HD
ENDBRANCH   8  26
TORSDOF 6
ENDMDL
MODEL 5
REMARK VINA RESULT:    -5.650      1.678      2.079
REMARK INTER + INTRA:          -7.098
REMARK INTER:                  -6.707
REMARK INTRA:                  -0.392
REMARK UNBOUND:                -0.292
REMARK SMILES O=c1c(O)c(-c2ccc(O)cc2O)oc2cc(O)cc(O)c12
REMARK SMILES IDX 5 1 3 2 2 3 1 4 22 5 20 6 19 7 17 8 16 9 15 10 14 11 6 12
REMARK SMILES IDX 8 13 7 14 9 15 11 16 12 17 10 18 13 20 4 22 21 24 18 26
REMARK H PARENT 10 19 13 21 4 23 21 25 18 27
REMARK Flexibility Score: inf
ROOT
ATOM      1  C   UNL     1       4.988  -5.368   8.220  1.00  0.00     0.184 A 
ATOM      2  C   UNL     1       6.333  -5.667   8.486  1.00  0.00     0.208 A 
ATOM      3  C   UNL     1       7.294  -5.428   7.491  1.00  0.00     0.238 A 
ATOM      4  O   UNL     1       8.504  -5.647   7.754  1.00  0.00    -0.285 OA
ATOM      5  C   UNL     1       6.891  -4.907   6.236  1.00  0.00     0.111 A 
ATOM      6  C   UNL     1       7.773  -4.663   5.140  1.00  0.00     0.134 A 
ATOM      7  C   UNL     1       7.286  -4.025   3.992  1.00  0.00     0.093 A 
ATOM      8  C   UNL     1       5.938  -3.682   3.875  1.00  0.00     0.123 A 
ATOM      9  C   UNL     1       5.058  -3.970   4.916  1.00  0.00     0.094 A 
ATOM     10  C   UNL     1       5.520  -4.573   6.088  1.00  0.00     0.146 A 
ATOM     11  O   UNL     1       4.649  -4.819   7.059  1.00  0.00    -0.451 OA
ENDROOT
BRANCH   1  12
ATOM     12  C   UNL     1       3.926  -5.611   9.219  1.00  0.00     0.063 A 
ATOM     13  C   UNL     1       2.890  -5.017  11.336  1.00  0.00     0.047 A 
ATOM     14  C   UNL     1       3.884  -4.817  10.375  1.00  0.00     0.020 A 
ATOM     15  C   UNL     1       1.918  -6.003  11.148  1.00  0.00     0.119 A 
ATOM     16  C   UNL     1       1.936  -6.785   9.986  1.00  0.00     0.093 A 
ATOM     17  C   UNL     1       2.927  -6.587   9.014  1.00  0.00     0.130 A 
BRANCH  15  18
ATOM     18  O   UNL     1       0.935  -6.193  12.117  1.00  0.00    -0.508 OA
ATOM     19  H   UNL     1       0.173  -5.535  12.235  1.00  0.00     0.293 HD
ENDBRANCH  15  18
BRANCH  17  20
ATOM     20  O   UNL     1       2.907  -7.339   7.839  1.00  0.00    -0.507 OA
ATOM     21  H   UNL     1       2.671  -8.324   7.842  1.00  0.00     0.293 HD
ENDBRANCH  17  20
ENDBRANCH   1  12
BRANCH   2  22
ATOM     22  O   UNL     1       6.704  -6.163   9.739  1.00  0.00    -0.502 OA
ATOM     23  H   UNL     1       6.132  -6.821  10.254  1.00  0.00     0.293 HD
ENDBRANCH   2  22
BRANCH   6  24
ATOM     24  O   UNL     1       9.116  -5.049   5.118  1.00  0.00    -0.507 OA
ATOM     25  H   UNL     1       9.726  -5.054   5.922  1.00  0.00     0.293 HD
ENDBRANCH   6  24
BRANCH   8  26
ATOM     26  O   UNL     1       5.460  -3.062   2.723  1.00  0.00    -0.508 OA
ATOM     27  H   UNL     1       4.532  -2.657   2.685  1.00  0.00     0.293 HD
ENDBRANCH   8  26
TORSDOF 6
ENDMDL
MODEL 6
REMARK VINA RESULT:    -5.456      2.519      6.858
REMARK INTER + INTRA:          -6.864
REMARK INTER:                  -6.446
REMARK INTRA:                  -0.418
REMARK UNBOUND:                -0.292
REMARK SMILES O=c1c(O)c(-c2ccc(O)cc2O)oc2cc(O)cc(O)c12
REMARK SMILES IDX 5 1 3 2 2 3 1 4 22 5 20 6 19 7 17 8 16 9 15 10 14 11 6 12
REMARK SMILES IDX 8 13 7 14 9 15 11 16 12 17 10 18 13 20 4 22 21 24 18 26
REMARK H PARENT 10 19 13 21 4 23 21 25 18 27
REMARK Flexibility Score: inf
ROOT
ATOM      1  C   UNL     1       6.789  -5.543   4.638  1.00  0.00     0.184 A 
ATOM      2  C   UNL     1       7.952  -4.845   5.000  1.00  0.00     0.208 A 
ATOM      3  C   UNL     1       8.036  -4.282   6.284  1.00  0.00     0.238 A 
ATOM      4  O   UNL     1       9.102  -3.705   6.622  1.00  0.00    -0.285 OA
ATOM      5  C   UNL     1       6.948  -4.412   7.182  1.00  0.00     0.111 A 
ATOM      6  C   UNL     1       6.908  -3.847   8.492  1.00  0.00     0.134 A 
ATOM      7  C   UNL     1       5.835  -4.149   9.341  1.00  0.00     0.093 A 
ATOM      8  C   UNL     1       4.771  -4.940   8.903  1.00  0.00     0.123 A 
ATOM      9  C   UNL     1       4.772  -5.447   7.606  1.00  0.00     0.094 A 
ATOM     10  C   UNL     1       5.845  -5.193   6.748  1.00  0.00     0.146 A 
ATOM     11  O   UNL     1       5.812  -5.705   5.523  1.00  0.00    -0.451 OA
ENDROOT
BRANCH   1  12
ATOM     12  C   UNL     1       6.630  -6.144   3.298  1.00  0.00     0.063 A 
ATOM     13  C   UNL     1       6.852  -8.087   1.854  1.00  0.00     0.047 A 
ATOM     14  C   UNL     1       6.994  -7.486   3.107  1.00  0.00     0.020 A 
ATOM     15  C   UNL     1       6.330  -7.360   0.781  1.00  0.00     0.119 A 
ATOM     16  C   UNL     1       5.940  -6.028   0.966  1.00  0.00     0.093 A 
ATOM     17  C   UNL     1       6.075  -5.418   2.223  1.00  0.00     0.130 A 
BRANCH  15  18
ATOM     18  O   UNL     1       6.197  -7.973  -0.464  1.00  0.00    -0.508 OA
ATOM     19  H   UNL     1       5.858  -8.924  -0.553  1.00  0.00     0.293 HD
ENDBRANCH  15  18
BRANCH  17  20
ATOM     20  O   UNL     1       5.639  -4.106   2.408  1.00  0.00    -0.507 OA
ATOM     21  H   UNL     1       4.666  -3.889   2.584  1.00  0.00     0.293 HD
ENDBRANCH  17  20
ENDBRANCH   1  12
BRANCH   2  22
ATOM     22  O   UNL     1       9.017  -4.748   4.101  1.00  0.00    -0.502 OA
ATOM     23  H   UNL     1       9.910  -5.195   4.267  1.00  0.00     0.293 HD
ENDBRANCH   2  22
BRANCH   6  24
ATOM     24  O   UNL     1       7.874  -2.971   8.995  1.00  0.00    -0.507 OA
ATOM     25  H   UNL     1       8.867  -3.148   8.993  1.00  0.00     0.293 HD
ENDBRANCH   6  24
BRANCH   8  26
ATOM     26  O   UNL     1       3.700  -5.221   9.749  1.00  0.00    -0.508 OA
ATOM     27  H   UNL     1       2.937  -5.821   9.457  1.00  0.00     0.293 HD
ENDBRANCH   8  26
TORSDOF 6
ENDMDL
MODEL 7
REMARK VINA RESULT:    -5.445     15.102     16.373
REMARK INTER + INTRA:          -6.851
REMARK INTER:                  -6.459
REMARK INTRA:                  -0.392
REMARK UNBOUND:                -0.292
REMARK SMILES O=c1c(O)c(-c2ccc(O)cc2O)oc2cc(O)cc(O)c12
REMARK SMILES IDX 5 1 3 2 2 3 1 4 22 5 20 6 19 7 17 8 16 9 15 10 14 11 6 12
REMARK SMILES IDX 8 13 7 14 9 15 11 16 12 17 10 18 13 20 4 22 21 24 18 26
REMARK H PARENT 10 19 13 21 4 23 21 25 18 27
REMARK Flexibility Score: inf
ROOT
ATOM      1  C   UNL     1      -4.326   7.735  10.675  1.00  0.00     0.184 A 
ATOM      2  C   UNL     1      -3.635   8.903  11.035  1.00  0.00     0.208 A 
ATOM      3  C   UNL     1      -2.258   8.827  11.297  1.00  0.00     0.238 A 
ATOM      4  O   UNL     1      -1.634   9.885  11.566  1.00  0.00    -0.285 OA
ATOM      5  C   UNL     1      -1.595   7.578  11.210  1.00  0.00     0.111 A 
ATOM      6  C   UNL     1      -0.210   7.375  11.493  1.00  0.00     0.134 A 
ATOM      7  C   UNL     1       0.368   6.123  11.248  1.00  0.00     0.093 A 
ATOM      8  C   UNL     1      -0.401   5.050  10.794  1.00  0.00     0.123 A 
ATOM      9  C   UNL     1      -1.766   5.222  10.571  1.00  0.00     0.094 A 
ATOM     10  C   UNL     1      -2.364   6.469  10.772  1.00  0.00     0.146 A 
ATOM     11  O   UNL     1      -3.665   6.592  10.537  1.00  0.00    -0.451 OA
ENDROOT
BRANCH   1  12
ATOM     12  C   UNL     1      -5.778   7.745  10.403  1.00  0.00     0.063 A 
ATOM     13  C   UNL     1      -7.617   8.415   8.961  1.00  0.00     0.047 A 
ATOM     14  C   UNL     1      -6.250   8.393   9.251  1.00  0.00     0.020 A 
ATOM     15  C   UNL     1      -8.527   7.780   9.809  1.00  0.00     0.119 A 
ATOM     16  C   UNL     1      -8.064   7.111  10.949  1.00  0.00     0.093 A 
ATOM     17  C   UNL     1      -6.693   7.078  11.245  1.00  0.00     0.130 A 
BRANCH  15  18
ATOM     18  O   UNL     1      -9.887   7.815   9.509  1.00  0.00    -0.508 OA
ATOM     19  H   UNL     1     -10.388   8.692   9.419  1.00  0.00     0.293 HD
ENDBRANCH  15  18
BRANCH  17  20
ATOM     20  O   UNL     1      -6.240   6.368  12.357  1.00  0.00    -0.507 OA
ATOM     21  H   UNL     1      -6.277   6.760  13.290  1.00  0.00     0.293 HD
ENDBRANCH  17  20
ENDBRANCH   1  12
BRANCH   2  22
ATOM     22  O   UNL     1      -4.311  10.125  11.096  1.00  0.00    -0.502 OA
ATOM     23  H   UNL     1      -5.267  10.201  11.423  1.00  0.00     0.293 HD
ENDBRANCH   2  22
BRANCH   6  24
ATOM     24  O   UNL     1       0.627   8.354  12.035  1.00  0.00    -0.507 OA
ATOM     25  H   UNL     1       1.632   8.285  12.090  1.00  0.00     0.293 HD
ENDBRANCH   6  24
BRANCH   8  26
ATOM     26  O   UNL     1       0.179   3.804  10.569  1.00  0.00    -0.508 OA
ATOM     27  H   UNL     1       0.877   3.423  11.197  1.00  0.00     0.293 HD
ENDBRANCH   8  26
TORSDOF 6
ENDMDL
MODEL 8
REMARK VINA RESULT:    -5.301      2.780      4.433
REMARK INTER + INTRA:          -6.678
REMARK INTER:                  -6.422
REMARK INTRA:                  -0.256
REMARK UNBOUND:                -0.292
REMARK SMILES O=c1c(O)c(-c2ccc(O)cc2O)oc2cc(O)cc(O)c12
REMARK SMILES IDX 5 1 3 2 2 3 1 4 22 5 20 6 19 7 17 8 16 9 15 10 14 11 6 12
REMARK SMILES IDX 8 13 7 14 9 15 11 16 12 17 10 18 13 20 4 22 21 24 18 26
REMARK H PARENT 10 19 13 21 4 23 21 25 18 27
REMARK Flexibility Score: inf
ROOT
ATOM      1  C   UNL     1       2.923  -6.359   9.396  1.00  0.00     0.184 A 
ATOM      2  C   UNL     1       3.227  -7.402   8.508  1.00  0.00     0.208 A 
ATOM      3  C   UNL     1       4.262  -7.223   7.576  1.00  0.00     0.238 A 
ATOM      4  O   UNL     1       4.567  -8.180   6.819  1.00  0.00    -0.285 OA
ATOM      5  C   UNL     1       4.967  -5.995   7.536  1.00  0.00     0.111 A 
ATOM      6  C   UNL     1       6.007  -5.688   6.608  1.00  0.00     0.134 A 
ATOM      7  C   UNL     1       6.723  -4.491   6.745  1.00  0.00     0.093 A 
ATOM      8  C   UNL     1       6.394  -3.563   7.734  1.00  0.00     0.123 A 
ATOM      9  C   UNL     1       5.342  -3.827   8.608  1.00  0.00     0.094 A 
ATOM     10  C   UNL     1       4.632  -5.027   8.520  1.00  0.00     0.146 A 
ATOM     11  O   UNL     1       3.644  -5.244   9.380  1.00  0.00    -0.451 OA
ENDROOT
BRANCH   1  12
ATOM     12  C   UNL     1       1.835  -6.477  10.389  1.00  0.00     0.063 A 
ATOM     13  C   UNL     1      -0.500  -6.961  10.865  1.00  0.00     0.047 A 
ATOM     14  C   UNL     1       0.550  -6.835   9.951  1.00  0.00     0.020 A 
ATOM     15  C   UNL     1      -0.276  -6.747  12.227  1.00  0.00     0.119 A 
ATOM     16  C   UNL     1       1.007  -6.413  12.678  1.00  0.00     0.093 A 
ATOM     17  C   UNL     1       2.068  -6.289  11.768  1.00  0.00     0.130 A 
BRANCH  15  18
ATOM     18  O   UNL     1      -1.334  -6.873  13.125  1.00  0.00    -0.508 OA
ATOM     19  H   UNL     1      -1.968  -6.104  13.309  1.00  0.00     0.293 HD
ENDBRANCH  15  18
BRANCH  17  20
ATOM     20  O   UNL     1       3.352  -6.004  12.234  1.00  0.00    -0.507 OA
ATOM     21  H   UNL     1       3.620  -6.179  13.195  1.00  0.00     0.293 HD
ENDBRANCH  17  20
ENDBRANCH   1  12
BRANCH   2  22
ATOM     22  O   UNL     1       2.527  -8.609   8.581  1.00  0.00    -0.502 OA
ATOM     23  H   UNL     1       2.151  -8.967   9.451  1.00  0.00     0.293 HD
ENDBRANCH   2  22
BRANCH   6  24
ATOM     24  O   UNL     1       6.355  -6.503   5.528  1.00  0.00    -0.507 OA
ATOM     25  H   UNL     1       6.874  -7.365   5.602  1.00  0.00     0.293 HD
ENDBRANCH   6  24
BRANCH   8  26
ATOM     26  O   UNL     1       7.101  -2.369   7.852  1.00  0.00    -0.508 OA
ATOM     27  H   UNL     1       6.672  -1.534   8.233  1.00  0.00     0.293 HD
ENDBRANCH   8  26
TORSDOF 6
ENDMDL
MODEL 9
REMARK VINA RESULT:    -5.203      2.293      2.971
REMARK INTER + INTRA:          -6.560
REMARK INTER:                  -6.147
REMARK INTRA:                  -0.413
REMARK UNBOUND:                -0.292
REMARK SMILES O=c1c(O)c(-c2ccc(O)cc2O)oc2cc(O)cc(O)c12
REMARK SMILES IDX 5 1 3 2 2 3 1 4 22 5 20 6 19 7 17 8 16 9 15 10 14 11 6 12
REMARK SMILES IDX 8 13 7 14 9 15 11 16 12 17 10 18 13 20 4 22 21 24 18 26
REMARK H PARENT 10 19 13 21 4 23 21 25 18 27
REMARK Flexibility Score: inf
ROOT
ATOM      1  C   UNL     1       4.854  -6.021   7.580  1.00  0.00     0.184 A 
ATOM      2  C   UNL     1       5.599  -7.172   7.278  1.00  0.00     0.208 A 
ATOM      3  C   UNL     1       6.473  -7.148   6.179  1.00  0.00     0.238 A 
ATOM      4  O   UNL     1       7.178  -8.164   5.946  1.00  0.00    -0.285 OA
ATOM      5  C   UNL     1       6.577  -5.978   5.388  1.00  0.00     0.111 A 
ATOM      6  C   UNL     1       7.400  -5.854   4.228  1.00  0.00     0.134 A 
ATOM      7  C   UNL     1       7.524  -4.608   3.600  1.00  0.00     0.093 A 
ATOM      8  C   UNL     1       6.805  -3.500   4.049  1.00  0.00     0.123 A 
ATOM      9  C   UNL     1       5.953  -3.625   5.144  1.00  0.00     0.094 A 
ATOM     10  C   UNL     1       5.835  -4.845   5.814  1.00  0.00     0.146 A 
ATOM     11  O   UNL     1       5.021  -4.917   6.861  1.00  0.00    -0.451 OA
ENDROOT
BRANCH   1  12
ATOM     12  C   UNL     1       3.905  -5.986   8.711  1.00  0.00     0.063 A 
ATOM     13  C   UNL     1       1.807  -6.733   9.688  1.00  0.00     0.047 A 
ATOM     14  C   UNL     1       2.724  -6.739   8.632  1.00  0.00     0.020 A 
ATOM     15  C   UNL     1       2.066  -5.985  10.839  1.00  0.00     0.119 A 
ATOM     16  C   UNL     1       3.253  -5.249  10.938  1.00  0.00     0.093 A 
ATOM     17  C   UNL     1       4.181  -5.254   9.886  1.00  0.00     0.130 A 
BRANCH  15  18
ATOM     18  O   UNL     1       1.141  -5.986  11.881  1.00  0.00    -0.508 OA
ATOM     19  H   UNL     1       0.642  -6.828  12.146  1.00  0.00     0.293 HD
ENDBRANCH  15  18
BRANCH  17  20
ATOM     20  O   UNL     1       5.382  -4.555  10.016  1.00  0.00    -0.507 OA
ATOM     21  H   UNL     1       5.707  -4.219  10.914  1.00  0.00     0.293 HD
ENDBRANCH  17  20
ENDBRANCH   1  12
BRANCH   2  22
ATOM     22  O   UNL     1       5.490  -8.307   8.085  1.00  0.00    -0.502 OA
ATOM     23  H   UNL     1       5.858  -9.209   7.807  1.00  0.00     0.293 HD
ENDBRANCH   2  22
BRANCH   6  24
ATOM     24  O   UNL     1       8.089  -6.920   3.644  1.00  0.00    -0.507 OA
ATOM     25  H   UNL     1       8.302  -6.997   2.661  1.00  0.00     0.293 HD
ENDBRANCH   6  24
BRANCH   8  26
ATOM     26  O   UNL     1       6.922  -2.269   3.407  1.00  0.00    -0.508 OA
ATOM     27  H   UNL     1       7.759  -1.704   3.492  1.00  0.00     0.293 HD
ENDBRANCH   8  26
TORSDOF 6
ENDMDL
