MODEL 1
REMARK VINA RESULT:    -3.830      0.000      0.000
REMARK INTER + INTRA:          -8.618
REMARK INTER:                  -6.965
REMARK INTRA:                  -1.654
REMARK UNBOUND:                -1.654
REMARK SMILES CCCCCCCCCCCCCCCC(=O)[O-]
REMARK SMILES IDX 9 1 10 2 11 3 12 4 13 5 14 6 15 7 16 8 17 9 18 10 8 11 7 12
REMARK SMILES IDX 6 13 5 14 4 15 3 16 2 17 1 18
REMARK H PARENT
REMARK Flexibility Score: inf
ROOT
ATOM      1  C   UNL     1      16.609 133.174  61.538  1.00  0.00     0.000 C 
ENDROOT
BRANCH   1   2
ATOM      2  C   UNL     1      16.031 131.748  61.558  1.00  0.00     0.000 C 
BRANCH   2   3
ATOM      3  C   UNL     1      14.939 131.528  60.496  1.00  0.00     0.000 C 
BRANCH   3   4
ATOM      4  C   UNL     1      14.966 132.521  59.320  1.00  0.00     0.000 C 
BRANCH   4   5
ATOM      5  C   UNL     1      15.517 131.899  58.024  1.00  0.00     0.000 C 
BRANCH   5   6
ATOM      6  C   UNL     1      17.017 131.576  58.116  1.00  0.00     0.006 C 
BRANCH   6   7
ATOM      7  C   UNL     1      17.898 132.823  57.966  1.00  0.00     0.053 C 
BRANCH   7   8
ATOM      8  C   UNL     1      18.566 132.833  56.628  1.00  0.00     0.041 C 
ATOM      9  O   UNL     1      19.093 131.782  56.176  1.00  0.00    -0.550 OA
ATOM     10  O   UNL     1      18.651 134.013  55.901  1.00  0.00    -0.550 OA
ENDBRANCH   7   8
ENDBRANCH   6   7
ENDBRANCH   5   6
ENDBRANCH   4   5
ENDBRANCH   3   4
ENDBRANCH   2   3
ENDBRANCH   1   2
BRANCH   1  11
ATOM     11  C   UNL     1      17.734 133.367  62.568  1.00  0.00     0.000 C 
BRANCH  11  12
ATOM     12  C   UNL     1      19.067 132.757  62.108  1.00  0.00    -0.000 C 
BRANCH  12  13
ATOM     13  C   UNL     1      19.678 131.881  63.210  1.00  0.00    -0.000 C 
BRANCH  13  14
ATOM     14  C   UNL     1      18.822 131.919  64.480  1.00  0.00    -0.000 C 
BRANCH  14  15
ATOM     15  C   UNL     1      18.676 130.519  65.088  1.00  0.00    -0.000 C 
BRANCH  15  16
ATOM     16  C   UNL     1      17.656 129.681  64.302  1.00  0.00    -0.000 C 
BRANCH  16  17
ATOM     17  C   UNL     1      18.166 128.265  63.995  1.00  0.00    -0.003 C 
ATOM     18  C   UNL     1      19.692 128.178  63.974  1.00  0.00     0.004 C 
ENDBRANCH  16  17
ENDBRANCH  15  16
ENDBRANCH  14  15
ENDBRANCH  13  14
ENDBRANCH  12  13
ENDBRANCH  11  12
ENDBRANCH   1  11
TORSDOF 14
ENDMDL
MODEL 2
REMARK VINA RESULT:    -3.784      3.262      6.900
REMARK INTER + INTRA:          -8.535
REMARK INTER:                  -6.973
REMARK INTRA:                  -1.563
REMARK UNBOUND:                -1.654
REMARK SMILES CCCCCCCCCCCCCCCC(=O)[O-]
REMARK SMILES IDX 9 1 10 2 11 3 12 4 13 5 14 6 15 7 16 8 17 9 18 10 8 11 7 12
REMARK SMILES IDX 6 13 5 14 4 15 3 16 2 17 1 18
REMARK H PARENT
REMARK Flexibility Score: inf
ROOT
ATOM      1  C   UNL     1      16.950 133.878  61.628  1.00  0.00     0.000 C 
ENDROOT
BRANCH   1   2
ATOM      2  C   UNL     1      18.202 133.855  62.523  1.00  0.00     0.000 C 
BRANCH   2   3
ATOM      3  C   UNL     1      19.221 132.781  62.102  1.00  0.00     0.000 C 
BRANCH   3   4
ATOM      4  C   UNL     1      19.633 131.802  63.216  1.00  0.00     0.000 C 
BRANCH   4   5
ATOM      5  C   UNL     1      18.897 132.061  64.542  1.00  0.00     0.000 C 
BRANCH   5   6
ATOM      6  C   UNL     1      18.187 130.808  65.077  1.00  0.00     0.006 C 
BRANCH   6   7
ATOM      7  C   UNL     1      17.517 129.990  63.965  1.00  0.00     0.053 C 
BRANCH   7   8
ATOM      8  C   UNL     1      17.619 128.527  64.260  1.00  0.00     0.041 C 
ATOM      9  O   UNL     1      16.738 127.959  64.958  1.00  0.00    -0.550 OA
ATOM     10  O   UNL     1      18.712 127.800  63.807  1.00  0.00    -0.550 OA
ENDBRANCH   7   8
ENDBRANCH   6   7
ENDBRANCH   5   6
ENDBRANCH   4   5
ENDBRANCH   3   4
ENDBRANCH   2   3
ENDBRANCH   1   2
BRANCH   1  11
ATOM     11  C   UNL     1      15.897 132.846  62.064  1.00  0.00     0.000 C 
BRANCH  11  12
ATOM     12  C   UNL     1      15.873 131.607  61.154  1.00  0.00    -0.000 C 
BRANCH  12  13
ATOM     13  C   UNL     1      14.757 131.718  60.107  1.00  0.00    -0.000 C 
BRANCH  13  14
ATOM     14  C   UNL     1      15.327 132.086  58.733  1.00  0.00    -0.000 C 
BRANCH  14  15
ATOM     15  C   UNL     1      16.843 131.860  58.687  1.00  0.00    -0.000 C 
BRANCH  15  16
ATOM     16  C   UNL     1      17.316 131.598  57.249  1.00  0.00    -0.000 C 
BRANCH  16  17
ATOM     17  C   UNL     1      16.287 130.811  56.422  1.00  0.00    -0.003 C 
ATOM     18  C   UNL     1      16.555 130.884  54.920  1.00  0.00     0.004 C 
ENDBRANCH  16  17
ENDBRANCH  15  16
ENDBRANCH  14  15
ENDBRANCH  13  14
ENDBRANCH  12  13
ENDBRANCH  11  12
ENDBRANCH   1  11
TORSDOF 14
ENDMDL
MODEL 3
REMARK VINA RESULT:    -3.777      1.429      2.217
REMARK INTER + INTRA:          -8.522
REMARK INTER:                  -7.402
REMARK INTRA:                  -1.120
REMARK UNBOUND:                -1.654
REMARK SMILES CCCCCCCCCCCCCCCC(=O)[O-]
REMARK SMILES IDX 9 1 10 2 11 3 12 4 13 5 14 6 15 7 16 8 17 9 18 10 8 11 7 12
REMARK SMILES IDX 6 13 5 14 4 15 3 16 2 17 1 18
REMARK H PARENT
REMARK Flexibility Score: inf
ROOT
ATOM      1  C   UNL     1      18.684 133.133  61.497  1.00  0.00     0.000 C 
ENDROOT
BRANCH   1   2
ATOM      2  C   UNL     1      18.827 133.561  60.026  1.00  0.00     0.000 C 
BRANCH   2   3
ATOM      3  C   UNL     1      17.739 132.961  59.117  1.00  0.00     0.000 C 
BRANCH   3   4
ATOM      4  C   UNL     1      16.496 132.430  59.854  1.00  0.00     0.000 C 
BRANCH   4   5
ATOM      5  C   UNL     1      15.514 131.700  58.921  1.00  0.00     0.000 C 
BRANCH   5   6
ATOM      6  C   UNL     1      15.780 131.996  57.437  1.00  0.00     0.006 C 
BRANCH   6   7
ATOM      7  C   UNL     1      16.132 130.734  56.638  1.00  0.00     0.053 C 
BRANCH   7   8
ATOM      8  C   UNL     1      17.018 131.078  55.484  1.00  0.00     0.041 C 
ATOM      9  O   UNL     1      18.197 131.472  55.685  1.00  0.00    -0.550 OA
ATOM     10  O   UNL     1      16.528 131.011  54.186  1.00  0.00    -0.550 OA
ENDBRANCH   7   8
ENDBRANCH   6   7
ENDBRANCH   5   6
ENDBRANCH   4   5
ENDBRANCH   3   4
ENDBRANCH   2   3
ENDBRANCH   1   2
BRANCH   1  11
ATOM     11  C   UNL     1      20.020 132.685  62.111  1.00  0.00     0.000 C 
BRANCH  11  12
ATOM     12  C   UNL     1      19.849 131.551  63.134  1.00  0.00    -0.000 C 
BRANCH  12  13
ATOM     13  C   UNL     1      19.054 132.031  64.356  1.00  0.00    -0.000 C 
BRANCH  13  14
ATOM     14  C   UNL     1      18.278 130.874  64.996  1.00  0.00    -0.000 C 
BRANCH  14  15
ATOM     15  C   UNL     1      17.656 129.969  63.925  1.00  0.00    -0.000 C 
BRANCH  15  16
ATOM     16  C   UNL     1      18.028 128.498  64.165  1.00  0.00    -0.000 C 
BRANCH  16  17
ATOM     17  C   UNL     1      19.493 128.321  64.592  1.00  0.00    -0.003 C 
ATOM     18  C   UNL     1      20.411 127.966  63.422  1.00  0.00     0.004 C 
ENDBRANCH  16  17
ENDBRANCH  15  16
ENDBRANCH  14  15
ENDBRANCH  13  14
ENDBRANCH  12  13
ENDBRANCH  11  12
ENDBRANCH   1  11
TORSDOF 14
ENDMDL
MODEL 4
REMARK VINA RESULT:    -3.769      3.520      5.063
REMARK INTER + INTRA:          -8.508
REMARK INTER:                  -6.685
REMARK INTRA:                  -1.824
REMARK UNBOUND:                -1.654
REMARK SMILES CCCCCCCCCCCCCCCC(=O)[O-]
REMARK SMILES IDX 9 1 10 2 11 3 12 4 13 5 14 6 15 7 16 8 17 9 18 10 8 11 7 12
REMARK SMILES IDX 6 13 5 14 4 15 3 16 2 17 1 18
REMARK H PARENT
REMARK Flexibility Score: inf
ROOT
ATOM      1  C   UNL     1      18.568 131.321  66.715  1.00  0.00     0.000 C 
ENDROOT
BRANCH   1   2
ATOM      2  C   UNL     1      18.853 132.361  65.617  1.00  0.00     0.000 C 
BRANCH   2   3
ATOM      3  C   UNL     1      18.472 131.869  64.210  1.00  0.00     0.000 C 
BRANCH   3   4
ATOM      4  C   UNL     1      19.652 131.712  63.233  1.00  0.00     0.000 C 
BRANCH   4   5
ATOM      5  C   UNL     1      19.628 132.750  62.097  1.00  0.00     0.000 C 
BRANCH   5   6
ATOM      6  C   UNL     1      18.227 132.934  61.494  1.00  0.00     0.006 C 
BRANCH   6   7
ATOM      7  C   UNL     1      17.852 134.411  61.314  1.00  0.00     0.053 C 
BRANCH   7   8
ATOM      8  C   UNL     1      16.619 134.735  62.095  1.00  0.00     0.041 C 
ATOM      9  O   UNL     1      16.283 135.935  62.280  1.00  0.00    -0.550 OA
ATOM     10  O   UNL     1      15.866 133.715  62.663  1.00  0.00    -0.550 OA
ENDBRANCH   7   8
ENDBRANCH   6   7
ENDBRANCH   5   6
ENDBRANCH   4   5
ENDBRANCH   3   4
ENDBRANCH   2   3
ENDBRANCH   1   2
BRANCH   1  11
ATOM     11  C   UNL     1      17.346 131.690  67.571  1.00  0.00     0.000 C 
BRANCH  11  12
ATOM     12  C   UNL     1      16.016 131.368  66.873  1.00  0.00    -0.000 C 
BRANCH  12  13
ATOM     13  C   UNL     1      15.825 129.852  66.729  1.00  0.00    -0.000 C 
BRANCH  13  14
ATOM     14  C   UNL     1      15.836 129.434  65.255  1.00  0.00    -0.000 C 
BRANCH  14  15
ATOM     15  C   UNL     1      16.664 128.160  65.049  1.00  0.00    -0.000 C 
BRANCH  15  16
ATOM     16  C   UNL     1      17.758 128.379  63.994  1.00  0.00    -0.000 C 
BRANCH  16  17
ATOM     17  C   UNL     1      19.174 128.300  64.586  1.00  0.00    -0.003 C 
ATOM     18  C   UNL     1      20.238 127.993  63.533  1.00  0.00     0.004 C 
ENDBRANCH  16  17
ENDBRANCH  15  16
ENDBRANCH  14  15
ENDBRANCH  13  14
ENDBRANCH  12  13
ENDBRANCH  11  12
ENDBRANCH   1  11
TORSDOF 14
ENDMDL
MODEL 5
REMARK VINA RESULT:    -3.746      2.103      3.719
REMARK INTER + INTRA:          -8.465
REMARK INTER:                  -6.614
REMARK INTRA:                  -1.851
REMARK UNBOUND:                -1.654
REMARK SMILES CCCCCCCCCCCCCCCC(=O)[O-]
REMARK SMILES IDX 9 1 10 2 11 3 12 4 13 5 14 6 15 7 16 8 17 9 18 10 8 11 7 12
REMARK SMILES IDX 6 13 5 14 4 15 3 16 2 17 1 18
REMARK H PARENT
REMARK Flexibility Score: inf
ROOT
ATOM      1  C   UNL     1      18.513 133.123  64.654  1.00  0.00     0.000 C 
ENDROOT
BRANCH   1   2
ATOM      2  C   UNL     1      19.006 132.649  63.275  1.00  0.00     0.000 C 
BRANCH   2   3
ATOM      3  C   UNL     1      17.858 132.409  62.278  1.00  0.00     0.000 C 
BRANCH   3   4
ATOM      4  C   UNL     1      16.575 133.213  62.556  1.00  0.00     0.000 C 
BRANCH   4   5
ATOM      5  C   UNL     1      15.330 132.321  62.705  1.00  0.00     0.000 C 
BRANCH   5   6
ATOM      6  C   UNL     1      14.415 132.375  61.472  1.00  0.00     0.006 C 
BRANCH   6   7
ATOM      7  C   UNL     1      14.806 131.346  60.403  1.00  0.00     0.053 C 
BRANCH   7   8
ATOM      8  C   UNL     1      15.186 132.034  59.131  1.00  0.00     0.041 C 
ATOM      9  O   UNL     1      14.424 131.980  58.129  1.00  0.00    -0.550 OA
ATOM     10  O   UNL     1      16.405 132.693  59.033  1.00  0.00    -0.550 OA
ENDBRANCH   7   8
ENDBRANCH   6   7
ENDBRANCH   5   6
ENDBRANCH   4   5
ENDBRANCH   3   4
ENDBRANCH   2   3
ENDBRANCH   1   2
BRANCH   1  11
ATOM     11  C   UNL     1      18.575 132.012  65.715  1.00  0.00     0.000 C 
BRANCH  11  12
ATOM     12  C   UNL     1      17.261 131.869  66.498  1.00  0.00    -0.000 C 
BRANCH  12  13
ATOM     13  C   UNL     1      16.677 130.460  66.337  1.00  0.00    -0.000 C 
BRANCH  13  14
ATOM     14  C   UNL     1      16.803 129.975  64.888  1.00  0.00    -0.000 C 
BRANCH  14  15
ATOM     15  C   UNL     1      16.783 128.443  64.816  1.00  0.00    -0.000 C 
BRANCH  15  16
ATOM     16  C   UNL     1      17.963 127.917  63.986  1.00  0.00    -0.000 C 
BRANCH  16  17
ATOM     17  C   UNL     1      19.202 128.821  64.081  1.00  0.00    -0.003 C 
ATOM     18  C   UNL     1      20.490 128.104  63.678  1.00  0.00     0.004 C 
ENDBRANCH  16  17
ENDBRANCH  15  16
ENDBRANCH  14  15
ENDBRANCH  13  14
ENDBRANCH  12  13
ENDBRANCH  11  12
ENDBRANCH   1  11
TORSDOF 14
ENDMDL
MODEL 6
REMARK VINA RESULT:    -3.637      5.258      7.398
REMARK INTER + INTRA:          -8.267
REMARK INTER:                  -6.127
REMARK INTRA:                  -2.140
REMARK UNBOUND:                -1.654
REMARK SMILES CCCCCCCCCCCCCCCC(=O)[O-]
REMARK SMILES IDX 9 1 10 2 11 3 12 4 13 5 14 6 15 7 16 8 17 9 18 10 8 11 7 12
REMARK SMILES IDX 6 13 5 14 4 15 3 16 2 17 1 18
REMARK H PARENT
REMARK Flexibility Score: inf
ROOT
ATOM      1  C   UNL     1      17.101 131.084  55.126  1.00  0.00     0.000 C 
ENDROOT
BRANCH   1   2
ATOM      2  C   UNL     1      15.928 131.675  54.324  1.00  0.00     0.000 C 
BRANCH   2   3
ATOM      3  C   UNL     1      16.188 133.118  53.856  1.00  0.00     0.000 C 
BRANCH   3   4
ATOM      4  C   UNL     1      17.671 133.485  53.671  1.00  0.00     0.000 C 
BRANCH   4   5
ATOM      5  C   UNL     1      17.940 134.243  52.359  1.00  0.00     0.000 C 
BRANCH   5   6
ATOM      6  C   UNL     1      17.083 133.726  51.192  1.00  0.00     0.006 C 
BRANCH   6   7
ATOM      7  C   UNL     1      17.917 133.405  49.945  1.00  0.00     0.053 C 
BRANCH   7   8
ATOM      8  C   UNL     1      17.355 132.216  49.234  1.00  0.00     0.041 C 
ATOM      9  O   UNL     1      16.119 131.978  49.276  1.00  0.00    -0.550 OA
ATOM     10  O   UNL     1      18.201 131.340  48.566  1.00  0.00    -0.550 OA
ENDBRANCH   7   8
ENDBRANCH   6   7
ENDBRANCH   5   6
ENDBRANCH   4   5
ENDBRANCH   3   4
ENDBRANCH   2   3
ENDBRANCH   1   2
BRANCH   1  11
ATOM     11  C   UNL     1      16.653 130.487  56.470  1.00  0.00     0.000 C 
BRANCH  11  12
ATOM     12  C   UNL     1      15.599 131.351  57.178  1.00  0.00    -0.000 C 
BRANCH  12  13
ATOM     13  C   UNL     1      16.264 132.374  58.109  1.00  0.00    -0.000 C 
BRANCH  13  14
ATOM     14  C   UNL     1      16.206 133.783  57.509  1.00  0.00    -0.000 C 
BRANCH  14  15
ATOM     15  C   UNL     1      17.606 134.403  57.423  1.00  0.00    -0.000 C 
BRANCH  15  16
ATOM     16  C   UNL     1      18.686 133.376  57.794  1.00  0.00    -0.000 C 
BRANCH  16  17
ATOM     17  C   UNL     1      19.857 133.364  56.799  1.00  0.00    -0.003 C 
ATOM     18  C   UNL     1      20.442 131.968  56.592  1.00  0.00     0.004 C 
ENDBRANCH  16  17
ENDBRANCH  15  16
ENDBRANCH  14  15
ENDBRANCH  13  14
ENDBRANCH  12  13
ENDBRANCH  11  12
ENDBRANCH   1  11
TORSDOF 14
ENDMDL
MODEL 7
REMARK VINA RESULT:    -3.623      3.313      6.548
REMARK INTER + INTRA:          -8.242
REMARK INTER:                  -6.163
REMARK INTRA:                  -2.080
REMARK UNBOUND:                -1.654
REMARK SMILES CCCCCCCCCCCCCCCC(=O)[O-]
REMARK SMILES IDX 9 1 10 2 11 3 12 4 13 5 14 6 15 7 16 8 17 9 18 10 8 11 7 12
REMARK SMILES IDX 6 13 5 14 4 15 3 16 2 17 1 18
REMARK H PARENT
REMARK Flexibility Score: inf
ROOT
ATOM      1  C   UNL     1      18.852 133.150  58.690  1.00  0.00     0.000 C 
ENDROOT
BRANCH   1   2
ATOM      2  C   UNL     1      18.466 133.147  60.179  1.00  0.00     0.000 C 
BRANCH   2   3
ATOM      3  C   UNL     1      19.688 133.150  61.116  1.00  0.00     0.000 C 
BRANCH   3   4
ATOM      4  C   UNL     1      19.448 132.520  62.500  1.00  0.00     0.000 C 
BRANCH   4   5
ATOM      5  C   UNL     1      18.278 133.170  63.258  1.00  0.00     0.000 C 
BRANCH   5   6
ATOM      6  C   UNL     1      17.644 132.222  64.289  1.00  0.00     0.006 C 
BRANCH   6   7
ATOM      7  C   UNL     1      17.182 130.898  63.666  1.00  0.00     0.053 C 
BRANCH   7   8
ATOM      8  C   UNL     1      17.783 129.740  64.397  1.00  0.00     0.041 C 
ATOM      9  O   UNL     1      18.988 129.777  64.761  1.00  0.00    -0.550 OA
ATOM     10  O   UNL     1      17.028 128.599  64.634  1.00  0.00    -0.550 OA
ENDBRANCH   7   8
ENDBRANCH   6   7
ENDBRANCH   5   6
ENDBRANCH   4   5
ENDBRANCH   3   4
ENDBRANCH   2   3
ENDBRANCH   1   2
BRANCH   1  11
ATOM     11  C   UNL     1      17.705 132.672  57.784  1.00  0.00     0.000 C 
BRANCH  11  12
ATOM     12  C   UNL     1      16.789 131.654  58.479  1.00  0.00    -0.000 C 
BRANCH  12  13
ATOM     13  C   UNL     1      15.322 131.880  58.089  1.00  0.00    -0.000 C 
BRANCH  13  14
ATOM     14  C   UNL     1      14.376 131.313  59.154  1.00  0.00    -0.000 C 
BRANCH  14  15
ATOM     15  C   UNL     1      15.028 131.343  60.542  1.00  0.00    -0.000 C 
BRANCH  15  16
ATOM     16  C   UNL     1      14.358 132.394  61.441  1.00  0.00    -0.000 C 
BRANCH  16  17
ATOM     17  C   UNL     1      15.134 133.719  61.479  1.00  0.00    -0.003 C 
ATOM     18  C   UNL     1      14.589 134.752  60.492  1.00  0.00     0.004 C 
ENDBRANCH  16  17
ENDBRANCH  15  16
ENDBRANCH  14  15
ENDBRANCH  13  14
ENDBRANCH  12  13
ENDBRANCH  11  12
ENDBRANCH   1  11
TORSDOF 14
ENDMDL
MODEL 8
REMARK VINA RESULT:    -3.613      3.439      7.049
REMARK INTER + INTRA:          -8.224
REMARK INTER:                  -6.563
REMARK INTRA:                  -1.662
REMARK UNBOUND:                -1.654
REMARK SMILES CCCCCCCCCCCCCCCC(=O)[O-]
REMARK SMILES IDX 9 1 10 2 11 3 12 4 13 5 14 6 15 7 16 8 17 9 18 10 8 11 7 12
REMARK SMILES IDX 6 13 5 14 4 15 3 16 2 17 1 18
REMARK H PARENT
REMARK Flexibility Score: inf
ROOT
ATOM      1  C   UNL     1      17.538 134.171  59.195  1.00  0.00     0.000 C 
ENDROOT
BRANCH   1   2
ATOM      2  C   UNL     1      18.026 133.144  60.231  1.00  0.00     0.000 C 
BRANCH   2   3
ATOM      3  C   UNL     1      19.475 133.392  60.686  1.00  0.00     0.000 C 
BRANCH   3   4
ATOM      4  C   UNL     1      19.872 132.696  62.001  1.00  0.00     0.000 C 
BRANCH   4   5
ATOM      5  C   UNL     1      18.658 132.309  62.863  1.00  0.00     0.000 C 
BRANCH   5   6
ATOM      6  C   UNL     1      19.036 131.390  64.035  1.00  0.00     0.006 C 
BRANCH   6   7
ATOM      7  C   UNL     1      17.919 130.401  64.392  1.00  0.00     0.053 C 
BRANCH   7   8
ATOM      8  C   UNL     1      18.378 128.995  64.174  1.00  0.00     0.041 C 
ATOM      9  O   UNL     1      19.605 128.742  64.044  1.00  0.00    -0.550 OA
ATOM     10  O   UNL     1      17.450 127.967  64.064  1.00  0.00    -0.550 OA
ENDBRANCH   7   8
ENDBRANCH   6   7
ENDBRANCH   5   6
ENDBRANCH   4   5
ENDBRANCH   3   4
ENDBRANCH   2   3
ENDBRANCH   1   2
BRANCH   1  11
ATOM     11  C   UNL     1      18.697 134.930  58.528  1.00  0.00     0.000 C 
BRANCH  11  12
ATOM     12  C   UNL     1      18.922 134.502  57.070  1.00  0.00    -0.000 C 
BRANCH  12  13
ATOM     13  C   UNL     1      20.070 133.489  56.965  1.00  0.00    -0.000 C 
BRANCH  13  14
ATOM     14  C   UNL     1      19.551 132.113  56.532  1.00  0.00    -0.000 C 
BRANCH  14  15
ATOM     15  C   UNL     1      18.141 132.218  55.938  1.00  0.00    -0.000 C 
BRANCH  15  16
ATOM     16  C   UNL     1      17.280 131.014  56.350  1.00  0.00    -0.000 C 
BRANCH  16  17
ATOM     17  C   UNL     1      16.115 131.408  57.270  1.00  0.00    -0.003 C 
ATOM     18  C   UNL     1      15.266 132.543  56.696  1.00  0.00     0.004 C 
ENDBRANCH  16  17
ENDBRANCH  15  16
ENDBRANCH  14  15
ENDBRANCH  13  14
ENDBRANCH  12  13
ENDBRANCH  11  12
ENDBRANCH   1  11
TORSDOF 14
ENDMDL
MODEL 9
REMARK VINA RESULT:    -3.579      3.334      6.958
REMARK INTER + INTRA:          -8.162
REMARK INTER:                  -6.489
REMARK INTRA:                  -1.672
REMARK UNBOUND:                -1.654
REMARK SMILES CCCCCCCCCCCCCCCC(=O)[O-]
REMARK SMILES IDX 9 1 10 2 11 3 12 4 13 5 14 6 15 7 16 8 17 9 18 10 8 11 7 12
REMARK SMILES IDX 6 13 5 14 4 15 3 16 2 17 1 18
REMARK H PARENT
REMARK Flexibility Score: inf
ROOT
ATOM      1  C   UNL     1      15.879 132.510  60.711  1.00  0.00     0.000 C 
ENDROOT
BRANCH   1   2
ATOM      2  C   UNL     1      16.483 131.964  62.016  1.00  0.00     0.000 C 
BRANCH   2   3
ATOM      3  C   UNL     1      17.286 133.022  62.795  1.00  0.00     0.000 C 
BRANCH   3   4
ATOM      4  C   UNL     1      18.683 132.568  63.257  1.00  0.00     0.000 C 
BRANCH   4   5
ATOM      5  C   UNL     1      18.842 132.590  64.787  1.00  0.00     0.000 C 
BRANCH   5   6
ATOM      6  C   UNL     1      18.816 131.182  65.404  1.00  0.00     0.006 C 
BRANCH   6   7
ATOM      7  C   UNL     1      18.846 130.074  64.343  1.00  0.00     0.053 C 
BRANCH   7   8
ATOM      8  C   UNL     1      17.625 129.217  64.450  1.00  0.00     0.041 C 
ATOM      9  O   UNL     1      17.653 128.021  64.056  1.00  0.00    -0.550 OA
ATOM     10  O   UNL     1      16.439 129.752  64.938  1.00  0.00    -0.550 OA
ENDBRANCH   7   8
ENDBRANCH   6   7
ENDBRANCH   5   6
ENDBRANCH   4   5
ENDBRANCH   3   4
ENDBRANCH   2   3
ENDBRANCH   1   2
BRANCH   1  11
ATOM     11  C   UNL     1      14.777 131.599  60.147  1.00  0.00     0.000 C 
BRANCH  11  12
ATOM     12  C   UNL     1      14.001 132.255  58.994  1.00  0.00    -0.000 C 
BRANCH  12  13
ATOM     13  C   UNL     1      14.911 132.483  57.780  1.00  0.00    -0.000 C 
BRANCH  13  14
ATOM     14  C   UNL     1      15.517 131.162  57.292  1.00  0.00    -0.000 C 
BRANCH  14  15
ATOM     15  C   UNL     1      16.999 131.334  56.937  1.00  0.00    -0.000 C 
BRANCH  15  16
ATOM     16  C   UNL     1      17.503 132.727  57.341  1.00  0.00    -0.000 C 
BRANCH  16  17
ATOM     17  C   UNL     1      18.659 132.667  58.352  1.00  0.00    -0.003 C 
ATOM     18  C   UNL     1      18.834 133.972  59.129  1.00  0.00     0.004 C 
ENDBRANCH  16  17
ENDBRANCH  15  16
ENDBRANCH  14  15
ENDBRANCH  13  14
ENDBRANCH  12  13
ENDBRANCH  11  12
ENDBRANCH   1  11
TORSDOF 14
ENDMDL
