MODEL 1
REMARK VINA RESULT:    -4.350      0.000      0.000
REMARK INTER + INTRA:          -4.623
REMARK INTER:                  -4.605
REMARK INTRA:                  -0.019
REMARK UNBOUND:                -0.019
REMARK SMILES O=C([O-])c1cccnc1
REMARK SMILES IDX 4 1 5 2 9 3 6 4 8 5 7 6 2 7 1 8 3 9
REMARK H PARENT
REMARK Flexibility Score: inf
ROOT
ATOM      1  C   UNL     1      42.358 -11.545 -43.783  1.00  0.00     0.016 A 
ATOM      2  C   UNL     1      43.462 -12.134 -43.144  1.00  0.00     0.013 A 
ATOM      3  C   UNL     1      41.657 -10.532 -43.107  1.00  0.00     0.120 A 
ATOM      4  C   UNL     1      43.841 -11.711 -41.869  1.00  0.00     0.021 A 
ATOM      5  N   UNL     1      42.048 -10.139 -41.865  1.00  0.00    -0.264 NA
ATOM      6  C   UNL     1      43.113 -10.701 -41.238  1.00  0.00     0.111 A 
ENDROOT
BRANCH   1   7
ATOM      7  C   UNL     1      41.941 -11.979 -45.135  1.00  0.00     0.073 C 
ATOM      8  O   UNL     1      42.765 -11.988 -46.087  1.00  0.00    -0.545 OA
ATOM      9  O   UNL     1      40.632 -12.383 -45.371  1.00  0.00    -0.545 OA
ENDBRANCH   1   7
TORSDOF 1
ENDMDL
MODEL 2
REMARK VINA RESULT:    -4.248      1.515      1.995
REMARK INTER + INTRA:          -4.515
REMARK INTER:                  -4.496
REMARK INTRA:                  -0.019
REMARK UNBOUND:                -0.019
REMARK SMILES O=C([O-])c1cccnc1
REMARK SMILES IDX 4 1 5 2 9 3 6 4 8 5 7 6 2 7 1 8 3 9
REMARK H PARENT
REMARK Flexibility Score: inf
ROOT
ATOM      1  C   UNL     1      41.391 -11.044 -43.768  1.00  0.00     0.016 A 
ATOM      2  C   UNL     1      42.319 -11.953 -44.304  1.00  0.00     0.013 A 
ATOM      3  C   UNL     1      41.682 -10.445 -42.530  1.00  0.00     0.120 A 
ATOM      4  C   UNL     1      43.496 -12.243 -43.612  1.00  0.00     0.021 A 
ATOM      5  N   UNL     1      42.836 -10.746 -41.877  1.00  0.00    -0.264 NA
ATOM      6  C   UNL     1      43.740 -11.624 -42.386  1.00  0.00     0.111 A 
ENDROOT
BRANCH   1   7
ATOM      7  C   UNL     1      40.138 -10.722 -44.486  1.00  0.00     0.073 C 
ATOM      8  O   UNL     1      39.765  -9.526 -44.617  1.00  0.00    -0.545 OA
ATOM      9  O   UNL     1      39.357 -11.736 -45.026  1.00  0.00    -0.545 OA
ENDBRANCH   1   7
TORSDOF 1
ENDMDL
MODEL 3
REMARK VINA RESULT:    -4.243      2.966      3.749
REMARK INTER + INTRA:          -4.510
REMARK INTER:                  -4.487
REMARK INTRA:                  -0.022
REMARK UNBOUND:                -0.019
REMARK SMILES O=C([O-])c1cccnc1
REMARK SMILES IDX 4 1 5 2 9 3 6 4 8 5 7 6 2 7 1 8 3 9
REMARK H PARENT
REMARK Flexibility Score: inf
ROOT
ATOM      1  C   UNL     1      43.270 -11.399 -42.270  1.00  0.00     0.016 A 
ATOM      2  C   UNL     1      43.547 -12.199 -43.392  1.00  0.00     0.013 A 
ATOM      3  C   UNL     1      42.189 -10.503 -42.340  1.00  0.00     0.120 A 
ATOM      4  C   UNL     1      42.758 -12.095 -44.539  1.00  0.00     0.021 A 
ATOM      5  N   UNL     1      41.437 -10.422 -43.470  1.00  0.00    -0.264 NA
ATOM      6  C   UNL     1      41.696 -11.190 -44.560  1.00  0.00     0.111 A 
ENDROOT
BRANCH   1   7
ATOM      7  C   UNL     1      44.093 -11.494 -41.045  1.00  0.00     0.073 C 
ATOM      8  O   UNL     1      44.688 -12.566 -40.756  1.00  0.00    -0.545 OA
ATOM      9  O   UNL     1      44.222 -10.401 -40.197  1.00  0.00    -0.545 OA
ENDBRANCH   1   7
TORSDOF 1
ENDMDL
MODEL 4
REMARK VINA RESULT:    -4.196      5.079      5.953
REMARK INTER + INTRA:          -4.460
REMARK INTER:                  -4.444
REMARK INTRA:                  -0.016
REMARK UNBOUND:                -0.019
REMARK SMILES O=C([O-])c1cccnc1
REMARK SMILES IDX 4 1 5 2 9 3 6 4 8 5 7 6 2 7 1 8 3 9
REMARK H PARENT
REMARK Flexibility Score: inf
ROOT
ATOM      1  C   UNL     1      43.297 -11.252 -38.594  1.00  0.00     0.016 A 
ATOM      2  C   UNL     1      43.280 -11.369 -39.995  1.00  0.00     0.013 A 
ATOM      3  C   UNL     1      44.379 -11.807 -37.891  1.00  0.00     0.120 A 
ATOM      4  C   UNL     1      44.320 -12.025 -40.655  1.00  0.00     0.021 A 
ATOM      5  N   UNL     1      45.380 -12.441 -38.559  1.00  0.00    -0.264 NA
ATOM      6  C   UNL     1      45.373 -12.560 -39.913  1.00  0.00     0.111 A 
ENDROOT
BRANCH   1   7
ATOM      7  C   UNL     1      42.205 -10.560 -37.875  1.00  0.00     0.073 C 
ATOM      8  O   UNL     1      41.198 -11.201 -37.472  1.00  0.00    -0.545 OA
ATOM      9  O   UNL     1      42.276  -9.194 -37.634  1.00  0.00    -0.545 OA
ENDBRANCH   1   7
TORSDOF 1
ENDMDL
MODEL 5
REMARK VINA RESULT:    -4.151      4.258      5.145
REMARK INTER + INTRA:          -4.412
REMARK INTER:                  -4.396
REMARK INTRA:                  -0.016
REMARK UNBOUND:                -0.019
REMARK SMILES O=C([O-])c1cccnc1
REMARK SMILES IDX 4 1 5 2 9 3 6 4 8 5 7 6 2 7 1 8 3 9
REMARK H PARENT
REMARK Flexibility Score: inf
ROOT
ATOM      1  C   UNL     1      42.510 -10.766 -39.540  1.00  0.00     0.016 A 
ATOM      2  C   UNL     1      43.711 -11.483 -39.670  1.00  0.00     0.013 A 
ATOM      3  C   UNL     1      41.828 -10.387 -40.709  1.00  0.00     0.120 A 
ATOM      4  C   UNL     1      44.201 -11.804 -40.936  1.00  0.00     0.021 A 
ATOM      5  N   UNL     1      42.329 -10.713 -41.931  1.00  0.00    -0.264 NA
ATOM      6  C   UNL     1      43.489 -11.406 -42.068  1.00  0.00     0.111 A 
ENDROOT
BRANCH   1   7
ATOM      7  C   UNL     1      41.972 -10.416 -38.207  1.00  0.00     0.073 C 
ATOM      8  O   UNL     1      41.256 -11.235 -37.570  1.00  0.00    -0.545 OA
ATOM      9  O   UNL     1      42.252  -9.180 -37.637  1.00  0.00    -0.545 OA
ENDBRANCH   1   7
TORSDOF 1
ENDMDL
MODEL 6
REMARK VINA RESULT:    -4.150      4.296      5.096
REMARK INTER + INTRA:          -4.412
REMARK INTER:                  -4.396
REMARK INTRA:                  -0.016
REMARK UNBOUND:                -0.019
REMARK SMILES O=C([O-])c1cccnc1
REMARK SMILES IDX 4 1 5 2 9 3 6 4 8 5 7 6 2 7 1 8 3 9
REMARK H PARENT
REMARK Flexibility Score: inf
ROOT
ATOM      1  C   UNL     1      44.896 -11.830 -39.991  1.00  0.00     0.016 A 
ATOM      2  C   UNL     1      44.225 -11.962 -41.219  1.00  0.00     0.013 A 
ATOM      3  C   UNL     1      44.504 -10.796 -39.124  1.00  0.00     0.120 A 
ATOM      4  C   UNL     1      43.198 -11.079 -41.554  1.00  0.00     0.021 A 
ATOM      5  N   UNL     1      43.499  -9.949 -39.476  1.00  0.00    -0.264 NA
ATOM      6  C   UNL     1      42.845 -10.067 -40.660  1.00  0.00     0.111 A 
ENDROOT
BRANCH   1   7
ATOM      7  C   UNL     1      45.987 -12.755 -39.616  1.00  0.00     0.073 C 
ATOM      8  O   UNL     1      47.191 -12.432 -39.795  1.00  0.00    -0.545 OA
ATOM      9  O   UNL     1      45.698 -13.995 -39.058  1.00  0.00    -0.545 OA
ENDBRANCH   1   7
TORSDOF 1
ENDMDL
MODEL 7
REMARK VINA RESULT:    -4.104      2.295      2.724
REMARK INTER + INTRA:          -4.363
REMARK INTER:                  -4.346
REMARK INTRA:                  -0.016
REMARK UNBOUND:                -0.019
REMARK SMILES O=C([O-])c1cccnc1
REMARK SMILES IDX 4 1 5 2 9 3 6 4 8 5 7 6 2 7 1 8 3 9
REMARK H PARENT
REMARK Flexibility Score: inf
ROOT
ATOM      1  C   UNL     1      40.822 -10.357 -43.877  1.00  0.00     0.016 A 
ATOM      2  C   UNL     1      40.645 -10.355 -42.483  1.00  0.00     0.013 A 
ATOM      3  C   UNL     1      40.906  -9.121 -44.541  1.00  0.00     0.120 A 
ATOM      4  C   UNL     1      40.555  -9.147 -41.790  1.00  0.00     0.021 A 
ATOM      5  N   UNL     1      40.815  -7.959 -43.842  1.00  0.00    -0.264 NA
ATOM      6  C   UNL     1      40.643  -7.945 -42.494  1.00  0.00     0.111 A 
ENDROOT
BRANCH   1   7
ATOM      7  C   UNL     1      40.920 -11.626 -44.630  1.00  0.00     0.073 C 
ATOM      8  O   UNL     1      42.039 -12.052 -45.024  1.00  0.00    -0.545 OA
ATOM      9  O   UNL     1      39.779 -12.367 -44.911  1.00  0.00    -0.545 OA
ENDBRANCH   1   7
TORSDOF 1
ENDMDL
MODEL 8
REMARK VINA RESULT:    -4.079      3.269      4.069
REMARK INTER + INTRA:          -4.336
REMARK INTER:                  -4.317
REMARK INTRA:                  -0.019
REMARK UNBOUND:                -0.019
REMARK SMILES O=C([O-])c1cccnc1
REMARK SMILES IDX 4 1 5 2 9 3 6 4 8 5 7 6 2 7 1 8 3 9
REMARK H PARENT
REMARK Flexibility Score: inf
ROOT
ATOM      1  C   UNL     1      43.949 -11.426 -40.304  1.00  0.00     0.016 A 
ATOM      2  C   UNL     1      45.159 -12.105 -40.074  1.00  0.00     0.013 A 
ATOM      3  C   UNL     1      43.097 -11.192 -39.212  1.00  0.00     0.120 A 
ATOM      4  C   UNL     1      45.489 -12.529 -38.786  1.00  0.00     0.021 A 
ATOM      5  N   UNL     1      43.444 -11.617 -37.967  1.00  0.00    -0.264 NA
ATOM      6  C   UNL     1      44.610 -12.273 -37.734  1.00  0.00     0.111 A 
ENDROOT
BRANCH   1   7
ATOM      7  C   UNL     1      43.580 -10.968 -41.661  1.00  0.00     0.073 C 
ATOM      8  O   UNL     1      43.171  -9.792 -41.851  1.00  0.00    -0.545 OA
ATOM      9  O   UNL     1      43.682 -11.830 -42.747  1.00  0.00    -0.545 OA
ENDBRANCH   1   7
TORSDOF 1
ENDMDL
MODEL 9
REMARK VINA RESULT:    -4.034      4.376      5.328
REMARK INTER + INTRA:          -4.288
REMARK INTER:                  -4.272
REMARK INTRA:                  -0.016
REMARK UNBOUND:                -0.019
REMARK SMILES O=C([O-])c1cccnc1
REMARK SMILES IDX 4 1 5 2 9 3 6 4 8 5 7 6 2 7 1 8 3 9
REMARK H PARENT
REMARK Flexibility Score: inf
ROOT
ATOM      1  C   UNL     1      42.703 -10.834 -39.469  1.00  0.00     0.016 A 
ATOM      2  C   UNL     1      42.121 -10.473 -40.696  1.00  0.00     0.013 A 
ATOM      3  C   UNL     1      43.878 -11.605 -39.488  1.00  0.00     0.120 A 
ATOM      4  C   UNL     1      42.708 -10.878 -41.896  1.00  0.00     0.021 A 
ATOM      5  N   UNL     1      44.429 -11.986 -40.672  1.00  0.00    -0.264 NA
ATOM      6  C   UNL     1      43.875 -11.643 -41.864  1.00  0.00     0.111 A 
ENDROOT
BRANCH   1   7
ATOM      7  C   UNL     1      42.097 -10.415 -38.186  1.00  0.00     0.073 C 
ATOM      8  O   UNL     1      42.351  -9.281 -37.699  1.00  0.00    -0.545 OA
ATOM      9  O   UNL     1      41.237 -11.266 -37.503  1.00  0.00    -0.545 OA
ENDBRANCH   1   7
TORSDOF 1
ENDMDL
