MODEL 1
REMARK VINA RESULT:    -4.737      0.000      0.000
REMARK INTER + INTRA:          -4.737
REMARK INTER:                  -4.737
REMARK INTRA:                   0.000
REMARK UNBOUND:                 0.000
REMARK SMILES CC(C)=C1CC[C@H](C)CC1=O
REMARK SMILES IDX 8 1 7 2 6 3 5 4 4 5 2 6 1 7 3 8 10 9 11 10 9 11
REMARK H PARENT
REMARK Flexibility Score: inf
ROOT
ATOM      1  C   UNL     1     -17.796  11.998 -29.003  1.00  0.00     0.008 C 
ATOM      2  C   UNL     1     -16.928  12.893 -29.895  1.00  0.00    -0.006 C 
ATOM      3  C   UNL     1     -16.930  14.340 -29.377  1.00  0.00     0.008 C 
ATOM      4  C   UNL     1     -16.151  15.270 -30.315  1.00  0.00     0.039 C 
ATOM      5  C   UNL     1     -14.747  14.757 -30.610  1.00  0.00    -0.006 C 
ATOM      6  C   UNL     1     -13.712  15.617 -30.839  1.00  0.00    -0.070 C 
ATOM      7  C   UNL     1     -12.304  15.121 -31.078  1.00  0.00     0.039 C 
ATOM      8  C   UNL     1     -13.918  17.115 -30.826  1.00  0.00     0.039 C 
ATOM      9  C   UNL     1     -14.605  13.277 -30.748  1.00  0.00     0.159 C 
ATOM     10  O   UNL     1     -13.756  12.771 -31.529  1.00  0.00    -0.295 OA
ATOM     11  C   UNL     1     -15.489  12.360 -29.954  1.00  0.00     0.084 C 
ENDROOT
TORSDOF 0
ENDMDL
MODEL 2
REMARK VINA RESULT:    -4.674      1.787      2.155
REMARK INTER + INTRA:          -4.674
REMARK INTER:                  -4.674
REMARK INTRA:                   0.000
REMARK UNBOUND:                 0.000
REMARK SMILES CC(C)=C1CC[C@H](C)CC1=O
REMARK SMILES IDX 8 1 7 2 6 3 5 4 4 5 2 6 1 7 3 8 10 9 11 10 9 11
REMARK H PARENT
REMARK Flexibility Score: inf
ROOT
ATOM      1  C   UNL     1     -19.093  12.635 -29.404  1.00  0.00     0.008 C 
ATOM      2  C   UNL     1     -17.921  13.554 -29.768  1.00  0.00    -0.006 C 
ATOM      3  C   UNL     1     -16.640  13.111 -29.044  1.00  0.00     0.008 C 
ATOM      4  C   UNL     1     -15.481  14.079 -29.316  1.00  0.00     0.039 C 
ATOM      5  C   UNL     1     -15.259  14.318 -30.804  1.00  0.00    -0.006 C 
ATOM      6  C   UNL     1     -14.013  14.569 -31.303  1.00  0.00    -0.070 C 
ATOM      7  C   UNL     1     -13.771  14.753 -32.784  1.00  0.00     0.039 C 
ATOM      8  C   UNL     1     -12.804  14.638 -30.398  1.00  0.00     0.039 C 
ATOM      9  C   UNL     1     -16.488  14.377 -31.651  1.00  0.00     0.159 C 
ATOM     10  O   UNL     1     -16.546  15.113 -32.672  1.00  0.00    -0.295 OA
ATOM     11  C   UNL     1     -17.691  13.555 -31.287  1.00  0.00     0.084 C 
ENDROOT
TORSDOF 0
ENDMDL
MODEL 3
REMARK VINA RESULT:    -4.598      1.872      4.651
REMARK INTER + INTRA:          -4.598
REMARK INTER:                  -4.598
REMARK INTRA:                   0.000
REMARK UNBOUND:                 0.000
REMARK SMILES CC(C)=C1CC[C@H](C)CC1=O
REMARK SMILES IDX 8 1 7 2 6 3 5 4 4 5 2 6 1 7 3 8 10 9 11 10 9 11
REMARK H PARENT
REMARK Flexibility Score: inf
ROOT
ATOM      1  C   UNL     1     -12.519  15.586 -32.233  1.00  0.00     0.008 C 
ATOM      2  C   UNL     1     -13.706  14.622 -32.120  1.00  0.00    -0.006 C 
ATOM      3  C   UNL     1     -13.526  13.680 -30.920  1.00  0.00     0.008 C 
ATOM      4  C   UNL     1     -14.654  12.642 -30.851  1.00  0.00     0.039 C 
ATOM      5  C   UNL     1     -16.037  13.279 -30.892  1.00  0.00    -0.006 C 
ATOM      6  C   UNL     1     -17.096  12.717 -30.239  1.00  0.00    -0.070 C 
ATOM      7  C   UNL     1     -18.459  13.370 -30.226  1.00  0.00     0.039 C 
ATOM      8  C   UNL     1     -16.945  11.429 -29.462  1.00  0.00     0.039 C 
ATOM      9  C   UNL     1     -16.182  14.474 -31.776  1.00  0.00     0.159 C 
ATOM     10  O   UNL     1     -17.266  14.723 -32.367  1.00  0.00    -0.295 OA
ATOM     11  C   UNL     1     -15.021  15.403 -31.981  1.00  0.00     0.084 C 
ENDROOT
TORSDOF 0
ENDMDL
MODEL 4
REMARK VINA RESULT:    -4.451      1.758      4.321
REMARK INTER + INTRA:          -4.451
REMARK INTER:                  -4.451
REMARK INTRA:                   0.000
REMARK UNBOUND:                 0.000
REMARK SMILES CC(C)=C1CC[C@H](C)CC1=O
REMARK SMILES IDX 8 1 7 2 6 3 5 4 4 5 2 6 1 7 3 8 10 9 11 10 9 11
REMARK H PARENT
REMARK Flexibility Score: inf
ROOT
ATOM      1  C   UNL     1     -13.303  14.937 -32.768  1.00  0.00     0.008 C 
ATOM      2  C   UNL     1     -14.434  14.767 -31.748  1.00  0.00    -0.006 C 
ATOM      3  C   UNL     1     -15.697  14.214 -32.427  1.00  0.00     0.008 C 
ATOM      4  C   UNL     1     -16.871  14.133 -31.443  1.00  0.00     0.039 C 
ATOM      5  C   UNL     1     -16.513  13.376 -30.170  1.00  0.00    -0.006 C 
ATOM      6  C   UNL     1     -17.448  12.646 -29.494  1.00  0.00    -0.070 C 
ATOM      7  C   UNL     1     -17.092  11.845 -28.262  1.00  0.00     0.039 C 
ATOM      8  C   UNL     1     -18.881  12.572 -29.969  1.00  0.00     0.039 C 
ATOM      9  C   UNL     1     -15.126  13.578 -29.655  1.00  0.00     0.159 C 
ATOM     10  O   UNL     1     -14.876  13.549 -28.421  1.00  0.00    -0.295 OA
ATOM     11  C   UNL     1     -13.997  13.829 -30.612  1.00  0.00     0.084 C 
ENDROOT
TORSDOF 0
ENDMDL
MODEL 5
REMARK VINA RESULT:    -4.379      1.858      2.888
REMARK INTER + INTRA:          -4.379
REMARK INTER:                  -4.379
REMARK INTRA:                   0.000
REMARK UNBOUND:                 0.000
REMARK SMILES CC(C)=C1CC[C@H](C)CC1=O
REMARK SMILES IDX 8 1 7 2 6 3 5 4 4 5 2 6 1 7 3 8 10 9 11 10 9 11
REMARK H PARENT
REMARK Flexibility Score: inf
ROOT
ATOM      1  C   UNL     1     -17.714  13.506 -30.879  1.00  0.00     0.008 C 
ATOM      2  C   UNL     1     -16.245  13.930 -30.772  1.00  0.00    -0.006 C 
ATOM      3  C   UNL     1     -15.318  12.710 -30.892  1.00  0.00     0.008 C 
ATOM      4  C   UNL     1     -13.849  13.102 -30.685  1.00  0.00     0.039 C 
ATOM      5  C   UNL     1     -13.420  14.252 -31.586  1.00  0.00    -0.006 C 
ATOM      6  C   UNL     1     -12.140  14.348 -32.051  1.00  0.00    -0.070 C 
ATOM      7  C   UNL     1     -11.716  15.454 -32.991  1.00  0.00     0.039 C 
ATOM      8  C   UNL     1     -11.089  13.328 -31.675  1.00  0.00     0.039 C 
ATOM      9  C   UNL     1     -14.443  15.313 -31.829  1.00  0.00     0.159 C 
ATOM     10  O   UNL     1     -14.111  16.515 -32.002  1.00  0.00    -0.295 OA
ATOM     11  C   UNL     1     -15.901  14.957 -31.862  1.00  0.00     0.084 C 
ENDROOT
TORSDOF 0
ENDMDL
MODEL 6
REMARK VINA RESULT:    -4.356      9.477     12.015
REMARK INTER + INTRA:          -4.356
REMARK INTER:                  -4.356
REMARK INTRA:                   0.000
REMARK UNBOUND:                 0.000
REMARK SMILES CC(C)=C1CC[C@H](C)CC1=O
REMARK SMILES IDX 8 1 7 2 6 3 5 4 4 5 2 6 1 7 3 8 10 9 11 10 9 11
REMARK H PARENT
REMARK Flexibility Score: inf
ROOT
ATOM      1  C   UNL     1     -30.095  12.090 -30.512  1.00  0.00     0.008 C 
ATOM      2  C   UNL     1     -28.752  12.352 -29.821  1.00  0.00    -0.006 C 
ATOM      3  C   UNL     1     -28.487  11.298 -28.734  1.00  0.00     0.008 C 
ATOM      4  C   UNL     1     -27.198  11.604 -27.962  1.00  0.00     0.039 C 
ATOM      5  C   UNL     1     -26.001  11.807 -28.883  1.00  0.00    -0.006 C 
ATOM      6  C   UNL     1     -24.740  11.460 -28.493  1.00  0.00    -0.070 C 
ATOM      7  C   UNL     1     -23.553  11.605 -29.419  1.00  0.00     0.039 C 
ATOM      8  C   UNL     1     -24.474  10.875 -27.125  1.00  0.00     0.039 C 
ATOM      9  C   UNL     1     -26.277  12.509 -30.172  1.00  0.00     0.159 C 
ATOM     10  O   UNL     1     -25.413  13.249 -30.713  1.00  0.00    -0.295 OA
ATOM     11  C   UNL     1     -27.609  12.346 -30.847  1.00  0.00     0.084 C 
ENDROOT
TORSDOF 0
ENDMDL
MODEL 7
REMARK VINA RESULT:    -4.208      9.316     11.661
REMARK INTER + INTRA:          -4.208
REMARK INTER:                  -4.208
REMARK INTRA:                   0.000
REMARK UNBOUND:                 0.000
REMARK SMILES CC(C)=C1CC[C@H](C)CC1=O
REMARK SMILES IDX 8 1 7 2 6 3 5 4 4 5 2 6 1 7 3 8 10 9 11 10 9 11
REMARK H PARENT
REMARK Flexibility Score: inf
ROOT
ATOM      1  C   UNL     1     -23.626  15.819 -31.257  1.00  0.00     0.008 C 
ATOM      2  C   UNL     1     -24.471  14.603 -30.862  1.00  0.00    -0.006 C 
ATOM      3  C   UNL     1     -23.783  13.805 -29.744  1.00  0.00     0.008 C 
ATOM      4  C   UNL     1     -24.564  12.528 -29.406  1.00  0.00     0.039 C 
ATOM      5  C   UNL     1     -26.031  12.804 -29.108  1.00  0.00    -0.006 C 
ATOM      6  C   UNL     1     -26.730  12.040 -28.219  1.00  0.00    -0.070 C 
ATOM      7  C   UNL     1     -28.171  12.339 -27.873  1.00  0.00     0.039 C 
ATOM      8  C   UNL     1     -26.082  10.875 -27.506  1.00  0.00     0.039 C 
ATOM      9  C   UNL     1     -26.677  13.874 -29.926  1.00  0.00     0.159 C 
ATOM     10  O   UNL     1     -27.897  13.815 -30.236  1.00  0.00    -0.295 OA
ATOM     11  C   UNL     1     -25.869  15.046 -30.405  1.00  0.00     0.084 C 
ENDROOT
TORSDOF 0
ENDMDL
MODEL 8
REMARK VINA RESULT:    -4.205      1.804      2.528
REMARK INTER + INTRA:          -4.205
REMARK INTER:                  -4.205
REMARK INTRA:                   0.000
REMARK UNBOUND:                 0.000
REMARK SMILES CC(C)=C1CC[C@H](C)CC1=O
REMARK SMILES IDX 8 1 7 2 6 3 5 4 4 5 2 6 1 7 3 8 10 9 11 10 9 11
REMARK H PARENT
REMARK Flexibility Score: inf
ROOT
ATOM      1  C   UNL     1     -18.384  12.449 -30.257  1.00  0.00     0.008 C 
ATOM      2  C   UNL     1     -17.132  13.121 -29.682  1.00  0.00    -0.006 C 
ATOM      3  C   UNL     1     -16.004  12.094 -29.495  1.00  0.00     0.008 C 
ATOM      4  C   UNL     1     -14.778  12.727 -28.825  1.00  0.00     0.039 C 
ATOM      5  C   UNL     1     -14.309  13.988 -29.539  1.00  0.00    -0.006 C 
ATOM      6  C   UNL     1     -12.989  14.338 -29.565  1.00  0.00    -0.070 C 
ATOM      7  C   UNL     1     -12.505  15.556 -30.318  1.00  0.00     0.039 C 
ATOM      8  C   UNL     1     -11.941  13.500 -28.871  1.00  0.00     0.039 C 
ATOM      9  C   UNL     1     -15.382  14.863 -30.099  1.00  0.00     0.159 C 
ATOM     10  O   UNL     1     -15.244  16.114 -30.156  1.00  0.00    -0.295 OA
ATOM     11  C   UNL     1     -16.660  14.257 -30.602  1.00  0.00     0.084 C 
ENDROOT
TORSDOF 0
ENDMDL
MODEL 9
REMARK VINA RESULT:    -4.127      2.147      3.488
REMARK INTER + INTRA:          -4.127
REMARK INTER:                  -4.127
REMARK INTRA:                   0.000
REMARK UNBOUND:                 0.000
REMARK SMILES CC(C)=C1CC[C@H](C)CC1=O
REMARK SMILES IDX 8 1 7 2 6 3 5 4 4 5 2 6 1 7 3 8 10 9 11 10 9 11
REMARK H PARENT
REMARK Flexibility Score: inf
ROOT
ATOM      1  C   UNL     1     -13.171  11.643 -26.468  1.00  0.00     0.008 C 
ATOM      2  C   UNL     1     -14.038  11.655 -27.733  1.00  0.00    -0.006 C 
ATOM      3  C   UNL     1     -15.420  12.258 -27.436  1.00  0.00     0.008 C 
ATOM      4  C   UNL     1     -16.337  12.184 -28.664  1.00  0.00     0.039 C 
ATOM      5  C   UNL     1     -15.694  12.782 -29.909  1.00  0.00    -0.006 C 
ATOM      6  C   UNL     1     -16.444  13.398 -30.869  1.00  0.00    -0.070 C 
ATOM      7  C   UNL     1     -15.812  14.044 -32.080  1.00  0.00     0.039 C 
ATOM      8  C   UNL     1     -17.948  13.495 -30.746  1.00  0.00     0.039 C 
ATOM      9  C   UNL     1     -14.226  12.552 -30.064  1.00  0.00     0.159 C 
ATOM     10  O   UNL     1     -13.699  12.430 -31.202  1.00  0.00    -0.295 OA
ATOM     11  C   UNL     1     -13.348  12.452 -28.850  1.00  0.00     0.084 C 
ENDROOT
TORSDOF 0
ENDMDL
