MODEL 1
REMARK VINA RESULT:    53.502      0.000      0.000
REMARK INTER + INTRA:          80.546
REMARK INTER:                  75.395
REMARK INTRA:                   5.151
REMARK UNBOUND:                 5.151
REMARK SMILES C[C@H](CO)CCC(=O)[C@@H](C)[C@H]1C(=O)C[C@@H]2[C@H]3CC=C4C[C@@H](O)CC[C@]4(C)[C@@H]3CC[C@@]21C
REMARK SMILES IDX 6 1 5 2 2 3 1 4 3 5 4 6 7 8 8 9 9 10 10 11 11 12 12 13 30 14
REMARK SMILES IDX 13 15 14 16 15 17 29 18 31 19 16 20 28 21 27 22 17 23 25 24
REMARK SMILES IDX 18 25 19 26 24 27 26 28 20 29 23 30 21 31 22 32
REMARK H PARENT 4 7 22 33
REMARK Flexibility Score: inf
ROOT
ATOM      1  C   UNL     1     -40.071  23.756   4.924  1.00  0.00     0.076 C 
ENDROOT
BRANCH   1   2
ATOM      2  C   UNL     1     -40.166  24.285   3.484  1.00  0.00     0.013 C 
BRANCH   2   3
ATOM      3  C   UNL     1     -38.866  24.941   2.952  1.00  0.00     0.012 C 
ATOM      4  C   UNL     1     -39.125  25.802   1.707  1.00  0.00     0.010 C 
BRANCH   3   5
ATOM      5  C   UNL     1     -37.732  23.929   2.688  1.00  0.00     0.159 C 
BRANCH   5   6
ATOM      6  O   UNL     1     -38.212  22.800   2.005  1.00  0.00    -0.396 OA
ATOM      7  H   UNL     1     -37.660  22.031   2.307  1.00  0.00     0.210 HD
ENDBRANCH   5   6
ENDBRANCH   3   5
ENDBRANCH   2   3
ENDBRANCH   1   2
BRANCH   1   8
ATOM      8  C   UNL     1     -41.328  23.023   5.327  1.00  0.00     0.136 C 
ATOM      9  O   UNL     1     -42.101  22.668   4.451  1.00  0.00    -0.299 OA
BRANCH   8  10
ATOM     10  C   UNL     1     -41.691  22.835   6.792  1.00  0.00     0.064 C 
ATOM     11  C   UNL     1     -42.122  21.386   7.083  1.00  0.00     0.017 C 
BRANCH  10  12
ATOM     12  C   UNL     1     -40.674  23.476   7.811  1.00  0.00     0.072 C 
ATOM     13  C   UNL     1     -39.808  22.387   8.360  1.00  0.00     0.137 C 
ATOM     14  C   UNL     1     -39.592  24.537   7.375  1.00  0.00    -0.019 C 
ATOM     15  O   UNL     1     -40.220  21.520   9.116  1.00  0.00    -0.299 OA
ATOM     16  C   UNL     1     -38.393  22.459   7.917  1.00  0.00     0.080 C 
ATOM     17  C   UNL     1     -38.368  23.661   6.955  1.00  0.00     0.007 C 
ATOM     18  C   UNL     1     -39.246  25.450   8.626  1.00  0.00     0.008 C 
ATOM     19  C   UNL     1     -40.061  25.452   6.219  1.00  0.00     0.012 C 
ATOM     20  C   UNL     1     -36.969  24.363   6.920  1.00  0.00     0.001 C 
ATOM     21  C   UNL     1     -37.749  25.656   8.925  1.00  0.00     0.005 C 
ATOM     22  C   UNL     1     -36.925  25.729   7.634  1.00  0.00     0.003 C 
ATOM     23  C   UNL     1     -36.451  24.576   5.492  1.00  0.00     0.031 C 
ATOM     24  C   UNL     1     -35.443  26.247   7.797  1.00  0.00    -0.008 C 
ATOM     25  C   UNL     1     -35.058  25.146   5.529  1.00  0.00    -0.027 C 
ATOM     26  C   UNL     1     -34.592  25.899   6.556  1.00  0.00    -0.065 C 
ATOM     27  C   UNL     1     -34.745  25.612   9.041  1.00  0.00     0.014 C 
ATOM     28  C   UNL     1     -35.485  27.791   7.950  1.00  0.00     0.016 C 
ATOM     29  C   UNL     1     -33.112  26.213   6.613  1.00  0.00     0.063 C 
ATOM     30  C   UNL     1     -33.234  25.912   9.124  1.00  0.00     0.033 C 
ATOM     31  C   UNL     1     -32.495  25.516   7.832  1.00  0.00     0.118 C 
BRANCH  31  32
ATOM     32  O   UNL     1     -31.141  25.873   7.927  1.00  0.00    -0.393 OA
ATOM     33  H   UNL     1     -30.989  26.597   7.264  1.00  0.00     0.210 HD
ENDBRANCH  31  32
ENDBRANCH  10  12
ENDBRANCH   8  10
ENDBRANCH   1   8
TORSDOF 8
ENDMDL
