MODEL 1
REMARK VINA RESULT:    -3.528      0.000      0.000
REMARK INTER + INTRA:          -3.854
REMARK INTER:                  -3.838
REMARK INTRA:                  -0.017
REMARK UNBOUND:                -0.017
REMARK SMILES OCc1ccco1
REMARK SMILES IDX 2 1 3 2 5 3 6 4 4 5 7 6 1 7
REMARK H PARENT 1 8
REMARK Flexibility Score: inf
ROOT
ATOM      1  C   UNL     1     -10.847  67.370  31.267  1.00  0.00     0.231 C 
ENDROOT
BRANCH   1   2
ATOM      2  C   UNL     1     -11.847  66.260  31.322  1.00  0.00     0.129 A 
ATOM      3  C   UNL     1     -13.200  64.623  30.762  1.00  0.00     0.042 A 
ATOM      4  C   UNL     1     -13.306  64.918  32.107  1.00  0.00     0.195 A 
ATOM      5  C   UNL     1     -12.261  65.492  30.252  1.00  0.00     0.048 A 
ATOM      6  O   UNL     1     -12.488  65.899  32.410  1.00  0.00    -0.467 OA
ENDBRANCH   1   2
BRANCH   1   7
ATOM      7  O   UNL     1     -11.453  68.581  31.623  1.00  0.00    -0.388 OA
ATOM      8  H   UNL     1     -11.846  68.447  32.526  1.00  0.00     0.211 HD
ENDBRANCH   1   7
TORSDOF 2
ENDMDL
MODEL 2
REMARK VINA RESULT:    -3.374     14.522     15.062
REMARK INTER + INTRA:          -3.687
REMARK INTER:                  -3.674
REMARK INTRA:                  -0.013
REMARK UNBOUND:                -0.017
REMARK SMILES OCc1ccco1
REMARK SMILES IDX 2 1 3 2 5 3 6 4 4 5 7 6 1 7
REMARK H PARENT 1 8
REMARK Flexibility Score: inf
ROOT
ATOM      1  C   UNL     1      -0.860  61.966  25.016  1.00  0.00     0.231 C 
ENDROOT
BRANCH   1   2
ATOM      2  C   UNL     1       0.381  61.403  25.633  1.00  0.00     0.129 A 
ATOM      3  C   UNL     1       1.997  60.934  27.044  1.00  0.00     0.042 A 
ATOM      4  C   UNL     1       2.227  60.353  25.813  1.00  0.00     0.195 A 
ATOM      5  C   UNL     1       0.806  61.616  26.929  1.00  0.00     0.048 A 
ATOM      6  O   UNL     1       1.246  60.652  24.993  1.00  0.00    -0.467 OA
ENDBRANCH   1   2
BRANCH   1   7
ATOM      7  O   UNL     1      -1.947  61.121  25.269  1.00  0.00    -0.388 OA
ATOM      8  H   UNL     1      -1.849  60.341  24.662  1.00  0.00     0.211 HD
ENDBRANCH   1   7
TORSDOF 2
ENDMDL
MODEL 3
REMARK VINA RESULT:    -3.310      2.285      3.064
REMARK INTER + INTRA:          -3.617
REMARK INTER:                  -3.601
REMARK INTRA:                  -0.016
REMARK UNBOUND:                -0.017
REMARK SMILES OCc1ccco1
REMARK SMILES IDX 2 1 3 2 5 3 6 4 4 5 7 6 1 7
REMARK H PARENT 1 8
REMARK Flexibility Score: inf
ROOT
ATOM      1  C   UNL     1     -13.356  65.162  32.378  1.00  0.00     0.231 C 
ENDROOT
BRANCH   1   2
ATOM      2  C   UNL     1     -12.937  65.301  30.948  1.00  0.00     0.129 A 
ATOM      3  C   UNL     1     -12.282  66.131  29.024  1.00  0.00     0.042 A 
ATOM      4  C   UNL     1     -12.535  64.777  28.922  1.00  0.00     0.195 A 
ATOM      5  C   UNL     1     -12.545  66.472  30.332  1.00  0.00     0.048 A 
ATOM      6  O   UNL     1     -12.926  64.312  30.086  1.00  0.00    -0.467 OA
ENDBRANCH   1   2
BRANCH   1   7
ATOM      7  O   UNL     1     -14.728  64.894  32.453  1.00  0.00    -0.388 OA
ATOM      8  H   UNL     1     -15.122  65.591  33.041  1.00  0.00     0.211 HD
ENDBRANCH   1   7
TORSDOF 2
ENDMDL
MODEL 4
REMARK VINA RESULT:    -3.269     14.404     14.998
REMARK INTER + INTRA:          -3.572
REMARK INTER:                  -3.551
REMARK INTRA:                  -0.021
REMARK UNBOUND:                -0.017
REMARK SMILES OCc1ccco1
REMARK SMILES IDX 2 1 3 2 5 3 6 4 4 5 7 6 1 7
REMARK H PARENT 1 8
REMARK Flexibility Score: inf
ROOT
ATOM      1  C   UNL     1       2.123  60.784  25.398  1.00  0.00     0.231 C 
ENDROOT
BRANCH   1   2
ATOM      2  C   UNL     1       1.286  61.646  26.290  1.00  0.00     0.129 A 
ATOM      3  C   UNL     1       0.617  62.937  27.936  1.00  0.00     0.042 A 
ATOM      4  C   UNL     1      -0.426  62.638  27.081  1.00  0.00     0.195 A 
ATOM      5  C   UNL     1       1.724  62.293  27.429  1.00  0.00     0.048 A 
ATOM      6  O   UNL     1       0.005  61.866  26.111  1.00  0.00    -0.467 OA
ENDBRANCH   1   2
BRANCH   1   7
ATOM      7  O   UNL     1       1.356  60.319  24.324  1.00  0.00    -0.388 OA
ATOM      8  H   UNL     1       1.311  59.330  24.414  1.00  0.00     0.211 HD
ENDBRANCH   1   7
TORSDOF 2
ENDMDL
MODEL 5
REMARK VINA RESULT:    -3.269     13.180     13.863
REMARK INTER + INTRA:          -3.572
REMARK INTER:                  -3.557
REMARK INTRA:                  -0.015
REMARK UNBOUND:                -0.017
REMARK SMILES OCc1ccco1
REMARK SMILES IDX 2 1 3 2 5 3 6 4 4 5 7 6 1 7
REMARK H PARENT 1 8
REMARK Flexibility Score: inf
ROOT
ATOM      1  C   UNL     1      -0.934  61.472  25.267  1.00  0.00     0.231 C 
ENDROOT
BRANCH   1   2
ATOM      2  C   UNL     1      -0.157  62.067  26.398  1.00  0.00     0.129 A 
ATOM      3  C   UNL     1       0.389  63.132  28.239  1.00  0.00     0.042 A 
ATOM      4  C   UNL     1       1.511  62.670  27.580  1.00  0.00     0.195 A 
ATOM      5  C   UNL     1      -0.690  62.747  27.475  1.00  0.00     0.048 A 
ATOM      6  O   UNL     1       1.153  62.040  26.485  1.00  0.00    -0.467 OA
ENDBRANCH   1   2
BRANCH   1   7
ATOM      7  O   UNL     1      -2.251  61.220  25.670  1.00  0.00    -0.388 OA
ATOM      8  H   UNL     1      -2.827  61.866  25.183  1.00  0.00     0.211 HD
ENDBRANCH   1   7
TORSDOF 2
ENDMDL
MODEL 6
REMARK VINA RESULT:    -3.231      5.931      6.971
REMARK INTER + INTRA:          -3.531
REMARK INTER:                  -3.516
REMARK INTRA:                  -0.015
REMARK UNBOUND:                -0.017
REMARK SMILES OCc1ccco1
REMARK SMILES IDX 2 1 3 2 5 3 6 4 4 5 7 6 1 7
REMARK H PARENT 1 8
REMARK Flexibility Score: inf
ROOT
ATOM      1  C   UNL     1      -4.277  67.113  34.074  1.00  0.00     0.231 C 
ENDROOT
BRANCH   1   2
ATOM      2  C   UNL     1      -5.539  66.837  33.320  1.00  0.00     0.129 A 
ATOM      3  C   UNL     1      -7.646  66.487  32.811  1.00  0.00     0.042 A 
ATOM      4  C   UNL     1      -6.836  66.345  31.702  1.00  0.00     0.195 A 
ATOM      5  C   UNL     1      -6.810  66.801  33.859  1.00  0.00     0.048 A 
ATOM      6  O   UNL     1      -5.585  66.559  32.038  1.00  0.00    -0.467 OA
ENDBRANCH   1   2
BRANCH   1   7
ATOM      7  O   UNL     1      -4.270  66.398  35.277  1.00  0.00    -0.388 OA
ATOM      8  H   UNL     1      -4.889  65.630  35.154  1.00  0.00     0.211 HD
ENDBRANCH   1   7
TORSDOF 2
ENDMDL
MODEL 7
REMARK VINA RESULT:    -3.214      2.041      2.482
REMARK INTER + INTRA:          -3.512
REMARK INTER:                  -3.497
REMARK INTRA:                  -0.015
REMARK UNBOUND:                -0.017
REMARK SMILES OCc1ccco1
REMARK SMILES IDX 2 1 3 2 5 3 6 4 4 5 7 6 1 7
REMARK H PARENT 1 8
REMARK Flexibility Score: inf
ROOT
ATOM      1  C   UNL     1     -11.524  66.027  29.057  1.00  0.00     0.231 C 
ENDROOT
BRANCH   1   2
ATOM      2  C   UNL     1     -12.238  65.659  30.319  1.00  0.00     0.129 A 
ATOM      3  C   UNL     1     -12.839  65.520  32.427  1.00  0.00     0.042 A 
ATOM      4  C   UNL     1     -13.595  64.676  31.637  1.00  0.00     0.195 A 
ATOM      5  C   UNL     1     -11.959  66.154  31.578  1.00  0.00     0.048 A 
ATOM      6  O   UNL     1     -13.211  64.781  30.385  1.00  0.00    -0.467 OA
ENDBRANCH   1   2
BRANCH   1   7
ATOM      7  O   UNL     1     -10.667  64.990  28.671  1.00  0.00    -0.388 OA
ATOM      8  H   UNL     1      -9.898  65.008  29.299  1.00  0.00     0.211 HD
ENDBRANCH   1   7
TORSDOF 2
ENDMDL
MODEL 8
REMARK VINA RESULT:    -3.185     14.166     14.678
REMARK INTER + INTRA:          -3.481
REMARK INTER:                  -3.460
REMARK INTRA:                  -0.021
REMARK UNBOUND:                -0.017
REMARK SMILES OCc1ccco1
REMARK SMILES IDX 2 1 3 2 5 3 6 4 4 5 7 6 1 7
REMARK H PARENT 1 8
REMARK Flexibility Score: inf
ROOT
ATOM      1  C   UNL     1      -0.045  63.010  27.877  1.00  0.00     0.231 C 
ENDROOT
BRANCH   1   2
ATOM      2  C   UNL     1       0.681  62.045  26.994  1.00  0.00     0.129 A 
ATOM      3  C   UNL     1       1.239  60.751  25.310  1.00  0.00     0.042 A 
ATOM      4  C   UNL     1       2.133  60.621  26.354  1.00  0.00     0.195 A 
ATOM      5  C   UNL     1       0.297  61.668  25.723  1.00  0.00     0.048 A 
ATOM      6  O   UNL     1       1.772  61.404  27.345  1.00  0.00    -0.467 OA
ENDBRANCH   1   2
BRANCH   1   7
ATOM      7  O   UNL     1       0.673  63.211  29.061  1.00  0.00    -0.388 OA
ATOM      8  H   UNL     1       1.082  64.115  28.996  1.00  0.00     0.211 HD
ENDBRANCH   1   7
TORSDOF 2
ENDMDL
MODEL 9
REMARK VINA RESULT:    -3.135      2.282      3.277
REMARK INTER + INTRA:          -3.427
REMARK INTER:                  -3.413
REMARK INTRA:                  -0.013
REMARK UNBOUND:                -0.017
REMARK SMILES OCc1ccco1
REMARK SMILES IDX 2 1 3 2 5 3 6 4 4 5 7 6 1 7
REMARK H PARENT 1 8
REMARK Flexibility Score: inf
ROOT
ATOM      1  C   UNL     1     -10.946  67.546  31.162  1.00  0.00     0.231 C 
ENDROOT
BRANCH   1   2
ATOM      2  C   UNL     1     -11.398  67.504  29.737  1.00  0.00     0.129 A 
ATOM      3  C   UNL     1     -12.549  67.099  27.912  1.00  0.00     0.042 A 
ATOM      4  C   UNL     1     -11.375  67.766  27.622  1.00  0.00     0.195 A 
ATOM      5  C   UNL     1     -12.565  66.925  29.278  1.00  0.00     0.048 A 
ATOM      6  O   UNL     1     -10.710  67.991  28.732  1.00  0.00    -0.467 OA
ENDBRANCH   1   2
BRANCH   1   7
ATOM      7  O   UNL     1     -11.273  68.782  31.733  1.00  0.00    -0.388 OA
ATOM      8  H   UNL     1     -10.574  69.425  31.439  1.00  0.00     0.211 HD
ENDBRANCH   1   7
TORSDOF 2
ENDMDL
