MODEL 1
REMARK VINA RESULT:    -2.200      0.000      0.000
REMARK INTER + INTRA:          -3.406
REMARK INTER:                  -3.357
REMARK INTRA:                  -0.049
REMARK UNBOUND:                -0.049
REMARK SMILES CC1=CCC[C@H](C)C(=O)C[C@@H](C(C)C)C(=O)C1
REMARK SMILES IDX 8 1 9 2 6 3 7 4 5 5 4 6 3 7 2 8 1 9 10 11 11 12 15 13 16 14
REMARK SMILES IDX 17 15 12 17 13 18 14 19
REMARK H PARENT
REMARK Flexibility Score: 70.00
ROOT
ATOM      1  C   UNL     1      27.600  28.351  27.089  1.00  0.00     0.136 C 
ATOM      2  O   UNL     1      28.446  28.771  27.862  1.00  0.00    -0.299 OA
ENDROOT
BRANCH   1   3
ATOM      3  C   UNL     1      27.962  28.219  25.618  1.00  0.00     0.053 C 
ATOM      4  C   UNL     1      28.342  29.578  25.017  1.00  0.00     0.016 C 
BRANCH   3   5
ATOM      5  C   UNL     1      29.080  27.179  25.399  1.00  0.00     0.015 C 
BRANCH   5   6
ATOM      6  C   UNL     1      28.604  25.763  25.771  1.00  0.00     0.028 C 
BRANCH   6   7
ATOM      7  C   UNL     1      29.100  25.279  27.110  1.00  0.00    -0.028 C 
ATOM      8  C   UNL     1      28.336  24.926  28.177  1.00  0.00    -0.070 CG0
ATOM      9  C   UNL     1      29.051  24.308  29.355  1.00  0.00     0.039 C 
ATOM     10  G   UNL     1      26.844  25.214  28.319  1.00  0.00     0.000 G0
ENDBRANCH   6   7
ENDBRANCH   5   6
ENDBRANCH   3   5
ENDBRANCH   1   3
BRANCH   1  11
ATOM     11  C   UNL     1      26.239  27.944  27.623  1.00  0.00     0.087 C 
BRANCH  11  12
ATOM     12  C   UNL     1      26.174  27.623  29.144  1.00  0.00     0.066 C 
BRANCH  12  13
ATOM     13  C   UNL     1      26.439  26.157  29.471  1.00  0.00     0.140 C 
ATOM     14  O   UNL     1      26.449  25.769  30.629  1.00  0.00    -0.299 OA
BRANCH  13  15
ATOM     15  C   UNL     1      26.821  25.213  28.357  1.00  0.00     0.106 CG0
ATOM     16  G   UNL     1      28.314  24.943  28.190  1.00  0.00     0.000 G0
ENDBRANCH  13  15
ENDBRANCH  12  13
BRANCH  12  17
ATOM     17  C   UNL     1      24.955  28.262  29.886  1.00  0.00    -0.006 C 
ATOM     18  C   UNL     1      25.321  29.331  30.926  1.00  0.00     0.008 C 
ATOM     19  C   UNL     1      23.911  28.810  28.898  1.00  0.00     0.008 C 
ENDBRANCH  12  17
ENDBRANCH  11  12
ENDBRANCH   1  11
TORSDOF 1
ENDMDL
MODEL 2
REMARK VINA RESULT:    -2.161      1.432      3.588
REMARK INTER + INTRA:          -3.347
REMARK INTER:                  -4.219
REMARK INTRA:                   0.872
REMARK UNBOUND:                -0.049
REMARK SMILES CC1=CCC[C@H](C)C(=O)C[C@@H](C(C)C)C(=O)C1
REMARK SMILES IDX 8 1 9 2 6 3 7 4 5 5 4 6 3 7 2 8 1 9 10 11 11 12 15 13 16 14
REMARK SMILES IDX 17 15 12 17 13 18 14 19
REMARK H PARENT
REMARK Flexibility Score: 70.00
ROOT
ATOM      1  C   UNL     1      27.095  24.844  29.623  1.00  0.00     0.136 C 
ATOM      2  O   UNL     1      27.939  24.483  30.428  1.00  0.00    -0.299 OA
ENDROOT
BRANCH   1   3
ATOM      3  C   UNL     1      26.793  23.944  28.435  1.00  0.00     0.053 C 
ATOM      4  C   UNL     1      25.375  24.185  27.903  1.00  0.00     0.016 C 
BRANCH   3   5
ATOM      5  C   UNL     1      27.843  24.105  27.317  1.00  0.00     0.015 C 
BRANCH   5   6
ATOM      6  C   UNL     1      27.187  24.542  25.995  1.00  0.00     0.028 C 
BRANCH   6   7
ATOM      7  C   UNL     1      27.720  25.839  25.441  1.00  0.00    -0.028 C 
ATOM      8  C   UNL     1      28.510  26.734  26.090  1.00  0.00    -0.070 CG0
ATOM      9  C   UNL     1      29.061  27.878  25.275  1.00  0.00     0.039 C 
ATOM     10  G   UNL     1      28.779  26.733  27.593  1.00  0.00     0.000 G0
ENDBRANCH   6   7
ENDBRANCH   5   6
ENDBRANCH   3   5
ENDBRANCH   1   3
BRANCH   1  11
ATOM     11  C   UNL     1      26.358  26.150  29.852  1.00  0.00     0.087 C 
BRANCH  11  12
ATOM     12  C   UNL     1      26.473  27.205  28.715  1.00  0.00     0.066 C 
BRANCH  12  13
ATOM     13  C   UNL     1      27.907  27.642  28.431  1.00  0.00     0.140 C 
ATOM     14  O   UNL     1      28.303  28.743  28.782  1.00  0.00    -0.299 OA
BRANCH  13  15
ATOM     15  C   UNL     1      28.794  26.753  27.595  1.00  0.00     0.106 CG0
ATOM     16  G   UNL     1      28.503  26.734  26.096  1.00  0.00     0.000 G0
ENDBRANCH  13  15
ENDBRANCH  12  13
BRANCH  12  17
ATOM     17  C   UNL     1      25.427  28.363  28.802  1.00  0.00    -0.006 C 
ATOM     18  C   UNL     1      24.011  27.990  28.336  1.00  0.00     0.008 C 
ATOM     19  C   UNL     1      25.383  28.987  30.208  1.00  0.00     0.008 C 
ENDBRANCH  12  17
ENDBRANCH  11  12
ENDBRANCH   1  11
TORSDOF 1
ENDMDL
MODEL 3
REMARK VINA RESULT:    -1.650      1.786      2.678
REMARK INTER + INTRA:          -2.567
REMARK INTER:                  -3.201
REMARK INTRA:                   0.633
REMARK UNBOUND:                -0.049
REMARK SMILES CC1=CCC[C@H](C)C(=O)C[C@@H](C(C)C)C(=O)C1
REMARK SMILES IDX 8 1 9 2 6 3 7 4 5 5 4 6 3 7 2 8 1 9 10 11 11 12 15 13 16 14
REMARK SMILES IDX 17 15 12 17 13 18 14 19
REMARK H PARENT
REMARK Flexibility Score: 70.00
ROOT
ATOM      1  C   UNL     1      27.860  28.130  27.447  1.00  0.00     0.136 C 
ATOM      2  O   UNL     1      27.411  28.491  26.371  1.00  0.00    -0.299 OA
ENDROOT
BRANCH   1   3
ATOM      3  C   UNL     1      28.848  26.973  27.469  1.00  0.00     0.053 C 
ATOM      4  C   UNL     1      29.115  26.500  28.904  1.00  0.00     0.016 C 
BRANCH   3   5
ATOM      5  C   UNL     1      28.378  25.807  26.575  1.00  0.00     0.015 C 
BRANCH   5   6
ATOM      6  C   UNL     1      27.991  24.580  27.420  1.00  0.00     0.028 C 
BRANCH   6   7
ATOM      7  C   UNL     1      26.545  24.173  27.288  1.00  0.00    -0.028 C 
ATOM      8  C   UNL     1      25.480  24.758  27.896  1.00  0.00    -0.070 CG0
ATOM      9  C   UNL     1      24.109  24.285  27.478  1.00  0.00     0.039 C 
ATOM     10  G   UNL     1      25.571  25.763  29.042  1.00  0.00     0.000 G0
ENDBRANCH   6   7
ENDBRANCH   5   6
ENDBRANCH   3   5
ENDBRANCH   1   3
BRANCH   1  11
ATOM     11  C   UNL     1      27.450  28.863  28.709  1.00  0.00     0.087 C 
BRANCH  11  12
ATOM     12  C   UNL     1      26.253  28.251  29.493  1.00  0.00     0.066 C 
BRANCH  12  13
ATOM     13  C   UNL     1      25.450  27.236  28.686  1.00  0.00     0.140 C 
ATOM     14  O   UNL     1      24.661  27.605  27.830  1.00  0.00    -0.299 OA
BRANCH  13  15
ATOM     15  C   UNL     1      25.542  25.774  29.046  1.00  0.00     0.106 CG0
ATOM     16  G   UNL     1      25.463  24.791  27.880  1.00  0.00     0.000 G0
ENDBRANCH  13  15
ENDBRANCH  12  13
BRANCH  12  17
ATOM     17  C   UNL     1      25.402  29.294  30.288  1.00  0.00    -0.006 C 
ATOM     18  C   UNL     1      23.972  29.494  29.765  1.00  0.00     0.008 C 
ATOM     19  C   UNL     1      25.384  28.983  31.795  1.00  0.00     0.008 C 
ENDBRANCH  12  17
ENDBRANCH  11  12
ENDBRANCH   1  11
TORSDOF 1
ENDMDL
MODEL 4
REMARK VINA RESULT:    -1.359      1.973      3.689
REMARK INTER + INTRA:          -2.123
REMARK INTER:                  -3.466
REMARK INTRA:                   1.343
REMARK UNBOUND:                -0.049
REMARK SMILES CC1=CCC[C@H](C)C(=O)C[C@@H](C(C)C)C(=O)C1
REMARK SMILES IDX 8 1 9 2 6 3 7 4 5 5 4 6 3 7 2 8 1 9 10 11 11 12 15 13 16 14
REMARK SMILES IDX 17 15 12 17 13 18 14 19
REMARK H PARENT
REMARK Flexibility Score: 70.00
ROOT
ATOM      1  C   UNL     1      26.167  25.008  27.904  1.00  0.00     0.136 C 
ATOM      2  O   UNL     1      26.074  24.823  26.701  1.00  0.00    -0.299 OA
ENDROOT
BRANCH   1   3
ATOM      3  C   UNL     1      27.390  24.467  28.629  1.00  0.00     0.053 C 
ATOM      4  C   UNL     1      28.410  23.889  27.640  1.00  0.00     0.016 C 
BRANCH   3   5
ATOM      5  C   UNL     1      28.034  25.537  29.534  1.00  0.00     0.015 C 
BRANCH   5   6
ATOM      6  C   UNL     1      29.123  26.321  28.781  1.00  0.00     0.028 C 
BRANCH   6   7
ATOM      7  C   UNL     1      28.632  27.019  27.538  1.00  0.00    -0.028 C 
ATOM      8  C   UNL     1      27.908  28.167  27.485  1.00  0.00    -0.070 CG0
ATOM      9  C   UNL     1      27.677  28.769  26.120  1.00  0.00     0.039 C 
ATOM     10  G   UNL     1      27.217  28.820  28.680  1.00  0.00     0.000 G0
ENDBRANCH   6   7
ENDBRANCH   5   6
ENDBRANCH   3   5
ENDBRANCH   1   3
BRANCH   1  11
ATOM     11  C   UNL     1      25.088  25.795  28.623  1.00  0.00     0.087 C 
BRANCH  11  12
ATOM     12  C   UNL     1      25.087  27.332  28.376  1.00  0.00     0.066 C 
BRANCH  12  13
ATOM     13  C   UNL     1      26.035  28.098  29.292  1.00  0.00     0.140 C 
ATOM     14  O   UNL     1      25.793  28.211  30.485  1.00  0.00    -0.299 OA
BRANCH  13  15
ATOM     15  C   UNL     1      27.210  28.828  28.690  1.00  0.00     0.106 CG0
ATOM     16  G   UNL     1      27.867  28.161  27.484  1.00  0.00     0.000 G0
ENDBRANCH  13  15
ENDBRANCH  12  13
BRANCH  12  17
ATOM     17  C   UNL     1      23.665  27.958  28.213  1.00  0.00    -0.006 C 
ATOM     18  C   UNL     1      22.502  26.962  28.341  1.00  0.00     0.008 C 
ATOM     19  C   UNL     1      23.456  29.150  29.163  1.00  0.00     0.008 C 
ENDBRANCH  12  17
ENDBRANCH  11  12
ENDBRANCH   1  11
TORSDOF 1
ENDMDL
MODEL 5
REMARK VINA RESULT:    -1.113     14.538     17.027
REMARK INTER + INTRA:          -1.747
REMARK INTER:                  -2.527
REMARK INTRA:                   0.780
REMARK UNBOUND:                -0.049
REMARK SMILES CC1=CCC[C@H](C)C(=O)C[C@@H](C(C)C)C(=O)C1
REMARK SMILES IDX 8 1 9 2 6 3 7 4 5 5 4 6 3 7 2 8 1 9 10 11 11 12 15 13 16 14
REMARK SMILES IDX 17 15 12 17 13 18 14 19
REMARK H PARENT
REMARK Flexibility Score: 70.00
ROOT
ATOM      1  C   UNL     1      26.731  40.192  21.167  1.00  0.00     0.136 C 
ATOM      2  O   UNL     1      25.674  40.793  21.056  1.00  0.00    -0.299 OA
ENDROOT
BRANCH   1   3
ATOM      3  C   UNL     1      26.931  38.919  20.359  1.00  0.00     0.053 C 
ATOM      4  C   UNL     1      25.750  37.957  20.540  1.00  0.00     0.016 C 
BRANCH   3   5
ATOM      5  C   UNL     1      27.179  39.225  18.868  1.00  0.00     0.015 C 
BRANCH   5   6
ATOM      6  C   UNL     1      28.114  40.435  18.696  1.00  0.00     0.028 C 
BRANCH   6   7
ATOM      7  C   UNL     1      27.402  41.722  18.364  1.00  0.00    -0.028 C 
ATOM      8  C   UNL     1      27.573  42.924  18.973  1.00  0.00    -0.070 CG0
ATOM      9  C   UNL     1      26.875  44.111  18.355  1.00  0.00     0.039 C 
ATOM     10  G   UNL     1      28.315  43.138  20.291  1.00  0.00     0.000 G0
ENDBRANCH   6   7
ENDBRANCH   5   6
ENDBRANCH   3   5
ENDBRANCH   1   3
BRANCH   1  11
ATOM     11  C   UNL     1      27.813  40.750  22.073  1.00  0.00     0.087 C 
BRANCH  11  12
ATOM     12  C   UNL     1      27.568  42.185  22.621  1.00  0.00     0.066 C 
BRANCH  12  13
ATOM     13  C   UNL     1      27.447  43.244  21.529  1.00  0.00     0.140 C 
ATOM     14  O   UNL     1      26.582  44.104  21.590  1.00  0.00    -0.299 OA
BRANCH  13  15
ATOM     15  C   UNL     1      28.323  43.140  20.305  1.00  0.00     0.106 CG0
ATOM     16  G   UNL     1      27.597  42.943  18.977  1.00  0.00     0.000 G0
ENDBRANCH  13  15
ENDBRANCH  12  13
BRANCH  12  17
ATOM     17  C   UNL     1      28.476  42.576  23.832  1.00  0.00    -0.006 C 
ATOM     18  C   UNL     1      29.064  43.994  23.766  1.00  0.00     0.008 C 
ATOM     19  C   UNL     1      27.760  42.354  25.175  1.00  0.00     0.008 C 
ENDBRANCH  12  17
ENDBRANCH  11  12
ENDBRANCH   1  11
TORSDOF 1
ENDMDL
MODEL 6
REMARK VINA RESULT:    -0.633      1.798      2.405
REMARK INTER + INTRA:          -1.015
REMARK INTER:                  -2.704
REMARK INTRA:                   1.690
REMARK UNBOUND:                -0.049
REMARK SMILES CC1=CCC[C@H](C)C(=O)C[C@@H](C(C)C)C(=O)C1
REMARK SMILES IDX 8 1 9 2 6 3 7 4 5 5 4 6 3 7 2 8 1 9 10 11 11 12 15 13 16 14
REMARK SMILES IDX 17 15 12 17 13 18 14 19
REMARK H PARENT
REMARK Flexibility Score: 70.00
ROOT
ATOM      1  C   UNL     1      27.853  29.020  27.475  1.00  0.00     0.136 C 
ATOM      2  O   UNL     1      28.496  29.544  28.370  1.00  0.00    -0.299 OA
ENDROOT
BRANCH   1   3
ATOM      3  C   UNL     1      28.152  29.417  26.037  1.00  0.00     0.053 C 
ATOM      4  C   UNL     1      29.094  30.626  25.981  1.00  0.00     0.016 C 
BRANCH   3   5
ATOM      5  C   UNL     1      28.713  28.232  25.224  1.00  0.00     0.015 C 
BRANCH   5   6
ATOM      6  C   UNL     1      27.585  27.300  24.748  1.00  0.00     0.028 C 
BRANCH   6   7
ATOM      7  C   UNL     1      27.790  25.850  25.109  1.00  0.00    -0.028 C 
ATOM      8  C   UNL     1      28.319  25.370  26.264  1.00  0.00    -0.070 CG0
ATOM      9  C   UNL     1      28.267  23.875  26.471  1.00  0.00     0.039 C 
ATOM     10  G   UNL     1      29.060  26.209  27.302  1.00  0.00     0.000 G0
ENDBRANCH   6   7
ENDBRANCH   5   6
ENDBRANCH   3   5
ENDBRANCH   1   3
BRANCH   1  11
ATOM     11  C   UNL     1      26.812  27.972  27.821  1.00  0.00     0.087 C 
BRANCH  11  12
ATOM     12  C   UNL     1      27.197  26.979  28.955  1.00  0.00     0.066 C 
BRANCH  12  13
ATOM     13  C   UNL     1      28.494  26.222  28.690  1.00  0.00     0.140 C 
ATOM     14  O   UNL     1      29.125  25.724  29.610  1.00  0.00    -0.299 OA
BRANCH  13  15
ATOM     15  C   UNL     1      29.061  26.203  27.291  1.00  0.00     0.106 CG0
ATOM     16  G   UNL     1      28.317  25.335  26.279  1.00  0.00     0.000 G0
ENDBRANCH  13  15
ENDBRANCH  12  13
BRANCH  12  17
ATOM     17  C   UNL     1      26.011  26.107  29.479  1.00  0.00    -0.006 C 
ATOM     18  C   UNL     1      24.766  26.103  28.579  1.00  0.00     0.008 C 
ATOM     19  C   UNL     1      26.455  24.667  29.787  1.00  0.00     0.008 C 
ENDBRANCH  12  17
ENDBRANCH  11  12
ENDBRANCH   1  11
TORSDOF 1
ENDMDL
MODEL 7
REMARK VINA RESULT:    -0.281      2.124      4.978
REMARK INTER + INTRA:          -0.478
REMARK INTER:                  -2.789
REMARK INTRA:                   2.312
REMARK UNBOUND:                -0.049
REMARK SMILES CC1=CCC[C@H](C)C(=O)C[C@@H](C(C)C)C(=O)C1
REMARK SMILES IDX 8 1 9 2 6 3 7 4 5 5 4 6 3 7 2 8 1 9 10 11 11 12 15 13 16 14
REMARK SMILES IDX 17 15 12 17 13 18 14 19
REMARK H PARENT
REMARK Flexibility Score: 70.00
ROOT
ATOM      1  C   UNL     1      25.215  26.123  28.341  1.00  0.00     0.136 C 
ATOM      2  O   UNL     1      24.066  25.722  28.441  1.00  0.00    -0.299 OA
ENDROOT
BRANCH   1   3
ATOM      3  C   UNL     1      25.749  27.066  29.409  1.00  0.00     0.053 C 
ATOM      4  C   UNL     1      26.805  26.374  30.280  1.00  0.00     0.016 C 
BRANCH   3   5
ATOM      5  C   UNL     1      26.298  28.369  28.795  1.00  0.00     0.015 C 
BRANCH   5   6
ATOM      6  C   UNL     1      27.790  28.554  29.123  1.00  0.00     0.028 C 
BRANCH   6   7
ATOM      7  C   UNL     1      28.544  29.388  28.118  1.00  0.00    -0.028 C 
ATOM      8  C   UNL     1      28.375  29.381  26.770  1.00  0.00    -0.070 CG0
ATOM      9  C   UNL     1      29.125  30.428  25.982  1.00  0.00     0.039 C 
ATOM     10  G   UNL     1      27.587  28.329  25.993  1.00  0.00     0.000 G0
ENDBRANCH   6   7
ENDBRANCH   5   6
ENDBRANCH   3   5
ENDBRANCH   1   3
BRANCH   1  11
ATOM     11  C   UNL     1      26.074  25.645  27.186  1.00  0.00     0.087 C 
BRANCH  11  12
ATOM     12  C   UNL     1      27.579  26.031  27.253  1.00  0.00     0.066 C 
BRANCH  12  13
ATOM     13  C   UNL     1      28.044  26.888  26.080  1.00  0.00     0.140 C 
ATOM     14  O   UNL     1      28.871  26.463  25.287  1.00  0.00    -0.299 OA
BRANCH  13  15
ATOM     15  C   UNL     1      27.569  28.316  25.979  1.00  0.00     0.106 CG0
ATOM     16  G   UNL     1      28.398  29.352  26.735  1.00  0.00     0.000 G0
ENDBRANCH  13  15
ENDBRANCH  12  13
BRANCH  12  17
ATOM     17  C   UNL     1      28.531  24.851  27.636  1.00  0.00    -0.006 C 
ATOM     18  C   UNL     1      28.081  24.028  28.853  1.00  0.00     0.008 C 
ATOM     19  C   UNL     1      28.804  23.928  26.435  1.00  0.00     0.008 C 
ENDBRANCH  12  17
ENDBRANCH  11  12
ENDBRANCH   1  11
TORSDOF 1
ENDMDL
MODEL 8
REMARK VINA RESULT:     0.361      1.848      3.854
REMARK INTER + INTRA:           0.501
REMARK INTER:                  -0.947
REMARK INTRA:                   1.448
REMARK UNBOUND:                -0.049
REMARK SMILES CC1=CCC[C@H](C)C(=O)C[C@@H](C(C)C)C(=O)C1
REMARK SMILES IDX 8 1 9 2 6 3 7 4 5 5 4 6 3 7 2 8 1 9 10 11 11 12 15 13 16 14
REMARK SMILES IDX 17 15 12 17 13 18 14 19
REMARK H PARENT
REMARK Flexibility Score: 70.00
ROOT
ATOM      1  C   UNL     1      25.233  28.017  28.244  1.00  0.00     0.136 C 
ATOM      2  O   UNL     1      24.162  28.449  27.847  1.00  0.00    -0.299 OA
ENDROOT
BRANCH   1   3
ATOM      3  C   UNL     1      25.878  28.677  29.453  1.00  0.00     0.053 C 
ATOM      4  C   UNL     1      24.818  29.218  30.420  1.00  0.00     0.016 C 
BRANCH   3   5
ATOM      5  C   UNL     1      26.852  27.720  30.171  1.00  0.00     0.015 C 
BRANCH   5   6
ATOM      6  C   UNL     1      26.180  26.371  30.481  1.00  0.00     0.028 C 
BRANCH   6   7
ATOM      7  C   UNL     1      27.070  25.174  30.260  1.00  0.00    -0.028 C 
ATOM      8  C   UNL     1      28.252  25.155  29.591  1.00  0.00    -0.070 CG0
ATOM      9  C   UNL     1      29.051  23.875  29.648  1.00  0.00     0.039 C 
ATOM     10  G   UNL     1      28.769  26.280  28.697  1.00  0.00     0.000 G0
ENDBRANCH   6   7
ENDBRANCH   5   6
ENDBRANCH   3   5
ENDBRANCH   1   3
BRANCH   1  11
ATOM     11  C   UNL     1      25.861  26.826  27.545  1.00  0.00     0.087 C 
BRANCH  11  12
ATOM     12  C   UNL     1      27.188  27.107  26.783  1.00  0.00     0.066 C 
BRANCH  12  13
ATOM     13  C   UNL     1      28.351  26.231  27.237  1.00  0.00     0.140 C 
ATOM     14  O   UNL     1      28.864  25.429  26.470  1.00  0.00    -0.299 OA
BRANCH  13  15
ATOM     15  C   UNL     1      28.778  26.268  28.683  1.00  0.00     0.106 CG0
ATOM     16  G   UNL     1      28.227  25.157  29.574  1.00  0.00     0.000 G0
ENDBRANCH  13  15
ENDBRANCH  12  13
BRANCH  12  17
ATOM     17  C   UNL     1      27.524  28.624  26.610  1.00  0.00    -0.006 C 
ATOM     18  C   UNL     1      28.926  29.033  27.088  1.00  0.00     0.008 C 
ATOM     19  C   UNL     1      27.290  29.098  25.165  1.00  0.00     0.008 C 
ENDBRANCH  12  17
ENDBRANCH  11  12
ENDBRANCH   1  11
TORSDOF 1
ENDMDL
MODEL 9
REMARK VINA RESULT:     0.678     13.424     15.897
REMARK INTER + INTRA:           0.985
REMARK INTER:                  -0.898
REMARK INTRA:                   1.884
REMARK UNBOUND:                -0.049
REMARK SMILES CC1=CCC[C@H](C)C(=O)C[C@@H](C(C)C)C(=O)C1
REMARK SMILES IDX 8 1 9 2 6 3 7 4 5 5 4 6 3 7 2 8 1 9 10 11 11 12 15 13 16 14
REMARK SMILES IDX 17 15 12 17 13 18 14 19
REMARK H PARENT
REMARK Flexibility Score: 70.00
ROOT
ATOM      1  C   UNL     1      26.178  39.216  20.561  1.00  0.00     0.136 C 
ATOM      2  O   UNL     1      25.586  39.658  19.589  1.00  0.00    -0.299 OA
ENDROOT
BRANCH   1   3
ATOM      3  C   UNL     1      25.952  37.762  20.948  1.00  0.00     0.053 C 
ATOM      4  C   UNL     1      24.830  37.134  20.112  1.00  0.00     0.016 C 
BRANCH   3   5
ATOM      5  C   UNL     1      27.252  36.938  20.847  1.00  0.00     0.015 C 
BRANCH   5   6
ATOM      6  C   UNL     1      28.418  37.800  20.330  1.00  0.00     0.028 C 
BRANCH   6   7
ATOM      7  C   UNL     1      28.336  38.132  18.862  1.00  0.00    -0.028 C 
ATOM      8  C   UNL     1      28.737  39.286  18.268  1.00  0.00    -0.070 CG0
ATOM      9  C   UNL     1      28.714  39.323  16.759  1.00  0.00     0.039 C 
ATOM     10  G   UNL     1      29.092  40.573  19.009  1.00  0.00     0.000 G0
ENDBRANCH   6   7
ENDBRANCH   5   6
ENDBRANCH   3   5
ENDBRANCH   1   3
BRANCH   1  11
ATOM     11  C   UNL     1      27.137  40.112  21.320  1.00  0.00     0.087 C 
BRANCH  11  12
ATOM     12  C   UNL     1      27.361  41.531  20.722  1.00  0.00     0.066 C 
BRANCH  12  13
ATOM     13  C   UNL     1      27.940  41.515  19.311  1.00  0.00     0.140 C 
ATOM     14  O   UNL     1      27.414  42.157  18.415  1.00  0.00    -0.299 OA
BRANCH  13  15
ATOM     15  C   UNL     1      29.094  40.594  19.001  1.00  0.00     0.106 CG0
ATOM     16  G   UNL     1      28.741  39.299  18.274  1.00  0.00     0.000 G0
ENDBRANCH  13  15
ENDBRANCH  12  13
BRANCH  12  17
ATOM     17  C   UNL     1      28.027  42.547  21.705  1.00  0.00    -0.006 C 
ATOM     18  C   UNL     1      28.453  43.878  21.067  1.00  0.00     0.008 C 
ATOM     19  C   UNL     1      27.148  42.803  22.942  1.00  0.00     0.008 C 
ENDBRANCH  12  17
ENDBRANCH  11  12
ENDBRANCH   1  11
TORSDOF 1
ENDMDL
