MODEL 1
REMARK VINA RESULT:    -6.436      0.000      0.000
REMARK INTER + INTRA:         -10.910
REMARK INTER:                  -8.506
REMARK INTRA:                  -2.404
REMARK UNBOUND:                -2.404
REMARK SMILES CC[C@@H](C=C[C@H](C)[C@H]1CC[C@@H]2[C@@H]3CC=C4C[C@H](O)CC[C@]4(C)[C@@H]3CC[C@@]21C)C(C)C
REMARK SMILES IDX 6 1 7 2 5 3 4 4 3 5 2 6 1 7 28 8 29 9 30 10 8 11 9 12 26 13
REMARK SMILES IDX 10 14 11 15 25 16 27 17 12 18 24 19 23 20 13 21 21 22 14 23
REMARK SMILES IDX 15 24 20 25 22 26 16 27 19 28 17 29 18 30
REMARK H PARENT 18 31
REMARK Flexibility Score: inf
ROOT
ATOM      1  C   UNL     1     176.038 177.209 179.992  1.00  0.00     0.012 C 
ATOM      2  C   UNL     1     177.339 176.971 179.188  1.00  0.00     0.012 C 
ENDROOT
BRANCH   1   3
ATOM      3  C   UNL     1     174.929 177.748 179.101  1.00  0.00    -0.028 C 
ATOM      4  C   UNL     1     173.799 177.067 178.830  1.00  0.00    -0.027 C 
BRANCH   4   5
ATOM      5  C   UNL     1     172.712 177.647 177.942  1.00  0.00     0.014 C 
BRANCH   5   6
ATOM      6  C   UNL     1     171.347 177.016 178.322  1.00  0.00     0.004 C 
ATOM      7  C   UNL     1     170.644 177.757 179.464  1.00  0.00     0.004 C 
ENDBRANCH   5   6
BRANCH   5   8
ATOM      8  C   UNL     1     173.054 177.425 176.430  1.00  0.00    -0.011 C 
ATOM      9  C   UNL     1     171.847 177.722 175.520  1.00  0.00     0.008 C 
ATOM     10  C   UNL     1     173.541 175.991 176.145  1.00  0.00     0.008 C 
ENDBRANCH   5   8
ENDBRANCH   4   5
ENDBRANCH   1   3
BRANCH   1  11
ATOM     11  C   UNL     1     175.481 176.018 180.843  1.00  0.00     0.002 C 
ATOM     12  C   UNL     1     176.292 174.709 180.782  1.00  0.00     0.005 C 
ATOM     13  C   UNL     1     175.127 176.218 182.345  1.00  0.00    -0.026 C 
ATOM     14  C   UNL     1     175.986 173.939 182.077  1.00  0.00     0.005 C 
ATOM     15  C   UNL     1     174.920 174.752 182.839  1.00  0.00    -0.001 C 
ATOM     16  C   UNL     1     173.885 177.124 182.589  1.00  0.00     0.007 C 
ATOM     17  C   UNL     1     176.311 176.844 183.133  1.00  0.00     0.012 C 
ATOM     18  C   UNL     1     173.467 174.153 182.699  1.00  0.00     0.000 C 
ATOM     19  C   UNL     1     172.544 176.462 182.284  1.00  0.00     0.005 C 
ATOM     20  C   UNL     1     172.372 175.169 183.114  1.00  0.00     0.003 C 
ATOM     21  C   UNL     1     173.138 173.424 181.354  1.00  0.00     0.031 C 
ATOM     22  C   UNL     1     170.930 174.555 182.987  1.00  0.00    -0.008 C 
ATOM     23  C   UNL     1     171.725 173.572 180.838  1.00  0.00    -0.027 C 
ATOM     24  C   UNL     1     170.714 174.130 181.533  1.00  0.00    -0.065 C 
ATOM     25  C   UNL     1     169.852 175.576 183.520  1.00  0.00     0.014 C 
ATOM     26  C   UNL     1     170.804 173.273 183.856  1.00  0.00     0.016 C 
ATOM     27  C   UNL     1     169.413 174.359 180.785  1.00  0.00     0.063 C 
ATOM     28  C   UNL     1     168.951 176.177 182.438  1.00  0.00     0.033 C 
ATOM     29  C   UNL     1     168.334 175.054 181.610  1.00  0.00     0.118 C 
BRANCH  29  30
ATOM     30  O   UNL     1     167.369 175.585 180.741  1.00  0.00    -0.393 OA
ATOM     31  H   UNL     1     167.129 174.870 180.098  1.00  0.00     0.210 HD
ENDBRANCH  29  30
ENDBRANCH   1  11
TORSDOF 6
ENDMDL
MODEL 2
REMARK VINA RESULT:    -6.205      1.761      5.399
REMARK INTER + INTRA:         -10.604
REMARK INTER:                  -8.295
REMARK INTRA:                  -2.309
REMARK UNBOUND:                -2.404
REMARK SMILES CC[C@@H](C=C[C@H](C)[C@H]1CC[C@@H]2[C@@H]3CC=C4C[C@H](O)CC[C@]4(C)[C@@H]3CC[C@@]21C)C(C)C
REMARK SMILES IDX 6 1 7 2 5 3 4 4 3 5 2 6 1 7 28 8 29 9 30 10 8 11 9 12 26 13
REMARK SMILES IDX 10 14 11 15 25 16 27 17 12 18 24 19 23 20 13 21 21 22 14 23
REMARK SMILES IDX 15 24 20 25 22 26 16 27 19 28 17 29 18 30
REMARK H PARENT 18 31
REMARK Flexibility Score: inf
ROOT
ATOM      1  C   UNL     1     174.912 174.673 182.444  1.00  0.00     0.012 C 
ATOM      2  C   UNL     1     175.756 175.117 183.662  1.00  0.00     0.012 C 
ENDROOT
BRANCH   1   3
ATOM      3  C   UNL     1     173.424 174.837 182.715  1.00  0.00    -0.028 C 
ATOM      4  C   UNL     1     172.615 175.614 181.970  1.00  0.00    -0.027 C 
BRANCH   4   5
ATOM      5  C   UNL     1     171.132 175.741 182.269  1.00  0.00     0.014 C 
BRANCH   5   6
ATOM      6  C   UNL     1     170.317 175.154 181.089  1.00  0.00     0.004 C 
ATOM      7  C   UNL     1     169.667 176.233 180.216  1.00  0.00     0.004 C 
ENDBRANCH   5   6
BRANCH   5   8
ATOM      8  C   UNL     1     170.750 177.234 182.554  1.00  0.00    -0.011 C 
ATOM      9  C   UNL     1     171.997 178.125 182.704  1.00  0.00     0.008 C 
ATOM     10  C   UNL     1     169.885 177.384 183.821  1.00  0.00     0.008 C 
ENDBRANCH   5   8
ENDBRANCH   4   5
ENDBRANCH   1   3
BRANCH   1  11
ATOM     11  C   UNL     1     175.254 175.308 181.053  1.00  0.00     0.002 C 
ATOM     12  C   UNL     1     176.382 176.358 181.050  1.00  0.00     0.005 C 
ATOM     13  C   UNL     1     175.526 174.402 179.818  1.00  0.00    -0.026 C 
ATOM     14  C   UNL     1     176.964 176.376 179.628  1.00  0.00     0.005 C 
ATOM     15  C   UNL     1     176.108 175.414 178.781  1.00  0.00    -0.001 C 
ATOM     16  C   UNL     1     174.269 173.649 179.294  1.00  0.00     0.007 C 
ATOM     17  C   UNL     1     176.608 173.328 180.123  1.00  0.00     0.012 C 
ATOM     18  C   UNL     1     175.068 176.159 177.857  1.00  0.00     0.000 C 
ATOM     19  C   UNL     1     173.275 174.520 178.530  1.00  0.00     0.005 C 
ATOM     20  C   UNL     1     173.965 175.207 177.329  1.00  0.00     0.003 C 
ATOM     21  C   UNL     1     174.494 177.510 178.398  1.00  0.00     0.031 C 
ATOM     22  C   UNL     1     172.946 175.957 176.395  1.00  0.00    -0.008 C 
ATOM     23  C   UNL     1     173.053 177.812 178.057  1.00  0.00    -0.027 C 
ATOM     24  C   UNL     1     172.307 177.095 177.195  1.00  0.00    -0.065 C 
ATOM     25  C   UNL     1     171.905 174.938 175.791  1.00  0.00     0.014 C 
ATOM     26  C   UNL     1     173.686 176.611 175.194  1.00  0.00     0.016 C 
ATOM     27  C   UNL     1     170.829 177.434 177.120  1.00  0.00     0.063 C 
ATOM     28  C   UNL     1     170.479 175.090 176.325  1.00  0.00     0.033 C 
ATOM     29  C   UNL     1     170.032 176.541 176.174  1.00  0.00     0.118 C 
BRANCH  29  30
ATOM     30  O   UNL     1     168.669 176.649 176.488  1.00  0.00    -0.393 OA
ATOM     31  H   UNL     1     168.227 175.824 176.161  1.00  0.00     0.210 HD
ENDBRANCH  29  30
ENDBRANCH   1  11
TORSDOF 6
ENDMDL
MODEL 3
REMARK VINA RESULT:    -6.146      2.234      5.631
REMARK INTER + INTRA:         -10.526
REMARK INTER:                  -8.162
REMARK INTRA:                  -2.364
REMARK UNBOUND:                -2.404
REMARK SMILES CC[C@@H](C=C[C@H](C)[C@H]1CC[C@@H]2[C@@H]3CC=C4C[C@H](O)CC[C@]4(C)[C@@H]3CC[C@@]21C)C(C)C
REMARK SMILES IDX 6 1 7 2 5 3 4 4 3 5 2 6 1 7 28 8 29 9 30 10 8 11 9 12 26 13
REMARK SMILES IDX 10 14 11 15 25 16 27 17 12 18 24 19 23 20 13 21 21 22 14 23
REMARK SMILES IDX 15 24 20 25 22 26 16 27 19 28 17 29 18 30
REMARK H PARENT 18 31
REMARK Flexibility Score: inf
ROOT
ATOM      1  C   UNL     1     168.616 175.845 179.752  1.00  0.00     0.012 C 
ATOM      2  C   UNL     1     167.221 176.486 179.943  1.00  0.00     0.012 C 
ENDROOT
BRANCH   1   3
ATOM      3  C   UNL     1     169.293 176.361 178.492  1.00  0.00    -0.028 C 
ATOM      4  C   UNL     1     170.537 176.877 178.476  1.00  0.00    -0.027 C 
BRANCH   4   5
ATOM      5  C   UNL     1     171.180 177.372 177.193  1.00  0.00     0.014 C 
BRANCH   5   6
ATOM      6  C   UNL     1     170.327 176.918 175.981  1.00  0.00     0.004 C 
ATOM      7  C   UNL     1     171.080 177.017 174.650  1.00  0.00     0.004 C 
ENDBRANCH   5   6
BRANCH   5   8
ATOM      8  C   UNL     1     172.660 176.868 177.084  1.00  0.00    -0.011 C 
ATOM      9  C   UNL     1     172.811 175.423 177.595  1.00  0.00     0.008 C 
ATOM     10  C   UNL     1     173.642 177.767 177.859  1.00  0.00     0.008 C 
ENDBRANCH   5   8
ENDBRANCH   4   5
ENDBRANCH   1   3
BRANCH   1  11
ATOM     11  C   UNL     1     169.625 175.928 180.948  1.00  0.00     0.002 C 
ATOM     12  C   UNL     1     169.281 176.951 182.049  1.00  0.00     0.005 C 
ATOM     13  C   UNL     1     170.065 174.639 181.701  1.00  0.00    -0.026 C 
ATOM     14  C   UNL     1     169.967 176.462 183.335  1.00  0.00     0.005 C 
ATOM     15  C   UNL     1     170.791 175.215 182.956  1.00  0.00    -0.001 C 
ATOM     16  C   UNL     1     170.964 173.689 180.859  1.00  0.00     0.007 C 
ATOM     17  C   UNL     1     168.840 173.808 182.175  1.00  0.00     0.012 C 
ATOM     18  C   UNL     1     172.334 175.514 182.809  1.00  0.00     0.000 C 
ATOM     19  C   UNL     1     172.403 174.166 180.680  1.00  0.00     0.005 C 
ATOM     20  C   UNL     1     173.080 174.384 182.053  1.00  0.00     0.003 C 
ATOM     21  C   UNL     1     172.725 176.942 182.303  1.00  0.00     0.031 C 
ATOM     22  C   UNL     1     174.618 174.684 181.928  1.00  0.00    -0.008 C 
ATOM     23  C   UNL     1     173.944 177.028 181.414  1.00  0.00    -0.027 C 
ATOM     24  C   UNL     1     174.792 176.008 181.180  1.00  0.00    -0.065 C 
ATOM     25  C   UNL     1     175.359 173.467 181.252  1.00  0.00     0.014 C 
ATOM     26  C   UNL     1     175.253 174.874 183.334  1.00  0.00     0.016 C 
ATOM     27  C   UNL     1     175.852 176.227 180.116  1.00  0.00     0.063 C 
ATOM     28  C   UNL     1     175.886 173.743 179.842  1.00  0.00     0.033 C 
ATOM     29  C   UNL     1     176.735 175.010 179.856  1.00  0.00     0.118 C 
BRANCH  29  30
ATOM     30  O   UNL     1     177.369 175.166 178.613  1.00  0.00    -0.393 OA
ATOM     31  H   UNL     1     177.350 176.133 178.394  1.00  0.00     0.210 HD
ENDBRANCH  29  30
ENDBRANCH   1  11
TORSDOF 6
ENDMDL
MODEL 4
REMARK VINA RESULT:    -5.954      2.196      6.214
REMARK INTER + INTRA:         -10.272
REMARK INTER:                  -8.570
REMARK INTRA:                  -1.702
REMARK UNBOUND:                -2.404
REMARK SMILES CC[C@@H](C=C[C@H](C)[C@H]1CC[C@@H]2[C@@H]3CC=C4C[C@H](O)CC[C@]4(C)[C@@H]3CC[C@@]21C)C(C)C
REMARK SMILES IDX 6 1 7 2 5 3 4 4 3 5 2 6 1 7 28 8 29 9 30 10 8 11 9 12 26 13
REMARK SMILES IDX 10 14 11 15 25 16 27 17 12 18 24 19 23 20 13 21 21 22 14 23
REMARK SMILES IDX 15 24 20 25 22 26 16 27 19 28 17 29 18 30
REMARK H PARENT 18 31
REMARK Flexibility Score: inf
ROOT
ATOM      1  C   UNL     1     172.236 174.693 183.115  1.00  0.00     0.012 C 
ATOM      2  C   UNL     1     171.458 173.525 183.767  1.00  0.00     0.012 C 
ENDROOT
BRANCH   1   3
ATOM      3  C   UNL     1     173.524 174.206 182.470  1.00  0.00    -0.028 C 
ATOM      4  C   UNL     1     174.748 174.473 182.963  1.00  0.00    -0.027 C 
BRANCH   4   5
ATOM      5  C   UNL     1     176.010 173.958 182.292  1.00  0.00     0.014 C 
BRANCH   5   6
ATOM      6  C   UNL     1     177.064 175.093 182.237  1.00  0.00     0.004 C 
ATOM      7  C   UNL     1     176.557 176.408 182.841  1.00  0.00     0.004 C 
ENDBRANCH   5   6
BRANCH   5   8
ATOM      8  C   UNL     1     175.688 173.394 180.866  1.00  0.00    -0.011 C 
ATOM      9  C   UNL     1     176.250 171.974 180.671  1.00  0.00     0.008 C 
ATOM     10  C   UNL     1     176.237 174.296 179.744  1.00  0.00     0.008 C 
ENDBRANCH   5   8
ENDBRANCH   4   5
ENDBRANCH   1   3
BRANCH   1  11
ATOM     11  C   UNL     1     171.464 175.603 182.100  1.00  0.00     0.002 C 
ATOM     12  C   UNL     1     169.995 175.911 182.452  1.00  0.00     0.005 C 
ATOM     13  C   UNL     1     172.072 176.957 181.633  1.00  0.00    -0.026 C 
ATOM     14  C   UNL     1     169.640 177.230 181.749  1.00  0.00     0.005 C 
ATOM     15  C   UNL     1     170.868 177.633 180.907  1.00  0.00    -0.001 C 
ATOM     16  C   UNL     1     173.327 176.809 180.724  1.00  0.00     0.007 C 
ATOM     17  C   UNL     1     172.485 177.844 182.841  1.00  0.00     0.012 C 
ATOM     18  C   UNL     1     170.696 177.316 179.370  1.00  0.00     0.000 C 
ATOM     19  C   UNL     1     173.029 176.364 179.295  1.00  0.00     0.005 C 
ATOM     20  C   UNL     1     172.048 177.345 178.612  1.00  0.00     0.003 C 
ATOM     21  C   UNL     1     169.824 176.069 179.007  1.00  0.00     0.031 C 
ATOM     22  C   UNL     1     171.862 177.045 177.079  1.00  0.00    -0.008 C 
ATOM     23  C   UNL     1     170.258 175.276 177.796  1.00  0.00    -0.027 C 
ATOM     24  C   UNL     1     171.217 175.665 176.933  1.00  0.00    -0.065 C 
ATOM     25  C   UNL     1     173.238 177.190 176.323  1.00  0.00     0.014 C 
ATOM     26  C   UNL     1     170.885 178.069 176.438  1.00  0.00     0.016 C 
ATOM     27  C   UNL     1     171.646 174.655 175.884  1.00  0.00     0.063 C 
ATOM     28  C   UNL     1     173.828 175.873 175.812  1.00  0.00     0.033 C 
ATOM     29  C   UNL     1     172.780 175.136 174.983  1.00  0.00     0.118 C 
BRANCH  29  30
ATOM     30  O   UNL     1     173.368 174.024 174.361  1.00  0.00    -0.393 OA
ATOM     31  H   UNL     1     174.344 174.075 174.533  1.00  0.00     0.210 HD
ENDBRANCH  29  30
ENDBRANCH   1  11
TORSDOF 6
ENDMDL
MODEL 5
REMARK VINA RESULT:    -5.669      2.691      6.325
REMARK INTER + INTRA:          -9.895
REMARK INTER:                  -7.295
REMARK INTRA:                  -2.600
REMARK UNBOUND:                -2.404
REMARK SMILES CC[C@@H](C=C[C@H](C)[C@H]1CC[C@@H]2[C@@H]3CC=C4C[C@H](O)CC[C@]4(C)[C@@H]3CC[C@@]21C)C(C)C
REMARK SMILES IDX 6 1 7 2 5 3 4 4 3 5 2 6 1 7 28 8 29 9 30 10 8 11 9 12 26 13
REMARK SMILES IDX 10 14 11 15 25 16 27 17 12 18 24 19 23 20 13 21 21 22 14 23
REMARK SMILES IDX 15 24 20 25 22 26 16 27 19 28 17 29 18 30
REMARK H PARENT 18 31
REMARK Flexibility Score: inf
ROOT
ATOM      1  C   UNL     1     169.150 174.449 181.431  1.00  0.00     0.012 C 
ATOM      2  C   UNL     1     167.745 174.661 180.819  1.00  0.00     0.012 C 
ENDROOT
BRANCH   1   3
ATOM      3  C   UNL     1     169.697 173.070 181.094  1.00  0.00    -0.028 C 
ATOM      4  C   UNL     1     170.955 172.856 180.663  1.00  0.00    -0.027 C 
BRANCH   4   5
ATOM      5  C   UNL     1     171.463 171.460 180.348  1.00  0.00     0.014 C 
BRANCH   5   6
ATOM      6  C   UNL     1     172.374 170.971 181.503  1.00  0.00     0.004 C 
ATOM      7  C   UNL     1     173.759 171.629 181.491  1.00  0.00     0.004 C 
ENDBRANCH   5   6
BRANCH   5   8
ATOM      8  C   UNL     1     172.210 171.440 178.971  1.00  0.00    -0.011 C 
ATOM      9  C   UNL     1     172.143 172.807 178.264  1.00  0.00     0.008 C 
ATOM     10  C   UNL     1     171.648 170.368 178.017  1.00  0.00     0.008 C 
ENDBRANCH   5   8
ENDBRANCH   4   5
ENDBRANCH   1   3
BRANCH   1  11
ATOM     11  C   UNL     1     170.247 175.525 181.124  1.00  0.00     0.002 C 
ATOM     12  C   UNL     1     169.871 176.588 180.072  1.00  0.00     0.005 C 
ATOM     13  C   UNL     1     170.929 176.310 182.281  1.00  0.00    -0.026 C 
ATOM     14  C   UNL     1     170.737 177.823 180.365  1.00  0.00     0.005 C 
ATOM     15  C   UNL     1     171.685 177.442 181.519  1.00  0.00    -0.001 C 
ATOM     16  C   UNL     1     171.867 175.441 183.169  1.00  0.00     0.007 C 
ATOM     17  C   UNL     1     169.881 176.962 183.226  1.00  0.00     0.012 C 
ATOM     18  C   UNL     1     173.152 177.115 181.035  1.00  0.00     0.000 C 
ATOM     19  C   UNL     1     173.203 175.082 182.524  1.00  0.00     0.005 C 
ATOM     20  C   UNL     1     173.970 176.360 182.113  1.00  0.00     0.003 C 
ATOM     21  C   UNL     1     173.292 176.480 179.611  1.00  0.00     0.031 C 
ATOM     22  C   UNL     1     175.434 176.056 181.625  1.00  0.00    -0.008 C 
ATOM     23  C   UNL     1     174.398 175.465 179.436  1.00  0.00    -0.027 C 
ATOM     24  C   UNL     1     175.352 175.210 180.352  1.00  0.00    -0.065 C 
ATOM     25  C   UNL     1     176.268 175.387 182.784  1.00  0.00     0.014 C 
ATOM     26  C   UNL     1     176.167 177.372 181.245  1.00  0.00     0.016 C 
ATOM     27  C   UNL     1     176.267 174.029 180.080  1.00  0.00     0.063 C 
ATOM     28  C   UNL     1     176.615 173.914 182.553  1.00  0.00     0.033 C 
ATOM     29  C   UNL     1     177.280 173.757 181.188  1.00  0.00     0.118 C 
BRANCH  29  30
ATOM     30  O   UNL     1     177.765 172.448 181.049  1.00  0.00    -0.393 OA
ATOM     31  H   UNL     1     177.711 172.217 180.086  1.00  0.00     0.210 HD
ENDBRANCH  29  30
ENDBRANCH   1  11
TORSDOF 6
ENDMDL
MODEL 6
REMARK VINA RESULT:    -5.643      7.266     11.787
REMARK INTER + INTRA:          -9.862
REMARK INTER:                  -7.944
REMARK INTRA:                  -1.917
REMARK UNBOUND:                -2.404
REMARK SMILES CC[C@@H](C=C[C@H](C)[C@H]1CC[C@@H]2[C@@H]3CC=C4C[C@H](O)CC[C@]4(C)[C@@H]3CC[C@@]21C)C(C)C
REMARK SMILES IDX 6 1 7 2 5 3 4 4 3 5 2 6 1 7 28 8 29 9 30 10 8 11 9 12 26 13
REMARK SMILES IDX 10 14 11 15 25 16 27 17 12 18 24 19 23 20 13 21 21 22 14 23
REMARK SMILES IDX 15 24 20 25 22 26 16 27 19 28 17 29 18 30
REMARK H PARENT 18 31
REMARK Flexibility Score: inf
ROOT
ATOM      1  C   UNL     1     163.109 174.233 182.933  1.00  0.00     0.012 C 
ATOM      2  C   UNL     1     163.519 173.289 184.089  1.00  0.00     0.012 C 
ENDROOT
BRANCH   1   3
ATOM      3  C   UNL     1     164.317 174.653 182.109  1.00  0.00    -0.028 C 
ATOM      4  C   UNL     1     164.656 175.938 181.892  1.00  0.00    -0.027 C 
BRANCH   4   5
ATOM      5  C   UNL     1     165.877 176.314 181.071  1.00  0.00     0.014 C 
BRANCH   5   6
ATOM      6  C   UNL     1     166.722 177.352 181.852  1.00  0.00     0.004 C 
ATOM      7  C   UNL     1     168.230 177.098 181.743  1.00  0.00     0.004 C 
ENDBRANCH   5   6
BRANCH   5   8
ATOM      8  C   UNL     1     165.454 176.851 179.661  1.00  0.00    -0.011 C 
ATOM      9  C   UNL     1     164.313 177.880 179.760  1.00  0.00     0.008 C 
ATOM     10  C   UNL     1     165.011 175.719 178.714  1.00  0.00     0.008 C 
ENDBRANCH   5   8
ENDBRANCH   4   5
ENDBRANCH   1   3
BRANCH   1  11
ATOM     11  C   UNL     1     161.972 173.750 181.969  1.00  0.00     0.002 C 
ATOM     12  C   UNL     1     161.309 172.406 182.329  1.00  0.00     0.005 C 
ATOM     13  C   UNL     1     160.802 174.703 181.590  1.00  0.00    -0.026 C 
ATOM     14  C   UNL     1     159.905 172.426 181.704  1.00  0.00     0.005 C 
ATOM     15  C   UNL     1     159.793 173.735 180.897  1.00  0.00    -0.001 C 
ATOM     16  C   UNL     1     161.223 175.895 180.682  1.00  0.00     0.007 C 
ATOM     17  C   UNL     1     160.124 175.306 182.852  1.00  0.00     0.012 C 
ATOM     18  C   UNL     1     159.966 173.521 179.343  1.00  0.00     0.000 C 
ATOM     19  C   UNL     1     161.492 175.524 179.226  1.00  0.00     0.005 C 
ATOM     20  C   UNL     1     160.251 174.850 178.597  1.00  0.00     0.003 C 
ATOM     21  C   UNL     1     160.917 172.361 178.898  1.00  0.00     0.031 C 
ATOM     22  C   UNL     1     160.404 174.627 177.048  1.00  0.00    -0.008 C 
ATOM     23  C   UNL     1     161.726 172.600 177.644  1.00  0.00    -0.027 C 
ATOM     24  C   UNL     1     161.555 173.646 176.813  1.00  0.00    -0.065 C 
ATOM     25  C   UNL     1     160.584 176.010 176.312  1.00  0.00     0.014 C 
ATOM     26  C   UNL     1     159.124 173.968 176.463  1.00  0.00     0.016 C 
ATOM     27  C   UNL     1     162.581 173.820 175.709  1.00  0.00     0.063 C 
ATOM     28  C   UNL     1     161.978 176.246 175.726  1.00  0.00     0.033 C 
ATOM     29  C   UNL     1     162.366 175.060 174.847  1.00  0.00     0.118 C 
BRANCH  29  30
ATOM     30  O   UNL     1     163.557 175.351 174.163  1.00  0.00    -0.393 OA
ATOM     31  H   UNL     1     163.305 175.787 173.309  1.00  0.00     0.210 HD
ENDBRANCH  29  30
ENDBRANCH   1  11
TORSDOF 6
ENDMDL
MODEL 7
REMARK VINA RESULT:    -5.602      2.782      6.219
REMARK INTER + INTRA:          -9.807
REMARK INTER:                  -7.432
REMARK INTRA:                  -2.375
REMARK UNBOUND:                -2.404
REMARK SMILES CC[C@@H](C=C[C@H](C)[C@H]1CC[C@@H]2[C@@H]3CC=C4C[C@H](O)CC[C@]4(C)[C@@H]3CC[C@@]21C)C(C)C
REMARK SMILES IDX 6 1 7 2 5 3 4 4 3 5 2 6 1 7 28 8 29 9 30 10 8 11 9 12 26 13
REMARK SMILES IDX 10 14 11 15 25 16 27 17 12 18 24 19 23 20 13 21 21 22 14 23
REMARK SMILES IDX 15 24 20 25 22 26 16 27 19 28 17 29 18 30
REMARK H PARENT 18 31
REMARK Flexibility Score: inf
ROOT
ATOM      1  C   UNL     1     170.215 174.070 178.746  1.00  0.00     0.012 C 
ATOM      2  C   UNL     1     168.938 173.307 178.319  1.00  0.00     0.012 C 
ENDROOT
BRANCH   1   3
ATOM      3  C   UNL     1     169.875 175.278 179.605  1.00  0.00    -0.028 C 
ATOM      4  C   UNL     1     170.622 175.679 180.651  1.00  0.00    -0.027 C 
BRANCH   4   5
ATOM      5  C   UNL     1     170.251 176.899 181.476  1.00  0.00     0.014 C 
BRANCH   5   6
ATOM      6  C   UNL     1     171.501 177.799 181.653  1.00  0.00     0.004 C 
ATOM      7  C   UNL     1     172.796 177.119 181.196  1.00  0.00     0.004 C 
ENDBRANCH   5   6
BRANCH   5   8
ATOM      8  C   UNL     1     169.643 176.471 182.855  1.00  0.00    -0.011 C 
ATOM      9  C   UNL     1     170.009 177.464 183.975  1.00  0.00     0.008 C 
ATOM     10  C   UNL     1     170.098 175.062 183.282  1.00  0.00     0.008 C 
ENDBRANCH   5   8
ENDBRANCH   4   5
ENDBRANCH   1   3
BRANCH   1  11
ATOM     11  C   UNL     1     171.353 173.248 179.443  1.00  0.00     0.002 C 
ATOM     12  C   UNL     1     170.909 171.963 180.168  1.00  0.00     0.005 C 
ATOM     13  C   UNL     1     172.640 172.860 178.659  1.00  0.00    -0.026 C 
ATOM     14  C   UNL     1     172.135 171.037 180.217  1.00  0.00     0.005 C 
ATOM     15  C   UNL     1     173.314 171.825 179.613  1.00  0.00    -0.001 C 
ATOM     16  C   UNL     1     173.562 174.065 178.317  1.00  0.00     0.007 C 
ATOM     17  C   UNL     1     172.300 172.149 177.319  1.00  0.00     0.012 C 
ATOM     18  C   UNL     1     174.297 172.403 180.705  1.00  0.00     0.000 C 
ATOM     19  C   UNL     1     174.358 174.615 179.498  1.00  0.00     0.005 C 
ATOM     20  C   UNL     1     175.226 173.505 180.134  1.00  0.00     0.003 C 
ATOM     21  C   UNL     1     173.661 172.799 182.079  1.00  0.00     0.031 C 
ATOM     22  C   UNL     1     176.212 174.059 181.226  1.00  0.00    -0.008 C 
ATOM     23  C   UNL     1     174.257 174.003 182.773  1.00  0.00    -0.027 C 
ATOM     24  C   UNL     1     175.382 174.631 182.379  1.00  0.00    -0.065 C 
ATOM     25  C   UNL     1     177.211 175.097 180.584  1.00  0.00     0.014 C 
ATOM     26  C   UNL     1     177.074 172.910 181.817  1.00  0.00     0.016 C 
ATOM     27  C   UNL     1     175.725 175.929 183.085  1.00  0.00     0.063 C 
ATOM     28  C   UNL     1     176.994 176.548 181.021  1.00  0.00     0.033 C 
ATOM     29  C   UNL     1     176.974 176.621 182.545  1.00  0.00     0.118 C 
BRANCH  29  30
ATOM     30  O   UNL     1     176.961 177.964 182.952  1.00  0.00    -0.393 OA
ATOM     31  H   UNL     1     176.387 178.020 183.758  1.00  0.00     0.210 HD
ENDBRANCH  29  30
ENDBRANCH   1  11
TORSDOF 6
ENDMDL
MODEL 8
REMARK VINA RESULT:    -5.585      7.943     11.969
REMARK INTER + INTRA:          -9.785
REMARK INTER:                  -7.695
REMARK INTRA:                  -2.090
REMARK UNBOUND:                -2.404
REMARK SMILES CC[C@@H](C=C[C@H](C)[C@H]1CC[C@@H]2[C@@H]3CC=C4C[C@H](O)CC[C@]4(C)[C@@H]3CC[C@@]21C)C(C)C
REMARK SMILES IDX 6 1 7 2 5 3 4 4 3 5 2 6 1 7 28 8 29 9 30 10 8 11 9 12 26 13
REMARK SMILES IDX 10 14 11 15 25 16 27 17 12 18 24 19 23 20 13 21 21 22 14 23
REMARK SMILES IDX 15 24 20 25 22 26 16 27 19 28 17 29 18 30
REMARK H PARENT 18 31
REMARK Flexibility Score: inf
ROOT
ATOM      1  C   UNL     1     162.864 173.278 183.749  1.00  0.00     0.012 C 
ATOM      2  C   UNL     1     163.492 172.364 184.829  1.00  0.00     0.012 C 
ENDROOT
BRANCH   1   3
ATOM      3  C   UNL     1     163.857 174.324 183.266  1.00  0.00    -0.028 C 
ATOM      4  C   UNL     1     163.503 175.572 182.906  1.00  0.00    -0.027 C 
BRANCH   4   5
ATOM      5  C   UNL     1     164.529 176.590 182.438  1.00  0.00     0.014 C 
BRANCH   5   6
ATOM      6  C   UNL     1     163.961 178.019 182.633  1.00  0.00     0.004 C 
ATOM      7  C   UNL     1     162.495 178.023 183.080  1.00  0.00     0.004 C 
ENDBRANCH   5   6
BRANCH   5   8
ATOM      8  C   UNL     1     164.935 176.323 180.949  1.00  0.00    -0.011 C 
ATOM      9  C   UNL     1     166.000 177.322 180.459  1.00  0.00     0.008 C 
ATOM     10  C   UNL     1     163.727 176.387 179.994  1.00  0.00     0.008 C 
ENDBRANCH   5   8
ENDBRANCH   4   5
ENDBRANCH   1   3
BRANCH   1  11
ATOM     11  C   UNL     1     162.201 172.587 182.509  1.00  0.00     0.002 C 
ATOM     12  C   UNL     1     162.397 171.061 182.403  1.00  0.00     0.005 C 
ATOM     13  C   UNL     1     160.703 172.838 182.172  1.00  0.00    -0.026 C 
ATOM     14  C   UNL     1     161.228 170.524 181.562  1.00  0.00     0.005 C 
ATOM     15  C   UNL     1     160.413 171.747 181.094  1.00  0.00    -0.001 C 
ATOM     16  C   UNL     1     160.398 174.281 181.676  1.00  0.00     0.007 C 
ATOM     17  C   UNL     1     159.789 172.575 183.402  1.00  0.00     0.012 C 
ATOM     18  C   UNL     1     160.694 172.142 179.592  1.00  0.00     0.000 C 
ATOM     19  C   UNL     1     160.845 174.572 180.246  1.00  0.00     0.005 C 
ATOM     20  C   UNL     1     160.198 173.572 179.259  1.00  0.00     0.003 C 
ATOM     21  C   UNL     1     162.136 171.860 179.053  1.00  0.00     0.031 C 
ATOM     22  C   UNL     1     160.468 173.946 177.756  1.00  0.00    -0.008 C 
ATOM     23  C   UNL     1     162.689 172.857 178.062  1.00  0.00    -0.027 C 
ATOM     24  C   UNL     1     161.973 173.849 177.497  1.00  0.00    -0.065 C 
ATOM     25  C   UNL     1     159.854 175.362 177.426  1.00  0.00     0.014 C 
ATOM     26  C   UNL     1     159.780 172.926 176.807  1.00  0.00     0.016 C 
ATOM     27  C   UNL     1     162.741 174.864 176.670  1.00  0.00     0.063 C 
ATOM     28  C   UNL     1     160.887 176.463 177.175  1.00  0.00     0.033 C 
ATOM     29  C   UNL     1     161.880 175.995 176.115  1.00  0.00     0.118 C 
BRANCH  29  30
ATOM     30  O   UNL     1     162.714 177.063 175.748  1.00  0.00    -0.393 OA
ATOM     31  H   UNL     1     163.367 177.190 176.483  1.00  0.00     0.210 HD
ENDBRANCH  29  30
ENDBRANCH   1  11
TORSDOF 6
ENDMDL
MODEL 9
REMARK VINA RESULT:    -5.382      1.736      5.272
REMARK INTER + INTRA:          -9.517
REMARK INTER:                  -7.068
REMARK INTRA:                  -2.449
REMARK UNBOUND:                -2.404
REMARK SMILES CC[C@@H](C=C[C@H](C)[C@H]1CC[C@@H]2[C@@H]3CC=C4C[C@H](O)CC[C@]4(C)[C@@H]3CC[C@@]21C)C(C)C
REMARK SMILES IDX 6 1 7 2 5 3 4 4 3 5 2 6 1 7 28 8 29 9 30 10 8 11 9 12 26 13
REMARK SMILES IDX 10 14 11 15 25 16 27 17 12 18 24 19 23 20 13 21 21 22 14 23
REMARK SMILES IDX 15 24 20 25 22 26 16 27 19 28 17 29 18 30
REMARK H PARENT 18 31
REMARK Flexibility Score: inf
ROOT
ATOM      1  C   UNL     1     174.361 175.651 177.039  1.00  0.00     0.012 C 
ATOM      2  C   UNL     1     175.121 176.251 175.832  1.00  0.00     0.012 C 
ENDROOT
BRANCH   1   3
ATOM      3  C   UNL     1     175.269 175.518 178.252  1.00  0.00    -0.028 C 
ATOM      4  C   UNL     1     174.854 175.731 179.516  1.00  0.00    -0.027 C 
BRANCH   4   5
ATOM      5  C   UNL     1     175.792 175.577 180.701  1.00  0.00     0.014 C 
BRANCH   5   6
ATOM      6  C   UNL     1     176.657 174.305 180.510  1.00  0.00     0.004 C 
ATOM      7  C   UNL     1     177.460 173.935 181.762  1.00  0.00     0.004 C 
ENDBRANCH   5   6
BRANCH   5   8
ATOM      8  C   UNL     1     174.986 175.536 182.043  1.00  0.00    -0.011 C 
ATOM      9  C   UNL     1     173.777 174.585 181.957  1.00  0.00     0.008 C 
ATOM     10  C   UNL     1     174.482 176.930 182.465  1.00  0.00     0.008 C 
ENDBRANCH   5   8
ENDBRANCH   4   5
ENDBRANCH   1   3
BRANCH   1  11
ATOM     11  C   UNL     1     173.023 176.341 177.471  1.00  0.00     0.002 C 
ATOM     12  C   UNL     1     172.858 177.815 177.050  1.00  0.00     0.005 C 
ATOM     13  C   UNL     1     171.653 175.667 177.170  1.00  0.00    -0.026 C 
ATOM     14  C   UNL     1     171.347 178.091 176.994  1.00  0.00     0.005 C 
ATOM     15  C   UNL     1     170.640 176.811 177.483  1.00  0.00    -0.001 C 
ATOM     16  C   UNL     1     171.388 174.374 177.995  1.00  0.00     0.007 C 
ATOM     17  C   UNL     1     171.522 175.286 175.668  1.00  0.00     0.012 C 
ATOM     18  C   UNL     1     170.126 176.917 178.971  1.00  0.00     0.000 C 
ATOM     19  C   UNL     1     171.031 174.615 179.459  1.00  0.00     0.005 C 
ATOM     20  C   UNL     1     169.789 175.529 179.575  1.00  0.00     0.003 C 
ATOM     21  C   UNL     1     170.969 177.810 179.941  1.00  0.00     0.031 C 
ATOM     22  C   UNL     1     169.261 175.649 181.051  1.00  0.00    -0.008 C 
ATOM     23  C   UNL     1     171.061 177.343 181.375  1.00  0.00    -0.027 C 
ATOM     24  C   UNL     1     170.341 176.330 181.895  1.00  0.00    -0.065 C 
ATOM     25  C   UNL     1     168.827 174.233 181.593  1.00  0.00     0.014 C 
ATOM     26  C   UNL     1     168.003 176.558 181.109  1.00  0.00     0.016 C 
ATOM     27  C   UNL     1     170.702 175.883 183.300  1.00  0.00     0.063 C 
ATOM     28  C   UNL     1     169.733 173.662 182.687  1.00  0.00     0.033 C 
ATOM     29  C   UNL     1     169.893 174.691 183.802  1.00  0.00     0.118 C 
BRANCH  29  30
ATOM     30  O   UNL     1     170.567 174.108 184.886  1.00  0.00    -0.393 OA
ATOM     31  H   UNL     1     170.153 174.466 185.714  1.00  0.00     0.210 HD
ENDBRANCH  29  30
ENDBRANCH   1  11
TORSDOF 6
ENDMDL
