MODEL 1
REMARK VINA RESULT:    -4.992      0.000      0.000
REMARK INTER + INTRA:          -4.992
REMARK INTER:                  -4.992
REMARK INTRA:                   0.000
REMARK UNBOUND:                 0.000
REMARK SMILES O=c1ccc2ccccc2o1
REMARK SMILES IDX 7 1 8 2 9 3 10 4 5 5 6 6 4 7 3 8 2 9 1 10 11 11
REMARK H PARENT
REMARK Flexibility Score: inf
ROOT
ATOM      1  C   UNL     1      23.440  10.507 -17.817  1.00  0.00     0.001 A 
ATOM      2  C   UNL     1      24.730  10.003 -17.621  1.00  0.00     0.004 A 
ATOM      3  C   UNL     1      25.125   8.817 -18.251  1.00  0.00     0.048 A 
ATOM      4  C   UNL     1      24.230   8.133 -19.081  1.00  0.00     0.138 A 
ATOM      5  C   UNL     1      22.927   8.644 -19.280  1.00  0.00     0.018 A 
ATOM      6  C   UNL     1      22.537   9.832 -18.645  1.00  0.00     0.012 A 
ATOM      7  C   UNL     1      22.055   7.938 -20.114  1.00  0.00     0.019 A 
ATOM      8  C   UNL     1      22.492   6.762 -20.722  1.00  0.00     0.094 A 
ATOM      9  C   UNL     1      23.796   6.316 -20.479  1.00  0.00     0.336 A 
ATOM     10  O   UNL     1      24.209   5.257 -21.019  1.00  0.00    -0.246 OA
ATOM     11  O   UNL     1      24.607   7.007 -19.681  1.00  0.00    -0.423 OA
ENDROOT
TORSDOF 0
ENDMDL
MODEL 2
REMARK VINA RESULT:    -4.977      1.104      2.108
REMARK INTER + INTRA:          -4.977
REMARK INTER:                  -4.977
REMARK INTRA:                   0.000
REMARK UNBOUND:                 0.000
REMARK SMILES O=c1ccc2ccccc2o1
REMARK SMILES IDX 7 1 8 2 9 3 10 4 5 5 6 6 4 7 3 8 2 9 1 10 11 11
REMARK H PARENT
REMARK Flexibility Score: inf
ROOT
ATOM      1  C   UNL     1      24.281   9.996 -17.827  1.00  0.00     0.001 A 
ATOM      2  C   UNL     1      22.956  10.153 -18.251  1.00  0.00     0.004 A 
ATOM      3  C   UNL     1      22.360   9.188 -19.071  1.00  0.00     0.048 A 
ATOM      4  C   UNL     1      23.087   8.061 -19.468  1.00  0.00     0.138 A 
ATOM      5  C   UNL     1      24.424   7.901 -19.039  1.00  0.00     0.018 A 
ATOM      6  C   UNL     1      25.016   8.872 -18.218  1.00  0.00     0.012 A 
ATOM      7  C   UNL     1      25.125   6.764 -19.453  1.00  0.00     0.019 A 
ATOM      8  C   UNL     1      24.490   5.828 -20.268  1.00  0.00     0.094 A 
ATOM      9  C   UNL     1      23.164   6.053 -20.654  1.00  0.00     0.336 A 
ATOM     10  O   UNL     1      22.575   5.219 -21.390  1.00  0.00    -0.246 OA
ATOM     11  O   UNL     1      22.519   7.143 -20.247  1.00  0.00    -0.423 OA
ENDROOT
TORSDOF 0
ENDMDL
MODEL 3
REMARK VINA RESULT:    -4.842      8.270      9.231
REMARK INTER + INTRA:          -4.842
REMARK INTER:                  -4.842
REMARK INTRA:                   0.000
REMARK UNBOUND:                 0.000
REMARK SMILES O=c1ccc2ccccc2o1
REMARK SMILES IDX 7 1 8 2 9 3 10 4 5 5 6 6 4 7 3 8 2 9 1 10 11 11
REMARK H PARENT
REMARK Flexibility Score: inf
ROOT
ATOM      1  C   UNL     1      19.288  -1.153 -18.423  1.00  0.00     0.001 A 
ATOM      2  C   UNL     1      20.271  -0.282 -17.939  1.00  0.00     0.004 A 
ATOM      3  C   UNL     1      21.143   0.357 -18.825  1.00  0.00     0.048 A 
ATOM      4  C   UNL     1      21.035   0.130 -20.202  1.00  0.00     0.138 A 
ATOM      5  C   UNL     1      20.041  -0.748 -20.691  1.00  0.00     0.018 A 
ATOM      6  C   UNL     1      19.170  -1.387 -19.797  1.00  0.00     0.012 A 
ATOM      7  C   UNL     1      19.957  -0.955 -22.072  1.00  0.00     0.019 A 
ATOM      8  C   UNL     1      20.847  -0.296 -22.918  1.00  0.00     0.094 A 
ATOM      9  C   UNL     1      21.805   0.559 -22.362  1.00  0.00     0.336 A 
ATOM     10  O   UNL     1      22.617   1.164 -23.110  1.00  0.00    -0.246 OA
ATOM     11  O   UNL     1      21.864   0.740 -21.045  1.00  0.00    -0.423 OA
ENDROOT
TORSDOF 0
ENDMDL
MODEL 4
REMARK VINA RESULT:    -4.836      1.850      4.322
REMARK INTER + INTRA:          -4.836
REMARK INTER:                  -4.836
REMARK INTRA:                   0.000
REMARK UNBOUND:                 0.000
REMARK SMILES O=c1ccc2ccccc2o1
REMARK SMILES IDX 7 1 8 2 9 3 10 4 5 5 6 6 4 7 3 8 2 9 1 10 11 11
REMARK H PARENT
REMARK Flexibility Score: inf
ROOT
ATOM      1  C   UNL     1      24.375   5.607 -20.479  1.00  0.00     0.001 A 
ATOM      2  C   UNL     1      23.068   5.913 -20.874  1.00  0.00     0.004 A 
ATOM      3  C   UNL     1      22.451   7.084 -20.420  1.00  0.00     0.048 A 
ATOM      4  C   UNL     1      23.141   7.955 -19.569  1.00  0.00     0.138 A 
ATOM      5  C   UNL     1      24.462   7.647 -19.171  1.00  0.00     0.018 A 
ATOM      6  C   UNL     1      25.074   6.471 -19.629  1.00  0.00     0.012 A 
ATOM      7  C   UNL     1      25.125   8.536 -18.320  1.00  0.00     0.019 A 
ATOM      8  C   UNL     1      24.472   9.691 -17.894  1.00  0.00     0.094 A 
ATOM      9  C   UNL     1      23.164   9.931 -18.329  1.00  0.00     0.336 A 
ATOM     10  O   UNL     1      22.558  10.969 -17.954  1.00  0.00    -0.246 OA
ATOM     11  O   UNL     1      22.554   9.069 -19.139  1.00  0.00    -0.423 OA
ENDROOT
TORSDOF 0
ENDMDL
MODEL 5
REMARK VINA RESULT:    -4.719     23.136     23.909
REMARK INTER + INTRA:          -4.719
REMARK INTER:                  -4.719
REMARK INTRA:                   0.000
REMARK UNBOUND:                 0.000
REMARK SMILES O=c1ccc2ccccc2o1
REMARK SMILES IDX 7 1 8 2 9 3 10 4 5 5 6 6 4 7 3 8 2 9 1 10 11 11
REMARK H PARENT
REMARK Flexibility Score: inf
ROOT
ATOM      1  C   UNL     1       7.539  -7.699  -5.817  1.00  0.00     0.001 A 
ATOM      2  C   UNL     1       7.879  -6.357  -5.609  1.00  0.00     0.004 A 
ATOM      3  C   UNL     1       8.913  -5.771  -6.347  1.00  0.00     0.048 A 
ATOM      4  C   UNL     1       9.611  -6.525  -7.297  1.00  0.00     0.138 A 
ATOM      5  C   UNL     1       9.267  -7.879  -7.508  1.00  0.00     0.018 A 
ATOM      6  C   UNL     1       8.230  -8.461  -6.765  1.00  0.00     0.012 A 
ATOM      7  C   UNL     1       9.983  -8.607  -8.463  1.00  0.00     0.019 A 
ATOM      8  C   UNL     1      11.005  -7.981  -9.176  1.00  0.00     0.094 A 
ATOM      9  C   UNL     1      11.290  -6.637  -8.913  1.00  0.00     0.336 A 
ATOM     10  O   UNL     1      12.209  -6.054  -9.546  1.00  0.00    -0.246 OA
ATOM     11  O   UNL     1      10.594  -5.966  -7.998  1.00  0.00    -0.423 OA
ENDROOT
TORSDOF 0
ENDMDL
MODEL 6
REMARK VINA RESULT:    -4.655     22.146     22.993
REMARK INTER + INTRA:          -4.655
REMARK INTER:                  -4.655
REMARK INTRA:                   0.000
REMARK UNBOUND:                 0.000
REMARK SMILES O=c1ccc2ccccc2o1
REMARK SMILES IDX 7 1 8 2 9 3 10 4 5 5 6 6 4 7 3 8 2 9 1 10 11 11
REMARK H PARENT
REMARK Flexibility Score: inf
ROOT
ATOM      1  C   UNL     1      10.857  -6.113 -10.984  1.00  0.00     0.001 A 
ATOM      2  C   UNL     1      11.714  -6.501  -9.948  1.00  0.00     0.004 A 
ATOM      3  C   UNL     1      11.257  -6.519  -8.626  1.00  0.00     0.048 A 
ATOM      4  C   UNL     1       9.939  -6.149  -8.335  1.00  0.00     0.138 A 
ATOM      5  C   UNL     1       9.073  -5.759  -9.382  1.00  0.00     0.018 A 
ATOM      6  C   UNL     1       9.537  -5.743 -10.704  1.00  0.00     0.012 A 
ATOM      7  C   UNL     1       7.762  -5.394  -9.060  1.00  0.00     0.019 A 
ATOM      8  C   UNL     1       7.349  -5.428  -7.729  1.00  0.00     0.094 A 
ATOM      9  C   UNL     1       8.262  -5.825  -6.745  1.00  0.00     0.336 A 
ATOM     10  O   UNL     1       7.908  -5.861  -5.538  1.00  0.00    -0.246 OA
ATOM     11  O   UNL     1       9.505  -6.167  -7.077  1.00  0.00    -0.423 OA
ENDROOT
TORSDOF 0
ENDMDL
MODEL 7
REMARK VINA RESULT:    -4.587      2.538      3.483
REMARK INTER + INTRA:          -4.587
REMARK INTER:                  -4.587
REMARK INTRA:                   0.000
REMARK UNBOUND:                 0.000
REMARK SMILES O=c1ccc2ccccc2o1
REMARK SMILES IDX 7 1 8 2 9 3 10 4 5 5 6 6 4 7 3 8 2 9 1 10 11 11
REMARK H PARENT
REMARK Flexibility Score: inf
ROOT
ATOM      1  C   UNL     1      25.124   8.253 -18.630  1.00  0.00     0.001 A 
ATOM      2  C   UNL     1      24.983   9.445 -17.910  1.00  0.00     0.004 A 
ATOM      3  C   UNL     1      23.741  10.086 -17.847  1.00  0.00     0.048 A 
ATOM      4  C   UNL     1      22.635   9.537 -18.505  1.00  0.00     0.138 A 
ATOM      5  C   UNL     1      22.777   8.332 -19.230  1.00  0.00     0.018 A 
ATOM      6  C   UNL     1      24.024   7.694 -19.289  1.00  0.00     0.012 A 
ATOM      7  C   UNL     1      21.654   7.808 -19.877  1.00  0.00     0.019 A 
ATOM      8  C   UNL     1      20.436   8.480 -19.786  1.00  0.00     0.094 A 
ATOM      9  C   UNL     1      20.370   9.668 -19.050  1.00  0.00     0.336 A 
ATOM     10  O   UNL     1      19.279  10.290 -18.957  1.00  0.00    -0.246 OA
ATOM     11  O   UNL     1      21.454  10.147 -18.444  1.00  0.00    -0.423 OA
ENDROOT
TORSDOF 0
ENDMDL
MODEL 8
REMARK VINA RESULT:    -4.583      1.214      2.691
REMARK INTER + INTRA:          -4.583
REMARK INTER:                  -4.583
REMARK INTRA:                   0.000
REMARK UNBOUND:                 0.000
REMARK SMILES O=c1ccc2ccccc2o1
REMARK SMILES IDX 7 1 8 2 9 3 10 4 5 5 6 6 4 7 3 8 2 9 1 10 11 11
REMARK H PARENT
REMARK Flexibility Score: inf
ROOT
ATOM      1  C   UNL     1      21.015  10.125 -18.927  1.00  0.00     0.001 A 
ATOM      2  C   UNL     1      20.367   9.040 -19.529  1.00  0.00     0.004 A 
ATOM      3  C   UNL     1      21.078   7.872 -19.827  1.00  0.00     0.048 A 
ATOM      4  C   UNL     1      22.440   7.785 -19.522  1.00  0.00     0.138 A 
ATOM      5  C   UNL     1      23.095   8.880 -18.913  1.00  0.00     0.018 A 
ATOM      6  C   UNL     1      22.377  10.047 -18.618  1.00  0.00     0.012 A 
ATOM      7  C   UNL     1      24.457   8.762 -18.621  1.00  0.00     0.019 A 
ATOM      8  C   UNL     1      25.125   7.579 -18.934  1.00  0.00     0.094 A 
ATOM      9  C   UNL     1      24.412   6.537 -19.536  1.00  0.00     0.336 A 
ATOM     10  O   UNL     1      24.998   5.461 -19.827  1.00  0.00    -0.246 OA
ATOM     11  O   UNL     1      23.115   6.673 -19.804  1.00  0.00    -0.423 OA
ENDROOT
TORSDOF 0
ENDMDL
MODEL 9
REMARK VINA RESULT:    -4.532      1.982      3.783
REMARK INTER + INTRA:          -4.532
REMARK INTER:                  -4.532
REMARK INTRA:                   0.000
REMARK UNBOUND:                 0.000
REMARK SMILES O=c1ccc2ccccc2o1
REMARK SMILES IDX 7 1 8 2 9 3 10 4 5 5 6 6 4 7 3 8 2 9 1 10 11 11
REMARK H PARENT
REMARK Flexibility Score: inf
ROOT
ATOM      1  C   UNL     1      24.029   5.475 -20.866  1.00  0.00     0.001 A 
ATOM      2  C   UNL     1      25.013   5.920 -19.976  1.00  0.00     0.004 A 
ATOM      3  C   UNL     1      24.839   7.117 -19.274  1.00  0.00     0.048 A 
ATOM      4  C   UNL     1      23.678   7.875 -19.460  1.00  0.00     0.138 A 
ATOM      5  C   UNL     1      22.682   7.426 -20.357  1.00  0.00     0.018 A 
ATOM      6  C   UNL     1      22.863   6.225 -21.058  1.00  0.00     0.012 A 
ATOM      7  C   UNL     1      21.533   8.205 -20.521  1.00  0.00     0.019 A 
ATOM      8  C   UNL     1      21.401   9.391 -19.801  1.00  0.00     0.094 A 
ATOM      9  C   UNL     1      22.428   9.773 -18.930  1.00  0.00     0.336 A 
ATOM     10  O   UNL     1      22.327  10.840 -18.270  1.00  0.00    -0.246 OA
ATOM     11  O   UNL     1      23.512   9.014 -18.791  1.00  0.00    -0.423 OA
ENDROOT
TORSDOF 0
ENDMDL
