MODEL 1
REMARK VINA RESULT:    -7.879      0.000      0.000
REMARK INTER + INTRA:          -8.326
REMARK INTER:                  -8.570
REMARK INTRA:                   0.244
REMARK UNBOUND:                 0.244
REMARK SMILES C[C@H]1[C@H](C)CC[C@@]2(C(=O)[O-])CC[C@@]3(C)C(=CC[C@H]4[C@]5(C)CC[C@@H](O)C(C)(C)[C@@H]5CC[C@@]43C)[C@H]12
REMARK SMILES IDX 7 1 6 2 11 3 33 4 5 5 12 6 15 7 2 8 3 9 13 10 16 11 1 12
REMARK SMILES IDX 4 13 14 14 31 15 17 16 18 17 30 18 32 19 19 20 29 21 28 22
REMARK SMILES IDX 21 23 20 24 25 25 22 26 23 27 26 28 27 29 8 30 9 31 10 32
REMARK SMILES IDX 24 33
REMARK H PARENT 24 34
REMARK Flexibility Score: inf
ROOT
ATOM      1  C   UNL     1     -28.602 110.075  21.083  1.00  0.00     0.017 C 
ATOM      2  C   UNL     1     -30.040 109.507  21.203  1.00  0.00     0.014 C 
ATOM      3  C   UNL     1     -28.634 111.464  20.343  1.00  0.00     0.014 C 
ATOM      4  C   UNL     1     -28.050 110.244  22.535  1.00  0.00     0.030 C 
ATOM      5  C   UNL     1     -30.059 108.164  21.944  1.00  0.00     0.004 C 
ATOM      6  C   UNL     1     -28.263 112.698  21.213  1.00  0.00     0.013 C 
ATOM      7  C   UNL     1     -26.770 111.081  22.477  1.00  0.00    -0.063 C 
ATOM      8  C   UNL     1     -28.051 108.923  23.372  1.00  0.00    -0.003 C 
ATOM      9  C   UNL     1     -29.482 108.289  23.367  1.00  0.00    -0.011 C 
ATOM     10  C   UNL     1     -26.954 112.560  22.098  1.00  0.00    -0.006 C 
ATOM     11  C   UNL     1     -25.548 110.528  22.659  1.00  0.00    -0.027 C 
ATOM     12  C   UNL     1     -27.618 109.203  24.831  1.00  0.00     0.008 C 
ATOM     13  C   UNL     1     -29.506 106.904  24.037  1.00  0.00     0.008 C 
ATOM     14  C   UNL     1     -27.271 113.296  23.446  1.00  0.00     0.017 C 
ATOM     15  C   UNL     1     -25.634 113.143  21.364  1.00  0.00    -0.020 C 
ATOM     16  C   UNL     1     -24.250 111.205  22.319  1.00  0.00     0.032 C 
ATOM     17  C   UNL     1     -24.360 112.746  22.210  1.00  0.00     0.006 C 
ATOM     18  C   UNL     1     -25.701 114.694  21.241  1.00  0.00     0.008 C 
ATOM     19  C   UNL     1     -25.557 112.549  19.925  1.00  0.00     0.012 C 
ATOM     20  C   UNL     1     -22.967 113.462  21.895  1.00  0.00    -0.025 C 
ATOM     21  C   UNL     1     -24.384 115.369  20.832  1.00  0.00     0.005 C 
ATOM     22  C   UNL     1     -23.167 115.030  21.740  1.00  0.00     0.003 C 
ATOM     23  C   UNL     1     -21.955 113.113  23.051  1.00  0.00     0.010 C 
ATOM     24  C   UNL     1     -22.277 112.945  20.586  1.00  0.00     0.012 C 
ATOM     25  C   UNL     1     -22.988 115.970  23.030  1.00  0.00    -0.006 C 
ATOM     26  C   UNL     1     -21.098 114.295  23.489  1.00  0.00     0.033 C 
ATOM     27  C   UNL     1     -22.018 115.344  24.102  1.00  0.00     0.120 C 
ATOM     28  C   UNL     1     -22.407 117.336  22.553  1.00  0.00     0.014 C 
ATOM     29  C   UNL     1     -24.319 116.281  23.752  1.00  0.00     0.014 C 
ENDROOT
BRANCH   1  30
ATOM     30  C   UNL     1     -27.764 109.117  20.230  1.00  0.00     0.048 C 
ATOM     31  O   UNL     1     -27.624 109.338  18.996  1.00  0.00    -0.550 OA
ATOM     32  O   UNL     1     -27.075 108.050  20.789  1.00  0.00    -0.550 OA
ENDBRANCH   1  30
BRANCH  27  33
ATOM     33  O   UNL     1     -21.229 116.324  24.742  1.00  0.00    -0.393 OA
ATOM     34  H   UNL     1     -21.843 116.957  25.202  1.00  0.00     0.210 HD
ENDBRANCH  27  33
TORSDOF 2
ENDMDL
MODEL 2
REMARK VINA RESULT:    -7.766      2.145      3.379
REMARK INTER + INTRA:          -8.203
REMARK INTER:                  -8.458
REMARK INTRA:                   0.254
REMARK UNBOUND:                 0.244
REMARK SMILES C[C@H]1[C@H](C)CC[C@@]2(C(=O)[O-])CC[C@@]3(C)C(=CC[C@H]4[C@]5(C)CC[C@@H](O)C(C)(C)[C@@H]5CC[C@@]43C)[C@H]12
REMARK SMILES IDX 7 1 6 2 11 3 33 4 5 5 12 6 15 7 2 8 3 9 13 10 16 11 1 12
REMARK SMILES IDX 4 13 14 14 31 15 17 16 18 17 30 18 32 19 19 20 29 21 28 22
REMARK SMILES IDX 21 23 20 24 25 25 22 26 23 27 26 28 27 29 8 30 9 31 10 32
REMARK SMILES IDX 24 33
REMARK H PARENT 24 34
REMARK Flexibility Score: inf
ROOT
ATOM      1  C   UNL     1     -25.764 110.080  21.607  1.00  0.00     0.017 C 
ATOM      2  C   UNL     1     -26.848 108.999  21.355  1.00  0.00     0.014 C 
ATOM      3  C   UNL     1     -24.931 110.319  20.293  1.00  0.00     0.014 C 
ATOM      4  C   UNL     1     -26.507 111.389  22.027  1.00  0.00     0.030 C 
ATOM      5  C   UNL     1     -27.704 108.754  22.605  1.00  0.00     0.004 C 
ATOM      6  C   UNL     1     -25.119 111.709  19.622  1.00  0.00     0.013 C 
ATOM      7  C   UNL     1     -25.512 112.551  21.983  1.00  0.00    -0.063 C 
ATOM      8  C   UNL     1     -27.421 111.224  23.285  1.00  0.00    -0.003 C 
ATOM      9  C   UNL     1     -28.418 110.037  23.069  1.00  0.00    -0.011 C 
ATOM     10  C   UNL     1     -25.029 112.967  20.585  1.00  0.00    -0.006 C 
ATOM     11  C   UNL     1     -25.021 113.111  23.114  1.00  0.00    -0.027 C 
ATOM     12  C   UNL     1     -28.218 112.523  23.553  1.00  0.00     0.008 C 
ATOM     13  C   UNL     1     -29.230 109.723  24.337  1.00  0.00     0.008 C 
ATOM     14  C   UNL     1     -26.103 113.981  20.061  1.00  0.00     0.017 C 
ATOM     15  C   UNL     1     -23.543 113.607  20.645  1.00  0.00    -0.020 C 
ATOM     16  C   UNL     1     -23.832 114.029  23.160  1.00  0.00     0.032 C 
ATOM     17  C   UNL     1     -23.498 114.687  21.798  1.00  0.00     0.006 C 
ATOM     18  C   UNL     1     -23.171 114.288  19.295  1.00  0.00     0.008 C 
ATOM     19  C   UNL     1     -22.515 112.465  20.909  1.00  0.00     0.012 C 
ATOM     20  C   UNL     1     -22.263 115.697  21.866  1.00  0.00    -0.025 C 
ATOM     21  C   UNL     1     -21.917 115.173  19.340  1.00  0.00     0.005 C 
ATOM     22  C   UNL     1     -21.943 116.287  20.427  1.00  0.00     0.003 C 
ATOM     23  C   UNL     1     -22.605 116.834  22.901  1.00  0.00     0.010 C 
ATOM     24  C   UNL     1     -20.946 115.042  22.408  1.00  0.00     0.012 C 
ATOM     25  C   UNL     1     -22.629 117.668  19.980  1.00  0.00    -0.006 C 
ATOM     26  C   UNL     1     -22.175 118.224  22.444  1.00  0.00     0.033 C 
ATOM     27  C   UNL     1     -22.990 118.587  21.208  1.00  0.00     0.120 C 
ATOM     28  C   UNL     1     -21.629 118.424  19.053  1.00  0.00     0.014 C 
ATOM     29  C   UNL     1     -23.929 117.473  19.165  1.00  0.00     0.014 C 
ENDROOT
BRANCH   1  30
ATOM     30  C   UNL     1     -24.798 109.567  22.679  1.00  0.00     0.048 C 
ATOM     31  O   UNL     1     -23.699 109.051  22.336  1.00  0.00    -0.550 OA
ATOM     32  O   UNL     1     -25.053 109.729  24.034  1.00  0.00    -0.550 OA
ENDBRANCH   1  30
BRANCH  27  33
ATOM     33  O   UNL     1     -22.799 119.956  20.922  1.00  0.00    -0.393 OA
ATOM     34  H   UNL     1     -23.423 120.477  21.493  1.00  0.00     0.210 HD
ENDBRANCH  27  33
TORSDOF 2
ENDMDL
MODEL 3
REMARK VINA RESULT:    -7.547      9.995     13.293
REMARK INTER + INTRA:          -7.965
REMARK INTER:                  -8.264
REMARK INTRA:                   0.299
REMARK UNBOUND:                 0.244
REMARK SMILES C[C@H]1[C@H](C)CC[C@@]2(C(=O)[O-])CC[C@@]3(C)C(=CC[C@H]4[C@]5(C)CC[C@@H](O)C(C)(C)[C@@H]5CC[C@@]43C)[C@H]12
REMARK SMILES IDX 7 1 6 2 11 3 33 4 5 5 12 6 15 7 2 8 3 9 13 10 16 11 1 12
REMARK SMILES IDX 4 13 14 14 31 15 17 16 18 17 30 18 32 19 19 20 29 21 28 22
REMARK SMILES IDX 21 23 20 24 25 25 22 26 23 27 26 28 27 29 8 30 9 31 10 32
REMARK SMILES IDX 24 33
REMARK H PARENT 24 34
REMARK Flexibility Score: inf
ROOT
ATOM      1  C   UNL     1     -25.401 117.179   8.476  1.00  0.00     0.017 C 
ATOM      2  C   UNL     1     -25.196 117.522   6.977  1.00  0.00     0.014 C 
ATOM      3  C   UNL     1     -26.917 117.355   8.863  1.00  0.00     0.014 C 
ATOM      4  C   UNL     1     -24.957 115.694   8.675  1.00  0.00     0.030 C 
ATOM      5  C   UNL     1     -23.735 117.337   6.549  1.00  0.00     0.004 C 
ATOM      6  C   UNL     1     -27.677 116.044   9.213  1.00  0.00     0.013 C 
ATOM      7  C   UNL     1     -25.428 115.223  10.053  1.00  0.00    -0.063 C 
ATOM      8  C   UNL     1     -23.480 115.411   8.244  1.00  0.00    -0.003 C 
ATOM      9  C   UNL     1     -23.253 115.891   6.772  1.00  0.00    -0.011 C 
ATOM     10  C   UNL     1     -26.947 115.062  10.222  1.00  0.00    -0.006 C 
ATOM     11  C   UNL     1     -24.564 115.051  11.081  1.00  0.00    -0.027 C 
ATOM     12  C   UNL     1     -23.164 113.900   8.347  1.00  0.00     0.008 C 
ATOM     13  C   UNL     1     -21.777 115.788   6.350  1.00  0.00     0.008 C 
ATOM     14  C   UNL     1     -27.268 113.614   9.714  1.00  0.00     0.017 C 
ATOM     15  C   UNL     1     -27.393 115.296  11.761  1.00  0.00    -0.020 C 
ATOM     16  C   UNL     1     -24.974 114.894  12.518  1.00  0.00     0.032 C 
ATOM     17  C   UNL     1     -26.446 114.450  12.702  1.00  0.00     0.006 C 
ATOM     18  C   UNL     1     -28.868 114.853  11.991  1.00  0.00     0.008 C 
ATOM     19  C   UNL     1     -27.289 116.817  12.087  1.00  0.00     0.012 C 
ATOM     20  C   UNL     1     -26.861 114.239  14.230  1.00  0.00    -0.025 C 
ATOM     21  C   UNL     1     -29.293 114.757  13.463  1.00  0.00     0.005 C 
ATOM     22  C   UNL     1     -28.394 113.842  14.344  1.00  0.00     0.003 C 
ATOM     23  C   UNL     1     -25.924 113.137  14.853  1.00  0.00     0.010 C 
ATOM     24  C   UNL     1     -26.637 115.508  15.122  1.00  0.00     0.012 C 
ATOM     25  C   UNL     1     -28.798 112.288  14.358  1.00  0.00    -0.006 C 
ATOM     26  C   UNL     1     -26.656 112.158  15.765  1.00  0.00     0.033 C 
ATOM     27  C   UNL     1     -27.645 111.370  14.914  1.00  0.00     0.120 C 
ATOM     28  C   UNL     1     -30.059 112.127  15.262  1.00  0.00     0.014 C 
ATOM     29  C   UNL     1     -29.179 111.740  12.963  1.00  0.00     0.014 C 
ENDROOT
BRANCH   1  30
ATOM     30  C   UNL     1     -24.592 118.167   9.322  1.00  0.00     0.048 C 
ATOM     31  O   UNL     1     -25.064 119.309   9.573  1.00  0.00    -0.550 OA
ATOM     32  O   UNL     1     -23.381 117.815   9.901  1.00  0.00    -0.550 OA
ENDBRANCH   1  30
BRANCH  27  33
ATOM     33  O   UNL     1     -28.145 110.292  15.677  1.00  0.00    -0.393 OA
ATOM     34  H   UNL     1     -28.753 109.763  15.095  1.00  0.00     0.210 HD
ENDBRANCH  27  33
TORSDOF 2
ENDMDL
MODEL 4
REMARK VINA RESULT:    -7.518      3.427      7.023
REMARK INTER + INTRA:          -7.934
REMARK INTER:                  -8.176
REMARK INTRA:                   0.242
REMARK UNBOUND:                 0.244
REMARK SMILES C[C@H]1[C@H](C)CC[C@@]2(C(=O)[O-])CC[C@@]3(C)C(=CC[C@H]4[C@]5(C)CC[C@@H](O)C(C)(C)[C@@H]5CC[C@@]43C)[C@H]12
REMARK SMILES IDX 7 1 6 2 11 3 33 4 5 5 12 6 15 7 2 8 3 9 13 10 16 11 1 12
REMARK SMILES IDX 4 13 14 14 31 15 17 16 18 17 30 18 32 19 19 20 29 21 28 22
REMARK SMILES IDX 21 23 20 24 25 25 22 26 23 27 26 28 27 29 8 30 9 31 10 32
REMARK SMILES IDX 24 33
REMARK H PARENT 24 34
REMARK Flexibility Score: inf
ROOT
ATOM      1  C   UNL     1     -24.743 113.099  16.634  1.00  0.00     0.017 C 
ATOM      2  C   UNL     1     -24.675 113.175  15.086  1.00  0.00     0.014 C 
ATOM      3  C   UNL     1     -26.169 113.545  17.130  1.00  0.00     0.014 C 
ATOM      4  C   UNL     1     -24.465 111.615  17.037  1.00  0.00     0.030 C 
ATOM      5  C   UNL     1     -23.308 112.721  14.557  1.00  0.00     0.004 C 
ATOM      6  C   UNL     1     -27.038 112.425  17.767  1.00  0.00     0.013 C 
ATOM      7  C   UNL     1     -24.825 111.434  18.513  1.00  0.00    -0.063 C 
ATOM      8  C   UNL     1     -23.096 111.063  16.519  1.00  0.00    -0.003 C 
ATOM      9  C   UNL     1     -22.986 111.273  14.972  1.00  0.00    -0.011 C 
ATOM     10  C   UNL     1     -26.322 111.517  18.853  1.00  0.00    -0.006 C 
ATOM     11  C   UNL     1     -23.873 111.302  19.467  1.00  0.00    -0.027 C 
ATOM     12  C   UNL     1     -22.960 109.557  16.845  1.00  0.00     0.008 C 
ATOM     13  C   UNL     1     -21.595 110.899  14.433  1.00  0.00     0.008 C 
ATOM     14  C   UNL     1     -26.877 110.068  18.629  1.00  0.00     0.017 C 
ATOM     15  C   UNL     1     -26.550 112.046  20.365  1.00  0.00    -0.020 C 
ATOM     16  C   UNL     1     -24.127 111.428  20.943  1.00  0.00     0.032 C 
ATOM     17  C   UNL     1     -25.611 111.230  21.340  1.00  0.00     0.006 C 
ATOM     18  C   UNL     1     -28.031 111.857  20.808  1.00  0.00     0.008 C 
ATOM     19  C   UNL     1     -26.222 113.569  20.418  1.00  0.00     0.012 C 
ATOM     20  C   UNL     1     -25.865 111.318  22.914  1.00  0.00    -0.025 C 
ATOM     21  C   UNL     1     -28.289 112.050  22.309  1.00  0.00     0.005 C 
ATOM     22  C   UNL     1     -27.412 111.164  23.241  1.00  0.00     0.003 C 
ATOM     23  C   UNL     1     -25.005 110.203  23.621  1.00  0.00     0.010 C 
ATOM     24  C   UNL     1     -25.382 112.665  23.554  1.00  0.00     0.012 C 
ATOM     25  C   UNL     1     -28.001 109.704  23.555  1.00  0.00    -0.006 C 
ATOM     26  C   UNL     1     -25.740 109.490  24.751  1.00  0.00     0.033 C 
ATOM     27  C   UNL     1     -26.912 108.729  24.145  1.00  0.00     0.120 C 
ATOM     28  C   UNL     1     -29.156 109.864  24.590  1.00  0.00     0.014 C 
ATOM     29  C   UNL     1     -28.609 109.006  22.316  1.00  0.00     0.014 C 
ENDROOT
BRANCH   1  30
ATOM     30  C   UNL     1     -23.723 114.081  17.219  1.00  0.00     0.048 C 
ATOM     31  O   UNL     1     -24.081 115.256  17.510  1.00  0.00    -0.550 OA
ATOM     32  O   UNL     1     -22.425 113.695  17.525  1.00  0.00    -0.550 OA
ENDBRANCH   1  30
BRANCH  27  33
ATOM     33  O   UNL     1     -27.448 107.862  25.123  1.00  0.00    -0.393 OA
ATOM     34  H   UNL     1     -28.282 108.275  25.471  1.00  0.00     0.210 HD
ENDBRANCH  27  33
TORSDOF 2
ENDMDL
MODEL 5
REMARK VINA RESULT:    -7.420      1.797      8.025
REMARK INTER + INTRA:          -7.827
REMARK INTER:                  -8.077
REMARK INTRA:                   0.250
REMARK UNBOUND:                 0.244
REMARK SMILES C[C@H]1[C@H](C)CC[C@@]2(C(=O)[O-])CC[C@@]3(C)C(=CC[C@H]4[C@]5(C)CC[C@@H](O)C(C)(C)[C@@H]5CC[C@@]43C)[C@H]12
REMARK SMILES IDX 7 1 6 2 11 3 33 4 5 5 12 6 15 7 2 8 3 9 13 10 16 11 1 12
REMARK SMILES IDX 4 13 14 14 31 15 17 16 18 17 30 18 32 19 19 20 29 21 28 22
REMARK SMILES IDX 21 23 20 24 25 25 22 26 23 27 26 28 27 29 8 30 9 31 10 32
REMARK SMILES IDX 24 33
REMARK H PARENT 24 34
REMARK Flexibility Score: inf
ROOT
ATOM      1  C   UNL     1     -21.738 116.023  22.309  1.00  0.00     0.017 C 
ATOM      2  C   UNL     1     -20.308 116.625  22.302  1.00  0.00     0.014 C 
ATOM      3  C   UNL     1     -22.070 115.416  20.895  1.00  0.00     0.014 C 
ATOM      4  C   UNL     1     -21.764 114.907  23.402  1.00  0.00     0.030 C 
ATOM      5  C   UNL     1     -19.931 117.204  23.672  1.00  0.00     0.004 C 
ATOM      6  C   UNL     1     -22.209 113.868  20.845  1.00  0.00     0.013 C 
ATOM      7  C   UNL     1     -23.044 114.086  23.232  1.00  0.00    -0.063 C 
ATOM      8  C   UNL     1     -21.371 115.408  24.830  1.00  0.00    -0.003 C 
ATOM      9  C   UNL     1     -19.987 116.136  24.780  1.00  0.00    -0.011 C 
ATOM     10  C   UNL     1     -23.117 113.212  21.969  1.00  0.00    -0.006 C 
ATOM     11  C   UNL     1     -24.081 114.198  24.094  1.00  0.00    -0.027 C 
ATOM     12  C   UNL     1     -21.293 114.221  25.820  1.00  0.00     0.008 C 
ATOM     13  C   UNL     1     -19.627 116.793  26.123  1.00  0.00     0.008 C 
ATOM     14  C   UNL     1     -22.409 111.867  22.356  1.00  0.00     0.017 C 
ATOM     15  C   UNL     1     -24.649 112.997  21.494  1.00  0.00    -0.020 C 
ATOM     16  C   UNL     1     -25.464 113.671  23.832  1.00  0.00     0.032 C 
ATOM     17  C   UNL     1     -25.517 112.570  22.744  1.00  0.00     0.006 C 
ATOM     18  C   UNL     1     -24.748 111.890  20.403  1.00  0.00     0.008 C 
ATOM     19  C   UNL     1     -25.174 114.329  20.877  1.00  0.00     0.012 C 
ATOM     20  C   UNL     1     -26.983 111.982  22.504  1.00  0.00    -0.025 C 
ATOM     21  C   UNL     1     -26.172 111.405  20.099  1.00  0.00     0.005 C 
ATOM     22  C   UNL     1     -26.970 110.904  21.339  1.00  0.00     0.003 C 
ATOM     23  C   UNL     1     -27.502 111.371  23.860  1.00  0.00     0.010 C 
ATOM     24  C   UNL     1     -28.042 113.073  22.123  1.00  0.00     0.012 C 
ATOM     25  C   UNL     1     -26.762 109.356  21.711  1.00  0.00    -0.006 C 
ATOM     26  C   UNL     1     -28.242 110.049  23.689  1.00  0.00     0.033 C 
ATOM     27  C   UNL     1     -27.250 109.016  23.170  1.00  0.00     0.120 C 
ATOM     28  C   UNL     1     -27.575 108.503  20.690  1.00  0.00     0.014 C 
ATOM     29  C   UNL     1     -25.291 108.891  21.606  1.00  0.00     0.014 C 
ENDROOT
BRANCH   1  30
ATOM     30  C   UNL     1     -22.743 117.148  22.576  1.00  0.00     0.048 C 
ATOM     31  O   UNL     1     -23.348 117.688  21.610  1.00  0.00    -0.550 OA
ATOM     32  O   UNL     1     -23.080 117.540  23.864  1.00  0.00    -0.550 OA
ENDBRANCH   1  30
BRANCH  27  33
ATOM     33  O   UNL     1     -27.840 107.736  23.248  1.00  0.00    -0.393 OA
ATOM     34  H   UNL     1     -27.194 107.129  23.699  1.00  0.00     0.210 HD
ENDBRANCH  27  33
TORSDOF 2
ENDMDL
MODEL 6
REMARK VINA RESULT:    -7.256      1.811      8.236
REMARK INTER + INTRA:          -7.648
REMARK INTER:                  -7.890
REMARK INTRA:                   0.242
REMARK UNBOUND:                 0.244
REMARK SMILES C[C@H]1[C@H](C)CC[C@@]2(C(=O)[O-])CC[C@@]3(C)C(=CC[C@H]4[C@]5(C)CC[C@@H](O)C(C)(C)[C@@H]5CC[C@@]43C)[C@H]12
REMARK SMILES IDX 7 1 6 2 11 3 33 4 5 5 12 6 15 7 2 8 3 9 13 10 16 11 1 12
REMARK SMILES IDX 4 13 14 14 31 15 17 16 18 17 30 18 32 19 19 20 29 21 28 22
REMARK SMILES IDX 21 23 20 24 25 25 22 26 23 27 26 28 27 29 8 30 9 31 10 32
REMARK SMILES IDX 24 33
REMARK H PARENT 24 34
REMARK Flexibility Score: inf
ROOT
ATOM      1  C   UNL     1     -22.363 117.160  22.201  1.00  0.00     0.017 C 
ATOM      2  C   UNL     1     -22.094 118.631  21.790  1.00  0.00     0.014 C 
ATOM      3  C   UNL     1     -23.646 117.085  23.111  1.00  0.00     0.014 C 
ATOM      4  C   UNL     1     -22.579 116.344  20.886  1.00  0.00     0.030 C 
ATOM      5  C   UNL     1     -20.866 118.747  20.878  1.00  0.00     0.004 C 
ATOM      6  C   UNL     1     -24.873 116.366  22.483  1.00  0.00     0.013 C 
ATOM      7  C   UNL     1     -23.148 114.971  21.251  1.00  0.00    -0.063 C 
ATOM      8  C   UNL     1     -21.379 116.424  19.886  1.00  0.00    -0.003 C 
ATOM      9  C   UNL     1     -21.030 117.920  19.589  1.00  0.00    -0.011 C 
ATOM     10  C   UNL     1     -24.586 114.965  21.796  1.00  0.00    -0.006 C 
ATOM     11  C   UNL     1     -22.397 113.848  21.182  1.00  0.00    -0.027 C 
ATOM     12  C   UNL     1     -21.726 115.703  18.562  1.00  0.00     0.008 C 
ATOM     13  C   UNL     1     -19.755 118.061  18.741  1.00  0.00     0.008 C 
ATOM     14  C   UNL     1     -25.508 114.915  20.529  1.00  0.00     0.017 C 
ATOM     15  C   UNL     1     -24.828 113.714  22.793  1.00  0.00    -0.020 C 
ATOM     16  C   UNL     1     -22.775 112.533  21.803  1.00  0.00     0.032 C 
ATOM     17  C   UNL     1     -24.289 112.397  22.103  1.00  0.00     0.006 C 
ATOM     18  C   UNL     1     -26.341 113.537  23.115  1.00  0.00     0.008 C 
ATOM     19  C   UNL     1     -24.079 113.989  24.133  1.00  0.00     0.012 C 
ATOM     20  C   UNL     1     -24.691 110.980  22.719  1.00  0.00    -0.025 C 
ATOM     21  C   UNL     1     -26.707 112.217  23.807  1.00  0.00     0.005 C 
ATOM     22  C   UNL     1     -26.243 110.936  23.055  1.00  0.00     0.003 C 
ATOM     23  C   UNL     1     -24.282 109.857  21.693  1.00  0.00     0.010 C 
ATOM     24  C   UNL     1     -23.917 110.625  24.035  1.00  0.00     0.012 C 
ATOM     25  C   UNL     1     -27.264 110.380  21.947  1.00  0.00    -0.006 C 
ATOM     26  C   UNL     1     -25.322 108.749  21.555  1.00  0.00     0.033 C 
ATOM     27  C   UNL     1     -26.584 109.358  20.958  1.00  0.00     0.120 C 
ATOM     28  C   UNL     1     -28.437 109.668  22.688  1.00  0.00     0.014 C 
ATOM     29  C   UNL     1     -27.897 111.494  21.081  1.00  0.00     0.014 C 
ENDROOT
BRANCH   1  30
ATOM     30  C   UNL     1     -21.179 116.657  23.033  1.00  0.00     0.048 C 
ATOM     31  O   UNL     1     -21.211 116.753  24.290  1.00  0.00    -0.550 OA
ATOM     32  O   UNL     1     -20.096 116.014  22.451  1.00  0.00    -0.550 OA
ENDBRANCH   1  30
BRANCH  27  33
ATOM     33  O   UNL     1     -27.461 108.316  20.585  1.00  0.00    -0.393 OA
ATOM     34  H   UNL     1     -26.912 107.572  20.220  1.00  0.00     0.210 HD
ENDBRANCH  27  33
TORSDOF 2
ENDMDL
MODEL 7
REMARK VINA RESULT:    -7.235      7.595     11.068
REMARK INTER + INTRA:          -7.626
REMARK INTER:                  -7.872
REMARK INTRA:                   0.247
REMARK UNBOUND:                 0.244
REMARK SMILES C[C@H]1[C@H](C)CC[C@@]2(C(=O)[O-])CC[C@@]3(C)C(=CC[C@H]4[C@]5(C)CC[C@@H](O)C(C)(C)[C@@H]5CC[C@@]43C)[C@H]12
REMARK SMILES IDX 7 1 6 2 11 3 33 4 5 5 12 6 15 7 2 8 3 9 13 10 16 11 1 12
REMARK SMILES IDX 4 13 14 14 31 15 17 16 18 17 30 18 32 19 19 20 29 21 28 22
REMARK SMILES IDX 21 23 20 24 25 25 22 26 23 27 26 28 27 29 8 30 9 31 10 32
REMARK SMILES IDX 24 33
REMARK H PARENT 24 34
REMARK Flexibility Score: inf
ROOT
ATOM      1  C   UNL     1     -24.957 114.600  17.277  1.00  0.00     0.017 C 
ATOM      2  C   UNL     1     -25.027 114.657  18.825  1.00  0.00     0.014 C 
ATOM      3  C   UNL     1     -25.342 113.158  16.776  1.00  0.00     0.014 C 
ATOM      4  C   UNL     1     -25.971 115.656  16.730  1.00  0.00     0.030 C 
ATOM      5  C   UNL     1     -24.685 116.055  19.356  1.00  0.00     0.004 C 
ATOM      6  C   UNL     1     -26.680 113.055  15.990  1.00  0.00     0.013 C 
ATOM      7  C   UNL     1     -26.161 115.420  15.230  1.00  0.00    -0.063 C 
ATOM      8  C   UNL     1     -25.708 117.111  17.239  1.00  0.00    -0.003 C 
ATOM      9  C   UNL     1     -25.643 117.126  18.803  1.00  0.00    -0.011 C 
ATOM     10  C   UNL     1     -26.900 114.129  14.843  1.00  0.00    -0.006 C 
ATOM     11  C   UNL     1     -25.628 116.252  14.305  1.00  0.00    -0.027 C 
ATOM     12  C   UNL     1     -26.828 118.065  16.761  1.00  0.00     0.008 C 
ATOM     13  C   UNL     1     -25.224 118.500  19.352  1.00  0.00     0.008 C 
ATOM     14  C   UNL     1     -28.424 114.495  14.890  1.00  0.00     0.017 C 
ATOM     15  C   UNL     1     -26.431 113.599  13.387  1.00  0.00    -0.020 C 
ATOM     16  C   UNL     1     -25.507 115.931  12.842  1.00  0.00     0.032 C 
ATOM     17  C   UNL     1     -26.462 114.808  12.369  1.00  0.00     0.006 C 
ATOM     18  C   UNL     1     -27.372 112.472  12.870  1.00  0.00     0.008 C 
ATOM     19  C   UNL     1     -24.993 113.009  13.509  1.00  0.00     0.012 C 
ATOM     20  C   UNL     1     -26.362 114.504  10.804  1.00  0.00    -0.025 C 
ATOM     21  C   UNL     1     -27.195 112.108  11.389  1.00  0.00     0.005 C 
ATOM     22  C   UNL     1     -27.324 113.306  10.403  1.00  0.00     0.003 C 
ATOM     23  C   UNL     1     -26.711 115.823  10.017  1.00  0.00     0.010 C 
ATOM     24  C   UNL     1     -24.916 114.124  10.330  1.00  0.00     0.012 C 
ATOM     25  C   UNL     1     -28.817 113.636   9.913  1.00  0.00    -0.006 C 
ATOM     26  C   UNL     1     -27.586 115.588   8.790  1.00  0.00     0.033 C 
ATOM     27  C   UNL     1     -28.936 115.068   9.266  1.00  0.00     0.120 C 
ATOM     28  C   UNL     1     -29.224 112.564   8.857  1.00  0.00     0.014 C 
ATOM     29  C   UNL     1     -29.866 113.563  11.047  1.00  0.00     0.014 C 
ENDROOT
BRANCH   1  30
ATOM     30  C   UNL     1     -23.515 114.870  16.839  1.00  0.00     0.048 C 
ATOM     31  O   UNL     1     -22.737 113.902  16.614  1.00  0.00    -0.550 OA
ATOM     32  O   UNL     1     -23.051 116.155  16.595  1.00  0.00    -0.550 OA
ENDBRANCH   1  30
BRANCH  27  33
ATOM     33  O   UNL     1     -29.841 115.087   8.182  1.00  0.00    -0.393 OA
ATOM     34  H   UNL     1     -30.500 114.357   8.322  1.00  0.00     0.210 HD
ENDBRANCH  27  33
TORSDOF 2
ENDMDL
MODEL 8
REMARK VINA RESULT:    -7.235      9.740     11.670
REMARK INTER + INTRA:          -7.625
REMARK INTER:                  -7.873
REMARK INTRA:                   0.247
REMARK UNBOUND:                 0.244
REMARK SMILES C[C@H]1[C@H](C)CC[C@@]2(C(=O)[O-])CC[C@@]3(C)C(=CC[C@H]4[C@]5(C)CC[C@@H](O)C(C)(C)[C@@H]5CC[C@@]43C)[C@H]12
REMARK SMILES IDX 7 1 6 2 11 3 33 4 5 5 12 6 15 7 2 8 3 9 13 10 16 11 1 12
REMARK SMILES IDX 4 13 14 14 31 15 17 16 18 17 30 18 32 19 19 20 29 21 28 22
REMARK SMILES IDX 21 23 20 24 25 25 22 26 23 27 26 28 27 29 8 30 9 31 10 32
REMARK SMILES IDX 24 33
REMARK H PARENT 24 34
REMARK Flexibility Score: inf
ROOT
ATOM      1  C   UNL     1     -28.125 114.618  11.060  1.00  0.00     0.017 C 
ATOM      2  C   UNL     1     -29.523 115.127  11.498  1.00  0.00     0.014 C 
ATOM      3  C   UNL     1     -27.535 115.565   9.948  1.00  0.00     0.014 C 
ATOM      4  C   UNL     1     -27.211 114.629  12.327  1.00  0.00     0.030 C 
ATOM      5  C   UNL     1     -30.125 114.248  12.602  1.00  0.00     0.004 C 
ATOM      6  C   UNL     1     -26.292 116.398  10.368  1.00  0.00     0.013 C 
ATOM      7  C   UNL     1     -25.759 114.435  11.884  1.00  0.00    -0.063 C 
ATOM      8  C   UNL     1     -27.761 113.771  13.513  1.00  0.00    -0.003 C 
ATOM      9  C   UNL     1     -29.226 114.206  13.852  1.00  0.00    -0.011 C 
ATOM     10  C   UNL     1     -25.134 115.603  11.106  1.00  0.00    -0.006 C 
ATOM     11  C   UNL     1     -25.103 113.268  12.088  1.00  0.00    -0.027 C 
ATOM     12  C   UNL     1     -26.871 113.943  14.767  1.00  0.00     0.008 C 
ATOM     13  C   UNL     1     -29.876 113.287  14.901  1.00  0.00     0.008 C 
ATOM     14  C   UNL     1     -24.578 116.579  12.200  1.00  0.00     0.017 C 
ATOM     15  C   UNL     1     -23.984 115.083  10.093  1.00  0.00    -0.020 C 
ATOM     16  C   UNL     1     -23.808 112.895  11.424  1.00  0.00     0.032 C 
ATOM     17  C   UNL     1     -23.016 114.108  10.875  1.00  0.00     0.006 C 
ATOM     18  C   UNL     1     -23.157 116.273   9.523  1.00  0.00     0.008 C 
ATOM     19  C   UNL     1     -24.664 114.352   8.895  1.00  0.00     0.012 C 
ATOM     20  C   UNL     1     -21.619 113.708  10.212  1.00  0.00    -0.025 C 
ATOM     21  C   UNL     1     -21.868 115.875   8.791  1.00  0.00     0.005 C 
ATOM     22  C   UNL     1     -20.892 114.991   9.622  1.00  0.00     0.003 C 
ATOM     23  C   UNL     1     -20.739 112.988  11.302  1.00  0.00     0.010 C 
ATOM     24  C   UNL     1     -21.751 112.667   9.048  1.00  0.00     0.012 C 
ATOM     25  C   UNL     1     -19.854 115.794  10.547  1.00  0.00    -0.006 C 
ATOM     26  C   UNL     1     -19.271 113.403  11.274  1.00  0.00     0.033 C 
ATOM     27  C   UNL     1     -19.191 114.878  11.645  1.00  0.00     0.120 C 
ATOM     28  C   UNL     1     -18.738 116.375   9.626  1.00  0.00     0.014 C 
ATOM     29  C   UNL     1     -20.491 116.995  11.285  1.00  0.00     0.014 C 
ENDROOT
BRANCH   1  30
ATOM     30  C   UNL     1     -28.280 113.225  10.443  1.00  0.00     0.048 C 
ATOM     31  O   UNL     1     -28.360 113.100   9.191  1.00  0.00    -0.550 OA
ATOM     32  O   UNL     1     -28.249 112.073  11.218  1.00  0.00    -0.550 OA
ENDBRANCH   1  30
BRANCH  27  33
ATOM     33  O   UNL     1     -17.840 115.218  11.875  1.00  0.00    -0.393 OA
ATOM     34  H   UNL     1     -17.275 114.596  11.345  1.00  0.00     0.210 HD
ENDBRANCH  27  33
TORSDOF 2
ENDMDL
MODEL 9
REMARK VINA RESULT:    -7.195      2.115      4.236
REMARK INTER + INTRA:          -7.582
REMARK INTER:                  -7.828
REMARK INTRA:                   0.246
REMARK UNBOUND:                 0.244
REMARK SMILES C[C@H]1[C@H](C)CC[C@@]2(C(=O)[O-])CC[C@@]3(C)C(=CC[C@H]4[C@]5(C)CC[C@@H](O)C(C)(C)[C@@H]5CC[C@@]43C)[C@H]12
REMARK SMILES IDX 7 1 6 2 11 3 33 4 5 5 12 6 15 7 2 8 3 9 13 10 16 11 1 12
REMARK SMILES IDX 4 13 14 14 31 15 17 16 18 17 30 18 32 19 19 20 29 21 28 22
REMARK SMILES IDX 21 23 20 24 25 25 22 26 23 27 26 28 27 29 8 30 9 31 10 32
REMARK SMILES IDX 24 33
REMARK H PARENT 24 34
REMARK Flexibility Score: inf
ROOT
ATOM      1  C   UNL     1     -26.113 110.327  21.927  1.00  0.00     0.017 C 
ATOM      2  C   UNL     1     -26.488 108.899  21.451  1.00  0.00     0.014 C 
ATOM      3  C   UNL     1     -24.951 110.250  22.986  1.00  0.00     0.014 C 
ATOM      4  C   UNL     1     -25.651 111.128  20.667  1.00  0.00     0.030 C 
ATOM      5  C   UNL     1     -27.600 108.929  20.394  1.00  0.00     0.004 C 
ATOM      6  C   UNL     1     -23.585 110.836  22.528  1.00  0.00     0.013 C 
ATOM      7  C   UNL     1     -24.985 112.426  21.131  1.00  0.00    -0.063 C 
ATOM      8  C   UNL     1     -26.720 111.192  19.529  1.00  0.00    -0.003 C 
ATOM      9  C   UNL     1     -27.190 109.746  19.155  1.00  0.00    -0.011 C 
ATOM     10  C   UNL     1     -23.633 112.267  21.845  1.00  0.00    -0.006 C 
ATOM     11  C   UNL     1     -25.596 113.626  20.999  1.00  0.00    -0.027 C 
ATOM     12  C   UNL     1     -26.137 111.884  18.273  1.00  0.00     0.008 C 
ATOM     13  C   UNL     1     -28.360 109.756  18.156  1.00  0.00     0.008 C 
ATOM     14  C   UNL     1     -22.562 112.228  20.701  1.00  0.00     0.017 C 
ATOM     15  C   UNL     1     -23.381 113.473  22.895  1.00  0.00    -0.020 C 
ATOM     16  C   UNL     1     -25.156 114.884  21.693  1.00  0.00     0.032 C 
ATOM     17  C   UNL     1     -23.685 114.849  22.177  1.00  0.00     0.006 C 
ATOM     18  C   UNL     1     -21.908 113.478  23.401  1.00  0.00     0.008 C 
ATOM     19  C   UNL     1     -24.314 113.269  24.127  1.00  0.00     0.012 C 
ATOM     20  C   UNL     1     -23.210 116.206  22.871  1.00  0.00    -0.025 C 
ATOM     21  C   UNL     1     -21.489 114.743  24.163  1.00  0.00     0.005 C 
ATOM     22  C   UNL     1     -21.716 116.075  23.392  1.00  0.00     0.003 C 
ATOM     23  C   UNL     1     -23.366 117.378  21.830  1.00  0.00     0.010 C 
ATOM     24  C   UNL     1     -24.098 116.631  24.091  1.00  0.00     0.012 C 
ATOM     25  C   UNL     1     -20.512 116.527  22.429  1.00  0.00    -0.006 C 
ATOM     26  C   UNL     1     -22.204 118.366  21.845  1.00  0.00     0.033 C 
ATOM     27  C   UNL     1     -20.952 117.628  21.391  1.00  0.00     0.120 C 
ATOM     28  C   UNL     1     -19.370 117.097  23.324  1.00  0.00     0.014 C 
ATOM     29  C   UNL     1     -19.902 115.359  21.620  1.00  0.00     0.014 C 
ENDROOT
BRANCH   1  30
ATOM     30  C   UNL     1     -27.328 110.949  22.621  1.00  0.00     0.048 C 
ATOM     31  O   UNL     1     -27.466 110.829  23.869  1.00  0.00    -0.550 OA
ATOM     32  O   UNL     1     -28.252 111.722  21.930  1.00  0.00    -0.550 OA
ENDBRANCH   1  30
BRANCH  27  33
ATOM     33  O   UNL     1     -19.928 118.570  21.151  1.00  0.00    -0.393 OA
ATOM     34  H   UNL     1     -20.274 119.467  21.404  1.00  0.00     0.210 HD
ENDBRANCH  27  33
TORSDOF 2
ENDMDL
