MODEL 1
REMARK VINA RESULT:    -4.544      0.000      0.000
REMARK INTER + INTRA:          -7.498
REMARK INTER:                  -7.200
REMARK INTRA:                  -0.298
REMARK UNBOUND:                -0.298
REMARK SMILES CCCCCCCCCCCC(=O)[O-]
REMARK SMILES IDX 7 1 8 2 9 3 10 4 11 5 12 6 13 7 14 8 6 9 5 10 4 11 3 12 2 13
REMARK SMILES IDX 1 14
REMARK H PARENT
REMARK Flexibility Score: inf
ROOT
ATOM      1  C   UNL     1      18.780  26.980  -0.427  1.00  0.00     0.000 C 
ENDROOT
BRANCH   1   2
ATOM      2  C   UNL     1      18.509  26.892   1.082  1.00  0.00     0.000 C 
BRANCH   2   3
ATOM      3  C   UNL     1      18.995  25.568   1.694  1.00  0.00     0.000 C 
BRANCH   3   4
ATOM      4  C   UNL     1      19.251  25.674   3.207  1.00  0.00     0.006 C 
BRANCH   4   5
ATOM      5  C   UNL     1      19.775  24.360   3.799  1.00  0.00     0.053 C 
BRANCH   5   6
ATOM      6  C   UNL     1      21.135  24.016   3.273  1.00  0.00     0.041 C 
ATOM      7  O   UNL     1      22.161  24.252   3.964  1.00  0.00    -0.550 OA
ATOM      8  O   UNL     1      21.271  23.468   2.003  1.00  0.00    -0.550 OA
ENDBRANCH   5   6
ENDBRANCH   4   5
ENDBRANCH   3   4
ENDBRANCH   2   3
ENDBRANCH   1   2
BRANCH   1   9
ATOM      9  C   UNL     1      19.247  25.628  -0.980  1.00  0.00     0.000 C 
BRANCH   9  10
ATOM     10  C   UNL     1      18.065  24.818  -1.526  1.00  0.00    -0.000 C 
BRANCH  10  11
ATOM     11  C   UNL     1      16.838  25.711  -1.745  1.00  0.00    -0.000 C 
BRANCH  11  12
ATOM     12  C   UNL     1      15.569  25.050  -1.186  1.00  0.00    -0.000 C 
BRANCH  12  13
ATOM     13  C   UNL     1      14.475  24.879  -2.251  1.00  0.00    -0.003 C 
ATOM     14  C   UNL     1      14.855  25.502  -3.595  1.00  0.00     0.004 C 
ENDBRANCH  12  13
ENDBRANCH  11  12
ENDBRANCH  10  11
ENDBRANCH   9  10
ENDBRANCH   1   9
TORSDOF 10
ENDMDL
MODEL 2
REMARK VINA RESULT:    -4.283      3.398      6.639
REMARK INTER + INTRA:          -7.085
REMARK INTER:                  -6.823
REMARK INTRA:                  -0.262
REMARK UNBOUND:                -0.298
REMARK SMILES CCCCCCCCCCCC(=O)[O-]
REMARK SMILES IDX 7 1 8 2 9 3 10 4 11 5 12 6 13 7 14 8 6 9 5 10 4 11 3 12 2 13
REMARK SMILES IDX 1 14
REMARK H PARENT
REMARK Flexibility Score: inf
ROOT
ATOM      1  C   UNL     1      18.880  26.911   0.804  1.00  0.00     0.000 C 
ENDROOT
BRANCH   1   2
ATOM      2  C   UNL     1      18.875  26.462  -0.664  1.00  0.00     0.000 C 
BRANCH   2   3
ATOM      3  C   UNL     1      18.664  24.947  -0.819  1.00  0.00     0.000 C 
BRANCH   3   4
ATOM      4  C   UNL     1      17.190  24.577  -1.061  1.00  0.00     0.006 C 
BRANCH   4   5
ATOM      5  C   UNL     1      16.438  25.669  -1.832  1.00  0.00     0.053 C 
BRANCH   5   6
ATOM      6  C   UNL     1      15.138  25.167  -2.383  1.00  0.00     0.041 C 
ATOM      7  O   UNL     1      14.379  24.460  -1.670  1.00  0.00    -0.550 OA
ATOM      8  O   UNL     1      14.784  25.449  -3.696  1.00  0.00    -0.550 OA
ENDBRANCH   5   6
ENDBRANCH   4   5
ENDBRANCH   3   4
ENDBRANCH   2   3
ENDBRANCH   1   2
BRANCH   1   9
ATOM      9  C   UNL     1      18.865  25.702   1.747  1.00  0.00     0.000 C 
BRANCH   9  10
ATOM     10  C   UNL     1      19.218  26.117   3.181  1.00  0.00    -0.000 C 
BRANCH  10  11
ATOM     11  C   UNL     1      19.209  24.907   4.123  1.00  0.00    -0.000 C 
BRANCH  11  12
ATOM     12  C   UNL     1      19.723  23.649   3.406  1.00  0.00    -0.000 C 
BRANCH  12  13
ATOM     13  C   UNL     1      21.140  23.830   2.840  1.00  0.00    -0.003 C 
ATOM     14  C   UNL     1      22.173  24.149   3.920  1.00  0.00     0.004 C 
ENDBRANCH  12  13
ENDBRANCH  11  12
ENDBRANCH  10  11
ENDBRANCH   9  10
ENDBRANCH   1   9
TORSDOF 10
ENDMDL
MODEL 3
REMARK VINA RESULT:    -4.198      3.412      6.457
REMARK INTER + INTRA:          -6.950
REMARK INTER:                  -6.379
REMARK INTRA:                  -0.571
REMARK UNBOUND:                -0.298
REMARK SMILES CCCCCCCCCCCC(=O)[O-]
REMARK SMILES IDX 7 1 8 2 9 3 10 4 11 5 12 6 13 7 14 8 6 9 5 10 4 11 3 12 2 13
REMARK SMILES IDX 1 14
REMARK H PARENT
REMARK Flexibility Score: inf
ROOT
ATOM      1  C   UNL     1      18.877  26.094   1.665  1.00  0.00     0.000 C 
ENDROOT
BRANCH   1   2
ATOM      2  C   UNL     1      18.552  26.641   0.268  1.00  0.00     0.000 C 
BRANCH   2   3
ATOM      3  C   UNL     1      18.968  25.678  -0.856  1.00  0.00     0.000 C 
BRANCH   3   4
ATOM      4  C   UNL     1      17.762  25.004  -1.535  1.00  0.00     0.006 C 
BRANCH   4   5
ATOM      5  C   UNL     1      16.450  25.747  -1.254  1.00  0.00     0.053 C 
BRANCH   5   6
ATOM      6  C   UNL     1      15.319  25.208  -2.075  1.00  0.00     0.041 C 
ATOM      7  O   UNL     1      15.233  25.493  -3.299  1.00  0.00    -0.550 OA
ATOM      8  O   UNL     1      14.340  24.422  -1.481  1.00  0.00    -0.550 OA
ENDBRANCH   5   6
ENDBRANCH   4   5
ENDBRANCH   3   4
ENDBRANCH   2   3
ENDBRANCH   1   2
BRANCH   1   9
ATOM      9  C   UNL     1      19.613  24.752   1.572  1.00  0.00     0.000 C 
BRANCH   9  10
ATOM     10  C   UNL     1      20.347  24.434   2.880  1.00  0.00    -0.000 C 
BRANCH  10  11
ATOM     11  C   UNL     1      19.421  24.613   4.090  1.00  0.00    -0.000 C 
BRANCH  11  12
ATOM     12  C   UNL     1      18.481  23.409   4.246  1.00  0.00    -0.000 C 
BRANCH  12  13
ATOM     13  C   UNL     1      17.591  23.512   5.494  1.00  0.00    -0.003 C 
ATOM     14  C   UNL     1      16.446  22.499   5.489  1.00  0.00     0.004 C 
ENDBRANCH  12  13
ENDBRANCH  11  12
ENDBRANCH  10  11
ENDBRANCH   9  10
ENDBRANCH   1   9
TORSDOF 10
ENDMDL
MODEL 4
REMARK VINA RESULT:    -4.177      3.433      6.486
REMARK INTER + INTRA:          -6.917
REMARK INTER:                  -6.293
REMARK INTRA:                  -0.624
REMARK UNBOUND:                -0.298
REMARK SMILES CCCCCCCCCCCC(=O)[O-]
REMARK SMILES IDX 7 1 8 2 9 3 10 4 11 5 12 6 13 7 14 8 6 9 5 10 4 11 3 12 2 13
REMARK SMILES IDX 1 14
REMARK H PARENT
REMARK Flexibility Score: inf
ROOT
ATOM      1  C   UNL     1      19.362  24.218  -0.064  1.00  0.00     0.000 C 
ENDROOT
BRANCH   1   2
ATOM      2  C   UNL     1      19.146  25.453  -0.951  1.00  0.00     0.000 C 
BRANCH   2   3
ATOM      3  C   UNL     1      18.206  26.486  -0.309  1.00  0.00     0.000 C 
BRANCH   3   4
ATOM      4  C   UNL     1      16.751  26.341  -0.788  1.00  0.00     0.006 C 
BRANCH   4   5
ATOM      5  C   UNL     1      16.635  25.437  -2.021  1.00  0.00     0.053 C 
BRANCH   5   6
ATOM      6  C   UNL     1      15.206  25.200  -2.405  1.00  0.00     0.041 C 
ATOM      7  O   UNL     1      14.402  24.701  -1.575  1.00  0.00    -0.550 OA
ATOM      8  O   UNL     1      14.773  25.497  -3.691  1.00  0.00    -0.550 OA
ENDBRANCH   5   6
ENDBRANCH   4   5
ENDBRANCH   3   4
ENDBRANCH   2   3
ENDBRANCH   1   2
BRANCH   1   9
ATOM      9  C   UNL     1      19.353  24.601   1.420  1.00  0.00     0.000 C 
BRANCH   9  10
ATOM     10  C   UNL     1      20.519  23.941   2.167  1.00  0.00    -0.000 C 
BRANCH  10  11
ATOM     11  C   UNL     1      20.616  24.460   3.607  1.00  0.00    -0.000 C 
BRANCH  11  12
ATOM     12  C   UNL     1      19.278  25.057   4.067  1.00  0.00    -0.000 C 
BRANCH  12  13
ATOM     13  C   UNL     1      18.532  24.144   5.054  1.00  0.00    -0.003 C 
ATOM     14  C   UNL     1      17.872  22.948   4.368  1.00  0.00     0.004 C 
ENDBRANCH  12  13
ENDBRANCH  11  12
ENDBRANCH  10  11
ENDBRANCH   9  10
ENDBRANCH   1   9
TORSDOF 10
ENDMDL
MODEL 5
REMARK VINA RESULT:    -4.102      1.584      2.124
REMARK INTER + INTRA:          -6.799
REMARK INTER:                  -6.369
REMARK INTRA:                  -0.430
REMARK UNBOUND:                -0.298
REMARK SMILES CCCCCCCCCCCC(=O)[O-]
REMARK SMILES IDX 7 1 8 2 9 3 10 4 11 5 12 6 13 7 14 8 6 9 5 10 4 11 3 12 2 13
REMARK SMILES IDX 1 14
REMARK H PARENT
REMARK Flexibility Score: inf
ROOT
ATOM      1  C   UNL     1      19.248  25.125  -1.073  1.00  0.00     0.000 C 
ENDROOT
BRANCH   1   2
ATOM      2  C   UNL     1      19.253  23.845  -0.225  1.00  0.00     0.000 C 
BRANCH   2   3
ATOM      3  C   UNL     1      19.334  24.134   1.282  1.00  0.00     0.000 C 
BRANCH   3   4
ATOM      4  C   UNL     1      20.678  23.704   1.896  1.00  0.00     0.006 C 
BRANCH   4   5
ATOM      5  C   UNL     1      20.849  24.216   3.332  1.00  0.00     0.053 C 
BRANCH   5   6
ATOM      6  C   UNL     1      19.543  24.648   3.927  1.00  0.00     0.041 C 
ATOM      7  O   UNL     1      18.828  23.822   4.552  1.00  0.00    -0.550 OA
ATOM      8  O   UNL     1      19.101  25.954   3.760  1.00  0.00    -0.550 OA
ENDBRANCH   5   6
ENDBRANCH   4   5
ENDBRANCH   3   4
ENDBRANCH   2   3
ENDBRANCH   1   2
BRANCH   1   9
ATOM      9  C   UNL     1      18.951  26.355  -0.208  1.00  0.00     0.000 C 
BRANCH   9  10
ATOM     10  C   UNL     1      17.534  26.880  -0.464  1.00  0.00    -0.000 C 
BRANCH  10  11
ATOM     11  C   UNL     1      16.842  26.082  -1.576  1.00  0.00    -0.000 C 
BRANCH  11  12
ATOM     12  C   UNL     1      15.658  25.278  -1.020  1.00  0.00    -0.000 C 
BRANCH  12  13
ATOM     13  C   UNL     1      14.661  24.862  -2.114  1.00  0.00    -0.003 C 
ATOM     14  C   UNL     1      14.983  25.482  -3.473  1.00  0.00     0.004 C 
ENDBRANCH  12  13
ENDBRANCH  11  12
ENDBRANCH  10  11
ENDBRANCH   9  10
ENDBRANCH   1   9
TORSDOF 10
ENDMDL
MODEL 6
REMARK VINA RESULT:    -4.029     15.700     17.816
REMARK INTER + INTRA:          -6.683
REMARK INTER:                  -5.194
REMARK INTRA:                  -1.489
REMARK UNBOUND:                -0.298
REMARK SMILES CCCCCCCCCCCC(=O)[O-]
REMARK SMILES IDX 7 1 8 2 9 3 10 4 11 5 12 6 13 7 14 8 6 9 5 10 4 11 3 12 2 13
REMARK SMILES IDX 1 14
REMARK H PARENT
REMARK Flexibility Score: inf
ROOT
ATOM      1  C   UNL     1      24.278  36.538  14.468  1.00  0.00     0.000 C 
ENDROOT
BRANCH   1   2
ATOM      2  C   UNL     1      25.084  36.204  15.732  1.00  0.00     0.000 C 
BRANCH   2   3
ATOM      3  C   UNL     1      26.524  35.768  15.416  1.00  0.00     0.000 C 
BRANCH   3   4
ATOM      4  C   UNL     1      26.807  35.710  13.904  1.00  0.00     0.006 C 
BRANCH   4   5
ATOM      5  C   UNL     1      27.124  34.287  13.428  1.00  0.00     0.053 C 
BRANCH   5   6
ATOM      6  C   UNL     1      26.801  34.101  11.977  1.00  0.00     0.041 C 
ATOM      7  O   UNL     1      26.814  35.087  11.194  1.00  0.00    -0.550 OA
ATOM      8  O   UNL     1      26.450  32.846  11.498  1.00  0.00    -0.550 OA
ENDBRANCH   5   6
ENDBRANCH   4   5
ENDBRANCH   3   4
ENDBRANCH   2   3
ENDBRANCH   1   2
BRANCH   1   9
ATOM      9  C   UNL     1      22.772  36.425  14.733  1.00  0.00     0.000 C 
BRANCH   9  10
ATOM     10  C   UNL     1      22.148  35.302  13.897  1.00  0.00    -0.000 C 
BRANCH  10  11
ATOM     11  C   UNL     1      23.171  34.705  12.923  1.00  0.00    -0.000 C 
BRANCH  11  12
ATOM     12  C   UNL     1      23.028  33.178  12.844  1.00  0.00    -0.000 C 
BRANCH  12  13
ATOM     13  C   UNL     1      23.036  32.511  14.228  1.00  0.00    -0.003 C 
ATOM     14  C   UNL     1      24.385  32.635  14.936  1.00  0.00     0.004 C 
ENDBRANCH  12  13
ENDBRANCH  11  12
ENDBRANCH  10  11
ENDBRANCH   9  10
ENDBRANCH   1   9
TORSDOF 10
ENDMDL
MODEL 7
REMARK VINA RESULT:    -3.856     15.576     17.359
REMARK INTER + INTRA:          -6.409
REMARK INTER:                  -5.108
REMARK INTRA:                  -1.301
REMARK UNBOUND:                -0.298
REMARK SMILES CCCCCCCCCCCC(=O)[O-]
REMARK SMILES IDX 7 1 8 2 9 3 10 4 11 5 12 6 13 7 14 8 6 9 5 10 4 11 3 12 2 13
REMARK SMILES IDX 1 14
REMARK H PARENT
REMARK Flexibility Score: inf
ROOT
ATOM      1  C   UNL     1      24.351  32.615  12.307  1.00  0.00     0.000 C 
ENDROOT
BRANCH   1   2
ATOM      2  C   UNL     1      24.305  32.857  13.822  1.00  0.00     0.000 C 
BRANCH   2   3
ATOM      3  C   UNL     1      22.872  32.856  14.378  1.00  0.00     0.000 C 
BRANCH   3   4
ATOM      4  C   UNL     1      22.474  34.211  14.989  1.00  0.00     0.006 C 
BRANCH   4   5
ATOM      5  C   UNL     1      22.075  35.234  13.919  1.00  0.00     0.053 C 
BRANCH   5   6
ATOM      6  C   UNL     1      21.055  34.679  12.971  1.00  0.00     0.041 C 
ATOM      7  O   UNL     1      19.924  34.325  13.396  1.00  0.00    -0.550 OA
ATOM      8  O   UNL     1      21.368  34.520  11.627  1.00  0.00    -0.550 OA
ENDBRANCH   5   6
ENDBRANCH   4   5
ENDBRANCH   3   4
ENDBRANCH   2   3
ENDBRANCH   1   2
BRANCH   1   9
ATOM      9  C   UNL     1      25.785  32.726  11.776  1.00  0.00     0.000 C 
BRANCH   9  10
ATOM     10  C   UNL     1      26.575  33.793  12.543  1.00  0.00    -0.000 C 
BRANCH  10  11
ATOM     11  C   UNL     1      26.699  35.084  11.724  1.00  0.00    -0.000 C 
BRANCH  11  12
ATOM     12  C   UNL     1      25.810  36.192  12.307  1.00  0.00    -0.000 C 
BRANCH  12  13
ATOM     13  C   UNL     1      25.720  36.132  13.840  1.00  0.00    -0.003 C 
ATOM     14  C   UNL     1      25.066  37.376  14.443  1.00  0.00     0.004 C 
ENDBRANCH  12  13
ENDBRANCH  11  12
ENDBRANCH  10  11
ENDBRANCH   9  10
ENDBRANCH   1   9
TORSDOF 10
ENDMDL
MODEL 8
REMARK VINA RESULT:    -3.811     16.483     18.128
REMARK INTER + INTRA:          -6.337
REMARK INTER:                  -4.941
REMARK INTRA:                  -1.396
REMARK UNBOUND:                -0.298
REMARK SMILES CCCCCCCCCCCC(=O)[O-]
REMARK SMILES IDX 7 1 8 2 9 3 10 4 11 5 12 6 13 7 14 8 6 9 5 10 4 11 3 12 2 13
REMARK SMILES IDX 1 14
REMARK H PARENT
REMARK Flexibility Score: inf
ROOT
ATOM      1  C   UNL     1      26.720  33.665  13.211  1.00  0.00     0.000 C 
ENDROOT
BRANCH   1   2
ATOM      2  C   UNL     1      26.794  33.947  14.718  1.00  0.00     0.000 C 
BRANCH   2   3
ATOM      3  C   UNL     1      25.648  33.286  15.501  1.00  0.00     0.000 C 
BRANCH   3   4
ATOM      4  C   UNL     1      24.532  32.757  14.582  1.00  0.00     0.006 C 
BRANCH   4   5
ATOM      5  C   UNL     1      23.135  33.092  15.118  1.00  0.00     0.053 C 
BRANCH   5   6
ATOM      6  C   UNL     1      22.178  33.416  14.010  1.00  0.00     0.041 C 
ATOM      7  O   UNL     1      20.942  33.481  14.241  1.00  0.00    -0.550 OA
ATOM      8  O   UNL     1      22.649  33.609  12.718  1.00  0.00    -0.550 OA
ENDBRANCH   5   6
ENDBRANCH   4   5
ENDBRANCH   3   4
ENDBRANCH   2   3
ENDBRANCH   1   2
BRANCH   1   9
ATOM      9  C   UNL     1      27.125  34.902  12.401  1.00  0.00     0.000 C 
BRANCH   9  10
ATOM     10  C   UNL     1      25.945  35.869  12.242  1.00  0.00    -0.000 C 
BRANCH  10  11
ATOM     11  C   UNL     1      26.249  37.222  12.895  1.00  0.00    -0.000 C 
BRANCH  11  12
ATOM     12  C   UNL     1      25.413  37.418  14.169  1.00  0.00    -0.000 C 
BRANCH  12  13
ATOM     13  C   UNL     1      24.176  36.507  14.209  1.00  0.00    -0.003 C 
ATOM     14  C   UNL     1      23.004  37.134  14.964  1.00  0.00     0.004 C 
ENDBRANCH  12  13
ENDBRANCH  11  12
ENDBRANCH  10  11
ENDBRANCH   9  10
ENDBRANCH   1   9
TORSDOF 10
ENDMDL
MODEL 9
REMARK VINA RESULT:    -3.802     15.319     17.583
REMARK INTER + INTRA:          -6.323
REMARK INTER:                  -5.158
REMARK INTRA:                  -1.165
REMARK UNBOUND:                -0.298
REMARK SMILES CCCCCCCCCCCC(=O)[O-]
REMARK SMILES IDX 7 1 8 2 9 3 10 4 11 5 12 6 13 7 14 8 6 9 5 10 4 11 3 12 2 13
REMARK SMILES IDX 1 14
REMARK H PARENT
REMARK Flexibility Score: inf
ROOT
ATOM      1  C   UNL     1      24.714  35.915  14.717  1.00  0.00     0.000 C 
ENDROOT
BRANCH   1   2
ATOM      2  C   UNL     1      25.399  34.613  15.158  1.00  0.00     0.000 C 
BRANCH   2   3
ATOM      3  C   UNL     1      24.400  33.568  15.681  1.00  0.00     0.000 C 
BRANCH   3   4
ATOM      4  C   UNL     1      24.058  32.498  14.630  1.00  0.00     0.006 C 
BRANCH   4   5
ATOM      5  C   UNL     1      22.809  32.861  13.819  1.00  0.00     0.053 C 
BRANCH   5   6
ATOM      6  C   UNL     1      21.694  33.340  14.698  1.00  0.00     0.041 C 
ATOM      7  O   UNL     1      21.204  34.488  14.532  1.00  0.00    -0.550 OA
ATOM      8  O   UNL     1      21.222  32.532  15.725  1.00  0.00    -0.550 OA
ENDBRANCH   5   6
ENDBRANCH   4   5
ENDBRANCH   3   4
ENDBRANCH   2   3
ENDBRANCH   1   2
BRANCH   1   9
ATOM      9  C   UNL     1      25.589  36.683  13.719  1.00  0.00     0.000 C 
BRANCH   9  10
ATOM     10  C   UNL     1      25.626  35.975  12.359  1.00  0.00    -0.000 C 
BRANCH  10  11
ATOM     11  C   UNL     1      27.066  35.641  11.951  1.00  0.00    -0.000 C 
BRANCH  11  12
ATOM     12  C   UNL     1      27.125  34.313  11.182  1.00  0.00    -0.000 C 
BRANCH  12  13
ATOM     13  C   UNL     1      26.373  33.181  11.899  1.00  0.00    -0.003 C 
ATOM     14  C   UNL     1      25.808  32.141  10.932  1.00  0.00     0.004 C 
ENDBRANCH  12  13
ENDBRANCH  11  12
ENDBRANCH  10  11
ENDBRANCH   9  10
ENDBRANCH   1   9
TORSDOF 10
ENDMDL
