MODEL 1
REMARK VINA RESULT:    -3.735      0.000      0.000
REMARK INTER + INTRA:          -5.653
REMARK INTER:                  -4.936
REMARK INTRA:                  -0.717
REMARK UNBOUND:                -0.717
REMARK SMILES CCCCC=CC=CCO
REMARK SMILES IDX 5 1 6 2 4 3 3 4 2 5 1 6 7 7 8 8 9 9 10 10
REMARK H PARENT 10 11
REMARK Flexibility Score: inf
ROOT
ATOM      1  C   UNL     1      48.001  44.769  31.638  1.00  0.00    -0.027 C 
ATOM      2  C   UNL     1      47.769  44.891  32.952  1.00  0.00    -0.005 C 
ENDROOT
BRANCH   1   3
ATOM      3  C   UNL     1      47.393  43.712  30.752  1.00  0.00     0.027 C 
BRANCH   3   4
ATOM      4  C   UNL     1      46.189  44.241  29.955  1.00  0.00     0.004 C 
BRANCH   4   5
ATOM      5  C   UNL     1      44.897  43.484  30.293  1.00  0.00    -0.003 C 
ATOM      6  C   UNL     1      45.200  42.164  30.995  1.00  0.00     0.004 C 
ENDBRANCH   4   5
ENDBRANCH   3   4
ENDBRANCH   1   3
BRANCH   2   7
ATOM      7  C   UNL     1      46.859  44.016  33.718  1.00  0.00    -0.002 C 
ATOM      8  C   UNL     1      45.612  44.404  33.995  1.00  0.00     0.001 C 
BRANCH   8   9
ATOM      9  C   UNL     1      44.680  43.526  34.777  1.00  0.00     0.183 C 
BRANCH   9  10
ATOM     10  O   UNL     1      44.398  44.099  36.026  1.00  0.00    -0.392 OA
ATOM     11  H   UNL     1      45.052  43.718  36.667  1.00  0.00     0.210 HD
ENDBRANCH   9  10
ENDBRANCH   8   9
ENDBRANCH   2   7
TORSDOF 6
ENDMDL
MODEL 2
REMARK VINA RESULT:    -3.654      1.266      2.436
REMARK INTER + INTRA:          -5.546
REMARK INTER:                  -5.030
REMARK INTRA:                  -0.515
REMARK UNBOUND:                -0.717
REMARK SMILES CCCCC=CC=CCO
REMARK SMILES IDX 5 1 6 2 4 3 3 4 2 5 1 6 7 7 8 8 9 9 10 10
REMARK H PARENT 10 11
REMARK Flexibility Score: inf
ROOT
ATOM      1  C   UNL     1      47.258  43.497  33.711  1.00  0.00    -0.027 C 
ATOM      2  C   UNL     1      46.169  43.132  34.402  1.00  0.00    -0.005 C 
ENDROOT
BRANCH   1   3
ATOM      3  C   UNL     1      47.483  44.866  33.120  1.00  0.00     0.027 C 
BRANCH   3   4
ATOM      4  C   UNL     1      48.086  44.799  31.707  1.00  0.00     0.004 C 
BRANCH   4   5
ATOM      5  C   UNL     1      47.327  43.819  30.802  1.00  0.00    -0.003 C 
ATOM      6  C   UNL     1      45.971  44.386  30.392  1.00  0.00     0.004 C 
ENDBRANCH   4   5
ENDBRANCH   3   4
ENDBRANCH   1   3
BRANCH   2   7
ATOM      7  C   UNL     1      45.038  44.032  34.702  1.00  0.00    -0.002 C 
ATOM      8  C   UNL     1      43.913  43.977  33.986  1.00  0.00     0.001 C 
BRANCH   8   9
ATOM      9  C   UNL     1      42.759  44.891  34.278  1.00  0.00     0.183 C 
BRANCH   9  10
ATOM     10  O   UNL     1      43.173  45.963  35.081  1.00  0.00    -0.392 OA
ATOM     11  H   UNL     1      42.463  46.100  35.760  1.00  0.00     0.210 HD
ENDBRANCH   9  10
ENDBRANCH   8   9
ENDBRANCH   2   7
TORSDOF 6
ENDMDL
MODEL 3
REMARK VINA RESULT:    -3.653      2.739      3.373
REMARK INTER + INTRA:          -5.545
REMARK INTER:                  -5.273
REMARK INTRA:                  -0.273
REMARK UNBOUND:                -0.717
REMARK SMILES CCCCC=CC=CCO
REMARK SMILES IDX 5 1 6 2 4 3 3 4 2 5 1 6 7 7 8 8 9 9 10 10
REMARK H PARENT 10 11
REMARK Flexibility Score: inf
ROOT
ATOM      1  C   UNL     1      46.782  43.148  33.578  1.00  0.00    -0.027 C 
ATOM      2  C   UNL     1      46.872  42.433  34.708  1.00  0.00    -0.005 C 
ENDROOT
BRANCH   1   3
ATOM      3  C   UNL     1      47.373  44.520  33.380  1.00  0.00     0.027 C 
BRANCH   3   4
ATOM      4  C   UNL     1      47.791  44.771  31.921  1.00  0.00     0.004 C 
BRANCH   4   5
ATOM      5  C   UNL     1      46.608  44.631  30.951  1.00  0.00    -0.003 C 
ATOM      6  C   UNL     1      46.900  43.589  29.875  1.00  0.00     0.004 C 
ENDBRANCH   4   5
ENDBRANCH   3   4
ENDBRANCH   1   3
BRANCH   2   7
ATOM      7  C   UNL     1      47.589  42.882  35.919  1.00  0.00    -0.002 C 
ATOM      8  C   UNL     1      47.039  42.747  37.127  1.00  0.00     0.001 C 
BRANCH   8   9
ATOM      9  C   UNL     1      47.755  43.204  38.364  1.00  0.00     0.183 C 
BRANCH   9  10
ATOM     10  O   UNL     1      48.011  42.117  39.213  1.00  0.00    -0.392 OA
ATOM     11  H   UNL     1      48.929  41.805  39.005  1.00  0.00     0.210 HD
ENDBRANCH   9  10
ENDBRANCH   8   9
ENDBRANCH   2   7
TORSDOF 6
ENDMDL
MODEL 4
REMARK VINA RESULT:    -3.594      1.818      1.898
REMARK INTER + INTRA:          -5.466
REMARK INTER:                  -4.957
REMARK INTRA:                  -0.509
REMARK UNBOUND:                -0.717
REMARK SMILES CCCCC=CC=CCO
REMARK SMILES IDX 5 1 6 2 4 3 3 4 2 5 1 6 7 7 8 8 9 9 10 10
REMARK H PARENT 10 11
REMARK Flexibility Score: inf
ROOT
ATOM      1  C   UNL     1      47.613  44.725  32.087  1.00  0.00    -0.027 C 
ATOM      2  C   UNL     1      47.305  44.560  33.382  1.00  0.00    -0.005 C 
ENDROOT
BRANCH   1   3
ATOM      3  C   UNL     1      47.578  43.634  31.049  1.00  0.00     0.027 C 
BRANCH   3   4
ATOM      4  C   UNL     1      46.626  43.964  29.887  1.00  0.00     0.004 C 
BRANCH   4   5
ATOM      5  C   UNL     1      45.161  44.033  30.344  1.00  0.00    -0.003 C 
ATOM      6  C   UNL     1      44.708  42.703  30.940  1.00  0.00     0.004 C 
ENDBRANCH   4   5
ENDBRANCH   3   4
ENDBRANCH   1   3
BRANCH   2   7
ATOM      7  C   UNL     1      46.864  43.280  33.971  1.00  0.00    -0.002 C 
ATOM      8  C   UNL     1      47.304  42.892  35.170  1.00  0.00     0.001 C 
BRANCH   8   9
ATOM      9  C   UNL     1      46.867  41.592  35.777  1.00  0.00     0.183 C 
BRANCH   9  10
ATOM     10  O   UNL     1      46.430  40.708  34.780  1.00  0.00    -0.392 OA
ATOM     11  H   UNL     1      47.162  40.053  34.640  1.00  0.00     0.210 HD
ENDBRANCH   9  10
ENDBRANCH   8   9
ENDBRANCH   2   7
TORSDOF 6
ENDMDL
MODEL 5
REMARK VINA RESULT:    -3.541      3.899      5.954
REMARK INTER + INTRA:          -5.397
REMARK INTER:                  -5.153
REMARK INTRA:                  -0.244
REMARK UNBOUND:                -0.717
REMARK SMILES CCCCC=CC=CCO
REMARK SMILES IDX 5 1 6 2 4 3 3 4 2 5 1 6 7 7 8 8 9 9 10 10
REMARK H PARENT 10 11
REMARK Flexibility Score: inf
ROOT
ATOM      1  C   UNL     1      46.505  42.795  36.226  1.00  0.00    -0.027 C 
ATOM      2  C   UNL     1      46.203  43.309  35.025  1.00  0.00    -0.005 C 
ENDROOT
BRANCH   1   3
ATOM      3  C   UNL     1      47.899  42.474  36.698  1.00  0.00     0.027 C 
BRANCH   3   4
ATOM      4  C   UNL     1      47.950  42.172  38.205  1.00  0.00     0.004 C 
BRANCH   4   5
ATOM      5  C   UNL     1      48.661  40.844  38.503  1.00  0.00    -0.003 C 
ATOM      6  C   UNL     1      48.743  39.972  37.254  1.00  0.00     0.004 C 
ENDBRANCH   4   5
ENDBRANCH   3   4
ENDBRANCH   1   3
BRANCH   2   7
ATOM      7  C   UNL     1      47.205  43.656  33.997  1.00  0.00    -0.002 C 
ATOM      8  C   UNL     1      46.912  44.521  33.023  1.00  0.00     0.001 C 
BRANCH   8   9
ATOM      9  C   UNL     1      47.919  44.878  31.970  1.00  0.00     0.183 C 
BRANCH   9  10
ATOM     10  O   UNL     1      47.280  45.140  30.749  1.00  0.00    -0.392 OA
ATOM     11  H   UNL     1      46.425  45.594  30.968  1.00  0.00     0.210 HD
ENDBRANCH   9  10
ENDBRANCH   8   9
ENDBRANCH   2   7
TORSDOF 6
ENDMDL
MODEL 6
REMARK VINA RESULT:    -3.535      4.079      4.945
REMARK INTER + INTRA:          -5.388
REMARK INTER:                  -5.114
REMARK INTRA:                  -0.275
REMARK UNBOUND:                -0.717
REMARK SMILES CCCCC=CC=CCO
REMARK SMILES IDX 5 1 6 2 4 3 3 4 2 5 1 6 7 7 8 8 9 9 10 10
REMARK H PARENT 10 11
REMARK Flexibility Score: inf
ROOT
ATOM      1  C   UNL     1      47.430  43.154  35.364  1.00  0.00    -0.027 C 
ATOM      2  C   UNL     1      47.890  42.501  36.441  1.00  0.00    -0.005 C 
ENDROOT
BRANCH   1   3
ATOM      3  C   UNL     1      46.693  42.511  34.217  1.00  0.00     0.027 C 
BRANCH   3   4
ATOM      4  C   UNL     1      46.344  43.518  33.109  1.00  0.00     0.004 C 
BRANCH   4   5
ATOM      5  C   UNL     1      47.383  44.645  33.007  1.00  0.00    -0.003 C 
ATOM      6  C   UNL     1      48.057  44.649  31.638  1.00  0.00     0.004 C 
ENDBRANCH   4   5
ENDBRANCH   3   4
ENDBRANCH   1   3
BRANCH   2   7
ATOM      7  C   UNL     1      47.718  41.052  36.666  1.00  0.00    -0.002 C 
ATOM      8  C   UNL     1      48.680  40.333  37.249  1.00  0.00     0.001 C 
BRANCH   8   9
ATOM      9  C   UNL     1      48.519  38.859  37.479  1.00  0.00     0.183 C 
BRANCH   9  10
ATOM     10  O   UNL     1      49.024  38.135  36.389  1.00  0.00    -0.392 OA
ATOM     11  H   UNL     1      48.244  37.887  35.827  1.00  0.00     0.210 HD
ENDBRANCH   9  10
ENDBRANCH   8   9
ENDBRANCH   2   7
TORSDOF 6
ENDMDL
MODEL 7
REMARK VINA RESULT:    -3.399      1.325      3.002
REMARK INTER + INTRA:          -5.209
REMARK INTER:                  -4.797
REMARK INTRA:                  -0.412
REMARK UNBOUND:                -0.717
REMARK SMILES CCCCC=CC=CCO
REMARK SMILES IDX 5 1 6 2 4 3 3 4 2 5 1 6 7 7 8 8 9 9 10 10
REMARK H PARENT 10 11
REMARK Flexibility Score: inf
ROOT
ATOM      1  C   UNL     1      44.859  43.393  30.261  1.00  0.00    -0.027 C 
ATOM      2  C   UNL     1      44.063  43.218  31.325  1.00  0.00    -0.005 C 
ENDROOT
BRANCH   1   3
ATOM      3  C   UNL     1      45.995  44.381  30.190  1.00  0.00     0.027 C 
BRANCH   3   4
ATOM      4  C   UNL     1      47.305  43.806  30.753  1.00  0.00     0.004 C 
BRANCH   4   5
ATOM      5  C   UNL     1      48.050  44.822  31.631  1.00  0.00    -0.003 C 
ATOM      6  C   UNL     1      47.616  44.712  33.090  1.00  0.00     0.004 C 
ENDBRANCH   4   5
ENDBRANCH   3   4
ENDBRANCH   1   3
BRANCH   2   7
ATOM      7  C   UNL     1      44.203  43.959  32.595  1.00  0.00    -0.002 C 
ATOM      8  C   UNL     1      43.385  43.713  33.622  1.00  0.00     0.001 C 
BRANCH   8   9
ATOM      9  C   UNL     1      43.513  44.462  34.915  1.00  0.00     0.183 C 
BRANCH   9  10
ATOM     10  O   UNL     1      43.197  45.816  34.731  1.00  0.00    -0.392 OA
ATOM     11  H   UNL     1      42.518  46.045  35.417  1.00  0.00     0.210 HD
ENDBRANCH   9  10
ENDBRANCH   8   9
ENDBRANCH   2   7
TORSDOF 6
ENDMDL
MODEL 8
REMARK VINA RESULT:    -3.388      1.992      4.240
REMARK INTER + INTRA:          -5.195
REMARK INTER:                  -4.487
REMARK INTRA:                  -0.708
REMARK UNBOUND:                -0.717
REMARK SMILES CCCCC=CC=CCO
REMARK SMILES IDX 5 1 6 2 4 3 3 4 2 5 1 6 7 7 8 8 9 9 10 10
REMARK H PARENT 10 11
REMARK Flexibility Score: inf
ROOT
ATOM      1  C   UNL     1      43.923  43.217  31.723  1.00  0.00    -0.027 C 
ATOM      2  C   UNL     1      44.899  43.521  30.856  1.00  0.00    -0.005 C 
ENDROOT
BRANCH   1   3
ATOM      3  C   UNL     1      43.779  43.811  33.100  1.00  0.00     0.027 C 
BRANCH   3   4
ATOM      4  C   UNL     1      44.444  42.944  34.182  1.00  0.00     0.004 C 
BRANCH   4   5
ATOM      5  C   UNL     1      45.684  43.622  34.783  1.00  0.00    -0.003 C 
ATOM      6  C   UNL     1      46.869  42.661  34.828  1.00  0.00     0.004 C 
ENDBRANCH   4   5
ENDBRANCH   3   4
ENDBRANCH   1   3
BRANCH   2   7
ATOM      7  C   UNL     1      45.966  44.506  31.123  1.00  0.00    -0.002 C 
ATOM      8  C   UNL     1      47.189  44.108  31.482  1.00  0.00     0.001 C 
BRANCH   8   9
ATOM      9  C   UNL     1      48.279  45.100  31.761  1.00  0.00     0.183 C 
BRANCH   9  10
ATOM     10  O   UNL     1      48.268  45.474  33.112  1.00  0.00    -0.392 OA
ATOM     11  H   UNL     1      49.181  45.799  33.325  1.00  0.00     0.210 HD
ENDBRANCH   9  10
ENDBRANCH   8   9
ENDBRANCH   2   7
TORSDOF 6
ENDMDL
MODEL 9
REMARK VINA RESULT:    -3.349      5.093      7.390
REMARK INTER + INTRA:          -5.143
REMARK INTER:                  -4.880
REMARK INTRA:                  -0.263
REMARK UNBOUND:                -0.717
REMARK SMILES CCCCC=CC=CCO
REMARK SMILES IDX 5 1 6 2 4 3 3 4 2 5 1 6 7 7 8 8 9 9 10 10
REMARK H PARENT 10 11
REMARK Flexibility Score: inf
ROOT
ATOM      1  C   UNL     1      47.961  41.881  38.003  1.00  0.00    -0.027 C 
ATOM      2  C   UNL     1      47.975  41.924  36.663  1.00  0.00    -0.005 C 
ENDROOT
BRANCH   1   3
ATOM      3  C   UNL     1      47.572  43.032  38.896  1.00  0.00     0.027 C 
BRANCH   3   4
ATOM      4  C   UNL     1      47.669  42.672  40.387  1.00  0.00     0.004 C 
BRANCH   4   5
ATOM      5  C   UNL     1      48.393  41.336  40.612  1.00  0.00    -0.003 C 
ATOM      6  C   UNL     1      48.421  40.969  42.093  1.00  0.00     0.004 C 
ENDBRANCH   4   5
ENDBRANCH   3   4
ENDBRANCH   1   3
BRANCH   2   7
ATOM      7  C   UNL     1      47.587  43.105  35.867  1.00  0.00    -0.002 C 
ATOM      8  C   UNL     1      47.106  42.967  34.630  1.00  0.00     0.001 C 
BRANCH   8   9
ATOM      9  C   UNL     1      46.713  44.159  33.809  1.00  0.00     0.183 C 
BRANCH   9  10
ATOM     10  O   UNL     1      47.852  44.803  33.303  1.00  0.00    -0.392 OA
ATOM     11  H   UNL     1      47.528  45.552  32.740  1.00  0.00     0.210 HD
ENDBRANCH   9  10
ENDBRANCH   8   9
ENDBRANCH   2   7
TORSDOF 6
ENDMDL
