MODEL 1
REMARK VINA RESULT:    -5.026      0.000      0.000
REMARK INTER + INTRA:         -11.754
REMARK INTER:                  -9.139
REMARK INTRA:                  -2.615
REMARK UNBOUND:                -2.615
REMARK SMILES CCCCCCCCCCCCCC[C@H](C)C(=O)[O-]
REMARK SMILES IDX 9 1 10 2 11 3 12 4 13 5 14 6 15 7 16 8 17 9 18 10 19 11 8 12
REMARK SMILES IDX 7 13 6 14 5 15 4 16 3 17 2 18 1 19
REMARK H PARENT
REMARK Flexibility Score: inf
ROOT
ATOM      1  C   UNL     1      20.047  -4.685  18.645  1.00  0.00     0.000 C 
ENDROOT
BRANCH   1   2
ATOM      2  C   UNL     1      18.692  -4.942  19.326  1.00  0.00     0.000 C 
BRANCH   2   3
ATOM      3  C   UNL     1      18.698  -4.560  20.815  1.00  0.00     0.000 C 
BRANCH   3   4
ATOM      4  C   UNL     1      18.147  -3.148  21.067  1.00  0.00     0.000 C 
BRANCH   4   5
ATOM      5  C   UNL     1      19.244  -2.220  21.603  1.00  0.00     0.001 C 
BRANCH   5   6
ATOM      6  C   UNL     1      20.535  -3.002  21.895  1.00  0.00     0.009 C 
BRANCH   6   7
ATOM      7  C   UNL     1      21.425  -2.288  22.934  1.00  0.00     0.032 C 
ATOM      8  C   UNL     1      20.592  -1.327  23.787  1.00  0.00     0.014 C 
BRANCH   7   9
ATOM      9  C   UNL     1      22.545  -1.536  22.268  1.00  0.00     0.044 C 
ATOM     10  O   UNL     1      23.546  -2.156  21.821  1.00  0.00    -0.550 OA
ATOM     11  O   UNL     1      22.486  -0.152  22.144  1.00  0.00    -0.550 OA
ENDBRANCH   7   9
ENDBRANCH   6   7
ENDBRANCH   5   6
ENDBRANCH   4   5
ENDBRANCH   3   4
ENDBRANCH   2   3
ENDBRANCH   1   2
BRANCH   1  12
ATOM     12  C   UNL     1      19.993  -3.543  17.614  1.00  0.00     0.000 C 
BRANCH  12  13
ATOM     13  C   UNL     1      20.355  -2.150  18.158  1.00  0.00    -0.000 C 
BRANCH  13  14
ATOM     14  C   UNL     1      19.191  -1.152  18.075  1.00  0.00    -0.000 C 
BRANCH  14  15
ATOM     15  C   UNL     1      17.948  -1.807  17.459  1.00  0.00    -0.000 C 
BRANCH  15  16
ATOM     16  C   UNL     1      16.674  -1.367  18.190  1.00  0.00    -0.000 C 
BRANCH  16  17
ATOM     17  C   UNL     1      15.725  -2.552  18.405  1.00  0.00    -0.000 C 
BRANCH  17  18
ATOM     18  C   UNL     1      15.938  -3.628  17.334  1.00  0.00    -0.003 C 
ATOM     19  C   UNL     1      15.129  -4.883  17.646  1.00  0.00     0.004 C 
ENDBRANCH  17  18
ENDBRANCH  16  17
ENDBRANCH  15  16
ENDBRANCH  14  15
ENDBRANCH  13  14
ENDBRANCH  12  13
ENDBRANCH   1  12
TORSDOF 14
ENDMDL
MODEL 2
REMARK VINA RESULT:    -4.988      3.187      6.387
REMARK INTER + INTRA:         -11.687
REMARK INTER:                  -8.909
REMARK INTRA:                  -2.778
REMARK UNBOUND:                -2.615
REMARK SMILES CCCCCCCCCCCCCC[C@H](C)C(=O)[O-]
REMARK SMILES IDX 9 1 10 2 11 3 12 4 13 5 14 6 15 7 16 8 17 9 18 10 19 11 8 12
REMARK SMILES IDX 7 13 6 14 5 15 4 16 3 17 2 18 1 19
REMARK H PARENT
REMARK Flexibility Score: inf
ROOT
ATOM      1  C   UNL     1      20.398  -3.159  21.648  1.00  0.00     0.000 C 
ENDROOT
BRANCH   1   2
ATOM      2  C   UNL     1      21.370  -3.148  20.456  1.00  0.00     0.000 C 
BRANCH   2   3
ATOM      3  C   UNL     1      20.643  -3.201  19.102  1.00  0.00     0.000 C 
BRANCH   3   4
ATOM      4  C   UNL     1      20.262  -1.808  18.579  1.00  0.00     0.000 C 
BRANCH   4   5
ATOM      5  C   UNL     1      18.751  -1.708  18.336  1.00  0.00     0.001 C 
BRANCH   5   6
ATOM      6  C   UNL     1      18.031  -1.131  19.565  1.00  0.00     0.009 C 
BRANCH   6   7
ATOM      7  C   UNL     1      16.720  -1.880  19.876  1.00  0.00     0.032 C 
ATOM      8  C   UNL     1      17.007  -3.337  20.251  1.00  0.00     0.014 C 
BRANCH   7   9
ATOM      9  C   UNL     1      15.773  -1.833  18.707  1.00  0.00     0.044 C 
ATOM     10  O   UNL     1      15.288  -0.734  18.330  1.00  0.00    -0.550 OA
ATOM     11  O   UNL     1      15.425  -3.001  18.038  1.00  0.00    -0.550 OA
ENDBRANCH   7   9
ENDBRANCH   6   7
ENDBRANCH   5   6
ENDBRANCH   4   5
ENDBRANCH   3   4
ENDBRANCH   2   3
ENDBRANCH   1   2
BRANCH   1  12
ATOM     12  C   UNL     1      21.110  -2.997  23.004  1.00  0.00     0.000 C 
BRANCH  12  13
ATOM     13  C   UNL     1      20.862  -1.657  23.718  1.00  0.00    -0.000 C 
BRANCH  13  14
ATOM     14  C   UNL     1      19.892  -0.741  22.956  1.00  0.00    -0.000 C 
BRANCH  14  15
ATOM     15  C   UNL     1      20.544   0.611  22.642  1.00  0.00    -0.000 C 
BRANCH  15  16
ATOM     16  C   UNL     1      20.825   0.751  21.141  1.00  0.00    -0.000 C 
BRANCH  16  17
ATOM     17  C   UNL     1      22.272   0.363  20.813  1.00  0.00    -0.000 C 
BRANCH  17  18
ATOM     18  C   UNL     1      23.200   0.651  21.999  1.00  0.00    -0.003 C 
ATOM     19  C   UNL     1      24.126  -0.530  22.272  1.00  0.00     0.004 C 
ENDBRANCH  17  18
ENDBRANCH  16  17
ENDBRANCH  15  16
ENDBRANCH  14  15
ENDBRANCH  13  14
ENDBRANCH  12  13
ENDBRANCH   1  12
TORSDOF 14
ENDMDL
MODEL 3
REMARK VINA RESULT:    -4.976      2.933      6.267
REMARK INTER + INTRA:         -11.664
REMARK INTER:                  -8.685
REMARK INTRA:                  -2.979
REMARK UNBOUND:                -2.615
REMARK SMILES CCCCCCCCCCCCCC[C@H](C)C(=O)[O-]
REMARK SMILES IDX 9 1 10 2 11 3 12 4 13 5 14 6 15 7 16 8 17 9 18 10 19 11 8 12
REMARK SMILES IDX 7 13 6 14 5 15 4 16 3 17 2 18 1 19
REMARK H PARENT
REMARK Flexibility Score: inf
ROOT
ATOM      1  C   UNL     1      21.030  -3.042  22.973  1.00  0.00     0.000 C 
ENDROOT
BRANCH   1   2
ATOM      2  C   UNL     1      22.112  -3.171  21.888  1.00  0.00     0.000 C 
BRANCH   2   3
ATOM      3  C   UNL     1      21.519  -3.275  20.473  1.00  0.00     0.000 C 
BRANCH   3   4
ATOM      4  C   UNL     1      20.060  -3.754  20.476  1.00  0.00     0.000 C 
BRANCH   4   5
ATOM      5  C   UNL     1      19.148  -2.739  19.775  1.00  0.00     0.001 C 
BRANCH   5   6
ATOM      6  C   UNL     1      18.040  -2.248  20.720  1.00  0.00     0.009 C 
BRANCH   6   7
ATOM      7  C   UNL     1      17.210  -1.106  20.099  1.00  0.00     0.032 C 
ATOM      8  C   UNL     1      17.920  -0.531  18.870  1.00  0.00     0.014 C 
BRANCH   7   9
ATOM      9  C   UNL     1      16.957  -0.008  21.098  1.00  0.00     0.044 C 
ATOM     10  O   UNL     1      17.482   1.125  20.938  1.00  0.00    -0.550 OA
ATOM     11  O   UNL     1      16.146  -0.237  22.203  1.00  0.00    -0.550 OA
ENDBRANCH   7   9
ENDBRANCH   6   7
ENDBRANCH   5   6
ENDBRANCH   4   5
ENDBRANCH   3   4
ENDBRANCH   2   3
ENDBRANCH   1   2
BRANCH   1  12
ATOM     12  C   UNL     1      21.086  -1.697  23.720  1.00  0.00     0.000 C 
BRANCH  12  13
ATOM     13  C   UNL     1      20.025  -0.667  23.296  1.00  0.00    -0.000 C 
BRANCH  13  14
ATOM     14  C   UNL     1      20.630   0.575  22.623  1.00  0.00    -0.000 C 
BRANCH  14  15
ATOM     15  C   UNL     1      20.753   0.373  21.108  1.00  0.00    -0.000 C 
BRANCH  15  16
ATOM     16  C   UNL     1      22.222   0.396  20.667  1.00  0.00    -0.000 C 
BRANCH  16  17
ATOM     17  C   UNL     1      23.138   0.802  21.828  1.00  0.00    -0.000 C 
BRANCH  17  18
ATOM     18  C   UNL     1      24.311  -0.176  21.969  1.00  0.00    -0.003 C 
ATOM     19  C   UNL     1      24.876  -0.156  23.386  1.00  0.00     0.004 C 
ENDBRANCH  17  18
ENDBRANCH  16  17
ENDBRANCH  15  16
ENDBRANCH  14  15
ENDBRANCH  13  14
ENDBRANCH  12  13
ENDBRANCH   1  12
TORSDOF 14
ENDMDL
MODEL 4
REMARK VINA RESULT:    -4.938      2.913      5.613
REMARK INTER + INTRA:         -11.595
REMARK INTER:                  -8.791
REMARK INTRA:                  -2.804
REMARK UNBOUND:                -2.615
REMARK SMILES CCCCCCCCCCCCCC[C@H](C)C(=O)[O-]
REMARK SMILES IDX 9 1 10 2 11 3 12 4 13 5 14 6 15 7 16 8 17 9 18 10 19 11 8 12
REMARK SMILES IDX 7 13 6 14 5 15 4 16 3 17 2 18 1 19
REMARK H PARENT
REMARK Flexibility Score: inf
ROOT
ATOM      1  C   UNL     1      20.646  -2.933  19.952  1.00  0.00     0.000 C 
ENDROOT
BRANCH   1   2
ATOM      2  C   UNL     1      19.996  -4.082  19.162  1.00  0.00     0.000 C 
BRANCH   2   3
ATOM      3  C   UNL     1      18.741  -4.638  19.855  1.00  0.00     0.000 C 
BRANCH   3   4
ATOM      4  C   UNL     1      18.246  -3.737  20.996  1.00  0.00     0.000 C 
BRANCH   4   5
ATOM      5  C   UNL     1      16.858  -3.165  20.680  1.00  0.00     0.001 C 
BRANCH   5   6
ATOM      6  C   UNL     1      16.837  -1.638  20.857  1.00  0.00     0.009 C 
BRANCH   6   7
ATOM      7  C   UNL     1      17.573  -0.910  19.713  1.00  0.00     0.032 C 
ATOM      8  C   UNL     1      17.482   0.608  19.895  1.00  0.00     0.014 C 
BRANCH   7   9
ATOM      9  C   UNL     1      17.012  -1.294  18.371  1.00  0.00     0.044 C 
ATOM     10  O   UNL     1      15.864  -0.905  18.030  1.00  0.00    -0.550 OA
ATOM     11  O   UNL     1      17.754  -2.083  17.498  1.00  0.00    -0.550 OA
ENDBRANCH   7   9
ENDBRANCH   6   7
ENDBRANCH   5   6
ENDBRANCH   4   5
ENDBRANCH   3   4
ENDBRANCH   2   3
ENDBRANCH   1   2
BRANCH   1  12
ATOM     12  C   UNL     1      21.960  -3.345  20.639  1.00  0.00     0.000 C 
BRANCH  12  13
ATOM     13  C   UNL     1      22.241  -2.652  21.985  1.00  0.00    -0.000 C 
BRANCH  13  14
ATOM     14  C   UNL     1      21.123  -2.866  23.015  1.00  0.00    -0.000 C 
BRANCH  14  15
ATOM     15  C   UNL     1      20.759  -1.549  23.712  1.00  0.00    -0.000 C 
BRANCH  15  16
ATOM     16  C   UNL     1      19.824  -0.704  22.839  1.00  0.00    -0.000 C 
BRANCH  16  17
ATOM     17  C   UNL     1      20.479   0.630  22.463  1.00  0.00    -0.000 C 
BRANCH  17  18
ATOM     18  C   UNL     1      20.858   0.657  20.977  1.00  0.00    -0.003 C 
ATOM     19  C   UNL     1      22.364   0.817  20.796  1.00  0.00     0.004 C 
ENDBRANCH  17  18
ENDBRANCH  16  17
ENDBRANCH  15  16
ENDBRANCH  14  15
ENDBRANCH  13  14
ENDBRANCH  12  13
ENDBRANCH   1  12
TORSDOF 14
ENDMDL
MODEL 5
REMARK VINA RESULT:    -4.906      2.939      5.818
REMARK INTER + INTRA:         -11.537
REMARK INTER:                  -8.919
REMARK INTRA:                  -2.618
REMARK UNBOUND:                -2.615
REMARK SMILES CCCCCCCCCCCCCC[C@H](C)C(=O)[O-]
REMARK SMILES IDX 9 1 10 2 11 3 12 4 13 5 14 6 15 7 16 8 17 9 18 10 19 11 8 12
REMARK SMILES IDX 7 13 6 14 5 15 4 16 3 17 2 18 1 19
REMARK H PARENT
REMARK Flexibility Score: inf
ROOT
ATOM      1  C   UNL     1      19.540  -2.604  17.936  1.00  0.00     0.000 C 
ENDROOT
BRANCH   1   2
ATOM      2  C   UNL     1      19.982  -3.674  18.948  1.00  0.00     0.000 C 
BRANCH   2   3
ATOM      3  C   UNL     1      18.799  -4.480  19.509  1.00  0.00     0.000 C 
BRANCH   3   4
ATOM      4  C   UNL     1      18.209  -3.858  20.783  1.00  0.00     0.000 C 
BRANCH   4   5
ATOM      5  C   UNL     1      16.747  -3.447  20.567  1.00  0.00     0.001 C 
BRANCH   5   6
ATOM      6  C   UNL     1      16.655  -2.034  19.968  1.00  0.00     0.009 C 
BRANCH   6   7
ATOM      7  C   UNL     1      15.505  -1.908  18.948  1.00  0.00     0.032 C 
ATOM      8  C   UNL     1      15.700  -2.895  17.793  1.00  0.00     0.014 C 
BRANCH   7   9
ATOM      9  C   UNL     1      15.404  -0.507  18.407  1.00  0.00     0.044 C 
ATOM     10  O   UNL     1      14.276   0.000  18.174  1.00  0.00    -0.550 OA
ATOM     11  O   UNL     1      16.553   0.235  18.160  1.00  0.00    -0.550 OA
ENDBRANCH   7   9
ENDBRANCH   6   7
ENDBRANCH   5   6
ENDBRANCH   4   5
ENDBRANCH   3   4
ENDBRANCH   2   3
ENDBRANCH   1   2
BRANCH   1  12
ATOM     12  C   UNL     1      19.989  -1.185  18.328  1.00  0.00     0.000 C 
BRANCH  12  13
ATOM     13  C   UNL     1      20.582  -1.052  19.742  1.00  0.00    -0.000 C 
BRANCH  13  14
ATOM     14  C   UNL     1      19.767  -0.118  20.649  1.00  0.00    -0.000 C 
BRANCH  14  15
ATOM     15  C   UNL     1      19.523  -0.760  22.021  1.00  0.00    -0.000 C 
BRANCH  15  16
ATOM     16  C   UNL     1      20.608  -0.346  23.023  1.00  0.00    -0.000 C 
BRANCH  16  17
ATOM     17  C   UNL     1      21.211  -1.572  23.718  1.00  0.00    -0.000 C 
BRANCH  17  18
ATOM     18  C   UNL     1      20.828  -2.863  22.986  1.00  0.00    -0.003 C 
ATOM     19  C   UNL     1      22.015  -3.431  22.214  1.00  0.00     0.004 C 
ENDBRANCH  17  18
ENDBRANCH  16  17
ENDBRANCH  15  16
ENDBRANCH  14  15
ENDBRANCH  13  14
ENDBRANCH  12  13
ENDBRANCH   1  12
TORSDOF 14
ENDMDL
MODEL 6
REMARK VINA RESULT:    -4.892      3.305      6.078
REMARK INTER + INTRA:         -11.512
REMARK INTER:                  -8.938
REMARK INTRA:                  -2.574
REMARK UNBOUND:                -2.615
REMARK SMILES CCCCCCCCCCCCCC[C@H](C)C(=O)[O-]
REMARK SMILES IDX 9 1 10 2 11 3 12 4 13 5 14 6 15 7 16 8 17 9 18 10 19 11 8 12
REMARK SMILES IDX 7 13 6 14 5 15 4 16 3 17 2 18 1 19
REMARK H PARENT
REMARK Flexibility Score: inf
ROOT
ATOM      1  C   UNL     1      21.777   0.588  21.067  1.00  0.00     0.000 C 
ENDROOT
BRANCH   1   2
ATOM      2  C   UNL     1      20.407   0.079  20.589  1.00  0.00     0.000 C 
BRANCH   2   3
ATOM      3  C   UNL     1      19.240   0.695  21.379  1.00  0.00     0.000 C 
BRANCH   3   4
ATOM      4  C   UNL     1      18.424  -0.355  22.147  1.00  0.00     0.000 C 
BRANCH   4   5
ATOM      5  C   UNL     1      17.028  -0.519  21.535  1.00  0.00     0.001 C 
BRANCH   5   6
ATOM      6  C   UNL     1      17.042  -0.194  20.032  1.00  0.00     0.009 C 
BRANCH   6   7
ATOM      7  C   UNL     1      16.963  -1.464  19.161  1.00  0.00     0.032 C 
ATOM      8  C   UNL     1      17.929  -1.366  17.976  1.00  0.00     0.014 C 
BRANCH   7   9
ATOM      9  C   UNL     1      15.563  -1.694  18.657  1.00  0.00     0.044 C 
ATOM     10  O   UNL     1      15.326  -2.642  17.863  1.00  0.00    -0.550 OA
ATOM     11  O   UNL     1      14.525  -0.863  19.061  1.00  0.00    -0.550 OA
ENDBRANCH   7   9
ENDBRANCH   6   7
ENDBRANCH   5   6
ENDBRANCH   4   5
ENDBRANCH   3   4
ENDBRANCH   2   3
ENDBRANCH   1   2
BRANCH   1  12
ATOM     12  C   UNL     1      21.985   0.416  22.583  1.00  0.00     0.000 C 
BRANCH  12  13
ATOM     13  C   UNL     1      22.431  -0.988  23.028  1.00  0.00    -0.000 C 
BRANCH  13  14
ATOM     14  C   UNL     1      21.344  -1.745  23.805  1.00  0.00    -0.000 C 
BRANCH  14  15
ATOM     15  C   UNL     1      20.984  -3.061  23.105  1.00  0.00    -0.000 C 
BRANCH  15  16
ATOM     16  C   UNL     1      21.748  -3.208  21.783  1.00  0.00    -0.000 C 
BRANCH  16  17
ATOM     17  C   UNL     1      20.787  -3.477  20.619  1.00  0.00    -0.000 C 
BRANCH  17  18
ATOM     18  C   UNL     1      19.344  -3.615  21.119  1.00  0.00    -0.003 C 
ATOM     19  C   UNL     1      18.576  -4.651  20.304  1.00  0.00     0.004 C 
ENDBRANCH  17  18
ENDBRANCH  16  17
ENDBRANCH  15  16
ENDBRANCH  14  15
ENDBRANCH  13  14
ENDBRANCH  12  13
ENDBRANCH   1  12
TORSDOF 14
ENDMDL
MODEL 7
REMARK VINA RESULT:    -4.875      3.456      6.140
REMARK INTER + INTRA:         -11.481
REMARK INTER:                  -8.591
REMARK INTRA:                  -2.890
REMARK UNBOUND:                -2.615
REMARK SMILES CCCCCCCCCCCCCC[C@H](C)C(=O)[O-]
REMARK SMILES IDX 9 1 10 2 11 3 12 4 13 5 14 6 15 7 16 8 17 9 18 10 19 11 8 12
REMARK SMILES IDX 7 13 6 14 5 15 4 16 3 17 2 18 1 19
REMARK H PARENT
REMARK Flexibility Score: inf
ROOT
ATOM      1  C   UNL     1      20.279  -2.279  18.275  1.00  0.00     0.000 C 
ENDROOT
BRANCH   1   2
ATOM      2  C   UNL     1      20.927  -2.618  19.629  1.00  0.00     0.000 C 
BRANCH   2   3
ATOM      3  C   UNL     1      20.519  -4.007  20.146  1.00  0.00     0.000 C 
BRANCH   3   4
ATOM      4  C   UNL     1      19.116  -4.018  20.771  1.00  0.00     0.000 C 
BRANCH   4   5
ATOM      5  C   UNL     1      18.100  -4.666  19.823  1.00  0.00     0.001 C 
BRANCH   5   6
ATOM      6  C   UNL     1      16.845  -3.790  19.676  1.00  0.00     0.009 C 
BRANCH   6   7
ATOM      7  C   UNL     1      16.497  -3.516  18.199  1.00  0.00     0.032 C 
ATOM      8  C   UNL     1      15.619  -2.267  18.076  1.00  0.00     0.014 C 
BRANCH   7   9
ATOM      9  C   UNL     1      15.797  -4.692  17.575  1.00  0.00     0.044 C 
ATOM     10  O   UNL     1      16.270  -5.234  16.542  1.00  0.00    -0.550 OA
ATOM     11  O   UNL     1      14.623  -5.188  18.131  1.00  0.00    -0.550 OA
ENDBRANCH   7   9
ENDBRANCH   6   7
ENDBRANCH   5   6
ENDBRANCH   4   5
ENDBRANCH   3   4
ENDBRANCH   2   3
ENDBRANCH   1   2
BRANCH   1  12
ATOM     12  C   UNL     1      19.272  -1.118  18.366  1.00  0.00     0.000 C 
BRANCH  12  13
ATOM     13  C   UNL     1      19.289  -0.339  19.693  1.00  0.00    -0.000 C 
BRANCH  13  14
ATOM     14  C   UNL     1      17.953  -0.410  20.448  1.00  0.00    -0.000 C 
BRANCH  14  15
ATOM     15  C   UNL     1      18.181  -0.559  21.957  1.00  0.00    -0.000 C 
BRANCH  15  16
ATOM     16  C   UNL     1      19.628  -0.213  22.331  1.00  0.00    -0.000 C 
BRANCH  16  17
ATOM     17  C   UNL     1      20.188  -1.216  23.347  1.00  0.00    -0.000 C 
BRANCH  17  18
ATOM     18  C   UNL     1      21.721  -1.215  23.332  1.00  0.00    -0.003 C 
ATOM     19  C   UNL     1      22.261  -0.195  22.334  1.00  0.00     0.004 C 
ENDBRANCH  17  18
ENDBRANCH  16  17
ENDBRANCH  15  16
ENDBRANCH  14  15
ENDBRANCH  13  14
ENDBRANCH  12  13
ENDBRANCH   1  12
TORSDOF 14
ENDMDL
MODEL 8
REMARK VINA RESULT:    -4.863      3.111      5.563
REMARK INTER + INTRA:         -11.458
REMARK INTER:                  -8.754
REMARK INTRA:                  -2.704
REMARK UNBOUND:                -2.615
REMARK SMILES CCCCCCCCCCCCCC[C@H](C)C(=O)[O-]
REMARK SMILES IDX 9 1 10 2 11 3 12 4 13 5 14 6 15 7 16 8 17 9 18 10 19 11 8 12
REMARK SMILES IDX 7 13 6 14 5 15 4 16 3 17 2 18 1 19
REMARK H PARENT
REMARK Flexibility Score: inf
ROOT
ATOM      1  C   UNL     1      21.391  -0.357  22.901  1.00  0.00     0.000 C 
ENDROOT
BRANCH   1   2
ATOM      2  C   UNL     1      20.271   0.655  22.604  1.00  0.00     0.000 C 
BRANCH   2   3
ATOM      3  C   UNL     1      19.719   0.521  21.175  1.00  0.00     0.000 C 
BRANCH   3   4
ATOM      4  C   UNL     1      18.194   0.339  21.143  1.00  0.00     0.000 C 
BRANCH   4   5
ATOM      5  C   UNL     1      17.810  -1.117  21.435  1.00  0.00     0.001 C 
BRANCH   5   6
ATOM      6  C   UNL     1      16.635  -1.565  20.551  1.00  0.00     0.009 C 
BRANCH   6   7
ATOM      7  C   UNL     1      16.541  -3.101  20.443  1.00  0.00     0.032 C 
ATOM      8  C   UNL     1      17.864  -3.752  20.859  1.00  0.00     0.014 C 
BRANCH   7   9
ATOM      9  C   UNL     1      16.182  -3.530  19.046  1.00  0.00     0.044 C 
ATOM     10  O   UNL     1      15.723  -2.692  18.226  1.00  0.00    -0.550 OA
ATOM     11  O   UNL     1      16.352  -4.852  18.650  1.00  0.00    -0.550 OA
ENDBRANCH   7   9
ENDBRANCH   6   7
ENDBRANCH   5   6
ENDBRANCH   4   5
ENDBRANCH   3   4
ENDBRANCH   2   3
ENDBRANCH   1   2
BRANCH   1  12
ATOM     12  C   UNL     1      20.872  -1.655  23.546  1.00  0.00     0.000 C 
BRANCH  12  13
ATOM     13  C   UNL     1      21.160  -2.942  22.753  1.00  0.00    -0.000 C 
BRANCH  13  14
ATOM     14  C   UNL     1      21.976  -2.690  21.476  1.00  0.00    -0.000 C 
BRANCH  14  15
ATOM     15  C   UNL     1      21.391  -3.465  20.289  1.00  0.00    -0.000 C 
BRANCH  15  16
ATOM     16  C   UNL     1      20.822  -2.509  19.233  1.00  0.00    -0.000 C 
BRANCH  16  17
ATOM     17  C   UNL     1      20.345  -3.278  17.995  1.00  0.00    -0.000 C 
BRANCH  17  18
ATOM     18  C   UNL     1      19.221  -2.520  17.277  1.00  0.00    -0.003 C 
ATOM     19  C   UNL     1      19.052  -1.116  17.849  1.00  0.00     0.004 C 
ENDBRANCH  17  18
ENDBRANCH  16  17
ENDBRANCH  15  16
ENDBRANCH  14  15
ENDBRANCH  13  14
ENDBRANCH  12  13
ENDBRANCH   1  12
TORSDOF 14
ENDMDL
MODEL 9
REMARK VINA RESULT:    -4.778      3.224      5.450
REMARK INTER + INTRA:         -11.304
REMARK INTER:                  -8.595
REMARK INTRA:                  -2.709
REMARK UNBOUND:                -2.615
REMARK SMILES CCCCCCCCCCCCCC[C@H](C)C(=O)[O-]
REMARK SMILES IDX 9 1 10 2 11 3 12 4 13 5 14 6 15 7 16 8 17 9 18 10 19 11 8 12
REMARK SMILES IDX 7 13 6 14 5 15 4 16 3 17 2 18 1 19
REMARK H PARENT
REMARK Flexibility Score: inf
ROOT
ATOM      1  C   UNL     1      21.200  -1.541  20.387  1.00  0.00     0.000 C 
ENDROOT
BRANCH   1   2
ATOM      2  C   UNL     1      21.430  -0.191  21.086  1.00  0.00     0.000 C 
BRANCH   2   3
ATOM      3  C   UNL     1      20.171   0.691  21.097  1.00  0.00     0.000 C 
BRANCH   3   4
ATOM      4  C   UNL     1      19.133   0.230  22.132  1.00  0.00     0.000 C 
BRANCH   4   5
ATOM      5  C   UNL     1      17.747   0.086  21.491  1.00  0.00     0.001 C 
BRANCH   5   6
ATOM      6  C   UNL     1      17.784   0.472  20.003  1.00  0.00     0.009 C 
BRANCH   6   7
ATOM      7  C   UNL     1      17.431  -0.715  19.085  1.00  0.00     0.032 C 
ATOM      8  C   UNL     1      18.450  -0.838  17.948  1.00  0.00     0.014 C 
BRANCH   7   9
ATOM      9  C   UNL     1      16.047  -0.571  18.512  1.00  0.00     0.044 C 
ATOM     10  O   UNL     1      15.785   0.374  17.722  1.00  0.00    -0.550 OA
ATOM     11  O   UNL     1      15.048  -1.476  18.851  1.00  0.00    -0.550 OA
ENDBRANCH   7   9
ENDBRANCH   6   7
ENDBRANCH   5   6
ENDBRANCH   4   5
ENDBRANCH   3   4
ENDBRANCH   2   3
ENDBRANCH   1   2
BRANCH   1  12
ATOM     12  C   UNL     1      21.499  -2.747  21.296  1.00  0.00     0.000 C 
BRANCH  12  13
ATOM     13  C   UNL     1      20.271  -3.370  21.983  1.00  0.00    -0.000 C 
BRANCH  13  14
ATOM     14  C   UNL     1      19.008  -3.327  21.110  1.00  0.00    -0.000 C 
BRANCH  14  15
ATOM     15  C   UNL     1      18.744  -4.690  20.457  1.00  0.00    -0.000 C 
BRANCH  15  16
ATOM     16  C   UNL     1      18.170  -4.522  19.045  1.00  0.00    -0.000 C 
BRANCH  16  17
ATOM     17  C   UNL     1      19.288  -4.304  18.019  1.00  0.00    -0.000 C 
BRANCH  17  18
ATOM     18  C   UNL     1      20.571  -5.028  18.442  1.00  0.00    -0.003 C 
ATOM     19  C   UNL     1      21.761  -4.576  17.602  1.00  0.00     0.004 C 
ENDBRANCH  17  18
ENDBRANCH  16  17
ENDBRANCH  15  16
ENDBRANCH  14  15
ENDBRANCH  13  14
ENDBRANCH  12  13
ENDBRANCH   1  12
TORSDOF 14
ENDMDL
