MODEL 1
REMARK VINA RESULT:    -4.251      0.000      0.000
REMARK INTER + INTRA:          -6.031
REMARK INTER:                  -5.741
REMARK INTRA:                  -0.289
REMARK UNBOUND:                -0.289
REMARK SMILES CCCCCCCC(=O)[O-]
REMARK SMILES IDX 5 1 6 2 7 3 8 4 9 5 10 6 4 7 3 8 2 9 1 10
REMARK H PARENT
REMARK Flexibility Score: inf
ROOT
ATOM      1  C   UNL     1      20.066  11.990  17.249  1.00  0.00     0.000 C 
ENDROOT
BRANCH   1   2
ATOM      2  C   UNL     1      19.398  12.716  16.072  1.00  0.00     0.006 C 
BRANCH   2   3
ATOM      3  C   UNL     1      18.864  11.740  15.015  1.00  0.00     0.053 C 
BRANCH   3   4
ATOM      4  C   UNL     1      17.659  12.285  14.312  1.00  0.00     0.041 C 
ATOM      5  O   UNL     1      16.504  11.939  14.676  1.00  0.00    -0.550 OA
ATOM      6  O   UNL     1      17.811  13.147  13.234  1.00  0.00    -0.550 OA
ENDBRANCH   3   4
ENDBRANCH   2   3
ENDBRANCH   1   2
BRANCH   1   7
ATOM      7  C   UNL     1      19.025  11.564  18.296  1.00  0.00     0.000 C 
BRANCH   7   8
ATOM      8  C   UNL     1      17.907  12.614  18.468  1.00  0.00    -0.000 C 
BRANCH   8   9
ATOM      9  C   UNL     1      16.563  12.014  18.914  1.00  0.00    -0.003 C 
ATOM     10  C   UNL     1      16.644  11.298  20.260  1.00  0.00     0.004 C 
ENDBRANCH   8   9
ENDBRANCH   7   8
ENDBRANCH   1   7
TORSDOF 6
ENDMDL
MODEL 2
REMARK VINA RESULT:    -4.179      2.213      4.539
REMARK INTER + INTRA:          -5.933
REMARK INTER:                  -5.668
REMARK INTRA:                  -0.265
REMARK UNBOUND:                -0.289
REMARK SMILES CCCCCCCC(=O)[O-]
REMARK SMILES IDX 5 1 6 2 7 3 8 4 9 5 10 6 4 7 3 8 2 9 1 10
REMARK H PARENT
REMARK Flexibility Score: inf
ROOT
ATOM      1  C   UNL     1      20.120  12.204  17.305  1.00  0.00     0.000 C 
ENDROOT
BRANCH   1   2
ATOM      2  C   UNL     1      18.977  11.588  18.126  1.00  0.00     0.006 C 
BRANCH   2   3
ATOM      3  C   UNL     1      17.982  12.645  18.623  1.00  0.00     0.053 C 
BRANCH   3   4
ATOM      4  C   UNL     1      16.720  12.023  19.136  1.00  0.00     0.041 C 
ATOM      5  O   UNL     1      16.704  11.459  20.261  1.00  0.00    -0.550 OA
ATOM      6  O   UNL     1      15.571  12.035  18.356  1.00  0.00    -0.550 OA
ENDBRANCH   3   4
ENDBRANCH   2   3
ENDBRANCH   1   2
BRANCH   1   7
ATOM      7  C   UNL     1      19.608  12.735  15.958  1.00  0.00     0.000 C 
BRANCH   7   8
ATOM      8  C   UNL     1      18.840  11.659  15.161  1.00  0.00    -0.000 C 
BRANCH   8   9
ATOM      9  C   UNL     1      17.657  12.217  14.354  1.00  0.00    -0.003 C 
ATOM     10  C   UNL     1      18.093  13.064  13.160  1.00  0.00     0.004 C 
ENDBRANCH   8   9
ENDBRANCH   7   8
ENDBRANCH   1   7
TORSDOF 6
ENDMDL
MODEL 3
REMARK VINA RESULT:    -3.795      1.274      1.809
REMARK INTER + INTRA:          -5.415
REMARK INTER:                  -5.028
REMARK INTRA:                  -0.387
REMARK UNBOUND:                -0.289
REMARK SMILES CCCCCCCC(=O)[O-]
REMARK SMILES IDX 5 1 6 2 7 3 8 4 9 5 10 6 4 7 3 8 2 9 1 10
REMARK H PARENT
REMARK Flexibility Score: inf
ROOT
ATOM      1  C   UNL     1      18.896  11.577  18.171  1.00  0.00     0.000 C 
ENDROOT
BRANCH   1   2
ATOM      2  C   UNL     1      19.437  11.520  16.735  1.00  0.00     0.006 C 
BRANCH   2   3
ATOM      3  C   UNL     1      19.093  12.783  15.934  1.00  0.00     0.053 C 
BRANCH   3   4
ATOM      4  C   UNL     1      18.460  12.451  14.617  1.00  0.00     0.041 C 
ATOM      5  O   UNL     1      17.435  11.721  14.573  1.00  0.00    -0.550 OA
ATOM      6  O   UNL     1      19.023  12.918  13.436  1.00  0.00    -0.550 OA
ENDBRANCH   3   4
ENDBRANCH   2   3
ENDBRANCH   1   2
BRANCH   1   7
ATOM      7  C   UNL     1      17.834  12.678  18.318  1.00  0.00     0.000 C 
BRANCH   7   8
ATOM      8  C   UNL     1      16.421  12.099  18.543  1.00  0.00    -0.000 C 
BRANCH   8   9
ATOM      9  C   UNL     1      15.496  12.239  17.323  1.00  0.00    -0.003 C 
ATOM     10  C   UNL     1      14.014  12.231  17.691  1.00  0.00     0.004 C 
ENDBRANCH   8   9
ENDBRANCH   7   8
ENDBRANCH   1   7
TORSDOF 6
ENDMDL
MODEL 4
REMARK VINA RESULT:    -3.561      1.961      4.303
REMARK INTER + INTRA:          -5.099
REMARK INTER:                  -4.815
REMARK INTRA:                  -0.284
REMARK UNBOUND:                -0.289
REMARK SMILES CCCCCCCC(=O)[O-]
REMARK SMILES IDX 5 1 6 2 7 3 8 4 9 5 10 6 4 7 3 8 2 9 1 10
REMARK H PARENT
REMARK Flexibility Score: inf
ROOT
ATOM      1  C   UNL     1      18.010  12.579  18.538  1.00  0.00     0.000 C 
ENDROOT
BRANCH   1   2
ATOM      2  C   UNL     1      16.691  11.793  18.539  1.00  0.00     0.006 C 
BRANCH   2   3
ATOM      3  C   UNL     1      15.465  12.715  18.474  1.00  0.00     0.053 C 
BRANCH   3   4
ATOM      4  C   UNL     1      14.457  12.229  17.479  1.00  0.00     0.041 C 
ATOM      5  O   UNL     1      14.818  11.908  16.316  1.00  0.00    -0.550 OA
ATOM      6  O   UNL     1      13.113  12.164  17.824  1.00  0.00    -0.550 OA
ENDBRANCH   3   4
ENDBRANCH   2   3
ENDBRANCH   1   2
BRANCH   1   7
ATOM      7  C   UNL     1      19.041  11.925  17.605  1.00  0.00     0.000 C 
BRANCH   7   8
ATOM      8  C   UNL     1      19.187  12.687  16.271  1.00  0.00    -0.000 C 
BRANCH   8   9
ATOM      9  C   UNL     1      18.115  12.321  15.232  1.00  0.00    -0.003 C 
ATOM     10  C   UNL     1      18.573  12.549  13.793  1.00  0.00     0.004 C 
ENDBRANCH   8   9
ENDBRANCH   7   8
ENDBRANCH   1   7
TORSDOF 6
ENDMDL
MODEL 5
REMARK VINA RESULT:    -3.460      1.890      3.056
REMARK INTER + INTRA:          -4.963
REMARK INTER:                  -4.639
REMARK INTRA:                  -0.323
REMARK UNBOUND:                -0.289
REMARK SMILES CCCCCCCC(=O)[O-]
REMARK SMILES IDX 5 1 6 2 7 3 8 4 9 5 10 6 4 7 3 8 2 9 1 10
REMARK H PARENT
REMARK Flexibility Score: inf
ROOT
ATOM      1  C   UNL     1      18.632  12.326  14.773  1.00  0.00     0.000 C 
ENDROOT
BRANCH   1   2
ATOM      2  C   UNL     1      17.142  11.981  14.640  1.00  0.00     0.006 C 
BRANCH   2   3
ATOM      3  C   UNL     1      16.431  11.942  15.999  1.00  0.00     0.053 C 
BRANCH   3   4
ATOM      4  C   UNL     1      14.942  11.873  15.846  1.00  0.00     0.041 C 
ATOM      5  O   UNL     1      14.192  12.138  16.822  1.00  0.00    -0.550 OA
ATOM      6  O   UNL     1      14.384  11.482  14.635  1.00  0.00    -0.550 OA
ENDBRANCH   3   4
ENDBRANCH   2   3
ENDBRANCH   1   2
BRANCH   1   7
ATOM      7  C   UNL     1      18.908  13.084  16.080  1.00  0.00     0.000 C 
BRANCH   7   8
ATOM      8  C   UNL     1      20.157  12.549  16.812  1.00  0.00    -0.000 C 
BRANCH   8   9
ATOM      9  C   UNL     1      19.854  11.401  17.789  1.00  0.00    -0.003 C 
ATOM     10  C   UNL     1      18.599  11.642  18.625  1.00  0.00     0.004 C 
ENDBRANCH   8   9
ENDBRANCH   7   8
ENDBRANCH   1   7
TORSDOF 6
ENDMDL
MODEL 6
REMARK VINA RESULT:    -3.423      8.026      8.894
REMARK INTER + INTRA:          -4.913
REMARK INTER:                  -4.473
REMARK INTRA:                  -0.440
REMARK UNBOUND:                -0.289
REMARK SMILES CCCCCCCC(=O)[O-]
REMARK SMILES IDX 5 1 6 2 7 3 8 4 9 5 10 6 4 7 3 8 2 9 1 10
REMARK H PARENT
REMARK Flexibility Score: inf
ROOT
ATOM      1  C   UNL     1      12.547  14.468  10.232  1.00  0.00     0.000 C 
ENDROOT
BRANCH   1   2
ATOM      2  C   UNL     1      12.825  13.278  11.164  1.00  0.00     0.006 C 
BRANCH   2   3
ATOM      3  C   UNL     1      12.685  11.931  10.443  1.00  0.00     0.053 C 
BRANCH   3   4
ATOM      4  C   UNL     1      12.325  10.828  11.391  1.00  0.00     0.041 C 
ATOM      5  O   UNL     1      11.765   9.785  10.965  1.00  0.00    -0.550 OA
ATOM      6  O   UNL     1      12.578  10.968  12.750  1.00  0.00    -0.550 OA
ENDBRANCH   3   4
ENDBRANCH   2   3
ENDBRANCH   1   2
BRANCH   1   7
ATOM      7  C   UNL     1      11.141  15.038  10.470  1.00  0.00     0.000 C 
BRANCH   7   8
ATOM      8  C   UNL     1      10.833  15.224  11.971  1.00  0.00    -0.000 C 
BRANCH   8   9
ATOM      9  C   UNL     1       9.489  14.614  12.404  1.00  0.00    -0.003 C 
ATOM     10  C   UNL     1       9.625  13.197  12.956  1.00  0.00     0.004 C 
ENDBRANCH   8   9
ENDBRANCH   7   8
ENDBRANCH   1   7
TORSDOF 6
ENDMDL
MODEL 7
REMARK VINA RESULT:    -3.326      7.610      8.908
REMARK INTER + INTRA:          -4.781
REMARK INTER:                  -4.236
REMARK INTRA:                  -0.545
REMARK UNBOUND:                -0.289
REMARK SMILES CCCCCCCC(=O)[O-]
REMARK SMILES IDX 5 1 6 2 7 3 8 4 9 5 10 6 4 7 3 8 2 9 1 10
REMARK H PARENT
REMARK Flexibility Score: inf
ROOT
ATOM      1  C   UNL     1      13.116  13.501  11.369  1.00  0.00     0.000 C 
ENDROOT
BRANCH   1   2
ATOM      2  C   UNL     1      12.663  12.040  11.231  1.00  0.00     0.006 C 
BRANCH   2   3
ATOM      3  C   UNL     1      12.485  11.355  12.593  1.00  0.00     0.053 C 
BRANCH   3   4
ATOM      4  C   UNL     1      11.059  11.385  13.049  1.00  0.00     0.041 C 
ATOM      5  O   UNL     1      10.125  11.235  12.217  1.00  0.00    -0.550 OA
ATOM      6  O   UNL     1      10.759  11.614  14.385  1.00  0.00    -0.550 OA
ENDBRANCH   3   4
ENDBRANCH   2   3
ENDBRANCH   1   2
BRANCH   1   7
ATOM      7  C   UNL     1      12.570  14.359  10.218  1.00  0.00     0.000 C 
BRANCH   7   8
ATOM      8  C   UNL     1      11.117  14.814  10.470  1.00  0.00    -0.000 C 
BRANCH   8   9
ATOM      9  C   UNL     1      10.831  15.181  11.936  1.00  0.00    -0.003 C 
ATOM     10  C   UNL     1       9.465  14.698  12.418  1.00  0.00     0.004 C 
ENDBRANCH   8   9
ENDBRANCH   7   8
ENDBRANCH   1   7
TORSDOF 6
ENDMDL
MODEL 8
REMARK VINA RESULT:    -3.320      7.587      8.873
REMARK INTER + INTRA:          -4.774
REMARK INTER:                  -4.245
REMARK INTRA:                  -0.529
REMARK UNBOUND:                -0.289
REMARK SMILES CCCCCCCC(=O)[O-]
REMARK SMILES IDX 5 1 6 2 7 3 8 4 9 5 10 6 4 7 3 8 2 9 1 10
REMARK H PARENT
REMARK Flexibility Score: inf
ROOT
ATOM      1  C   UNL     1      11.816  11.631   9.962  1.00  0.00     0.000 C 
ENDROOT
BRANCH   1   2
ATOM      2  C   UNL     1      12.119  10.332  10.724  1.00  0.00     0.006 C 
BRANCH   2   3
ATOM      3  C   UNL     1      11.266  10.190  11.992  1.00  0.00     0.053 C 
BRANCH   3   4
ATOM      4  C   UNL     1      11.710  11.131  13.069  1.00  0.00     0.041 C 
ATOM      5  O   UNL     1      10.880  11.907  13.614  1.00  0.00    -0.550 OA
ATOM      6  O   UNL     1      13.045  11.177  13.447  1.00  0.00    -0.550 OA
ENDBRANCH   3   4
ENDBRANCH   2   3
ENDBRANCH   1   2
BRANCH   1   7
ATOM      7  C   UNL     1      13.072  12.508   9.845  1.00  0.00     0.000 C 
BRANCH   7   8
ATOM      8  C   UNL     1      13.012  13.739  10.773  1.00  0.00    -0.000 C 
BRANCH   8   9
ATOM      9  C   UNL     1      11.831  14.678  10.475  1.00  0.00    -0.003 C 
ATOM     10  C   UNL     1      10.971  14.968  11.704  1.00  0.00     0.004 C 
ENDBRANCH   8   9
ENDBRANCH   7   8
ENDBRANCH   1   7
TORSDOF 6
ENDMDL
MODEL 9
REMARK VINA RESULT:    -3.290      7.727      9.557
REMARK INTER + INTRA:          -4.733
REMARK INTER:                  -4.220
REMARK INTRA:                  -0.513
REMARK UNBOUND:                -0.289
REMARK SMILES CCCCCCCC(=O)[O-]
REMARK SMILES IDX 5 1 6 2 7 3 8 4 9 5 10 6 4 7 3 8 2 9 1 10
REMARK H PARENT
REMARK Flexibility Score: inf
ROOT
ATOM      1  C   UNL     1      11.950  12.706   8.427  1.00  0.00     0.000 C 
ENDROOT
BRANCH   1   2
ATOM      2  C   UNL     1      12.912  12.090   9.453  1.00  0.00     0.006 C 
BRANCH   2   3
ATOM      3  C   UNL     1      12.213  11.081  10.373  1.00  0.00     0.053 C 
BRANCH   3   4
ATOM      4  C   UNL     1      12.509  11.348  11.817  1.00  0.00     0.041 C 
ATOM      5  O   UNL     1      13.031  12.439  12.165  1.00  0.00    -0.550 OA
ATOM      6  O   UNL     1      12.240  10.378  12.774  1.00  0.00    -0.550 OA
ENDBRANCH   3   4
ENDBRANCH   2   3
ENDBRANCH   1   2
BRANCH   1   7
ATOM      7  C   UNL     1      10.707  13.290   9.117  1.00  0.00     0.000 C 
BRANCH   7   8
ATOM      8  C   UNL     1      10.774  14.827   9.237  1.00  0.00    -0.000 C 
BRANCH   8   9
ATOM      9  C   UNL     1      11.454  15.316  10.526  1.00  0.00    -0.003 C 
ATOM     10  C   UNL     1      10.674  14.955  11.788  1.00  0.00     0.004 C 
ENDBRANCH   8   9
ENDBRANCH   7   8
ENDBRANCH   1   7
TORSDOF 6
ENDMDL
