MODEL 1
REMARK VINA RESULT:    -3.444      0.000      0.000
REMARK INTER + INTRA:          -7.934
REMARK INTER:                  -6.062
REMARK INTRA:                  -1.872
REMARK UNBOUND:                -1.872
REMARK SMILES CCCCCCCCCCCCCCC(=O)[O-]
REMARK SMILES IDX 9 1 10 2 11 3 12 4 13 5 14 6 15 7 16 8 17 9 8 10 7 11 6 12
REMARK SMILES IDX 5 13 4 14 3 15 2 16 1 17
REMARK H PARENT
REMARK Flexibility Score: inf
ROOT
ATOM      1  C   UNL     1     119.435  52.335  52.487  1.00  0.00     0.000 C 
ENDROOT
BRANCH   1   2
ATOM      2  C   UNL     1     119.186  52.463  54.000  1.00  0.00     0.000 C 
BRANCH   2   3
ATOM      3  C   UNL     1     118.966  53.899  54.509  1.00  0.00     0.000 C 
BRANCH   3   4
ATOM      4  C   UNL     1     119.529  54.127  55.922  1.00  0.00     0.000 C 
BRANCH   4   5
ATOM      5  C   UNL     1     120.910  53.478  56.125  1.00  0.00     0.006 C 
BRANCH   5   6
ATOM      6  C   UNL     1     122.096  54.371  55.725  1.00  0.00     0.053 C 
BRANCH   6   7
ATOM      7  C   UNL     1     122.696  53.957  54.416  1.00  0.00     0.041 C 
ATOM      8  O   UNL     1     123.188  54.821  53.644  1.00  0.00    -0.550 OA
ATOM      9  O   UNL     1     122.739  52.614  54.064  1.00  0.00    -0.550 OA
ENDBRANCH   6   7
ENDBRANCH   5   6
ENDBRANCH   4   5
ENDBRANCH   3   4
ENDBRANCH   2   3
ENDBRANCH   1   2
BRANCH   1  10
ATOM     10  C   UNL     1     119.307  50.891  51.978  1.00  0.00     0.000 C 
BRANCH  10  11
ATOM     11  C   UNL     1     117.961  50.279  52.393  1.00  0.00    -0.000 C 
BRANCH  11  12
ATOM     12  C   UNL     1     116.839  50.542  51.373  1.00  0.00    -0.000 C 
BRANCH  12  13
ATOM     13  C   UNL     1     115.524  51.078  51.969  1.00  0.00    -0.000 C 
BRANCH  13  14
ATOM     14  C   UNL     1     115.739  51.904  53.249  1.00  0.00    -0.000 C 
BRANCH  14  15
ATOM     15  C   UNL     1     115.470  53.402  53.036  1.00  0.00    -0.000 C 
BRANCH  15  16
ATOM     16  C   UNL     1     115.556  53.815  51.559  1.00  0.00    -0.003 C 
ATOM     17  C   UNL     1     116.874  54.525  51.263  1.00  0.00     0.004 C 
ENDBRANCH  15  16
ENDBRANCH  14  15
ENDBRANCH  13  14
ENDBRANCH  12  13
ENDBRANCH  11  12
ENDBRANCH  10  11
ENDBRANCH   1  10
TORSDOF 13
ENDMDL
MODEL 2
REMARK VINA RESULT:    -3.417      1.613      2.523
REMARK INTER + INTRA:          -7.886
REMARK INTER:                  -6.572
REMARK INTRA:                  -1.314
REMARK UNBOUND:                -1.872
REMARK SMILES CCCCCCCCCCCCCCC(=O)[O-]
REMARK SMILES IDX 9 1 10 2 11 3 12 4 13 5 14 6 15 7 16 8 17 9 8 10 7 11 6 12
REMARK SMILES IDX 5 13 4 14 3 15 2 16 1 17
REMARK H PARENT
REMARK Flexibility Score: inf
ROOT
ATOM      1  C   UNL     1     118.995  53.897  54.628  1.00  0.00     0.000 C 
ENDROOT
BRANCH   1   2
ATOM      2  C   UNL     1     119.852  54.065  55.896  1.00  0.00     0.000 C 
BRANCH   2   3
ATOM      3  C   UNL     1     121.201  53.324  55.879  1.00  0.00     0.000 C 
BRANCH   3   4
ATOM      4  C   UNL     1     122.342  54.170  55.290  1.00  0.00     0.000 C 
BRANCH   4   5
ATOM      5  C   UNL     1     122.797  53.675  53.905  1.00  0.00     0.006 C 
BRANCH   5   6
ATOM      6  C   UNL     1     123.768  54.620  53.179  1.00  0.00     0.053 C 
BRANCH   6   7
ATOM      7  C   UNL     1     124.857  53.873  52.470  1.00  0.00     0.041 C 
ATOM      8  O   UNL     1     125.879  54.483  52.060  1.00  0.00    -0.550 OA
ATOM      9  O   UNL     1     124.755  52.499  52.292  1.00  0.00    -0.550 OA
ENDBRANCH   6   7
ENDBRANCH   5   6
ENDBRANCH   4   5
ENDBRANCH   3   4
ENDBRANCH   2   3
ENDBRANCH   1   2
BRANCH   1  10
ATOM     10  C   UNL     1     119.293  52.595  53.871  1.00  0.00     0.000 C 
BRANCH  10  11
ATOM     11  C   UNL     1     118.120  51.610  53.990  1.00  0.00    -0.000 C 
BRANCH  11  12
ATOM     12  C   UNL     1     116.834  52.266  54.524  1.00  0.00    -0.000 C 
BRANCH  12  13
ATOM     13  C   UNL     1     115.607  52.148  53.602  1.00  0.00    -0.000 C 
BRANCH  13  14
ATOM     14  C   UNL     1     115.284  53.457  52.862  1.00  0.00    -0.000 C 
BRANCH  14  15
ATOM     15  C   UNL     1     115.491  53.342  51.343  1.00  0.00    -0.000 C 
BRANCH  15  16
ATOM     16  C   UNL     1     116.208  54.564  50.750  1.00  0.00    -0.003 C 
ATOM     17  C   UNL     1     117.640  54.665  51.268  1.00  0.00     0.004 C 
ENDBRANCH  15  16
ENDBRANCH  14  15
ENDBRANCH  13  14
ENDBRANCH  12  13
ENDBRANCH  11  12
ENDBRANCH  10  11
ENDBRANCH   1  10
TORSDOF 13
ENDMDL
MODEL 3
REMARK VINA RESULT:    -3.411      3.824      6.425
REMARK INTER + INTRA:          -7.876
REMARK INTER:                  -5.638
REMARK INTRA:                  -2.238
REMARK UNBOUND:                -1.872
REMARK SMILES CCCCCCCCCCCCCCC(=O)[O-]
REMARK SMILES IDX 9 1 10 2 11 3 12 4 13 5 14 6 15 7 16 8 17 9 8 10 7 11 6 12
REMARK SMILES IDX 5 13 4 14 3 15 2 16 1 17
REMARK H PARENT
REMARK Flexibility Score: inf
ROOT
ATOM      1  C   UNL     1     115.896  53.791  52.288  1.00  0.00     0.000 C 
ENDROOT
BRANCH   1   2
ATOM      2  C   UNL     1     115.845  53.412  50.797  1.00  0.00     0.000 C 
BRANCH   2   3
ATOM      3  C   UNL     1     117.034  52.572  50.293  1.00  0.00     0.000 C 
BRANCH   3   4
ATOM      4  C   UNL     1     116.622  51.162  49.838  1.00  0.00     0.000 C 
BRANCH   4   5
ATOM      5  C   UNL     1     116.656  50.134  50.984  1.00  0.00     0.006 C 
BRANCH   5   6
ATOM      6  C   UNL     1     115.288  49.527  51.335  1.00  0.00     0.053 C 
BRANCH   6   7
ATOM      7  C   UNL     1     115.236  48.056  51.056  1.00  0.00     0.041 C 
ATOM      8  O   UNL     1     116.069  47.280  51.594  1.00  0.00    -0.550 OA
ATOM      9  O   UNL     1     114.248  47.539  50.227  1.00  0.00    -0.550 OA
ENDBRANCH   6   7
ENDBRANCH   5   6
ENDBRANCH   4   5
ENDBRANCH   3   4
ENDBRANCH   2   3
ENDBRANCH   1   2
BRANCH   1  10
ATOM     10  C   UNL     1     115.091  52.832  53.179  1.00  0.00     0.000 C 
BRANCH  10  11
ATOM     11  C   UNL     1     116.020  52.041  54.113  1.00  0.00    -0.000 C 
BRANCH  11  12
ATOM     12  C   UNL     1     117.392  52.710  54.306  1.00  0.00    -0.000 C 
BRANCH  12  13
ATOM     13  C   UNL     1     118.584  51.946  53.701  1.00  0.00    -0.000 C 
BRANCH  13  14
ATOM     14  C   UNL     1     119.816  52.840  53.473  1.00  0.00    -0.000 C 
BRANCH  14  15
ATOM     15  C   UNL     1     119.453  54.331  53.382  1.00  0.00    -0.000 C 
BRANCH  15  16
ATOM     16  C   UNL     1     119.473  54.858  51.939  1.00  0.00    -0.003 C 
ATOM     17  C   UNL     1     118.622  56.117  51.803  1.00  0.00     0.004 C 
ENDBRANCH  15  16
ENDBRANCH  14  15
ENDBRANCH  13  14
ENDBRANCH  12  13
ENDBRANCH  11  12
ENDBRANCH  10  11
ENDBRANCH   1  10
TORSDOF 13
ENDMDL
MODEL 4
REMARK VINA RESULT:    -3.400      3.077      6.595
REMARK INTER + INTRA:          -7.856
REMARK INTER:                  -6.561
REMARK INTRA:                  -1.294
REMARK UNBOUND:                -1.872
REMARK SMILES CCCCCCCCCCCCCCC(=O)[O-]
REMARK SMILES IDX 9 1 10 2 11 3 12 4 13 5 14 6 15 7 16 8 17 9 8 10 7 11 6 12
REMARK SMILES IDX 5 13 4 14 3 15 2 16 1 17
REMARK H PARENT
REMARK Flexibility Score: inf
ROOT
ATOM      1  C   UNL     1     118.779  53.859  54.721  1.00  0.00     0.000 C 
ENDROOT
BRANCH   1   2
ATOM      2  C   UNL     1     118.954  52.503  54.014  1.00  0.00     0.000 C 
BRANCH   2   3
ATOM      3  C   UNL     1     117.656  51.701  53.806  1.00  0.00     0.000 C 
BRANCH   3   4
ATOM      4  C   UNL     1     116.465  52.272  54.593  1.00  0.00     0.000 C 
BRANCH   4   5
ATOM      5  C   UNL     1     115.405  52.919  53.683  1.00  0.00     0.006 C 
BRANCH   5   6
ATOM      6  C   UNL     1     115.531  52.547  52.197  1.00  0.00     0.053 C 
BRANCH   6   7
ATOM      7  C   UNL     1     115.777  53.747  51.335  1.00  0.00     0.041 C 
ATOM      8  O   UNL     1     114.932  54.085  50.465  1.00  0.00    -0.550 OA
ATOM      9  O   UNL     1     116.924  54.510  51.515  1.00  0.00    -0.550 OA
ENDBRANCH   6   7
ENDBRANCH   5   6
ENDBRANCH   4   5
ENDBRANCH   3   4
ENDBRANCH   2   3
ENDBRANCH   1   2
BRANCH   1  10
ATOM     10  C   UNL     1     119.744  54.051  55.900  1.00  0.00     0.000 C 
BRANCH  10  11
ATOM     11  C   UNL     1     120.973  53.139  55.758  1.00  0.00    -0.000 C 
BRANCH  11  12
ATOM     12  C   UNL     1     122.296  53.921  55.680  1.00  0.00    -0.000 C 
BRANCH  12  13
ATOM     13  C   UNL     1     123.042  53.813  54.337  1.00  0.00    -0.000 C 
BRANCH  13  14
ATOM     14  C   UNL     1     122.148  54.136  53.127  1.00  0.00    -0.000 C 
BRANCH  14  15
ATOM     15  C   UNL     1     122.842  55.057  52.111  1.00  0.00    -0.000 C 
BRANCH  15  16
ATOM     16  C   UNL     1     123.824  56.035  52.773  1.00  0.00    -0.003 C 
ATOM     17  C   UNL     1     125.193  55.978  52.099  1.00  0.00     0.004 C 
ENDBRANCH  15  16
ENDBRANCH  14  15
ENDBRANCH  13  14
ENDBRANCH  12  13
ENDBRANCH  11  12
ENDBRANCH  10  11
ENDBRANCH   1  10
TORSDOF 13
ENDMDL
MODEL 5
REMARK VINA RESULT:    -3.350     10.042     11.948
REMARK INTER + INTRA:          -7.768
REMARK INTER:                  -5.555
REMARK INTRA:                  -2.213
REMARK UNBOUND:                -1.872
REMARK SMILES CCCCCCCCCCCCCCC(=O)[O-]
REMARK SMILES IDX 9 1 10 2 11 3 12 4 13 5 14 6 15 7 16 8 17 9 8 10 7 11 6 12
REMARK SMILES IDX 5 13 4 14 3 15 2 16 1 17
REMARK H PARENT
REMARK Flexibility Score: inf
ROOT
ATOM      1  C   UNL     1     125.642  52.427  44.939  1.00  0.00     0.000 C 
ENDROOT
BRANCH   1   2
ATOM      2  C   UNL     1     124.124  52.399  45.190  1.00  0.00     0.000 C 
BRANCH   2   3
ATOM      3  C   UNL     1     123.256  52.191  43.935  1.00  0.00     0.000 C 
BRANCH   3   4
ATOM      4  C   UNL     1     124.087  51.938  42.666  1.00  0.00     0.000 C 
BRANCH   4   5
ATOM      5  C   UNL     1     124.097  50.457  42.246  1.00  0.00     0.006 C 
BRANCH   5   6
ATOM      6  C   UNL     1     123.141  49.561  43.052  1.00  0.00     0.053 C 
BRANCH   6   7
ATOM      7  C   UNL     1     123.877  48.556  43.883  1.00  0.00     0.041 C 
ATOM      8  O   UNL     1     124.975  48.861  44.419  1.00  0.00    -0.550 OA
ATOM      9  O   UNL     1     123.335  47.295  44.093  1.00  0.00    -0.550 OA
ENDBRANCH   6   7
ENDBRANCH   5   6
ENDBRANCH   4   5
ENDBRANCH   3   4
ENDBRANCH   2   3
ENDBRANCH   1   2
BRANCH   1  10
ATOM     10  C   UNL     1     126.225  53.848  44.939  1.00  0.00     0.000 C 
BRANCH  10  11
ATOM     11  C   UNL     1     126.759  54.223  43.547  1.00  0.00    -0.000 C 
BRANCH  11  12
ATOM     12  C   UNL     1     125.912  55.302  42.849  1.00  0.00    -0.000 C 
BRANCH  12  13
ATOM     13  C   UNL     1     125.099  56.208  43.792  1.00  0.00    -0.000 C 
BRANCH  13  14
ATOM     14  C   UNL     1     123.589  55.914  43.751  1.00  0.00    -0.000 C 
BRANCH  14  15
ATOM     15  C   UNL     1     122.953  55.902  45.150  1.00  0.00    -0.000 C 
BRANCH  15  16
ATOM     16  C   UNL     1     123.855  56.541  46.216  1.00  0.00    -0.003 C 
ATOM     17  C   UNL     1     124.069  55.595  47.394  1.00  0.00     0.004 C 
ENDBRANCH  15  16
ENDBRANCH  14  15
ENDBRANCH  13  14
ENDBRANCH  12  13
ENDBRANCH  11  12
ENDBRANCH  10  11
ENDBRANCH   1  10
TORSDOF 13
ENDMDL
MODEL 6
REMARK VINA RESULT:    -3.345      8.494     10.290
REMARK INTER + INTRA:          -7.759
REMARK INTER:                  -6.182
REMARK INTRA:                  -1.577
REMARK UNBOUND:                -1.872
REMARK SMILES CCCCCCCCCCCCCCC(=O)[O-]
REMARK SMILES IDX 9 1 10 2 11 3 12 4 13 5 14 6 15 7 16 8 17 9 8 10 7 11 6 12
REMARK SMILES IDX 5 13 4 14 3 15 2 16 1 17
REMARK H PARENT
REMARK Flexibility Score: inf
ROOT
ATOM      1  C   UNL     1     124.604  56.871  45.594  1.00  0.00     0.000 C 
ENDROOT
BRANCH   1   2
ATOM      2  C   UNL     1     124.322  55.804  46.666  1.00  0.00     0.000 C 
BRANCH   2   3
ATOM      3  C   UNL     1     125.366  55.716  47.794  1.00  0.00     0.000 C 
BRANCH   3   4
ATOM      4  C   UNL     1     124.974  54.720  48.897  1.00  0.00     0.000 C 
BRANCH   4   5
ATOM      5  C   UNL     1     123.792  55.213  49.752  1.00  0.00     0.006 C 
BRANCH   5   6
ATOM      6  C   UNL     1     124.149  56.327  50.749  1.00  0.00     0.053 C 
BRANCH   6   7
ATOM      7  C   UNL     1     123.126  57.420  50.762  1.00  0.00     0.041 C 
ATOM      8  O   UNL     1     122.059  57.296  50.106  1.00  0.00    -0.550 OA
ATOM      9  O   UNL     1     123.337  58.562  51.525  1.00  0.00    -0.550 OA
ENDBRANCH   6   7
ENDBRANCH   5   6
ENDBRANCH   4   5
ENDBRANCH   3   4
ENDBRANCH   2   3
ENDBRANCH   1   2
BRANCH   1  10
ATOM     10  C   UNL     1     123.664  56.769  44.383  1.00  0.00     0.000 C 
BRANCH  10  11
ATOM     11  C   UNL     1     124.193  55.751  43.361  1.00  0.00    -0.000 C 
BRANCH  11  12
ATOM     12  C   UNL     1     125.723  55.795  43.205  1.00  0.00    -0.000 C 
BRANCH  12  13
ATOM     13  C   UNL     1     126.433  54.434  43.326  1.00  0.00    -0.000 C 
BRANCH  13  14
ATOM     14  C   UNL     1     125.464  53.242  43.241  1.00  0.00    -0.000 C 
BRANCH  14  15
ATOM     15  C   UNL     1     125.257  52.552  44.599  1.00  0.00    -0.000 C 
BRANCH  15  16
ATOM     16  C   UNL     1     126.398  52.836  45.587  1.00  0.00    -0.003 C 
ATOM     17  C   UNL     1     126.278  51.962  46.831  1.00  0.00     0.004 C 
ENDBRANCH  15  16
ENDBRANCH  14  15
ENDBRANCH  13  14
ENDBRANCH  12  13
ENDBRANCH  11  12
ENDBRANCH  10  11
ENDBRANCH   1  10
TORSDOF 13
ENDMDL
MODEL 7
REMARK VINA RESULT:    -3.333      1.316      2.535
REMARK INTER + INTRA:          -7.737
REMARK INTER:                  -6.307
REMARK INTRA:                  -1.430
REMARK UNBOUND:                -1.872
REMARK SMILES CCCCCCCCCCCCCCC(=O)[O-]
REMARK SMILES IDX 9 1 10 2 11 3 12 4 13 5 14 6 15 7 16 8 17 9 8 10 7 11 6 12
REMARK SMILES IDX 5 13 4 14 3 15 2 16 1 17
REMARK H PARENT
REMARK Flexibility Score: inf
ROOT
ATOM      1  C   UNL     1     117.682  51.968  53.731  1.00  0.00     0.000 C 
ENDROOT
BRANCH   1   2
ATOM      2  C   UNL     1     118.951  52.709  54.188  1.00  0.00     0.000 C 
BRANCH   2   3
ATOM      3  C   UNL     1     118.712  53.884  55.155  1.00  0.00     0.000 C 
BRANCH   3   4
ATOM      4  C   UNL     1     119.883  54.109  56.125  1.00  0.00     0.000 C 
BRANCH   4   5
ATOM      5  C   UNL     1     120.986  53.045  55.984  1.00  0.00     0.006 C 
BRANCH   5   6
ATOM      6  C   UNL     1     122.385  53.613  55.692  1.00  0.00     0.053 C 
BRANCH   6   7
ATOM      7  C   UNL     1     122.741  53.512  54.240  1.00  0.00     0.041 C 
ATOM      8  O   UNL     1     123.576  52.653  53.852  1.00  0.00    -0.550 OA
ATOM      9  O   UNL     1     122.128  54.346  53.313  1.00  0.00    -0.550 OA
ENDBRANCH   6   7
ENDBRANCH   5   6
ENDBRANCH   4   5
ENDBRANCH   3   4
ENDBRANCH   2   3
ENDBRANCH   1   2
BRANCH   1  10
ATOM     10  C   UNL     1     116.428  52.385  54.513  1.00  0.00     0.000 C 
BRANCH  10  11
ATOM     11  C   UNL     1     115.288  52.773  53.558  1.00  0.00    -0.000 C 
BRANCH  11  12
ATOM     12  C   UNL     1     115.614  52.478  52.083  1.00  0.00    -0.000 C 
BRANCH  12  13
ATOM     13  C   UNL     1     115.525  53.691  51.138  1.00  0.00    -0.000 C 
BRANCH  13  14
ATOM     14  C   UNL     1     116.879  54.063  50.510  1.00  0.00    -0.000 C 
BRANCH  14  15
ATOM     15  C   UNL     1     116.995  55.565  50.204  1.00  0.00    -0.000 C 
BRANCH  15  16
ATOM     16  C   UNL     1     118.374  56.137  50.564  1.00  0.00    -0.003 C 
ATOM     17  C   UNL     1     118.649  56.008  52.059  1.00  0.00     0.004 C 
ENDBRANCH  15  16
ENDBRANCH  14  15
ENDBRANCH  13  14
ENDBRANCH  12  13
ENDBRANCH  11  12
ENDBRANCH  10  11
ENDBRANCH   1  10
TORSDOF 13
ENDMDL
MODEL 8
REMARK VINA RESULT:    -3.331      9.960     12.006
REMARK INTER + INTRA:          -7.735
REMARK INTER:                  -5.688
REMARK INTRA:                  -2.047
REMARK UNBOUND:                -1.872
REMARK SMILES CCCCCCCCCCCCCCC(=O)[O-]
REMARK SMILES IDX 9 1 10 2 11 3 12 4 13 5 14 6 15 7 16 8 17 9 8 10 7 11 6 12
REMARK SMILES IDX 5 13 4 14 3 15 2 16 1 17
REMARK H PARENT
REMARK Flexibility Score: inf
ROOT
ATOM      1  C   UNL     1     126.409  54.239  43.491  1.00  0.00     0.000 C 
ENDROOT
BRANCH   1   2
ATOM      2  C   UNL     1     125.635  52.924  43.291  1.00  0.00     0.000 C 
BRANCH   2   3
ATOM      3  C   UNL     1     124.104  53.040  43.407  1.00  0.00     0.000 C 
BRANCH   3   4
ATOM      4  C   UNL     1     123.358  52.035  42.513  1.00  0.00     0.000 C 
BRANCH   4   5
ATOM      5  C   UNL     1     124.219  50.813  42.146  1.00  0.00     0.006 C 
BRANCH   5   6
ATOM      6  C   UNL     1     123.719  49.483  42.733  1.00  0.00     0.053 C 
BRANCH   6   7
ATOM      7  C   UNL     1     124.083  49.335  44.179  1.00  0.00     0.041 C 
ATOM      8  O   UNL     1     125.193  48.837  44.504  1.00  0.00    -0.550 OA
ATOM      9  O   UNL     1     123.209  49.775  45.166  1.00  0.00    -0.550 OA
ENDBRANCH   6   7
ENDBRANCH   5   6
ENDBRANCH   4   5
ENDBRANCH   3   4
ENDBRANCH   2   3
ENDBRANCH   1   2
BRANCH   1  10
ATOM     10  C   UNL     1     125.747  55.438  42.796  1.00  0.00     0.000 C 
BRANCH  10  11
ATOM     11  C   UNL     1     125.398  56.538  43.811  1.00  0.00    -0.000 C 
BRANCH  11  12
ATOM     12  C   UNL     1     123.888  56.639  44.093  1.00  0.00    -0.000 C 
BRANCH  12  13
ATOM     13  C   UNL     1     123.484  56.453  45.567  1.00  0.00    -0.000 C 
BRANCH  13  14
ATOM     14  C   UNL     1     124.605  55.838  46.423  1.00  0.00    -0.000 C 
BRANCH  14  15
ATOM     15  C   UNL     1     124.312  54.382  46.820  1.00  0.00    -0.000 C 
BRANCH  15  16
ATOM     16  C   UNL     1     125.590  53.566  47.059  1.00  0.00    -0.003 C 
ATOM     17  C   UNL     1     125.332  52.073  46.873  1.00  0.00     0.004 C 
ENDBRANCH  15  16
ENDBRANCH  14  15
ENDBRANCH  13  14
ENDBRANCH  12  13
ENDBRANCH  11  12
ENDBRANCH  10  11
ENDBRANCH   1  10
TORSDOF 13
ENDMDL
MODEL 9
REMARK VINA RESULT:    -3.308      7.899      9.601
REMARK INTER + INTRA:          -7.694
REMARK INTER:                  -6.460
REMARK INTRA:                  -1.234
REMARK UNBOUND:                -1.872
REMARK SMILES CCCCCCCCCCCCCCC(=O)[O-]
REMARK SMILES IDX 9 1 10 2 11 3 12 4 13 5 14 6 15 7 16 8 17 9 8 10 7 11 6 12
REMARK SMILES IDX 5 13 4 14 3 15 2 16 1 17
REMARK H PARENT
REMARK Flexibility Score: inf
ROOT
ATOM      1  C   UNL     1     125.375  55.742  47.895  1.00  0.00     0.000 C 
ENDROOT
BRANCH   1   2
ATOM      2  C   UNL     1     124.404  55.672  49.086  1.00  0.00     0.000 C 
BRANCH   2   3
ATOM      3  C   UNL     1     124.322  54.302  49.786  1.00  0.00     0.000 C 
BRANCH   3   4
ATOM      4  C   UNL     1     124.337  54.410  51.319  1.00  0.00     0.000 C 
BRANCH   4   5
ATOM      5  C   UNL     1     123.459  55.562  51.843  1.00  0.00     0.006 C 
BRANCH   5   6
ATOM      6  C   UNL     1     124.219  56.619  52.662  1.00  0.00     0.053 C 
BRANCH   6   7
ATOM      7  C   UNL     1     124.262  57.945  51.967  1.00  0.00     0.041 C 
ATOM      8  O   UNL     1     123.240  58.383  51.377  1.00  0.00    -0.550 OA
ATOM      9  O   UNL     1     125.421  58.711  51.999  1.00  0.00    -0.550 OA
ENDBRANCH   6   7
ENDBRANCH   5   6
ENDBRANCH   4   5
ENDBRANCH   3   4
ENDBRANCH   2   3
ENDBRANCH   1   2
BRANCH   1  10
ATOM     10  C   UNL     1     124.994  54.789  46.752  1.00  0.00     0.000 C 
BRANCH  10  11
ATOM     11  C   UNL     1     123.700  55.248  46.063  1.00  0.00    -0.000 C 
BRANCH  11  12
ATOM     12  C   UNL     1     123.755  56.712  45.593  1.00  0.00    -0.000 C 
BRANCH  12  13
ATOM     13  C   UNL     1     124.680  56.979  44.391  1.00  0.00    -0.000 C 
BRANCH  13  14
ATOM     14  C   UNL     1     124.681  55.829  43.369  1.00  0.00    -0.000 C 
BRANCH  14  15
ATOM     15  C   UNL     1     126.101  55.420  42.944  1.00  0.00    -0.000 C 
BRANCH  15  16
ATOM     16  C   UNL     1     126.480  54.012  43.427  1.00  0.00    -0.003 C 
ATOM     17  C   UNL     1     125.317  53.039  43.249  1.00  0.00     0.004 C 
ENDBRANCH  15  16
ENDBRANCH  14  15
ENDBRANCH  13  14
ENDBRANCH  12  13
ENDBRANCH  11  12
ENDBRANCH  10  11
ENDBRANCH   1  10
TORSDOF 13
ENDMDL
