MODEL 1
REMARK VINA RESULT:    -4.442      0.000      0.000
REMARK INTER + INTRA:          -6.915
REMARK INTER:                  -6.259
REMARK INTRA:                  -0.655
REMARK UNBOUND:                -0.655
REMARK SMILES CCCCCCCCC(=O)[O-]
REMARK SMILES IDX 6 1 7 2 8 3 9 4 10 5 11 6 5 7 4 8 3 9 2 10 1 11
REMARK H PARENT
REMARK Flexibility Score: inf
ROOT
ATOM      1  C   UNL     1      90.512  75.322  69.959  1.00  0.00     0.000 C 
ENDROOT
BRANCH   1   2
ATOM      2  C   UNL     1      90.820  73.912  70.476  1.00  0.00     0.006 C 
BRANCH   2   3
ATOM      3  C   UNL     1      89.544  73.212  70.956  1.00  0.00     0.053 C 
BRANCH   3   4
ATOM      4  C   UNL     1      89.258  73.565  72.381  1.00  0.00     0.041 C 
ATOM      5  O   UNL     1      90.205  73.799  73.179  1.00  0.00    -0.550 OA
ATOM      6  O   UNL     1      87.948  73.586  72.843  1.00  0.00    -0.550 OA
ENDBRANCH   3   4
ENDBRANCH   2   3
ENDBRANCH   1   2
BRANCH   1   7
ATOM      7  C   UNL     1      89.374  75.295  68.929  1.00  0.00     0.000 C 
BRANCH   7   8
ATOM      8  C   UNL     1      88.340  76.413  69.149  1.00  0.00    -0.000 C 
BRANCH   8   9
ATOM      9  C   UNL     1      87.506  76.239  70.436  1.00  0.00    -0.000 C 
BRANCH   9  10
ATOM     10  C   UNL     1      87.871  77.277  71.508  1.00  0.00    -0.003 C 
ATOM     11  C   UNL     1      87.121  77.013  72.810  1.00  0.00     0.004 C 
ENDBRANCH   9  10
ENDBRANCH   8   9
ENDBRANCH   7   8
ENDBRANCH   1   7
TORSDOF 7
ENDMDL
MODEL 2
REMARK VINA RESULT:    -4.382      1.782      3.462
REMARK INTER + INTRA:          -6.831
REMARK INTER:                  -6.197
REMARK INTRA:                  -0.634
REMARK UNBOUND:                -0.655
REMARK SMILES CCCCCCCCC(=O)[O-]
REMARK SMILES IDX 6 1 7 2 8 3 9 4 10 5 11 6 5 7 4 8 3 9 2 10 1 11
REMARK H PARENT
REMARK Flexibility Score: inf
ROOT
ATOM      1  C   UNL     1      87.446  76.267  70.451  1.00  0.00     0.000 C 
ENDROOT
BRANCH   1   2
ATOM      2  C   UNL     1      88.422  76.237  69.268  1.00  0.00     0.006 C 
BRANCH   2   3
ATOM      3  C   UNL     1      89.202  74.920  69.233  1.00  0.00     0.053 C 
BRANCH   3   4
ATOM      4  C   UNL     1      90.503  75.062  69.958  1.00  0.00     0.041 C 
ATOM      5  O   UNL     1      91.055  74.053  70.473  1.00  0.00    -0.550 OA
ATOM      6  O   UNL     1      91.082  76.315  70.110  1.00  0.00    -0.550 OA
ENDBRANCH   3   4
ENDBRANCH   2   3
ENDBRANCH   1   2
BRANCH   1   7
ATOM      7  C   UNL     1      87.895  77.281  71.510  1.00  0.00     0.000 C 
BRANCH   7   8
ATOM      8  C   UNL     1      87.182  77.093  72.860  1.00  0.00    -0.000 C 
BRANCH   8   9
ATOM      9  C   UNL     1      86.592  75.680  73.056  1.00  0.00    -0.000 C 
BRANCH   9  10
ATOM     10  C   UNL     1      87.486  74.795  73.937  1.00  0.00    -0.003 C 
ATOM     11  C   UNL     1      88.326  73.843  73.089  1.00  0.00     0.004 C 
ENDBRANCH   9  10
ENDBRANCH   8   9
ENDBRANCH   7   8
ENDBRANCH   1   7
TORSDOF 7
ENDMDL
MODEL 3
REMARK VINA RESULT:    -4.351      1.362      3.411
REMARK INTER + INTRA:          -6.786
REMARK INTER:                  -6.029
REMARK INTRA:                  -0.757
REMARK UNBOUND:                -0.655
REMARK SMILES CCCCCCCCC(=O)[O-]
REMARK SMILES IDX 6 1 7 2 8 3 9 4 10 5 11 6 5 7 4 8 3 9 2 10 1 11
REMARK H PARENT
REMARK Flexibility Score: inf
ROOT
ATOM      1  C   UNL     1      86.362  75.922  72.932  1.00  0.00     0.000 C 
ENDROOT
BRANCH   1   2
ATOM      2  C   UNL     1      87.005  74.909  73.886  1.00  0.00     0.006 C 
BRANCH   2   3
ATOM      3  C   UNL     1      87.752  73.820  73.109  1.00  0.00     0.053 C 
BRANCH   3   4
ATOM      4  C   UNL     1      89.230  74.037  73.191  1.00  0.00     0.041 C 
ATOM      5  O   UNL     1      90.016  73.311  72.526  1.00  0.00    -0.550 OA
ATOM      6  O   UNL     1      89.744  75.009  74.041  1.00  0.00    -0.550 OA
ENDBRANCH   3   4
ENDBRANCH   2   3
ENDBRANCH   1   2
BRANCH   1   7
ATOM      7  C   UNL     1      87.193  77.209  72.853  1.00  0.00     0.000 C 
BRANCH   7   8
ATOM      8  C   UNL     1      88.043  77.295  71.574  1.00  0.00    -0.000 C 
BRANCH   8   9
ATOM      9  C   UNL     1      87.511  76.423  70.417  1.00  0.00    -0.000 C 
BRANCH   9  10
ATOM     10  C   UNL     1      88.591  76.132  69.366  1.00  0.00    -0.003 C 
ATOM     11  C   UNL     1      88.973  74.654  69.362  1.00  0.00     0.004 C 
ENDBRANCH   9  10
ENDBRANCH   8   9
ENDBRANCH   7   8
ENDBRANCH   1   7
TORSDOF 7
ENDMDL
MODEL 4
REMARK VINA RESULT:    -4.298      2.067      3.496
REMARK INTER + INTRA:          -6.713
REMARK INTER:                  -5.947
REMARK INTRA:                  -0.765
REMARK UNBOUND:                -0.655
REMARK SMILES CCCCCCCCC(=O)[O-]
REMARK SMILES IDX 6 1 7 2 8 3 9 4 10 5 11 6 5 7 4 8 3 9 2 10 1 11
REMARK H PARENT
REMARK Flexibility Score: inf
ROOT
ATOM      1  C   UNL     1      89.032  73.852  69.526  1.00  0.00     0.000 C 
ENDROOT
BRANCH   1   2
ATOM      2  C   UNL     1      89.102  75.271  68.949  1.00  0.00     0.006 C 
BRANCH   2   3
ATOM      3  C   UNL     1      88.042  76.175  69.585  1.00  0.00     0.053 C 
BRANCH   3   4
ATOM      4  C   UNL     1      88.620  76.920  70.748  1.00  0.00     0.041 C 
ATOM      5  O   UNL     1      87.862  77.522  71.554  1.00  0.00    -0.550 OA
ATOM      6  O   UNL     1      89.997  76.992  70.913  1.00  0.00    -0.550 OA
ENDBRANCH   3   4
ENDBRANCH   2   3
ENDBRANCH   1   2
BRANCH   1   7
ATOM      7  C   UNL     1      90.302  73.518  70.320  1.00  0.00     0.000 C 
BRANCH   7   8
ATOM      8  C   UNL     1      90.100  73.620  71.842  1.00  0.00    -0.000 C 
BRANCH   8   9
ATOM      9  C   UNL     1      88.617  73.644  72.269  1.00  0.00    -0.000 C 
BRANCH   9  10
ATOM     10  C   UNL     1      88.410  74.374  73.604  1.00  0.00    -0.003 C 
ATOM     11  C   UNL     1      86.974  74.872  73.744  1.00  0.00     0.004 C 
ENDBRANCH   9  10
ENDBRANCH   8   9
ENDBRANCH   7   8
ENDBRANCH   1   7
TORSDOF 7
ENDMDL
MODEL 5
REMARK VINA RESULT:    -4.256      2.028      3.437
REMARK INTER + INTRA:          -6.653
REMARK INTER:                  -5.922
REMARK INTRA:                  -0.731
REMARK UNBOUND:                -0.655
REMARK SMILES CCCCCCCCC(=O)[O-]
REMARK SMILES IDX 6 1 7 2 8 3 9 4 10 5 11 6 5 7 4 8 3 9 2 10 1 11
REMARK H PARENT
REMARK Flexibility Score: inf
ROOT
ATOM      1  C   UNL     1      89.734  73.688  72.479  1.00  0.00     0.000 C 
ENDROOT
BRANCH   1   2
ATOM      2  C   UNL     1      88.317  74.237  72.682  1.00  0.00     0.006 C 
BRANCH   2   3
ATOM      3  C   UNL     1      88.351  75.614  73.351  1.00  0.00     0.053 C 
BRANCH   3   4
ATOM      4  C   UNL     1      87.182  76.439  72.912  1.00  0.00     0.041 C 
ATOM      5  O   UNL     1      87.300  77.686  72.782  1.00  0.00    -0.550 OA
ATOM      6  O   UNL     1      85.949  75.838  72.695  1.00  0.00    -0.550 OA
ENDBRANCH   3   4
ENDBRANCH   2   3
ENDBRANCH   1   2
BRANCH   1   7
ATOM      7  C   UNL     1      89.984  73.336  71.007  1.00  0.00     0.000 C 
BRANCH   7   8
ATOM      8  C   UNL     1      88.999  74.031  70.050  1.00  0.00    -0.000 C 
BRANCH   8   9
ATOM      9  C   UNL     1      89.652  75.124  69.177  1.00  0.00    -0.000 C 
BRANCH   9  10
ATOM     10  C   UNL     1      89.592  76.508  69.840  1.00  0.00    -0.003 C 
ATOM     11  C   UNL     1      90.979  76.973  70.273  1.00  0.00     0.004 C 
ENDBRANCH   9  10
ENDBRANCH   8   9
ENDBRANCH   7   8
ENDBRANCH   1   7
TORSDOF 7
ENDMDL
MODEL 6
REMARK VINA RESULT:    -4.109      1.585      2.472
REMARK INTER + INTRA:          -6.446
REMARK INTER:                  -5.745
REMARK INTRA:                  -0.701
REMARK UNBOUND:                -0.655
REMARK SMILES CCCCCCCCC(=O)[O-]
REMARK SMILES IDX 6 1 7 2 8 3 9 4 10 5 11 6 5 7 4 8 3 9 2 10 1 11
REMARK H PARENT
REMARK Flexibility Score: inf
ROOT
ATOM      1  C   UNL     1      90.197  74.115  71.474  1.00  0.00     0.000 C 
ENDROOT
BRANCH   1   2
ATOM      2  C   UNL     1      88.964  73.560  72.196  1.00  0.00     0.006 C 
BRANCH   2   3
ATOM      3  C   UNL     1      88.660  74.367  73.462  1.00  0.00     0.053 C 
BRANCH   3   4
ATOM      4  C   UNL     1      87.210  74.261  73.815  1.00  0.00     0.041 C 
ATOM      5  O   UNL     1      86.709  73.143  74.109  1.00  0.00    -0.550 OA
ATOM      6  O   UNL     1      86.400  75.388  73.773  1.00  0.00    -0.550 OA
ENDBRANCH   3   4
ENDBRANCH   2   3
ENDBRANCH   1   2
BRANCH   1   7
ATOM      7  C   UNL     1      90.210  73.689  70.000  1.00  0.00     0.000 C 
BRANCH   7   8
ATOM      8  C   UNL     1      88.972  74.175  69.225  1.00  0.00    -0.000 C 
BRANCH   8   9
ATOM      9  C   UNL     1      88.883  75.711  69.104  1.00  0.00    -0.000 C 
BRANCH   9  10
ATOM     10  C   UNL     1      87.612  76.272  69.759  1.00  0.00    -0.003 C 
ATOM     11  C   UNL     1      87.939  77.016  71.051  1.00  0.00     0.004 C 
ENDBRANCH   9  10
ENDBRANCH   8   9
ENDBRANCH   7   8
ENDBRANCH   1   7
TORSDOF 7
ENDMDL
MODEL 7
REMARK VINA RESULT:    -4.002      2.375      3.639
REMARK INTER + INTRA:          -6.294
REMARK INTER:                  -5.711
REMARK INTRA:                  -0.583
REMARK UNBOUND:                -0.655
REMARK SMILES CCCCCCCCC(=O)[O-]
REMARK SMILES IDX 6 1 7 2 8 3 9 4 10 5 11 6 5 7 4 8 3 9 2 10 1 11
REMARK H PARENT
REMARK Flexibility Score: inf
ROOT
ATOM      1  C   UNL     1      90.075  73.632  72.381  1.00  0.00     0.000 C 
ENDROOT
BRANCH   1   2
ATOM      2  C   UNL     1      89.462  74.242  71.115  1.00  0.00     0.006 C 
BRANCH   2   3
ATOM      3  C   UNL     1      90.554  74.686  70.136  1.00  0.00     0.053 C 
BRANCH   3   4
ATOM      4  C   UNL     1      90.399  76.136  69.800  1.00  0.00     0.041 C 
ATOM      5  O   UNL     1      89.427  76.524  69.098  1.00  0.00    -0.550 OA
ATOM      6  O   UNL     1      91.353  77.053  70.221  1.00  0.00    -0.550 OA
ENDBRANCH   3   4
ENDBRANCH   2   3
ENDBRANCH   1   2
BRANCH   1   7
ATOM      7  C   UNL     1      89.224  73.957  73.615  1.00  0.00     0.000 C 
BRANCH   7   8
ATOM      8  C   UNL     1      88.774  75.428  73.662  1.00  0.00    -0.000 C 
BRANCH   8   9
ATOM      9  C   UNL     1      87.241  75.607  73.654  1.00  0.00    -0.000 C 
BRANCH   9  10
ATOM     10  C   UNL     1      86.810  76.883  72.917  1.00  0.00    -0.003 C 
ATOM     11  C   UNL     1      88.007  77.585  72.283  1.00  0.00     0.004 C 
ENDBRANCH   9  10
ENDBRANCH   8   9
ENDBRANCH   7   8
ENDBRANCH   1   7
TORSDOF 7
ENDMDL
MODEL 8
REMARK VINA RESULT:    -3.999      2.054      3.485
REMARK INTER + INTRA:          -6.291
REMARK INTER:                  -5.685
REMARK INTRA:                  -0.606
REMARK UNBOUND:                -0.655
REMARK SMILES CCCCCCCCC(=O)[O-]
REMARK SMILES IDX 6 1 7 2 8 3 9 4 10 5 11 6 5 7 4 8 3 9 2 10 1 11
REMARK H PARENT
REMARK Flexibility Score: inf
ROOT
ATOM      1  C   UNL     1      89.202  75.008  72.595  1.00  0.00     0.000 C 
ENDROOT
BRANCH   1   2
ATOM      2  C   UNL     1      88.214  73.864  72.848  1.00  0.00     0.006 C 
BRANCH   2   3
ATOM      3  C   UNL     1      86.935  74.379  73.515  1.00  0.00     0.053 C 
BRANCH   3   4
ATOM      4  C   UNL     1      86.577  73.526  74.691  1.00  0.00     0.041 C 
ATOM      5  O   UNL     1      85.370  73.364  75.013  1.00  0.00    -0.550 OA
ATOM      6  O   UNL     1      87.578  72.948  75.462  1.00  0.00    -0.550 OA
ENDBRANCH   3   4
ENDBRANCH   2   3
ENDBRANCH   1   2
BRANCH   1   7
ATOM      7  C   UNL     1      88.480  76.362  72.560  1.00  0.00     0.000 C 
BRANCH   7   8
ATOM      8  C   UNL     1      88.466  76.996  71.158  1.00  0.00    -0.000 C 
BRANCH   8   9
ATOM      9  C   UNL     1      87.531  76.277  70.163  1.00  0.00    -0.000 C 
BRANCH   9  10
ATOM     10  C   UNL     1      88.305  75.632  69.004  1.00  0.00    -0.003 C 
ATOM     11  C   UNL     1      89.797  75.939  69.097  1.00  0.00     0.004 C 
ENDBRANCH   9  10
ENDBRANCH   8   9
ENDBRANCH   7   8
ENDBRANCH   1   7
TORSDOF 7
ENDMDL
MODEL 9
REMARK VINA RESULT:    -3.953      2.445      4.016
REMARK INTER + INTRA:          -6.226
REMARK INTER:                  -5.777
REMARK INTRA:                  -0.449
REMARK UNBOUND:                -0.655
REMARK SMILES CCCCCCCCC(=O)[O-]
REMARK SMILES IDX 6 1 7 2 8 3 9 4 10 5 11 6 5 7 4 8 3 9 2 10 1 11
REMARK H PARENT
REMARK Flexibility Score: inf
ROOT
ATOM      1  C   UNL     1      87.610  75.800  71.753  1.00  0.00     0.000 C 
ENDROOT
BRANCH   1   2
ATOM      2  C   UNL     1      88.173  76.618  70.585  1.00  0.00     0.006 C 
BRANCH   2   3
ATOM      3  C   UNL     1      88.210  75.786  69.299  1.00  0.00     0.053 C 
BRANCH   3   4
ATOM      4  C   UNL     1      89.205  74.675  69.423  1.00  0.00     0.041 C 
ATOM      5  O   UNL     1      90.420  74.933  69.633  1.00  0.00    -0.550 OA
ATOM      6  O   UNL     1      88.801  73.357  69.256  1.00  0.00    -0.550 OA
ENDBRANCH   3   4
ENDBRANCH   2   3
ENDBRANCH   1   2
BRANCH   1   7
ATOM      7  C   UNL     1      87.337  76.693  72.970  1.00  0.00     0.000 C 
BRANCH   7   8
ATOM      8  C   UNL     1      85.873  76.633  73.440  1.00  0.00    -0.000 C 
BRANCH   8   9
ATOM      9  C   UNL     1      85.237  75.234  73.305  1.00  0.00    -0.000 C 
BRANCH   9  10
ATOM     10  C   UNL     1      85.403  74.396  74.582  1.00  0.00    -0.003 C 
ATOM     11  C   UNL     1      86.359  73.228  74.355  1.00  0.00     0.004 C 
ENDBRANCH   9  10
ENDBRANCH   8   9
ENDBRANCH   7   8
ENDBRANCH   1   7
TORSDOF 7
ENDMDL
