MODEL 1
REMARK VINA RESULT:    -5.282      0.000      0.000
REMARK INTER + INTRA:          -5.282
REMARK INTER:                  -5.282
REMARK INTRA:                   0.000
REMARK UNBOUND:                 0.000
REMARK SMILES CC1=CC[C@@]2(C)CCCC(C)(C)[C@]23C[C@H]13
REMARK SMILES IDX 1 1 2 2 3 3 4 4 5 5 7 6 8 7 9 8 10 9 13 10 15 11 14 12 11 13
REMARK SMILES IDX 12 14 6 15
REMARK H PARENT
REMARK Flexibility Score: inf
ROOT
ATOM      1  C   UNL     1      12.767  20.003  26.573  1.00  0.00     0.039 C 
ATOM      2  C   UNL     1      11.757  19.634  25.522  1.00  0.00    -0.074 C 
ATOM      3  C   UNL     1      12.158  19.392  24.271  1.00  0.00    -0.027 C 
ATOM      4  C   UNL     1      11.186  18.904  23.248  1.00  0.00     0.034 C 
ATOM      5  C   UNL     1       9.823  19.668  23.228  1.00  0.00    -0.022 C 
ATOM      6  C   UNL     1       8.884  18.777  22.347  1.00  0.00     0.008 C 
ATOM      7  C   UNL     1       7.406  19.034  22.554  1.00  0.00     0.001 C 
ATOM      8  C   UNL     1       7.050  18.705  23.996  1.00  0.00     0.007 C 
ATOM      9  C   UNL     1       7.682  19.704  24.994  1.00  0.00    -0.029 C 
ATOM     10  C   UNL     1       9.243  19.891  24.707  1.00  0.00    -0.012 C 
ATOM     11  C   UNL     1      10.286  19.700  25.850  1.00  0.00     0.022 C 
ATOM     12  C   UNL     1       9.798  21.090  25.516  1.00  0.00     0.017 C 
ATOM     13  C   UNL     1       7.402  19.143  26.411  1.00  0.00     0.012 C 
ATOM     14  C   UNL     1       6.922  21.057  24.867  1.00  0.00     0.012 C 
ATOM     15  C   UNL     1      10.017  21.023  22.497  1.00  0.00     0.012 C 
ENDROOT
TORSDOF 0
ENDMDL
MODEL 2
REMARK VINA RESULT:    -5.139      1.338      2.939
REMARK INTER + INTRA:          -5.139
REMARK INTER:                  -5.139
REMARK INTRA:                   0.000
REMARK UNBOUND:                 0.000
REMARK SMILES CC1=CC[C@@]2(C)CCCC(C)(C)[C@]23C[C@H]13
REMARK SMILES IDX 1 1 2 2 3 3 4 4 5 5 7 6 8 7 9 8 10 9 13 10 15 11 14 12 11 13
REMARK SMILES IDX 12 14 6 15
REMARK H PARENT
REMARK Flexibility Score: inf
ROOT
ATOM      1  C   UNL     1      12.998  19.808  22.556  1.00  0.00     0.039 C 
ATOM      2  C   UNL     1      11.669  19.580  23.223  1.00  0.00    -0.074 C 
ATOM      3  C   UNL     1      10.551  19.575  22.492  1.00  0.00    -0.027 C 
ATOM      4  C   UNL     1       9.241  19.227  23.119  1.00  0.00     0.034 C 
ATOM      5  C   UNL     1       8.972  19.920  24.494  1.00  0.00    -0.022 C 
ATOM      6  C   UNL     1       7.744  19.153  25.088  1.00  0.00     0.008 C 
ATOM      7  C   UNL     1       7.581  19.303  26.587  1.00  0.00     0.001 C 
ATOM      8  C   UNL     1       8.806  18.714  27.273  1.00  0.00     0.007 C 
ATOM      9  C   UNL     1      10.079  19.554  27.012  1.00  0.00    -0.029 C 
ATOM     10  C   UNL     1      10.256  19.858  25.453  1.00  0.00    -0.012 C 
ATOM     11  C   UNL     1      11.594  19.521  24.728  1.00  0.00     0.022 C 
ATOM     12  C   UNL     1      11.359  20.925  25.237  1.00  0.00     0.017 C 
ATOM     13  C   UNL     1      11.264  18.745  27.597  1.00  0.00     0.012 C 
ATOM     14  C   UNL     1       9.962  20.873  27.832  1.00  0.00     0.012 C 
ATOM     15  C   UNL     1       8.538  21.389  24.239  1.00  0.00     0.012 C 
ENDROOT
TORSDOF 0
ENDMDL
MODEL 3
REMARK VINA RESULT:    -5.128     13.110     15.165
REMARK INTER + INTRA:          -5.128
REMARK INTER:                  -5.128
REMARK INTRA:                   0.000
REMARK UNBOUND:                 0.000
REMARK SMILES CC1=CC[C@@]2(C)CCCC(C)(C)[C@]23C[C@H]13
REMARK SMILES IDX 1 1 2 2 3 3 4 4 5 5 7 6 8 7 9 8 10 9 13 10 15 11 14 12 11 13
REMARK SMILES IDX 12 14 6 15
REMARK H PARENT
REMARK Flexibility Score: inf
ROOT
ATOM      1  C   UNL     1      11.533  12.897  36.750  1.00  0.00     0.039 C 
ATOM      2  C   UNL     1      11.918  14.052  37.632  1.00  0.00    -0.074 C 
ATOM      3  C   UNL     1      11.118  14.416  38.637  1.00  0.00    -0.027 C 
ATOM      4  C   UNL     1      11.546  15.478  39.596  1.00  0.00     0.034 C 
ATOM      5  C   UNL     1      12.168  16.747  38.928  1.00  0.00    -0.022 C 
ATOM      6  C   UNL     1      12.832  17.530  40.110  1.00  0.00     0.008 C 
ATOM      7  C   UNL     1      13.890  18.526  39.681  1.00  0.00     0.001 C 
ATOM      8  C   UNL     1      15.023  17.773  38.999  1.00  0.00     0.007 C 
ATOM      9  C   UNL     1      14.588  17.176  37.639  1.00  0.00    -0.029 C 
ATOM     10  C   UNL     1      13.220  16.361  37.781  1.00  0.00    -0.012 C 
ATOM     11  C   UNL     1      13.121  14.890  37.275  1.00  0.00     0.022 C 
ATOM     12  C   UNL     1      12.654  16.015  36.381  1.00  0.00     0.017 C 
ATOM     13  C   UNL     1      15.761  16.288  37.156  1.00  0.00     0.012 C 
ATOM     14  C   UNL     1      14.439  18.348  36.624  1.00  0.00     0.012 C 
ATOM     15  C   UNL     1      11.022  17.627  38.358  1.00  0.00     0.012 C 
ENDROOT
TORSDOF 0
ENDMDL
MODEL 4
REMARK VINA RESULT:    -4.828      1.064      4.635
REMARK INTER + INTRA:          -4.828
REMARK INTER:                  -4.828
REMARK INTRA:                   0.000
REMARK UNBOUND:                 0.000
REMARK SMILES CC1=CC[C@@]2(C)CCCC(C)(C)[C@]23C[C@H]13
REMARK SMILES IDX 1 1 2 2 3 3 4 4 5 5 7 6 8 7 9 8 10 9 13 10 15 11 14 12 11 13
REMARK SMILES IDX 12 14 6 15
REMARK H PARENT
REMARK Flexibility Score: inf
ROOT
ATOM      1  C   UNL     1       6.605  19.149  22.125  1.00  0.00     0.039 C 
ATOM      2  C   UNL     1       7.453  19.232  23.365  1.00  0.00    -0.074 C 
ATOM      3  C   UNL     1       6.871  19.365  24.560  1.00  0.00    -0.027 C 
ATOM      4  C   UNL     1       7.691  19.323  25.807  1.00  0.00     0.034 C 
ATOM      5  C   UNL     1       8.998  20.179  25.756  1.00  0.00    -0.022 C 
ATOM      6  C   UNL     1       9.825  19.709  27.000  1.00  0.00     0.008 C 
ATOM      7  C   UNL     1      11.305  20.025  26.920  1.00  0.00     0.001 C 
ATOM      8  C   UNL     1      11.898  19.287  25.728  1.00  0.00     0.007 C 
ATOM      9  C   UNL     1      11.386  19.850  24.381  1.00  0.00    -0.029 C 
ATOM     10  C   UNL     1       9.792  19.971  24.379  1.00  0.00    -0.012 C 
ATOM     11  C   UNL     1       8.952  19.328  23.234  1.00  0.00     0.022 C 
ATOM     12  C   UNL     1       9.319  20.792  23.152  1.00  0.00     0.017 C 
ATOM     13  C   UNL     1      11.911  18.896  23.280  1.00  0.00     0.012 C 
ATOM     14  C   UNL     1      12.055  21.239  24.155  1.00  0.00     0.012 C 
ATOM     15  C   UNL     1       8.629  21.672  25.967  1.00  0.00     0.012 C 
ENDROOT
TORSDOF 0
ENDMDL
MODEL 5
REMARK VINA RESULT:    -4.778      2.808      6.255
REMARK INTER + INTRA:          -4.778
REMARK INTER:                  -4.778
REMARK INTRA:                   0.000
REMARK UNBOUND:                 0.000
REMARK SMILES CC1=CC[C@@]2(C)CCCC(C)(C)[C@]23C[C@H]13
REMARK SMILES IDX 1 1 2 2 3 3 4 4 5 5 7 6 8 7 9 8 10 9 13 10 15 11 14 12 11 13
REMARK SMILES IDX 12 14 6 15
REMARK H PARENT
REMARK Flexibility Score: inf
ROOT
ATOM      1  C   UNL     1       1.896  19.647  21.446  1.00  0.00     0.039 C 
ATOM      2  C   UNL     1       3.010  20.015  22.387  1.00  0.00    -0.074 C 
ATOM      3  C   UNL     1       2.920  21.128  23.120  1.00  0.00    -0.027 C 
ATOM      4  C   UNL     1       3.958  21.441  24.147  1.00  0.00     0.034 C 
ATOM      5  C   UNL     1       5.431  21.242  23.666  1.00  0.00    -0.022 C 
ATOM      6  C   UNL     1       6.285  21.294  24.977  1.00  0.00     0.008 C 
ATOM      7  C   UNL     1       7.657  20.665  24.854  1.00  0.00     0.001 C 
ATOM      8  C   UNL     1       7.491  19.187  24.529  1.00  0.00     0.007 C 
ATOM      9  C   UNL     1       6.917  18.965  23.109  1.00  0.00    -0.029 C 
ATOM     10  C   UNL     1       5.616  19.863  22.869  1.00  0.00    -0.012 C 
ATOM     11  C   UNL     1       4.288  19.214  22.374  1.00  0.00     0.022 C 
ATOM     12  C   UNL     1       5.223  19.847  21.370  1.00  0.00     0.017 C 
ATOM     13  C   UNL     1       6.622  17.449  22.990  1.00  0.00     0.012 C 
ATOM     14  C   UNL     1       8.033  19.308  22.079  1.00  0.00     0.012 C 
ATOM     15  C   UNL     1       5.840  22.453  22.784  1.00  0.00     0.012 C 
ENDROOT
TORSDOF 0
ENDMDL
MODEL 6
REMARK VINA RESULT:    -4.764      2.638      5.169
REMARK INTER + INTRA:          -4.764
REMARK INTER:                  -4.764
REMARK INTRA:                   0.000
REMARK UNBOUND:                 0.000
REMARK SMILES CC1=CC[C@@]2(C)CCCC(C)(C)[C@]23C[C@H]13
REMARK SMILES IDX 1 1 2 2 3 3 4 4 5 5 7 6 8 7 9 8 10 9 13 10 15 11 14 12 11 13
REMARK SMILES IDX 12 14 6 15
REMARK H PARENT
REMARK Flexibility Score: inf
ROOT
ATOM      1  C   UNL     1       9.318  18.583  27.351  1.00  0.00     0.039 C 
ATOM      2  C   UNL     1      10.731  18.981  27.024  1.00  0.00    -0.074 C 
ATOM      3  C   UNL     1      11.581  19.284  28.009  1.00  0.00    -0.027 C 
ATOM      4  C   UNL     1      13.017  19.559  27.708  1.00  0.00     0.034 C 
ATOM      5  C   UNL     1      13.257  20.508  26.490  1.00  0.00    -0.022 C 
ATOM      6  C   UNL     1      14.784  20.365  26.173  1.00  0.00     0.008 C 
ATOM      7  C   UNL     1      15.174  20.797  24.775  1.00  0.00     0.001 C 
ATOM      8  C   UNL     1      14.460  19.905  23.770  1.00  0.00     0.007 C 
ATOM      9  C   UNL     1      12.932  20.150  23.757  1.00  0.00    -0.029 C 
ATOM     10  C   UNL     1      12.334  20.118  25.239  1.00  0.00    -0.012 C 
ATOM     11  C   UNL     1      11.128  19.191  25.584  1.00  0.00     0.022 C 
ATOM     12  C   UNL     1      10.875  20.640  25.239  1.00  0.00     0.017 C 
ATOM     13  C   UNL     1      12.321  19.057  22.846  1.00  0.00     0.012 C 
ATOM     14  C   UNL     1      12.671  21.527  23.077  1.00  0.00     0.012 C 
ATOM     15  C   UNL     1      13.000  21.973  26.936  1.00  0.00     0.012 C 
ENDROOT
TORSDOF 0
ENDMDL
MODEL 7
REMARK VINA RESULT:    -4.673      1.702      4.695
REMARK INTER + INTRA:          -4.673
REMARK INTER:                  -4.673
REMARK INTRA:                   0.000
REMARK UNBOUND:                 0.000
REMARK SMILES CC1=CC[C@@]2(C)CCCC(C)(C)[C@]23C[C@H]13
REMARK SMILES IDX 1 1 2 2 3 3 4 4 5 5 7 6 8 7 9 8 10 9 13 10 15 11 14 12 11 13
REMARK SMILES IDX 12 14 6 15
REMARK H PARENT
REMARK Flexibility Score: inf
ROOT
ATOM      1  C   UNL     1       7.376  18.505  27.080  1.00  0.00     0.039 C 
ATOM      2  C   UNL     1       8.488  19.336  26.501  1.00  0.00    -0.074 C 
ATOM      3  C   UNL     1       8.489  19.629  25.198  1.00  0.00    -0.027 C 
ATOM      4  C   UNL     1       9.516  20.555  24.634  1.00  0.00     0.034 C 
ATOM      5  C   UNL     1      10.977  20.279  25.116  1.00  0.00    -0.022 C 
ATOM      6  C   UNL     1      11.782  21.549  24.679  1.00  0.00     0.008 C 
ATOM      7  C   UNL     1      13.084  21.750  25.427  1.00  0.00     0.001 C 
ATOM      8  C   UNL     1      12.774  21.948  26.904  1.00  0.00     0.007 C 
ATOM      9  C   UNL     1      12.232  20.656  27.563  1.00  0.00    -0.029 C 
ATOM     10  C   UNL     1      11.044  20.027  26.698  1.00  0.00    -0.012 C 
ATOM     11  C   UNL     1       9.673  19.694  27.363  1.00  0.00     0.022 C 
ATOM     12  C   UNL     1      10.707  18.602  27.207  1.00  0.00     0.017 C 
ATOM     13  C   UNL     1      11.783  21.050  28.992  1.00  0.00     0.012 C 
ATOM     14  C   UNL     1      13.416  19.654  27.702  1.00  0.00     0.012 C 
ATOM     15  C   UNL     1      11.544  19.064  24.334  1.00  0.00     0.012 C 
ENDROOT
TORSDOF 0
ENDMDL
MODEL 8
REMARK VINA RESULT:    -4.619      1.638      5.118
REMARK INTER + INTRA:          -4.619
REMARK INTER:                  -4.619
REMARK INTRA:                   0.000
REMARK UNBOUND:                 0.000
REMARK SMILES CC1=CC[C@@]2(C)CCCC(C)(C)[C@]23C[C@H]13
REMARK SMILES IDX 1 1 2 2 3 3 4 4 5 5 7 6 8 7 9 8 10 9 13 10 15 11 14 12 11 13
REMARK SMILES IDX 12 14 6 15
REMARK H PARENT
REMARK Flexibility Score: inf
ROOT
ATOM      1  C   UNL     1       7.368  19.764  24.645  1.00  0.00     0.039 C 
ATOM      2  C   UNL     1       8.640  19.610  25.431  1.00  0.00    -0.074 C 
ATOM      3  C   UNL     1       8.600  19.109  26.669  1.00  0.00    -0.027 C 
ATOM      4  C   UNL     1       9.865  18.834  27.413  1.00  0.00     0.034 C 
ATOM      5  C   UNL     1      10.926  19.979  27.339  1.00  0.00    -0.022 C 
ATOM      6  C   UNL     1      12.244  19.330  27.881  1.00  0.00     0.008 C 
ATOM      7  C   UNL     1      13.510  20.060  27.478  1.00  0.00     0.001 C 
ATOM      8  C   UNL     1      13.629  20.030  25.961  1.00  0.00     0.007 C 
ATOM      9  C   UNL     1      12.542  20.890  25.274  1.00  0.00    -0.029 C 
ATOM     10  C   UNL     1      11.090  20.544  25.847  1.00  0.00    -0.012 C 
ATOM     11  C   UNL     1       9.926  20.171  24.879  1.00  0.00     0.022 C 
ATOM     12  C   UNL     1      10.059  21.595  25.365  1.00  0.00     0.017 C 
ATOM     13  C   UNL     1      12.662  20.616  23.755  1.00  0.00     0.012 C 
ATOM     14  C   UNL     1      12.894  22.389  25.509  1.00  0.00     0.012 C 
ATOM     15  C   UNL     1      10.514  21.110  28.320  1.00  0.00     0.012 C 
ENDROOT
TORSDOF 0
ENDMDL
MODEL 9
REMARK VINA RESULT:    -4.555      2.521      3.996
REMARK INTER + INTRA:          -4.555
REMARK INTER:                  -4.555
REMARK INTRA:                   0.000
REMARK UNBOUND:                 0.000
REMARK SMILES CC1=CC[C@@]2(C)CCCC(C)(C)[C@]23C[C@H]13
REMARK SMILES IDX 1 1 2 2 3 3 4 4 5 5 7 6 8 7 9 8 10 9 13 10 15 11 14 12 11 13
REMARK SMILES IDX 12 14 6 15
REMARK H PARENT
REMARK Flexibility Score: inf
ROOT
ATOM      1  C   UNL     1       6.995  22.369  27.609  1.00  0.00     0.039 C 
ATOM      2  C   UNL     1       6.888  21.336  26.521  1.00  0.00    -0.074 C 
ATOM      3  C   UNL     1       7.814  20.378  26.421  1.00  0.00    -0.027 C 
ATOM      4  C   UNL     1       7.655  19.275  25.426  1.00  0.00     0.034 C 
ATOM      5  C   UNL     1       7.219  19.742  24.000  1.00  0.00    -0.022 C 
ATOM      6  C   UNL     1       6.796  18.425  23.267  1.00  0.00     0.008 C 
ATOM      7  C   UNL     1       5.902  18.642  22.063  1.00  0.00     0.001 C 
ATOM      8  C   UNL     1       4.605  19.289  22.528  1.00  0.00     0.007 C 
ATOM      9  C   UNL     1       4.823  20.740  23.019  1.00  0.00    -0.029 C 
ATOM     10  C   UNL     1       6.031  20.817  24.063  1.00  0.00    -0.012 C 
ATOM     11  C   UNL     1       5.830  21.485  25.457  1.00  0.00     0.022 C 
ATOM     12  C   UNL     1       6.419  22.294  24.326  1.00  0.00     0.017 C 
ATOM     13  C   UNL     1       3.477  21.201  23.633  1.00  0.00     0.012 C 
ATOM     14  C   UNL     1       5.100  21.634  21.774  1.00  0.00     0.012 C 
ATOM     15  C   UNL     1       8.456  20.322  23.262  1.00  0.00     0.012 C 
ENDROOT
TORSDOF 0
ENDMDL
