MODEL 1
REMARK VINA RESULT:    -3.989      0.000      0.000
REMARK INTER + INTRA:          -6.272
REMARK INTER:                  -5.621
REMARK INTRA:                  -0.651
REMARK UNBOUND:                -0.651
REMARK SMILES CCCCCCCCC(=O)[O-]
REMARK SMILES IDX 6 1 7 2 8 3 9 4 10 5 11 6 5 7 4 8 3 9 2 10 1 11
REMARK H PARENT
REMARK Flexibility Score: inf
ROOT
ATOM      1  C   UNL     1      11.658   0.617   1.280  1.00  0.00     0.000 C 
ENDROOT
BRANCH   1   2
ATOM      2  C   UNL     1      10.754   0.289   2.479  1.00  0.00     0.006 C 
BRANCH   2   3
ATOM      3  C   UNL     1      11.487   0.536   3.801  1.00  0.00     0.053 C 
BRANCH   3   4
ATOM      4  C   UNL     1      12.624  -0.424   3.957  1.00  0.00     0.041 C 
ATOM      5  O   UNL     1      12.427  -1.663   3.842  1.00  0.00    -0.550 OA
ATOM      6  O   UNL     1      13.910   0.051   4.180  1.00  0.00    -0.550 OA
ENDBRANCH   3   4
ENDBRANCH   2   3
ENDBRANCH   1   2
BRANCH   1   7
ATOM      7  C   UNL     1      11.720  -0.525   0.252  1.00  0.00     0.000 C 
BRANCH   7   8
ATOM      8  C   UNL     1      13.100  -1.203   0.206  1.00  0.00    -0.000 C 
BRANCH   8   9
ATOM      9  C   UNL     1      14.234  -0.261   0.642  1.00  0.00    -0.000 C 
BRANCH   9  10
ATOM     10  C   UNL     1      15.445  -0.313  -0.301  1.00  0.00    -0.003 C 
ATOM     11  C   UNL     1      15.003  -0.457  -1.755  1.00  0.00     0.004 C 
ENDBRANCH   9  10
ENDBRANCH   8   9
ENDBRANCH   7   8
ENDBRANCH   1   7
TORSDOF 7
ENDMDL
MODEL 2
REMARK VINA RESULT:    -3.988      2.180      2.685
REMARK INTER + INTRA:          -6.271
REMARK INTER:                  -5.844
REMARK INTRA:                  -0.426
REMARK UNBOUND:                -0.651
REMARK SMILES CCCCCCCCC(=O)[O-]
REMARK SMILES IDX 6 1 7 2 8 3 9 4 10 5 11 6 5 7 4 8 3 9 2 10 1 11
REMARK H PARENT
REMARK Flexibility Score: inf
ROOT
ATOM      1  C   UNL     1      12.378   0.160   0.769  1.00  0.00     0.000 C 
ENDROOT
BRANCH   1   2
ATOM      2  C   UNL     1      10.914   0.573   0.981  1.00  0.00     0.006 C 
BRANCH   2   3
ATOM      3  C   UNL     1      10.408   0.115   2.353  1.00  0.00     0.053 C 
BRANCH   3   4
ATOM      4  C   UNL     1       9.507  -1.070   2.210  1.00  0.00     0.041 C 
ATOM      5  O   UNL     1       8.313  -1.008   2.606  1.00  0.00    -0.550 OA
ATOM      6  O   UNL     1       9.970  -2.227   1.596  1.00  0.00    -0.550 OA
ENDBRANCH   3   4
ENDBRANCH   2   3
ENDBRANCH   1   2
BRANCH   1   7
ATOM      7  C   UNL     1      13.175   0.098   2.083  1.00  0.00     0.000 C 
BRANCH   7   8
ATOM      8  C   UNL     1      14.640  -0.320   1.865  1.00  0.00    -0.000 C 
BRANCH   8   9
ATOM      9  C   UNL     1      14.833  -1.144   0.582  1.00  0.00    -0.000 C 
BRANCH   9  10
ATOM     10  C   UNL     1      15.760  -0.456  -0.431  1.00  0.00    -0.003 C 
ATOM     11  C   UNL     1      15.134  -0.436  -1.822  1.00  0.00     0.004 C 
ENDBRANCH   9  10
ENDBRANCH   8   9
ENDBRANCH   7   8
ENDBRANCH   1   7
TORSDOF 7
ENDMDL
MODEL 3
REMARK VINA RESULT:    -3.943      2.462      3.766
REMARK INTER + INTRA:          -6.207
REMARK INTER:                  -5.357
REMARK INTRA:                  -0.850
REMARK UNBOUND:                -0.651
REMARK SMILES CCCCCCCCC(=O)[O-]
REMARK SMILES IDX 6 1 7 2 8 3 9 4 10 5 11 6 5 7 4 8 3 9 2 10 1 11
REMARK H PARENT
REMARK Flexibility Score: inf
ROOT
ATOM      1  C   UNL     1      10.536  -0.092   3.148  1.00  0.00     0.000 C 
ENDROOT
BRANCH   1   2
ATOM      2  C   UNL     1      10.242   0.224   1.674  1.00  0.00     0.006 C 
BRANCH   2   3
ATOM      3  C   UNL     1      11.525   0.603   0.929  1.00  0.00     0.053 C 
BRANCH   3   4
ATOM      4  C   UNL     1      12.028  -0.557   0.129  1.00  0.00     0.041 C 
ATOM      5  O   UNL     1      13.054  -0.433  -0.591  1.00  0.00    -0.550 OA
ATOM      6  O   UNL     1      11.393  -1.790   0.215  1.00  0.00    -0.550 OA
ENDBRANCH   3   4
ENDBRANCH   2   3
ENDBRANCH   1   2
BRANCH   1   7
ATOM      7  C   UNL     1      11.773   0.650   3.681  1.00  0.00     0.000 C 
BRANCH   7   8
ATOM      8  C   UNL     1      12.826  -0.305   4.270  1.00  0.00    -0.000 C 
BRANCH   8   9
ATOM      9  C   UNL     1      12.699  -1.734   3.719  1.00  0.00    -0.000 C 
BRANCH   9  10
ATOM     10  C   UNL     1      13.935  -2.176   2.923  1.00  0.00    -0.003 C 
ATOM     11  C   UNL     1      14.809  -0.979   2.557  1.00  0.00     0.004 C 
ENDBRANCH   9  10
ENDBRANCH   8   9
ENDBRANCH   7   8
ENDBRANCH   1   7
TORSDOF 7
ENDMDL
MODEL 4
REMARK VINA RESULT:    -3.938      2.480      4.689
REMARK INTER + INTRA:          -6.201
REMARK INTER:                  -5.474
REMARK INTRA:                  -0.726
REMARK UNBOUND:                -0.651
REMARK SMILES CCCCCCCCC(=O)[O-]
REMARK SMILES IDX 6 1 7 2 8 3 9 4 10 5 11 6 5 7 4 8 3 9 2 10 1 11
REMARK H PARENT
REMARK Flexibility Score: inf
ROOT
ATOM      1  C   UNL     1      11.687  -1.000   0.246  1.00  0.00     0.000 C 
ENDROOT
BRANCH   1   2
ATOM      2  C   UNL     1      13.159  -1.418   0.380  1.00  0.00     0.006 C 
BRANCH   2   3
ATOM      3  C   UNL     1      14.077  -0.192   0.402  1.00  0.00     0.053 C 
BRANCH   3   4
ATOM      4  C   UNL     1      15.157  -0.328  -0.624  1.00  0.00     0.041 C 
ATOM      5  O   UNL     1      16.360  -0.443  -0.267  1.00  0.00    -0.550 OA
ATOM      6  O   UNL     1      14.833  -0.376  -1.974  1.00  0.00    -0.550 OA
ENDBRANCH   3   4
ENDBRANCH   2   3
ENDBRANCH   1   2
BRANCH   1   7
ATOM      7  C   UNL     1      11.421   0.418   0.778  1.00  0.00     0.000 C 
BRANCH   7   8
ATOM      8  C   UNL     1      10.210   0.474   1.726  1.00  0.00    -0.000 C 
BRANCH   8   9
ATOM      9  C   UNL     1      10.522  -0.102   3.117  1.00  0.00    -0.000 C 
BRANCH   9  10
ATOM     10  C   UNL     1      11.812   0.472   3.721  1.00  0.00    -0.003 C 
ATOM     11  C   UNL     1      12.707  -0.639   4.261  1.00  0.00     0.004 C 
ENDBRANCH   9  10
ENDBRANCH   8   9
ENDBRANCH   7   8
ENDBRANCH   1   7
TORSDOF 7
ENDMDL
MODEL 5
REMARK VINA RESULT:    -3.888      2.216      3.383
REMARK INTER + INTRA:          -6.131
REMARK INTER:                  -5.405
REMARK INTRA:                  -0.726
REMARK UNBOUND:                -0.651
REMARK SMILES CCCCCCCCC(=O)[O-]
REMARK SMILES IDX 6 1 7 2 8 3 9 4 10 5 11 6 5 7 4 8 3 9 2 10 1 11
REMARK H PARENT
REMARK Flexibility Score: inf
ROOT
ATOM      1  C   UNL     1      11.189   0.750   3.855  1.00  0.00     0.000 C 
ENDROOT
BRANCH   1   2
ATOM      2  C   UNL     1      10.694   0.326   2.464  1.00  0.00     0.006 C 
BRANCH   2   3
ATOM      3  C   UNL     1       9.359  -0.418   2.560  1.00  0.00     0.053 C 
BRANCH   3   4
ATOM      4  C   UNL     1       9.462  -1.765   1.918  1.00  0.00     0.041 C 
ATOM      5  O   UNL     1       8.470  -2.541   1.912  1.00  0.00    -0.550 OA
ATOM      6  O   UNL     1      10.637  -2.145   1.282  1.00  0.00    -0.550 OA
ENDBRANCH   3   4
ENDBRANCH   2   3
ENDBRANCH   1   2
BRANCH   1   7
ATOM      7  C   UNL     1      12.604   0.236   4.165  1.00  0.00     0.000 C 
BRANCH   7   8
ATOM      8  C   UNL     1      12.748  -1.278   3.930  1.00  0.00    -0.000 C 
BRANCH   8   9
ATOM      9  C   UNL     1      13.818  -1.612   2.879  1.00  0.00    -0.000 C 
BRANCH   9  10
ATOM     10  C   UNL     1      14.332  -0.369   2.138  1.00  0.00    -0.003 C 
ATOM     11  C   UNL     1      13.904  -0.386   0.674  1.00  0.00     0.004 C 
ENDBRANCH   9  10
ENDBRANCH   8   9
ENDBRANCH   7   8
ENDBRANCH   1   7
TORSDOF 7
ENDMDL
MODEL 6
REMARK VINA RESULT:    -3.870      2.028      2.827
REMARK INTER + INTRA:          -6.104
REMARK INTER:                  -5.296
REMARK INTRA:                  -0.808
REMARK UNBOUND:                -0.651
REMARK SMILES CCCCCCCCC(=O)[O-]
REMARK SMILES IDX 6 1 7 2 8 3 9 4 10 5 11 6 5 7 4 8 3 9 2 10 1 11
REMARK H PARENT
REMARK Flexibility Score: inf
ROOT
ATOM      1  C   UNL     1      13.129  -0.221   3.060  1.00  0.00     0.000 C 
ENDROOT
BRANCH   1   2
ATOM      2  C   UNL     1      11.940   0.539   2.452  1.00  0.00     0.006 C 
BRANCH   2   3
ATOM      3  C   UNL     1      11.759   0.181   0.974  1.00  0.00     0.053 C 
BRANCH   3   4
ATOM      4  C   UNL     1      11.337  -1.247   0.829  1.00  0.00     0.041 C 
ATOM      5  O   UNL     1      11.996  -2.031   0.096  1.00  0.00    -0.550 OA
ATOM      6  O   UNL     1      10.244  -1.725   1.541  1.00  0.00    -0.550 OA
ENDBRANCH   3   4
ENDBRANCH   2   3
ENDBRANCH   1   2
BRANCH   1   7
ATOM      7  C   UNL     1      14.437   0.002   2.284  1.00  0.00     0.000 C 
BRANCH   7   8
ATOM      8  C   UNL     1      15.128  -1.318   1.901  1.00  0.00    -0.000 C 
BRANCH   8   9
ATOM      9  C   UNL     1      15.687  -1.297   0.469  1.00  0.00    -0.000 C 
BRANCH   9  10
ATOM     10  C   UNL     1      15.282  -0.036  -0.308  1.00  0.00    -0.003 C 
ATOM     11  C   UNL     1      14.787  -0.388  -1.707  1.00  0.00     0.004 C 
ENDBRANCH   9  10
ENDBRANCH   8   9
ENDBRANCH   7   8
ENDBRANCH   1   7
TORSDOF 7
ENDMDL
MODEL 7
REMARK VINA RESULT:    -3.816      1.804      4.046
REMARK INTER + INTRA:          -6.028
REMARK INTER:                  -5.260
REMARK INTRA:                  -0.768
REMARK UNBOUND:                -0.651
REMARK SMILES CCCCCCCCC(=O)[O-]
REMARK SMILES IDX 6 1 7 2 8 3 9 4 10 5 11 6 5 7 4 8 3 9 2 10 1 11
REMARK H PARENT
REMARK Flexibility Score: inf
ROOT
ATOM      1  C   UNL     1      11.893  -0.458   0.159  1.00  0.00     0.000 C 
ENDROOT
BRANCH   1   2
ATOM      2  C   UNL     1      13.395  -0.183   0.334  1.00  0.00     0.006 C 
BRANCH   2   3
ATOM      3  C   UNL     1      14.112  -1.407   0.910  1.00  0.00     0.053 C 
BRANCH   3   4
ATOM      4  C   UNL     1      15.210  -0.983   1.834  1.00  0.00     0.041 C 
ATOM      5  O   UNL     1      15.310   0.221   2.188  1.00  0.00    -0.550 OA
ATOM      6  O   UNL     1      16.094  -1.927   2.343  1.00  0.00    -0.550 OA
ENDBRANCH   3   4
ENDBRANCH   2   3
ENDBRANCH   1   2
BRANCH   1   7
ATOM      7  C   UNL     1      11.012   0.563   0.897  1.00  0.00     0.000 C 
BRANCH   7   8
ATOM      8  C   UNL     1      10.217  -0.070   2.053  1.00  0.00    -0.000 C 
BRANCH   8   9
ATOM      9  C   UNL     1      10.535   0.578   3.410  1.00  0.00    -0.000 C 
BRANCH   9  10
ATOM     10  C   UNL     1      12.029   0.515   3.763  1.00  0.00    -0.003 C 
ATOM     11  C   UNL     1      12.426  -0.884   4.223  1.00  0.00     0.004 C 
ENDBRANCH   9  10
ENDBRANCH   8   9
ENDBRANCH   7   8
ENDBRANCH   1   7
TORSDOF 7
ENDMDL
MODEL 8
REMARK VINA RESULT:    -3.801      2.256      4.589
REMARK INTER + INTRA:          -6.007
REMARK INTER:                  -5.196
REMARK INTRA:                  -0.811
REMARK UNBOUND:                -0.651
REMARK SMILES CCCCCCCCC(=O)[O-]
REMARK SMILES IDX 6 1 7 2 8 3 9 4 10 5 11 6 5 7 4 8 3 9 2 10 1 11
REMARK H PARENT
REMARK Flexibility Score: inf
ROOT
ATOM      1  C   UNL     1      12.804  -1.674   4.111  1.00  0.00     0.000 C 
ENDROOT
BRANCH   1   2
ATOM      2  C   UNL     1      13.888  -2.347   3.255  1.00  0.00     0.006 C 
BRANCH   2   3
ATOM      3  C   UNL     1      13.314  -2.816   1.914  1.00  0.00     0.053 C 
BRANCH   3   4
ATOM      4  C   UNL     1      13.488  -1.757   0.872  1.00  0.00     0.041 C 
ATOM      5  O   UNL     1      14.533  -1.054   0.851  1.00  0.00    -0.550 OA
ATOM      6  O   UNL     1      12.519  -1.578  -0.107  1.00  0.00    -0.550 OA
ENDBRANCH   3   4
ENDBRANCH   2   3
ENDBRANCH   1   2
BRANCH   1   7
ATOM      7  C   UNL     1      13.025  -0.161   4.269  1.00  0.00     0.000 C 
BRANCH   7   8
ATOM      8  C   UNL     1      11.743   0.652   4.020  1.00  0.00    -0.000 C 
BRANCH   8   9
ATOM      9  C   UNL     1      11.285   0.596   2.553  1.00  0.00    -0.000 C 
BRANCH   9  10
ATOM     10  C   UNL     1       9.827   0.138   2.404  1.00  0.00    -0.003 C 
ATOM     11  C   UNL     1       9.750  -1.345   2.054  1.00  0.00     0.004 C 
ENDBRANCH   9  10
ENDBRANCH   8   9
ENDBRANCH   7   8
ENDBRANCH   1   7
TORSDOF 7
ENDMDL
MODEL 9
REMARK VINA RESULT:    -3.800      2.257      3.571
REMARK INTER + INTRA:          -6.007
REMARK INTER:                  -5.228
REMARK INTRA:                  -0.779
REMARK UNBOUND:                -0.651
REMARK SMILES CCCCCCCCC(=O)[O-]
REMARK SMILES IDX 6 1 7 2 8 3 9 4 10 5 11 6 5 7 4 8 3 9 2 10 1 11
REMARK H PARENT
REMARK Flexibility Score: inf
ROOT
ATOM      1  C   UNL     1      12.778   0.019   3.768  1.00  0.00     0.000 C 
ENDROOT
BRANCH   1   2
ATOM      2  C   UNL     1      12.652  -1.499   3.966  1.00  0.00     0.006 C 
BRANCH   2   3
ATOM      3  C   UNL     1      14.015  -2.184   3.832  1.00  0.00     0.053 C 
BRANCH   3   4
ATOM      4  C   UNL     1      14.241  -2.629   2.422  1.00  0.00     0.041 C 
ATOM      5  O   UNL     1      14.931  -1.924   1.638  1.00  0.00    -0.550 OA
ATOM      6  O   UNL     1      13.732  -3.846   1.985  1.00  0.00    -0.550 OA
ENDBRANCH   3   4
ENDBRANCH   2   3
ENDBRANCH   1   2
BRANCH   1   7
ATOM      7  C   UNL     1      11.422   0.704   3.530  1.00  0.00     0.000 C 
BRANCH   7   8
ATOM      8  C   UNL     1      10.671   0.121   2.319  1.00  0.00    -0.000 C 
BRANCH   8   9
ATOM      9  C   UNL     1      11.271   0.577   0.979  1.00  0.00    -0.000 C 
BRANCH   9  10
ATOM     10  C   UNL     1      11.893  -0.580   0.183  1.00  0.00    -0.003 C 
ATOM     11  C   UNL     1      11.197  -1.901   0.500  1.00  0.00     0.004 C 
ENDBRANCH   9  10
ENDBRANCH   8   9
ENDBRANCH   7   8
ENDBRANCH   1   7
TORSDOF 7
ENDMDL
