MODEL 1
REMARK VINA RESULT:    -3.965      0.000      0.000
REMARK INTER + INTRA:          -8.303
REMARK INTER:                  -6.747
REMARK INTRA:                  -1.557
REMARK UNBOUND:                -1.557
REMARK SMILES CCCCCCCCCCCCCC(=O)[O-]
REMARK SMILES IDX 8 1 9 2 10 3 11 4 12 5 13 6 14 7 15 8 16 9 7 10 6 11 5 12
REMARK SMILES IDX 4 13 3 14 2 15 1 16
REMARK H PARENT
REMARK Flexibility Score: inf
ROOT
ATOM      1  C   UNL     1     -30.897  15.030  14.277  1.00  0.00     0.000 C 
ENDROOT
BRANCH   1   2
ATOM      2  C   UNL     1     -31.664  14.371  13.117  1.00  0.00     0.000 C 
BRANCH   2   3
ATOM      3  C   UNL     1     -32.954  13.648  13.560  1.00  0.00     0.000 C 
BRANCH   3   4
ATOM      4  C   UNL     1     -32.691  12.186  13.959  1.00  0.00     0.000 C 
BRANCH   4   5
ATOM      5  C   UNL     1     -31.831  11.432  12.927  1.00  0.00     0.006 C 
BRANCH   5   6
ATOM      6  C   UNL     1     -30.556  10.802  13.511  1.00  0.00     0.053 C 
BRANCH   6   7
ATOM      7  C   UNL     1     -29.559  10.467  12.446  1.00  0.00     0.041 C 
ATOM      8  O   UNL     1     -28.418  11.003  12.454  1.00  0.00    -0.550 OA
ATOM      9  O   UNL     1     -29.876   9.540  11.462  1.00  0.00    -0.550 OA
ENDBRANCH   6   7
ENDBRANCH   5   6
ENDBRANCH   4   5
ENDBRANCH   3   4
ENDBRANCH   2   3
ENDBRANCH   1   2
BRANCH   1  10
ATOM     10  C   UNL     1     -29.587  14.300  14.617  1.00  0.00     0.000 C 
BRANCH  10  11
ATOM     11  C   UNL     1     -29.666  13.536  15.949  1.00  0.00    -0.000 C 
BRANCH  11  12
ATOM     12  C   UNL     1     -30.777  14.067  16.872  1.00  0.00    -0.000 C 
BRANCH  12  13
ATOM     13  C   UNL     1     -30.223  14.826  18.090  1.00  0.00    -0.000 C 
BRANCH  13  14
ATOM     14  C   UNL     1     -29.422  16.077  17.690  1.00  0.00    -0.000 C 
BRANCH  14  15
ATOM     15  C   UNL     1     -28.063  16.157  18.403  1.00  0.00    -0.003 C 
ATOM     16  C   UNL     1     -26.949  15.442  17.639  1.00  0.00     0.004 C 
ENDBRANCH  14  15
ENDBRANCH  13  14
ENDBRANCH  12  13
ENDBRANCH  11  12
ENDBRANCH  10  11
ENDBRANCH   1  10
TORSDOF 12
ENDMDL
MODEL 2
REMARK VINA RESULT:    -3.916      2.833      5.880
REMARK INTER + INTRA:          -8.220
REMARK INTER:                  -6.732
REMARK INTRA:                  -1.489
REMARK UNBOUND:                -1.557
REMARK SMILES CCCCCCCCCCCCCC(=O)[O-]
REMARK SMILES IDX 8 1 9 2 10 3 11 4 12 5 13 6 14 7 15 8 16 9 7 10 6 11 5 12
REMARK SMILES IDX 4 13 3 14 2 15 1 16
REMARK H PARENT
REMARK Flexibility Score: inf
ROOT
ATOM      1  C   UNL     1     -31.798  14.378  13.008  1.00  0.00     0.000 C 
ENDROOT
BRANCH   1   2
ATOM      2  C   UNL     1     -31.029  15.010  14.182  1.00  0.00     0.000 C 
BRANCH   2   3
ATOM      3  C   UNL     1     -29.686  14.314  14.489  1.00  0.00     0.000 C 
BRANCH   3   4
ATOM      4  C   UNL     1     -29.603  13.831  15.947  1.00  0.00     0.000 C 
BRANCH   4   5
ATOM      5  C   UNL     1     -30.218  14.833  16.943  1.00  0.00     0.006 C 
BRANCH   5   6
ATOM      6  C   UNL     1     -29.235  15.900  17.449  1.00  0.00     0.053 C 
BRANCH   6   7
ATOM      7  C   UNL     1     -27.903  15.314  17.798  1.00  0.00     0.041 C 
ATOM      8  O   UNL     1     -27.776  14.591  18.822  1.00  0.00    -0.550 OA
ATOM      9  O   UNL     1     -26.806  15.540  16.976  1.00  0.00    -0.550 OA
ENDBRANCH   6   7
ENDBRANCH   5   6
ENDBRANCH   4   5
ENDBRANCH   3   4
ENDBRANCH   2   3
ENDBRANCH   1   2
BRANCH   1  10
ATOM     10  C   UNL     1     -33.290  14.173  13.315  1.00  0.00     0.000 C 
BRANCH  10  11
ATOM     11  C   UNL     1     -33.547  12.941  14.198  1.00  0.00    -0.000 C 
BRANCH  11  12
ATOM     12  C   UNL     1     -33.225  11.618  13.480  1.00  0.00    -0.000 C 
BRANCH  12  13
ATOM     13  C   UNL     1     -31.913  10.983  13.969  1.00  0.00    -0.000 C 
BRANCH  13  14
ATOM     14  C   UNL     1     -31.140  10.282  12.840  1.00  0.00    -0.000 C 
BRANCH  14  15
ATOM     15  C   UNL     1     -30.017  11.158  12.263  1.00  0.00    -0.003 C 
ATOM     16  C   UNL     1     -28.713  11.047  13.052  1.00  0.00     0.004 C 
ENDBRANCH  14  15
ENDBRANCH  13  14
ENDBRANCH  12  13
ENDBRANCH  11  12
ENDBRANCH  10  11
ENDBRANCH   1  10
TORSDOF 12
ENDMDL
MODEL 3
REMARK VINA RESULT:    -3.875      1.522      2.931
REMARK INTER + INTRA:          -8.151
REMARK INTER:                  -6.336
REMARK INTRA:                  -1.814
REMARK UNBOUND:                -1.557
REMARK SMILES CCCCCCCCCCCCCC(=O)[O-]
REMARK SMILES IDX 8 1 9 2 10 3 11 4 12 5 13 6 14 7 15 8 16 9 7 10 6 11 5 12
REMARK SMILES IDX 4 13 3 14 2 15 1 16
REMARK H PARENT
REMARK Flexibility Score: inf
ROOT
ATOM      1  C   UNL     1     -33.803  12.850  14.302  1.00  0.00     0.000 C 
ENDROOT
BRANCH   1   2
ATOM      2  C   UNL     1     -33.263  12.990  15.736  1.00  0.00     0.000 C 
BRANCH   2   3
ATOM      3  C   UNL     1     -32.611  11.701  16.280  1.00  0.00     0.000 C 
BRANCH   3   4
ATOM      4  C   UNL     1     -31.876  10.915  15.180  1.00  0.00     0.000 C 
BRANCH   4   5
ATOM      5  C   UNL     1     -30.346  11.069  15.258  1.00  0.00     0.006 C 
BRANCH   5   6
ATOM      6  C   UNL     1     -29.568  10.106  14.347  1.00  0.00     0.053 C 
BRANCH   6   7
ATOM      7  C   UNL     1     -29.041  10.793  13.126  1.00  0.00     0.041 C 
ATOM      8  O   UNL     1     -29.126  10.236  11.998  1.00  0.00    -0.550 OA
ATOM      9  O   UNL     1     -28.486  12.062  13.226  1.00  0.00    -0.550 OA
ENDBRANCH   6   7
ENDBRANCH   5   6
ENDBRANCH   4   5
ENDBRANCH   3   4
ENDBRANCH   2   3
ENDBRANCH   1   2
BRANCH   1  10
ATOM     10  C   UNL     1     -33.368  14.006  13.386  1.00  0.00     0.000 C 
BRANCH  10  11
ATOM     11  C   UNL     1     -31.851  14.025  13.140  1.00  0.00    -0.000 C 
BRANCH  11  12
ATOM     12  C   UNL     1     -31.145  15.181  13.872  1.00  0.00    -0.000 C 
BRANCH  12  13
ATOM     13  C   UNL     1     -29.959  14.705  14.727  1.00  0.00    -0.000 C 
BRANCH  13  14
ATOM     14  C   UNL     1     -30.147  15.013  16.221  1.00  0.00    -0.000 C 
BRANCH  14  15
ATOM     15  C   UNL     1     -29.185  14.211  17.113  1.00  0.00    -0.003 C 
ATOM     16  C   UNL     1     -29.910  13.381  18.172  1.00  0.00     0.004 C 
ENDBRANCH  14  15
ENDBRANCH  13  14
ENDBRANCH  12  13
ENDBRANCH  11  12
ENDBRANCH  10  11
ENDBRANCH   1  10
TORSDOF 12
ENDMDL
MODEL 4
REMARK VINA RESULT:    -3.860      2.607      5.129
REMARK INTER + INTRA:          -8.125
REMARK INTER:                  -6.702
REMARK INTRA:                  -1.423
REMARK UNBOUND:                -1.557
REMARK SMILES CCCCCCCCCCCCCC(=O)[O-]
REMARK SMILES IDX 8 1 9 2 10 3 11 4 12 5 13 6 14 7 15 8 16 9 7 10 6 11 5 12
REMARK SMILES IDX 4 13 3 14 2 15 1 16
REMARK H PARENT
REMARK Flexibility Score: inf
ROOT
ATOM      1  C   UNL     1     -32.571  11.473  13.687  1.00  0.00     0.000 C 
ENDROOT
BRANCH   1   2
ATOM      2  C   UNL     1     -33.733  12.438  13.391  1.00  0.00     0.000 C 
BRANCH   2   3
ATOM      3  C   UNL     1     -33.290  13.908  13.233  1.00  0.00     0.000 C 
BRANCH   3   4
ATOM      4  C   UNL     1     -31.775  14.035  12.998  1.00  0.00     0.000 C 
BRANCH   4   5
ATOM      5  C   UNL     1     -31.123  15.117  13.878  1.00  0.00     0.006 C 
BRANCH   5   6
ATOM      6  C   UNL     1     -30.919  14.700  15.343  1.00  0.00     0.053 C 
BRANCH   6   7
ATOM      7  C   UNL     1     -29.493  14.343  15.629  1.00  0.00     0.041 C 
ATOM      8  O   UNL     1     -29.207  13.622  16.622  1.00  0.00    -0.550 OA
ATOM      9  O   UNL     1     -28.483  14.779  14.782  1.00  0.00    -0.550 OA
ENDBRANCH   6   7
ENDBRANCH   5   6
ENDBRANCH   4   5
ENDBRANCH   3   4
ENDBRANCH   2   3
ENDBRANCH   1   2
BRANCH   1  10
ATOM     10  C   UNL     1     -32.472  10.329  12.665  1.00  0.00     0.000 C 
BRANCH  10  11
ATOM     11  C   UNL     1     -31.023   9.868  12.433  1.00  0.00    -0.000 C 
BRANCH  11  12
ATOM     12  C   UNL     1     -30.067  11.039  12.145  1.00  0.00    -0.000 C 
BRANCH  12  13
ATOM     13  C   UNL     1     -29.166  11.377  13.344  1.00  0.00    -0.000 C 
BRANCH  13  14
ATOM     14  C   UNL     1     -28.185  10.242  13.682  1.00  0.00    -0.000 C 
BRANCH  14  15
ATOM     15  C   UNL     1     -28.488   9.587  15.039  1.00  0.00    -0.003 C 
ATOM     16  C   UNL     1     -29.668  10.237  15.761  1.00  0.00     0.004 C 
ENDBRANCH  14  15
ENDBRANCH  13  14
ENDBRANCH  12  13
ENDBRANCH  11  12
ENDBRANCH  10  11
ENDBRANCH   1  10
TORSDOF 12
ENDMDL
MODEL 5
REMARK VINA RESULT:    -3.850      2.706      5.518
REMARK INTER + INTRA:          -8.108
REMARK INTER:                  -6.569
REMARK INTRA:                  -1.538
REMARK UNBOUND:                -1.557
REMARK SMILES CCCCCCCCCCCCCC(=O)[O-]
REMARK SMILES IDX 8 1 9 2 10 3 11 4 12 5 13 6 14 7 15 8 16 9 7 10 6 11 5 12
REMARK SMILES IDX 4 13 3 14 2 15 1 16
REMARK H PARENT
REMARK Flexibility Score: inf
ROOT
ATOM      1  C   UNL     1     -33.143  13.268  14.667  1.00  0.00     0.000 C 
ENDROOT
BRANCH   1   2
ATOM      2  C   UNL     1     -32.960  14.013  13.333  1.00  0.00     0.000 C 
BRANCH   2   3
ATOM      3  C   UNL     1     -31.544  14.599  13.142  1.00  0.00     0.000 C 
BRANCH   3   4
ATOM      4  C   UNL     1     -30.850  14.885  14.485  1.00  0.00     0.000 C 
BRANCH   4   5
ATOM      5  C   UNL     1     -29.437  14.278  14.567  1.00  0.00     0.006 C 
BRANCH   5   6
ATOM      6  C   UNL     1     -28.449  15.094  15.416  1.00  0.00     0.053 C 
BRANCH   6   7
ATOM      7  C   UNL     1     -28.848  15.129  16.859  1.00  0.00     0.041 C 
ATOM      8  O   UNL     1     -29.134  14.062  17.464  1.00  0.00    -0.550 OA
ATOM      9  O   UNL     1     -28.872  16.336  17.545  1.00  0.00    -0.550 OA
ENDBRANCH   6   7
ENDBRANCH   5   6
ENDBRANCH   4   5
ENDBRANCH   3   4
ENDBRANCH   2   3
ENDBRANCH   1   2
BRANCH   1  10
ATOM     10  C   UNL     1     -32.782  11.776  14.571  1.00  0.00     0.000 C 
BRANCH  10  11
ATOM     11  C   UNL     1     -32.886  11.236  13.135  1.00  0.00    -0.000 C 
BRANCH  11  12
ATOM     12  C   UNL     1     -31.651  10.416  12.720  1.00  0.00    -0.000 C 
BRANCH  12  13
ATOM     13  C   UNL     1     -30.431  11.298  12.409  1.00  0.00    -0.000 C 
BRANCH  13  14
ATOM     14  C   UNL     1     -29.123  10.713  12.967  1.00  0.00    -0.000 C 
BRANCH  14  15
ATOM     15  C   UNL     1     -29.149  10.568  14.497  1.00  0.00    -0.003 C 
ATOM     16  C   UNL     1     -28.206   9.478  15.006  1.00  0.00     0.004 C 
ENDBRANCH  14  15
ENDBRANCH  13  14
ENDBRANCH  12  13
ENDBRANCH  11  12
ENDBRANCH  10  11
ENDBRANCH   1  10
TORSDOF 12
ENDMDL
MODEL 6
REMARK VINA RESULT:    -3.836      1.507      3.005
REMARK INTER + INTRA:          -8.084
REMARK INTER:                  -6.157
REMARK INTRA:                  -1.927
REMARK UNBOUND:                -1.557
REMARK SMILES CCCCCCCCCCCCCC(=O)[O-]
REMARK SMILES IDX 8 1 9 2 10 3 11 4 12 5 13 6 14 7 15 8 16 9 7 10 6 11 5 12
REMARK SMILES IDX 4 13 3 14 2 15 1 16
REMARK H PARENT
REMARK Flexibility Score: inf
ROOT
ATOM      1  C   UNL     1     -31.807  14.291  13.025  1.00  0.00     0.000 C 
ENDROOT
BRANCH   1   2
ATOM      2  C   UNL     1     -33.256  13.924  13.394  1.00  0.00     0.000 C 
BRANCH   2   3
ATOM      3  C   UNL     1     -33.436  12.442  13.789  1.00  0.00     0.000 C 
BRANCH   3   4
ATOM      4  C   UNL     1     -32.465  11.519  13.034  1.00  0.00     0.000 C 
BRANCH   4   5
ATOM      5  C   UNL     1     -31.671  10.592  13.973  1.00  0.00     0.006 C 
BRANCH   5   6
ATOM      6  C   UNL     1     -30.169  10.911  14.052  1.00  0.00     0.053 C 
BRANCH   6   7
ATOM      7  C   UNL     1     -29.415  10.344  12.891  1.00  0.00     0.041 C 
ATOM      8  O   UNL     1     -29.882   9.368  12.246  1.00  0.00    -0.550 OA
ATOM      9  O   UNL     1     -28.210  10.913  12.498  1.00  0.00    -0.550 OA
ENDBRANCH   6   7
ENDBRANCH   5   6
ENDBRANCH   4   5
ENDBRANCH   3   4
ENDBRANCH   2   3
ENDBRANCH   1   2
BRANCH   1  10
ATOM     10  C   UNL     1     -31.096  15.093  14.127  1.00  0.00     0.000 C 
BRANCH  10  11
ATOM     11  C   UNL     1     -29.731  14.495  14.504  1.00  0.00    -0.000 C 
BRANCH  11  12
ATOM     12  C   UNL     1     -29.654  14.076  15.983  1.00  0.00    -0.000 C 
BRANCH  12  13
ATOM     13  C   UNL     1     -30.941  14.403  16.759  1.00  0.00    -0.000 C 
BRANCH  13  14
ATOM     14  C   UNL     1     -31.775  13.150  17.073  1.00  0.00    -0.000 C 
BRANCH  14  15
ATOM     15  C   UNL     1     -33.275  13.460  17.205  1.00  0.00    -0.003 C 
ATOM     16  C   UNL     1     -34.102  12.234  17.589  1.00  0.00     0.004 C 
ENDBRANCH  14  15
ENDBRANCH  13  14
ENDBRANCH  12  13
ENDBRANCH  11  12
ENDBRANCH  10  11
ENDBRANCH   1  10
TORSDOF 12
ENDMDL
MODEL 7
REMARK VINA RESULT:    -3.772      3.055      5.673
REMARK INTER + INTRA:          -7.975
REMARK INTER:                  -6.219
REMARK INTRA:                  -1.756
REMARK UNBOUND:                -1.557
REMARK SMILES CCCCCCCCCCCCCC(=O)[O-]
REMARK SMILES IDX 8 1 9 2 10 3 11 4 12 5 13 6 14 7 15 8 16 9 7 10 6 11 5 12
REMARK SMILES IDX 4 13 3 14 2 15 1 16
REMARK H PARENT
REMARK Flexibility Score: inf
ROOT
ATOM      1  C   UNL     1     -33.255  12.122  15.174  1.00  0.00     0.000 C 
ENDROOT
BRANCH   1   2
ATOM      2  C   UNL     1     -33.056  13.270  16.179  1.00  0.00     0.000 C 
BRANCH   2   3
ATOM      3  C   UNL     1     -31.634  13.328  16.778  1.00  0.00     0.000 C 
BRANCH   3   4
ATOM      4  C   UNL     1     -31.208  14.767  17.117  1.00  0.00     0.000 C 
BRANCH   4   5
ATOM      5  C   UNL     1     -29.870  15.162  16.464  1.00  0.00     0.006 C 
BRANCH   5   6
ATOM      6  C   UNL     1     -28.940  15.977  17.377  1.00  0.00     0.053 C 
BRANCH   6   7
ATOM      7  C   UNL     1     -27.913  15.115  18.042  1.00  0.00     0.041 C 
ATOM      8  O   UNL     1     -28.268  14.131  18.744  1.00  0.00    -0.550 OA
ATOM      9  O   UNL     1     -26.561  15.377  17.861  1.00  0.00    -0.550 OA
ENDBRANCH   6   7
ENDBRANCH   5   6
ENDBRANCH   4   5
ENDBRANCH   3   4
ENDBRANCH   2   3
ENDBRANCH   1   2
BRANCH   1  10
ATOM     10  C   UNL     1     -33.238  12.600  13.713  1.00  0.00     0.000 C 
BRANCH  10  11
ATOM     11  C   UNL     1     -32.954  14.106  13.588  1.00  0.00    -0.000 C 
BRANCH  11  12
ATOM     12  C   UNL     1     -31.534  14.402  13.075  1.00  0.00    -0.000 C 
BRANCH  12  13
ATOM     13  C   UNL     1     -30.755  13.125  12.717  1.00  0.00    -0.000 C 
BRANCH  13  14
ATOM     14  C   UNL     1     -29.563  12.879  13.655  1.00  0.00    -0.000 C 
BRANCH  14  15
ATOM     15  C   UNL     1     -29.176  11.394  13.739  1.00  0.00    -0.003 C 
ATOM     16  C   UNL     1     -29.783  10.690  14.952  1.00  0.00     0.004 C 
ENDBRANCH  14  15
ENDBRANCH  13  14
ENDBRANCH  12  13
ENDBRANCH  11  12
ENDBRANCH  10  11
ENDBRANCH   1  10
TORSDOF 12
ENDMDL
MODEL 8
REMARK VINA RESULT:    -3.760      1.800      3.352
REMARK INTER + INTRA:          -7.954
REMARK INTER:                  -6.455
REMARK INTRA:                  -1.498
REMARK UNBOUND:                -1.557
REMARK SMILES CCCCCCCCCCCCCC(=O)[O-]
REMARK SMILES IDX 8 1 9 2 10 3 11 4 12 5 13 6 14 7 15 8 16 9 7 10 6 11 5 12
REMARK SMILES IDX 4 13 3 14 2 15 1 16
REMARK H PARENT
REMARK Flexibility Score: inf
ROOT
ATOM      1  C   UNL     1     -33.642  12.180  14.628  1.00  0.00     0.000 C 
ENDROOT
BRANCH   1   2
ATOM      2  C   UNL     1     -33.226  10.758  14.211  1.00  0.00     0.000 C 
BRANCH   2   3
ATOM      3  C   UNL     1     -32.906  10.623  12.707  1.00  0.00     0.000 C 
BRANCH   3   4
ATOM      4  C   UNL     1     -32.059   9.375  12.405  1.00  0.00     0.000 C 
BRANCH   4   5
ATOM      5  C   UNL     1     -30.619   9.488  12.939  1.00  0.00     0.006 C 
BRANCH   5   6
ATOM      6  C   UNL     1     -29.858  10.727  12.441  1.00  0.00     0.053 C 
BRANCH   6   7
ATOM      7  C   UNL     1     -29.172  11.448  13.559  1.00  0.00     0.041 C 
ATOM      8  O   UNL     1     -28.486  12.478  13.323  1.00  0.00    -0.550 OA
ATOM      9  O   UNL     1     -29.316  11.003  14.867  1.00  0.00    -0.550 OA
ENDBRANCH   6   7
ENDBRANCH   5   6
ENDBRANCH   4   5
ENDBRANCH   3   4
ENDBRANCH   2   3
ENDBRANCH   1   2
BRANCH   1  10
ATOM     10  C   UNL     1     -34.105  13.038  13.439  1.00  0.00     0.000 C 
BRANCH  10  11
ATOM     11  C   UNL     1     -33.262  14.312  13.268  1.00  0.00    -0.000 C 
BRANCH  11  12
ATOM     12  C   UNL     1     -31.750  14.026  13.251  1.00  0.00    -0.000 C 
BRANCH  12  13
ATOM     13  C   UNL     1     -30.966  14.920  14.226  1.00  0.00    -0.000 C 
BRANCH  13  14
ATOM     14  C   UNL     1     -31.021  14.404  15.673  1.00  0.00    -0.000 C 
BRANCH  14  15
ATOM     15  C   UNL     1     -29.623  14.163  16.266  1.00  0.00    -0.003 C 
ATOM     16  C   UNL     1     -28.573  15.131  15.720  1.00  0.00     0.004 C 
ENDBRANCH  14  15
ENDBRANCH  13  14
ENDBRANCH  12  13
ENDBRANCH  11  12
ENDBRANCH  10  11
ENDBRANCH   1  10
TORSDOF 12
ENDMDL
MODEL 9
REMARK VINA RESULT:    -3.729      2.699      5.251
REMARK INTER + INTRA:          -7.901
REMARK INTER:                  -6.142
REMARK INTRA:                  -1.759
REMARK UNBOUND:                -1.557
REMARK SMILES CCCCCCCCCCCCCC(=O)[O-]
REMARK SMILES IDX 8 1 9 2 10 3 11 4 12 5 13 6 14 7 15 8 16 9 7 10 6 11 5 12
REMARK SMILES IDX 4 13 3 14 2 15 1 16
REMARK H PARENT
REMARK Flexibility Score: inf
ROOT
ATOM      1  C   UNL     1     -33.113  11.988  15.518  1.00  0.00     0.000 C 
ENDROOT
BRANCH   1   2
ATOM      2  C   UNL     1     -33.071  11.739  14.000  1.00  0.00     0.000 C 
BRANCH   2   3
ATOM      3  C   UNL     1     -33.913  12.744  13.185  1.00  0.00     0.000 C 
BRANCH   3   4
ATOM      4  C   UNL     1     -33.290  14.151  13.181  1.00  0.00     0.000 C 
BRANCH   4   5
ATOM      5  C   UNL     1     -31.750  14.122  13.185  1.00  0.00     0.006 C 
BRANCH   5   6
ATOM      6  C   UNL     1     -31.104  15.127  14.151  1.00  0.00     0.053 C 
BRANCH   6   7
ATOM      7  C   UNL     1     -29.888  14.562  14.815  1.00  0.00     0.041 C 
ATOM      8  O   UNL     1     -28.858  14.302  14.138  1.00  0.00    -0.550 OA
ATOM      9  O   UNL     1     -29.879  14.352  16.188  1.00  0.00    -0.550 OA
ENDBRANCH   6   7
ENDBRANCH   5   6
ENDBRANCH   4   5
ENDBRANCH   3   4
ENDBRANCH   2   3
ENDBRANCH   1   2
BRANCH   1  10
ATOM     10  C   UNL     1     -31.855  11.477  16.241  1.00  0.00     0.000 C 
BRANCH  10  11
ATOM     11  C   UNL     1     -31.048  10.483  15.389  1.00  0.00    -0.000 C 
BRANCH  11  12
ATOM     12  C   UNL     1     -29.578  10.906  15.217  1.00  0.00    -0.000 C 
BRANCH  12  13
ATOM     13  C   UNL     1     -28.993  10.478  13.861  1.00  0.00    -0.000 C 
BRANCH  13  14
ATOM     14  C   UNL     1     -29.635  11.224  12.680  1.00  0.00    -0.000 C 
BRANCH  14  15
ATOM     15  C   UNL     1     -30.097  10.274  11.564  1.00  0.00    -0.003 C 
ATOM     16  C   UNL     1     -30.702   8.977  12.102  1.00  0.00     0.004 C 
ENDBRANCH  14  15
ENDBRANCH  13  14
ENDBRANCH  12  13
ENDBRANCH  11  12
ENDBRANCH  10  11
ENDBRANCH   1  10
TORSDOF 12
ENDMDL
