MODEL 1
REMARK VINA RESULT:    27.104      0.000      0.000
REMARK INTER + INTRA:          31.571
REMARK INTER:                  31.857
REMARK INTRA:                  -0.286
REMARK UNBOUND:                -0.286
REMARK SMILES O=c1cc(-c2ccc(O)c(O)c2)oc2cc(O)cc(O)c12
REMARK SMILES IDX 4 1 3 2 2 3 1 4 21 5 19 6 18 7 16 8 15 9 14 10 13 11 5 12
REMARK SMILES IDX 6 13 7 14 8 15 12 16 10 17 9 18 11 20 20 22 17 24
REMARK H PARENT 9 19 11 21 20 23 17 25
REMARK Flexibility Score: inf
ROOT
ATOM      1  C   UNL     1      -7.518  -4.034  20.981  1.00  0.00     0.138 A 
ATOM      2  C   UNL     1      -7.768  -4.421  19.658  1.00  0.00     0.100 A 
ATOM      3  C   UNL     1      -8.230  -5.711  19.391  1.00  0.00     0.197 A 
ATOM      4  O   UNL     1      -8.505  -6.009  18.200  1.00  0.00    -0.289 OA
ATOM      5  C   UNL     1      -8.411  -6.627  20.455  1.00  0.00     0.107 A 
ATOM      6  C   UNL     1      -8.839  -7.980  20.298  1.00  0.00     0.134 A 
ATOM      7  C   UNL     1      -9.094  -8.757  21.434  1.00  0.00     0.093 A 
ATOM      8  C   UNL     1      -8.882  -8.251  22.718  1.00  0.00     0.123 A 
ATOM      9  C   UNL     1      -8.414  -6.949  22.880  1.00  0.00     0.094 A 
ATOM     10  C   UNL     1      -8.181  -6.137  21.768  1.00  0.00     0.146 A 
ATOM     11  O   UNL     1      -7.749  -4.895  21.966  1.00  0.00    -0.456 OA
ENDROOT
BRANCH   1  12
ATOM     12  C   UNL     1      -7.025  -2.675  21.321  1.00  0.00     0.021 A 
ATOM     13  C   UNL     1      -6.249  -2.436  22.471  1.00  0.00     0.016 A 
ATOM     14  C   UNL     1      -5.807  -1.144  22.771  1.00  0.00     0.051 A 
ATOM     15  C   UNL     1      -6.138  -0.070  21.936  1.00  0.00     0.157 A 
ATOM     16  C   UNL     1      -7.364  -1.588  20.494  1.00  0.00     0.062 A 
ATOM     17  C   UNL     1      -6.922  -0.295  20.793  1.00  0.00     0.158 A 
BRANCH  15  18
ATOM     18  O   UNL     1      -5.694   1.216  22.238  1.00  0.00    -0.504 OA
ATOM     19  H   UNL     1      -5.317   1.829  21.525  1.00  0.00     0.293 HD
ENDBRANCH  15  18
BRANCH  17  20
ATOM     20  O   UNL     1      -7.272   0.753  19.942  1.00  0.00    -0.504 OA
ATOM     21  H   UNL     1      -6.679   1.564  19.815  1.00  0.00     0.293 HD
ENDBRANCH  17  20
ENDBRANCH   1  12
BRANCH   6  22
ATOM     22  O   UNL     1      -9.000  -8.609  19.061  1.00  0.00    -0.507 OA
ATOM     23  H   UNL     1      -9.565  -9.428  18.899  1.00  0.00     0.293 HD
ENDBRANCH   6  22
BRANCH   8  24
ATOM     24  O   UNL     1      -9.125  -9.037  23.842  1.00  0.00    -0.508 OA
ATOM     25  H   UNL     1      -9.849  -8.799  24.510  1.00  0.00     0.293 HD
ENDBRANCH   8  24
TORSDOF 5
ENDMDL
MODEL 2
REMARK VINA RESULT:    29.976      1.527      6.764
REMARK INTER + INTRA:          34.947
REMARK INTER:                  35.241
REMARK INTRA:                  -0.293
REMARK UNBOUND:                -0.286
REMARK SMILES O=c1cc(-c2ccc(O)c(O)c2)oc2cc(O)cc(O)c12
REMARK SMILES IDX 4 1 3 2 2 3 1 4 21 5 19 6 18 7 16 8 15 9 14 10 13 11 5 12
REMARK SMILES IDX 6 13 7 14 8 15 12 16 10 17 9 18 11 20 20 22 17 24
REMARK H PARENT 9 19 11 21 20 23 17 25
REMARK Flexibility Score: inf
ROOT
ATOM      1  C   UNL     1      -7.493  -5.515  21.762  1.00  0.00     0.138 A 
ATOM      2  C   UNL     1      -7.221  -5.725  20.404  1.00  0.00     0.100 A 
ATOM      3  C   UNL     1      -6.820  -4.651  19.606  1.00  0.00     0.197 A 
ATOM      4  O   UNL     1      -6.523  -4.882  18.406  1.00  0.00    -0.289 OA
ATOM      5  C   UNL     1      -6.722  -3.356  20.169  1.00  0.00     0.107 A 
ATOM      6  C   UNL     1      -6.363  -2.180  19.443  1.00  0.00     0.134 A 
ATOM      7  C   UNL     1      -6.186  -0.973  20.130  1.00  0.00     0.093 A 
ATOM      8  C   UNL     1      -6.413  -0.887  21.506  1.00  0.00     0.123 A 
ATOM      9  C   UNL     1      -6.816  -2.017  22.214  1.00  0.00     0.094 A 
ATOM     10  C   UNL     1      -6.969  -3.243  21.563  1.00  0.00     0.146 A 
ATOM     11  O   UNL     1      -7.340  -4.300  22.277  1.00  0.00    -0.456 OA
ENDROOT
BRANCH   1  12
ATOM     12  C   UNL     1      -7.923  -6.621  22.654  1.00  0.00     0.021 A 
ATOM     13  C   UNL     1      -7.935  -6.480  24.055  1.00  0.00     0.016 A 
ATOM     14  C   UNL     1      -8.335  -7.541  24.871  1.00  0.00     0.051 A 
ATOM     15  C   UNL     1      -8.722  -8.763  24.306  1.00  0.00     0.157 A 
ATOM     16  C   UNL     1      -8.301  -7.856  22.096  1.00  0.00     0.062 A 
ATOM     17  C   UNL     1      -8.702  -8.919  22.911  1.00  0.00     0.158 A 
BRANCH  15  18
ATOM     18  O   UNL     1      -9.122  -9.819  25.124  1.00  0.00    -0.504 OA
ATOM     19  H   UNL     1      -9.590 -10.634  24.747  1.00  0.00     0.293 HD
ENDBRANCH  15  18
BRANCH  17  20
ATOM     20  O   UNL     1      -9.078 -10.124  22.316  1.00  0.00    -0.504 OA
ATOM     21  H   UNL     1      -9.591 -10.836  22.821  1.00  0.00     0.293 HD
ENDBRANCH  17  20
ENDBRANCH   1  12
BRANCH   6  22
ATOM     22  O   UNL     1      -6.195  -2.140  18.056  1.00  0.00    -0.507 OA
ATOM     23  H   UNL     1      -6.819  -2.563  17.386  1.00  0.00     0.293 HD
ENDBRANCH   6  22
BRANCH   8  24
ATOM     24  O   UNL     1      -6.249   0.322  22.179  1.00  0.00    -0.508 OA
ATOM     25  H   UNL     1      -6.490   1.206  21.746  1.00  0.00     0.293 HD
ENDBRANCH   8  24
TORSDOF 5
ENDMDL
