MODEL 1
REMARK VINA RESULT:    -8.800      0.000      0.000
REMARK INTER + INTRA:         -10.924
REMARK INTER:                 -10.600
REMARK INTRA:                  -0.324
REMARK UNBOUND:                -0.324
REMARK SMILES O=c1c(O)c(-c2ccc(O)c(O)c2)oc2cc(O)cc(O)c12
REMARK SMILES IDX 5 1 3 2 2 3 1 4 22 5 20 6 19 7 17 8 16 9 15 10 14 11 6 12
REMARK SMILES IDX 7 13 8 14 9 15 13 16 11 17 10 18 12 20 4 22 21 24 18 26
REMARK H PARENT 10 19 12 21 4 23 21 25 18 27
REMARK Flexibility Score: inf
ROOT
ATOM      1  C   UNL     1     126.332 135.082 110.190  1.00  0.00     0.180 A 
ATOM      2  C   UNL     1     126.601 136.287 109.516  1.00  0.00     0.208 A 
ATOM      3  C   UNL     1     127.337 136.248 108.320  1.00  0.00     0.238 A 
ATOM      4  O   UNL     1     127.527 137.323 107.693  1.00  0.00    -0.285 OA
ATOM      5  C   UNL     1     127.809 135.010 107.824  1.00  0.00     0.111 A 
ATOM      6  C   UNL     1     128.598 134.859 106.644  1.00  0.00     0.134 A 
ATOM      7  C   UNL     1     128.899 133.574 106.174  1.00  0.00     0.093 A 
ATOM      8  C   UNL     1     128.495 132.438 106.875  1.00  0.00     0.123 A 
ATOM      9  C   UNL     1     127.774 132.576 108.062  1.00  0.00     0.094 A 
ATOM     10  C   UNL     1     127.427 133.844 108.536  1.00  0.00     0.146 A 
ATOM     11  O   UNL     1     126.732 133.931 109.663  1.00  0.00    -0.452 OA
ENDROOT
BRANCH   1  12
ATOM     12  C   UNL     1     125.584 135.045 111.467  1.00  0.00     0.025 A 
ATOM     13  C   UNL     1     124.185 134.938 111.446  1.00  0.00     0.016 A 
ATOM     14  C   UNL     1     123.461 134.880 112.639  1.00  0.00     0.051 A 
ATOM     15  C   UNL     1     124.123 134.911 113.870  1.00  0.00     0.157 A 
ATOM     16  C   UNL     1     126.250 135.055 112.706  1.00  0.00     0.062 A 
ATOM     17  C   UNL     1     125.524 134.995 113.906  1.00  0.00     0.158 A 
BRANCH  15  18
ATOM     18  O   UNL     1     123.372 134.854 115.044  1.00  0.00    -0.504 OA
ATOM     19  H   UNL     1     123.298 134.005 115.593  1.00  0.00     0.293 HD
ENDBRANCH  15  18
BRANCH  17  20
ATOM     20  O   UNL     1     126.191 135.013 115.130  1.00  0.00    -0.504 OA
ATOM     21  H   UNL     1     125.759 135.395 115.964  1.00  0.00     0.293 HD
ENDBRANCH  17  20
ENDBRANCH   1  12
BRANCH   2  22
ATOM     22  O   UNL     1     126.106 137.496 110.013  1.00  0.00    -0.502 OA
ATOM     23  H   UNL     1     126.604 138.044 110.704  1.00  0.00     0.293 HD
ENDBRANCH   2  22
BRANCH   6  24
ATOM     24  O   UNL     1     129.131 135.928 105.919  1.00  0.00    -0.507 OA
ATOM     25  H   UNL     1     128.943 136.112 104.945  1.00  0.00     0.293 HD
ENDBRANCH   6  24
BRANCH   8  26
ATOM     26  O   UNL     1     128.825 131.175 106.387  1.00  0.00    -0.508 OA
ATOM     27  H   UNL     1     129.718 130.996 105.941  1.00  0.00     0.293 HD
ENDBRANCH   8  26
TORSDOF 6
ENDMDL
MODEL 2
REMARK VINA RESULT:    -8.648     10.197     11.313
REMARK INTER + INTRA:         -10.741
REMARK INTER:                 -10.411
REMARK INTRA:                  -0.330
REMARK UNBOUND:                -0.324
REMARK SMILES O=c1c(O)c(-c2ccc(O)c(O)c2)oc2cc(O)cc(O)c12
REMARK SMILES IDX 5 1 3 2 2 3 1 4 22 5 20 6 19 7 17 8 16 9 15 10 14 11 6 12
REMARK SMILES IDX 7 13 8 14 9 15 13 16 11 17 10 18 12 20 4 22 21 24 18 26
REMARK H PARENT 10 19 12 21 4 23 21 25 18 27
REMARK Flexibility Score: inf
ROOT
ATOM      1  C   UNL     1     135.291 134.414 114.540  1.00  0.00     0.180 A 
ATOM      2  C   UNL     1     136.266 134.610 113.546  1.00  0.00     0.208 A 
ATOM      3  C   UNL     1     137.620 134.656 113.920  1.00  0.00     0.238 A 
ATOM      4  O   UNL     1     138.492 134.777 113.020  1.00  0.00    -0.285 OA
ATOM      5  C   UNL     1     137.979 134.523 115.282  1.00  0.00     0.111 A 
ATOM      6  C   UNL     1     139.315 134.595 115.779  1.00  0.00     0.134 A 
ATOM      7  C   UNL     1     139.566 134.319 117.129  1.00  0.00     0.093 A 
ATOM      8  C   UNL     1     138.525 134.038 118.012  1.00  0.00     0.123 A 
ATOM      9  C   UNL     1     137.208 134.024 117.550  1.00  0.00     0.094 A 
ATOM     10  C   UNL     1     136.930 134.259 116.201  1.00  0.00     0.146 A 
ATOM     11  O   UNL     1     135.665 134.227 115.800  1.00  0.00    -0.452 OA
ENDROOT
BRANCH   1  12
ATOM     12  C   UNL     1     133.845 134.378 114.226  1.00  0.00     0.025 A 
ATOM     13  C   UNL     1     133.229 133.149 113.942  1.00  0.00     0.016 A 
ATOM     14  C   UNL     1     131.861 133.090 113.664  1.00  0.00     0.051 A 
ATOM     15  C   UNL     1     131.085 134.252 113.682  1.00  0.00     0.157 A 
ATOM     16  C   UNL     1     133.058 135.544 114.266  1.00  0.00     0.062 A 
ATOM     17  C   UNL     1     131.683 135.486 113.989  1.00  0.00     0.158 A 
BRANCH  15  18
ATOM     18  O   UNL     1     129.723 134.161 113.399  1.00  0.00    -0.504 OA
ATOM     19  H   UNL     1     129.319 133.344 112.954  1.00  0.00     0.293 HD
ENDBRANCH  15  18
BRANCH  17  20
ATOM     20  O   UNL     1     130.912 136.646 114.022  1.00  0.00    -0.504 OA
ATOM     21  H   UNL     1     130.019 136.676 114.500  1.00  0.00     0.293 HD
ENDBRANCH  17  20
ENDBRANCH   1  12
BRANCH   2  22
ATOM     22  O   UNL     1     135.891 134.717 112.204  1.00  0.00    -0.502 OA
ATOM     23  H   UNL     1     135.787 133.908 111.603  1.00  0.00     0.293 HD
ENDBRANCH   2  22
BRANCH   6  24
ATOM     24  O   UNL     1     140.418 134.957 115.001  1.00  0.00    -0.507 OA
ATOM     25  H   UNL     1     141.199 135.505 115.330  1.00  0.00     0.293 HD
ENDBRANCH   6  24
BRANCH   8  26
ATOM     26  O   UNL     1     138.810 133.784 119.353  1.00  0.00    -0.508 OA
ATOM     27  H   UNL     1     139.573 133.176 119.626  1.00  0.00     0.293 HD
ENDBRANCH   8  26
TORSDOF 6
ENDMDL
MODEL 3
REMARK VINA RESULT:    -8.595      8.532     10.256
REMARK INTER + INTRA:         -10.678
REMARK INTER:                 -10.867
REMARK INTRA:                   0.189
REMARK UNBOUND:                -0.324
REMARK SMILES O=c1c(O)c(-c2ccc(O)c(O)c2)oc2cc(O)cc(O)c12
REMARK SMILES IDX 5 1 3 2 2 3 1 4 22 5 20 6 19 7 17 8 16 9 15 10 14 11 6 12
REMARK SMILES IDX 7 13 8 14 9 15 13 16 11 17 10 18 12 20 4 22 21 24 18 26
REMARK H PARENT 10 19 12 21 4 23 21 25 18 27
REMARK Flexibility Score: inf
ROOT
ATOM      1  C   UNL     1     134.632 134.406 113.144  1.00  0.00     0.180 A 
ATOM      2  C   UNL     1     134.246 133.444 112.194  1.00  0.00     0.208 A 
ATOM      3  C   UNL     1     132.887 133.326 111.859  1.00  0.00     0.238 A 
ATOM      4  O   UNL     1     132.554 132.502 110.968  1.00  0.00    -0.285 OA
ATOM      5  C   UNL     1     131.931 134.157 112.490  1.00  0.00     0.111 A 
ATOM      6  C   UNL     1     130.524 134.095 112.257  1.00  0.00     0.134 A 
ATOM      7  C   UNL     1     129.685 135.054 112.839  1.00  0.00     0.093 A 
ATOM      8  C   UNL     1     130.192 136.030 113.696  1.00  0.00     0.123 A 
ATOM      9  C   UNL     1     131.558 136.063 113.977  1.00  0.00     0.094 A 
ATOM     10  C   UNL     1     132.426 135.143 113.383  1.00  0.00     0.146 A 
ATOM     11  O   UNL     1     133.720 135.214 113.669  1.00  0.00    -0.452 OA
ENDROOT
BRANCH   1  12
ATOM     12  C   UNL     1     136.041 134.574 113.566  1.00  0.00     0.025 A 
ATOM     13  C   UNL     1     136.335 134.805 114.919  1.00  0.00     0.016 A 
ATOM     14  C   UNL     1     137.659 134.945 115.343  1.00  0.00     0.051 A 
ATOM     15  C   UNL     1     138.709 134.841 114.426  1.00  0.00     0.157 A 
ATOM     16  C   UNL     1     137.100 134.448 112.649  1.00  0.00     0.062 A 
ATOM     17  C   UNL     1     138.431 134.586 113.073  1.00  0.00     0.158 A 
BRANCH  15  18
ATOM     18  O   UNL     1     140.020 134.987 114.879  1.00  0.00    -0.504 OA
ATOM     19  H   UNL     1     140.474 134.282 115.447  1.00  0.00     0.293 HD
ENDBRANCH  15  18
BRANCH  17  20
ATOM     20  O   UNL     1     139.474 134.468 112.157  1.00  0.00    -0.504 OA
ATOM     21  H   UNL     1     139.307 134.196 111.194  1.00  0.00     0.293 HD
ENDBRANCH  17  20
ENDBRANCH   1  12
BRANCH   2  22
ATOM     22  O   UNL     1     135.209 132.649 111.566  1.00  0.00    -0.502 OA
ATOM     23  H   UNL     1     134.964 131.895 110.936  1.00  0.00     0.293 HD
ENDBRANCH   2  22
BRANCH   6  24
ATOM     24  O   UNL     1     129.903 133.104 111.492  1.00  0.00    -0.507 OA
ATOM     25  H   UNL     1     128.995 132.711 111.689  1.00  0.00     0.293 HD
ENDBRANCH   6  24
BRANCH   8  26
ATOM     26  O   UNL     1     129.326 136.958 114.270  1.00  0.00    -0.508 OA
ATOM     27  H   UNL     1     128.767 136.729 115.084  1.00  0.00     0.293 HD
ENDBRANCH   8  26
TORSDOF 6
ENDMDL
MODEL 4
REMARK VINA RESULT:    -8.489      5.202      7.660
REMARK INTER + INTRA:         -10.549
REMARK INTER:                 -10.253
REMARK INTRA:                  -0.296
REMARK UNBOUND:                -0.324
REMARK SMILES O=c1c(O)c(-c2ccc(O)c(O)c2)oc2cc(O)cc(O)c12
REMARK SMILES IDX 5 1 3 2 2 3 1 4 22 5 20 6 19 7 17 8 16 9 15 10 14 11 6 12
REMARK SMILES IDX 7 13 8 14 9 15 13 16 11 17 10 18 12 20 4 22 21 24 18 26
REMARK H PARENT 10 19 12 21 4 23 21 25 18 27
REMARK Flexibility Score: inf
ROOT
ATOM      1  C   UNL     1     130.752 134.576 111.041  1.00  0.00     0.180 A 
ATOM      2  C   UNL     1     129.980 135.176 112.051  1.00  0.00     0.208 A 
ATOM      3  C   UNL     1     130.601 135.531 113.260  1.00  0.00     0.238 A 
ATOM      4  O   UNL     1     129.918 136.118 114.140  1.00  0.00    -0.285 OA
ATOM      5  C   UNL     1     131.978 135.267 113.450  1.00  0.00     0.111 A 
ATOM      6  C   UNL     1     132.699 135.547 114.649  1.00  0.00     0.134 A 
ATOM      7  C   UNL     1     134.087 135.364 114.679  1.00  0.00     0.093 A 
ATOM      8  C   UNL     1     134.770 134.851 113.577  1.00  0.00     0.123 A 
ATOM      9  C   UNL     1     134.066 134.517 112.420  1.00  0.00     0.094 A 
ATOM     10  C   UNL     1     132.685 134.722 112.347  1.00  0.00     0.146 A 
ATOM     11  O   UNL     1     132.055 134.401 111.225  1.00  0.00    -0.452 OA
ENDROOT
BRANCH   1  12
ATOM     12  C   UNL     1     130.164 134.151 109.749  1.00  0.00     0.025 A 
ATOM     13  C   UNL     1     129.769 132.816 109.576  1.00  0.00     0.016 A 
ATOM     14  C   UNL     1     129.193 132.398 108.373  1.00  0.00     0.051 A 
ATOM     15  C   UNL     1     128.989 133.310 107.334  1.00  0.00     0.157 A 
ATOM     16  C   UNL     1     129.938 135.072 108.710  1.00  0.00     0.062 A 
ATOM     17  C   UNL     1     129.358 134.655 107.502  1.00  0.00     0.158 A 
BRANCH  15  18
ATOM     18  O   UNL     1     128.413 132.863 106.144  1.00  0.00    -0.504 OA
ATOM     19  H   UNL     1     127.413 132.895 105.986  1.00  0.00     0.293 HD
ENDBRANCH  15  18
BRANCH  17  20
ATOM     20  O   UNL     1     129.144 135.572 106.475  1.00  0.00    -0.504 OA
ATOM     21  H   UNL     1     129.485 135.405 105.534  1.00  0.00     0.293 HD
ENDBRANCH  17  20
ENDBRANCH   1  12
BRANCH   2  22
ATOM     22  O   UNL     1     128.626 135.448 111.835  1.00  0.00    -0.502 OA
ATOM     23  H   UNL     1     128.276 136.389 111.703  1.00  0.00     0.293 HD
ENDBRANCH   2  22
BRANCH   6  24
ATOM     24  O   UNL     1     132.101 135.977 115.837  1.00  0.00    -0.507 OA
ATOM     25  H   UNL     1     132.599 136.178 116.691  1.00  0.00     0.293 HD
ENDBRANCH   6  24
BRANCH   8  26
ATOM     26  O   UNL     1     136.150 134.666 113.647  1.00  0.00    -0.508 OA
ATOM     27  H   UNL     1     136.750 134.848 112.851  1.00  0.00     0.293 HD
ENDBRANCH   8  26
TORSDOF 6
ENDMDL
MODEL 5
REMARK VINA RESULT:    -8.447      7.189      8.500
REMARK INTER + INTRA:         -10.499
REMARK INTER:                 -10.614
REMARK INTRA:                   0.115
REMARK UNBOUND:                -0.324
REMARK SMILES O=c1c(O)c(-c2ccc(O)c(O)c2)oc2cc(O)cc(O)c12
REMARK SMILES IDX 5 1 3 2 2 3 1 4 22 5 20 6 19 7 17 8 16 9 15 10 14 11 6 12
REMARK SMILES IDX 7 13 8 14 9 15 13 16 11 17 10 18 12 20 4 22 21 24 18 26
REMARK H PARENT 10 19 12 21 4 23 21 25 18 27
REMARK Flexibility Score: inf
ROOT
ATOM      1  C   UNL     1     133.053 134.809 113.066  1.00  0.00     0.180 A 
ATOM      2  C   UNL     1     132.111 135.668 113.659  1.00  0.00     0.208 A 
ATOM      3  C   UNL     1     130.788 135.657 113.185  1.00  0.00     0.238 A 
ATOM      4  O   UNL     1     129.936 136.388 113.755  1.00  0.00    -0.285 OA
ATOM      5  C   UNL     1     130.431 134.804 112.114  1.00  0.00     0.111 A 
ATOM      6  C   UNL     1     129.130 134.742 111.527  1.00  0.00     0.134 A 
ATOM      7  C   UNL     1     128.855 133.766 110.560  1.00  0.00     0.093 A 
ATOM      8  C   UNL     1     129.848 132.896 110.113  1.00  0.00     0.123 A 
ATOM      9  C   UNL     1     131.138 132.987 110.636  1.00  0.00     0.094 A 
ATOM     10  C   UNL     1     131.434 133.926 111.629  1.00  0.00     0.146 A 
ATOM     11  O   UNL     1     132.671 133.974 112.108  1.00  0.00    -0.452 OA
ENDROOT
BRANCH   1  12
ATOM     12  C   UNL     1     134.470 134.781 113.494  1.00  0.00     0.025 A 
ATOM     13  C   UNL     1     134.778 134.748 114.863  1.00  0.00     0.016 A 
ATOM     14  C   UNL     1     136.107 134.699 115.290  1.00  0.00     0.051 A 
ATOM     15  C   UNL     1     137.148 134.666 114.357  1.00  0.00     0.157 A 
ATOM     16  C   UNL     1     135.518 134.726 112.557  1.00  0.00     0.062 A 
ATOM     17  C   UNL     1     136.854 134.675 112.983  1.00  0.00     0.158 A 
BRANCH  15  18
ATOM     18  O   UNL     1     138.465 134.620 114.813  1.00  0.00    -0.504 OA
ATOM     19  H   UNL     1     138.766 133.961 115.522  1.00  0.00     0.293 HD
ENDBRANCH  15  18
BRANCH  17  20
ATOM     20  O   UNL     1     137.887 134.629 112.049  1.00  0.00    -0.504 OA
ATOM     21  H   UNL     1     138.823 134.336 112.305  1.00  0.00     0.293 HD
ENDBRANCH  17  20
ENDBRANCH   1  12
BRANCH   2  22
ATOM     22  O   UNL     1     132.480 136.486 114.729  1.00  0.00    -0.502 OA
ATOM     23  H   UNL     1     133.158 136.199 115.424  1.00  0.00     0.293 HD
ENDBRANCH   2  22
BRANCH   6  24
ATOM     24  O   UNL     1     128.092 135.624 111.836  1.00  0.00    -0.507 OA
ATOM     25  H   UNL     1     128.190 136.449 112.408  1.00  0.00     0.293 HD
ENDBRANCH   6  24
BRANCH   8  26
ATOM     26  O   UNL     1     129.543 131.948 109.137  1.00  0.00    -0.508 OA
ATOM     27  H   UNL     1     128.628 131.515 109.088  1.00  0.00     0.293 HD
ENDBRANCH   8  26
TORSDOF 6
ENDMDL
MODEL 6
REMARK VINA RESULT:    -8.418      4.885      7.109
REMARK INTER + INTRA:         -10.464
REMARK INTER:                 -10.140
REMARK INTRA:                  -0.324
REMARK UNBOUND:                -0.324
REMARK SMILES O=c1c(O)c(-c2ccc(O)c(O)c2)oc2cc(O)cc(O)c12
REMARK SMILES IDX 5 1 3 2 2 3 1 4 22 5 20 6 19 7 17 8 16 9 15 10 14 11 6 12
REMARK SMILES IDX 7 13 8 14 9 15 13 16 11 17 10 18 12 20 4 22 21 24 18 26
REMARK H PARENT 10 19 12 21 4 23 21 25 18 27
REMARK Flexibility Score: inf
ROOT
ATOM      1  C   UNL     1     130.127 134.235 110.618  1.00  0.00     0.180 A 
ATOM      2  C   UNL     1     130.491 132.883 110.500  1.00  0.00     0.208 A 
ATOM      3  C   UNL     1     131.522 132.382 111.314  1.00  0.00     0.238 A 
ATOM      4  O   UNL     1     131.807 131.158 111.243  1.00  0.00    -0.285 OA
ATOM      5  C   UNL     1     132.185 133.243 112.220  1.00  0.00     0.111 A 
ATOM      6  C   UNL     1     133.269 132.853 113.062  1.00  0.00     0.134 A 
ATOM      7  C   UNL     1     133.763 133.754 114.014  1.00  0.00     0.093 A 
ATOM      8  C   UNL     1     133.257 135.049 114.110  1.00  0.00     0.123 A 
ATOM      9  C   UNL     1     132.238 135.461 113.251  1.00  0.00     0.094 A 
ATOM     10  C   UNL     1     131.699 134.573 112.315  1.00  0.00     0.146 A 
ATOM     11  O   UNL     1     130.724 135.001 111.524  1.00  0.00    -0.452 OA
ENDROOT
BRANCH   1  12
ATOM     12  C   UNL     1     129.068 134.841 109.779  1.00  0.00     0.025 A 
ATOM     13  C   UNL     1     127.777 135.004 110.306  1.00  0.00     0.016 A 
ATOM     14  C   UNL     1     126.769 135.593 109.539  1.00  0.00     0.051 A 
ATOM     15  C   UNL     1     127.037 136.040 108.242  1.00  0.00     0.157 A 
ATOM     16  C   UNL     1     129.341 135.312 108.482  1.00  0.00     0.062 A 
ATOM     17  C   UNL     1     128.330 135.904 107.711  1.00  0.00     0.158 A 
BRANCH  15  18
ATOM     18  O   UNL     1     126.008 136.621 107.501  1.00  0.00    -0.504 OA
ATOM     19  H   UNL     1     125.192 137.031 107.941  1.00  0.00     0.293 HD
ENDBRANCH  15  18
BRANCH  17  20
ATOM     20  O   UNL     1     128.606 136.361 106.423  1.00  0.00    -0.504 OA
ATOM     21  H   UNL     1     129.291 135.902 105.833  1.00  0.00     0.293 HD
ENDBRANCH  17  20
ENDBRANCH   1  12
BRANCH   2  22
ATOM     22  O   UNL     1     129.808 132.044 109.615  1.00  0.00    -0.502 OA
ATOM     23  H   UNL     1     129.391 131.170 109.907  1.00  0.00     0.293 HD
ENDBRANCH   2  22
BRANCH   6  24
ATOM     24  O   UNL     1     133.909 131.613 112.986  1.00  0.00    -0.507 OA
ATOM     25  H   UNL     1     133.512 130.741 113.300  1.00  0.00     0.293 HD
ENDBRANCH   6  24
BRANCH   8  26
ATOM     26  O   UNL     1     133.784 135.925 115.058  1.00  0.00    -0.508 OA
ATOM     27  H   UNL     1     133.489 135.896 116.027  1.00  0.00     0.293 HD
ENDBRANCH   8  26
TORSDOF 6
ENDMDL
MODEL 7
REMARK VINA RESULT:    -8.391      4.352      4.965
REMARK INTER + INTRA:         -10.432
REMARK INTER:                 -10.109
REMARK INTRA:                  -0.323
REMARK UNBOUND:                -0.324
REMARK SMILES O=c1c(O)c(-c2ccc(O)c(O)c2)oc2cc(O)cc(O)c12
REMARK SMILES IDX 5 1 3 2 2 3 1 4 22 5 20 6 19 7 17 8 16 9 15 10 14 11 6 12
REMARK SMILES IDX 7 13 8 14 9 15 13 16 11 17 10 18 12 20 4 22 21 24 18 26
REMARK H PARENT 10 19 12 21 4 23 21 25 18 27
REMARK Flexibility Score: inf
ROOT
ATOM      1  C   UNL     1     129.068 134.729 113.105  1.00  0.00     0.180 A 
ATOM      2  C   UNL     1     129.972 135.678 113.614  1.00  0.00     0.208 A 
ATOM      3  C   UNL     1     131.327 135.587 113.256  1.00  0.00     0.238 A 
ATOM      4  O   UNL     1     132.122 136.471 113.669  1.00  0.00    -0.285 OA
ATOM      5  C   UNL     1     131.763 134.539 112.411  1.00  0.00     0.111 A 
ATOM      6  C   UNL     1     133.119 134.327 112.018  1.00  0.00     0.134 A 
ATOM      7  C   UNL     1     133.417 133.336 111.073  1.00  0.00     0.093 A 
ATOM      8  C   UNL     1     132.420 132.509 110.558  1.00  0.00     0.123 A 
ATOM      9  C   UNL     1     131.100 132.669 110.980  1.00  0.00     0.094 A 
ATOM     10  C   UNL     1     130.766 133.672 111.894  1.00  0.00     0.146 A 
ATOM     11  O   UNL     1     129.497 133.797 112.263  1.00  0.00    -0.452 OA
ENDROOT
BRANCH   1  12
ATOM     12  C   UNL     1     127.629 134.745 113.456  1.00  0.00     0.025 A 
ATOM     13  C   UNL     1     127.193 134.082 114.613  1.00  0.00     0.016 A 
ATOM     14  C   UNL     1     125.843 134.102 114.975  1.00  0.00     0.051 A 
ATOM     15  C   UNL     1     124.914 134.797 114.196  1.00  0.00     0.157 A 
ATOM     16  C   UNL     1     126.696 135.462 112.686  1.00  0.00     0.062 A 
ATOM     17  C   UNL     1     125.340 135.485 113.048  1.00  0.00     0.158 A 
BRANCH  15  18
ATOM     18  O   UNL     1     123.573 134.797 114.581  1.00  0.00    -0.504 OA
ATOM     19  H   UNL     1     123.078 133.942 114.806  1.00  0.00     0.293 HD
ENDBRANCH  15  18
BRANCH  17  20
ATOM     20  O   UNL     1     124.420 136.191 112.276  1.00  0.00    -0.504 OA
ATOM     21  H   UNL     1     124.616 137.129 111.942  1.00  0.00     0.293 HD
ENDBRANCH  17  20
ENDBRANCH   1  12
BRANCH   2  22
ATOM     22  O   UNL     1     129.516 136.718 114.429  1.00  0.00    -0.502 OA
ATOM     23  H   UNL     1     129.593 137.692 114.162  1.00  0.00     0.293 HD
ENDBRANCH   2  22
BRANCH   6  24
ATOM     24  O   UNL     1     134.204 135.036 112.541  1.00  0.00    -0.507 OA
ATOM     25  H   UNL     1     134.761 135.698 112.023  1.00  0.00     0.293 HD
ENDBRANCH   6  24
BRANCH   8  26
ATOM     26  O   UNL     1     132.755 131.523 109.632  1.00  0.00    -0.508 OA
ATOM     27  H   UNL     1     133.658 131.514 109.171  1.00  0.00     0.293 HD
ENDBRANCH   8  26
TORSDOF 6
ENDMDL
MODEL 8
REMARK VINA RESULT:    -8.389      4.161      7.712
REMARK INTER + INTRA:         -10.430
REMARK INTER:                 -10.294
REMARK INTRA:                  -0.136
REMARK UNBOUND:                -0.324
REMARK SMILES O=c1c(O)c(-c2ccc(O)c(O)c2)oc2cc(O)cc(O)c12
REMARK SMILES IDX 5 1 3 2 2 3 1 4 22 5 20 6 19 7 17 8 16 9 15 10 14 11 6 12
REMARK SMILES IDX 7 13 8 14 9 15 13 16 11 17 10 18 12 20 4 22 21 24 18 26
REMARK H PARENT 10 19 12 21 4 23 21 25 18 27
REMARK Flexibility Score: inf
ROOT
ATOM      1  C   UNL     1     130.335 134.290 111.439  1.00  0.00     0.180 A 
ATOM      2  C   UNL     1     131.532 134.954 111.757  1.00  0.00     0.208 A 
ATOM      3  C   UNL     1     131.822 135.227 113.105  1.00  0.00     0.238 A 
ATOM      4  O   UNL     1     132.920 135.773 113.388  1.00  0.00    -0.285 OA
ATOM      5  C   UNL     1     130.904 134.849 114.113  1.00  0.00     0.111 A 
ATOM      6  C   UNL     1     131.076 135.112 115.505  1.00  0.00     0.134 A 
ATOM      7  C   UNL     1     130.168 134.576 116.427  1.00  0.00     0.093 A 
ATOM      8  C   UNL     1     129.059 133.844 116.003  1.00  0.00     0.123 A 
ATOM      9  C   UNL     1     128.849 133.632 114.640  1.00  0.00     0.094 A 
ATOM     10  C   UNL     1     129.758 134.122 113.699  1.00  0.00     0.146 A 
ATOM     11  O   UNL     1     129.526 133.890 112.413  1.00  0.00    -0.452 OA
ENDROOT
BRANCH   1  12
ATOM     12  C   UNL     1     129.949 133.989 110.041  1.00  0.00     0.025 A 
ATOM     13  C   UNL     1     129.685 132.662 109.668  1.00  0.00     0.016 A 
ATOM     14  C   UNL     1     129.299 132.359 108.360  1.00  0.00     0.051 A 
ATOM     15  C   UNL     1     129.156 133.375 107.411  1.00  0.00     0.157 A 
ATOM     16  C   UNL     1     129.784 135.013 109.091  1.00  0.00     0.062 A 
ATOM     17  C   UNL     1     129.394 134.710 107.777  1.00  0.00     0.158 A 
BRANCH  15  18
ATOM     18  O   UNL     1     128.771 133.040 106.113  1.00  0.00    -0.504 OA
ATOM     19  H   UNL     1     128.089 133.584 105.597  1.00  0.00     0.293 HD
ENDBRANCH  15  18
BRANCH  17  20
ATOM     20  O   UNL     1     129.240 135.729 106.839  1.00  0.00    -0.504 OA
ATOM     21  H   UNL     1     129.502 135.601 105.868  1.00  0.00     0.293 HD
ENDBRANCH  17  20
ENDBRANCH   1  12
BRANCH   2  22
ATOM     22  O   UNL     1     132.435 135.300 110.748  1.00  0.00    -0.502 OA
ATOM     23  H   UNL     1     132.182 135.295 109.767  1.00  0.00     0.293 HD
ENDBRANCH   2  22
BRANCH   6  24
ATOM     24  O   UNL     1     132.098 135.909 116.028  1.00  0.00    -0.507 OA
ATOM     25  H   UNL     1     133.084 135.740 115.896  1.00  0.00     0.293 HD
ENDBRANCH   6  24
BRANCH   8  26
ATOM     26  O   UNL     1     128.167 133.339 116.947  1.00  0.00    -0.508 OA
ATOM     27  H   UNL     1     128.138 133.699 117.894  1.00  0.00     0.293 HD
ENDBRANCH   8  26
TORSDOF 6
ENDMDL
MODEL 9
REMARK VINA RESULT:    -8.384      5.029      8.198
REMARK INTER + INTRA:         -10.423
REMARK INTER:                 -10.189
REMARK INTRA:                  -0.234
REMARK UNBOUND:                -0.324
REMARK SMILES O=c1c(O)c(-c2ccc(O)c(O)c2)oc2cc(O)cc(O)c12
REMARK SMILES IDX 5 1 3 2 2 3 1 4 22 5 20 6 19 7 17 8 16 9 15 10 14 11 6 12
REMARK SMILES IDX 7 13 8 14 9 15 13 16 11 17 10 18 12 20 4 22 21 24 18 26
REMARK H PARENT 10 19 12 21 4 23 21 25 18 27
REMARK Flexibility Score: inf
ROOT
ATOM      1  C   UNL     1     131.059 133.658 111.466  1.00  0.00     0.180 A 
ATOM      2  C   UNL     1     132.322 133.083 111.693  1.00  0.00     0.208 A 
ATOM      3  C   UNL     1     132.900 133.193 112.969  1.00  0.00     0.238 A 
ATOM      4  O   UNL     1     134.005 132.629 113.181  1.00  0.00    -0.285 OA
ATOM      5  C   UNL     1     132.218 133.890 113.994  1.00  0.00     0.111 A 
ATOM      6  C   UNL     1     132.728 134.097 115.311  1.00  0.00     0.134 A 
ATOM      7  C   UNL     1     131.911 134.688 116.283  1.00  0.00     0.093 A 
ATOM      8  C   UNL     1     130.629 135.136 115.970  1.00  0.00     0.123 A 
ATOM      9  C   UNL     1     130.142 134.993 114.671  1.00  0.00     0.094 A 
ATOM     10  C   UNL     1     130.920 134.375 113.688  1.00  0.00     0.146 A 
ATOM     11  O   UNL     1     130.416 134.248 112.467  1.00  0.00    -0.452 OA
ENDROOT
BRANCH   1  12
ATOM     12  C   UNL     1     130.396 133.605 110.143  1.00  0.00     0.025 A 
ATOM     13  C   UNL     1     129.833 132.398 109.701  1.00  0.00     0.016 A 
ATOM     14  C   UNL     1     129.185 132.330 108.465  1.00  0.00     0.051 A 
ATOM     15  C   UNL     1     129.075 133.469 107.661  1.00  0.00     0.157 A 
ATOM     16  C   UNL     1     130.265 134.754 109.343  1.00  0.00     0.062 A 
ATOM     17  C   UNL     1     129.613 134.689 108.103  1.00  0.00     0.158 A 
BRANCH  15  18
ATOM     18  O   UNL     1     128.423 133.369 106.432  1.00  0.00    -0.504 OA
ATOM     19  H   UNL     1     128.897 133.041 105.598  1.00  0.00     0.293 HD
ENDBRANCH  15  18
BRANCH  17  20
ATOM     20  O   UNL     1     129.494 135.830 107.312  1.00  0.00    -0.504 OA
ATOM     21  H   UNL     1     129.959 136.697 107.558  1.00  0.00     0.293 HD
ENDBRANCH  17  20
ENDBRANCH   1  12
BRANCH   2  22
ATOM     22  O   UNL     1     132.968 132.380 110.673  1.00  0.00    -0.502 OA
ATOM     23  H   UNL     1     133.962 132.467 110.499  1.00  0.00     0.293 HD
ENDBRANCH   2  22
BRANCH   6  24
ATOM     24  O   UNL     1     134.029 133.770 115.704  1.00  0.00    -0.507 OA
ATOM     25  H   UNL     1     134.516 132.929 115.435  1.00  0.00     0.293 HD
ENDBRANCH   6  24
BRANCH   8  26
ATOM     26  O   UNL     1     129.849 135.734 116.959  1.00  0.00    -0.508 OA
ATOM     27  H   UNL     1     130.169 135.799 117.919  1.00  0.00     0.293 HD
ENDBRANCH   8  26
TORSDOF 6
ENDMDL
