MODEL 1
REMARK VINA RESULT:    -6.307      0.000      0.000
REMARK INTER + INTRA:          -6.992
REMARK INTER:                  -6.676
REMARK INTRA:                  -0.316
REMARK UNBOUND:                -0.316
REMARK SMILES c1ccc(-c2ccccc2)cc1
REMARK SMILES IDX 1 1 2 2 3 3 4 4 11 5 12 6 5 7 6 8 10 9 7 10 9 11 8 12
REMARK H PARENT
REMARK Flexibility Score: inf
ROOT
ATOM      1  C   UNL     1     -16.813  55.933  -3.348  1.00  0.00     0.000 A 
ATOM      2  C   UNL     1     -17.835  56.802  -3.736  1.00  0.00     0.001 A 
ATOM      3  C   UNL     1     -19.161  56.522  -3.394  1.00  0.00     0.009 A 
ATOM      4  C   UNL     1     -19.480  55.363  -2.659  1.00  0.00    -0.018 A 
ATOM      5  C   UNL     1     -18.440  54.495  -2.275  1.00  0.00     0.009 A 
ATOM      6  C   UNL     1     -17.115  54.781  -2.618  1.00  0.00     0.001 A 
ENDROOT
BRANCH   4   7
ATOM      7  C   UNL     1     -20.888  55.063  -2.294  1.00  0.00    -0.018 A 
ATOM      8  C   UNL     1     -21.182  54.280  -1.162  1.00  0.00     0.009 A 
ATOM      9  C   UNL     1     -21.951  55.556  -3.074  1.00  0.00     0.009 A 
ATOM     10  C   UNL     1     -22.509  53.998  -0.820  1.00  0.00     0.001 A 
ATOM     11  C   UNL     1     -23.276  55.272  -2.728  1.00  0.00     0.001 A 
ATOM     12  C   UNL     1     -23.554  54.493  -1.603  1.00  0.00     0.000 A 
ENDBRANCH   4   7
TORSDOF 1
ENDMDL
MODEL 2
REMARK VINA RESULT:    -6.283      0.099      4.949
REMARK INTER + INTRA:          -6.966
REMARK INTER:                  -6.652
REMARK INTRA:                  -0.315
REMARK UNBOUND:                -0.316
REMARK SMILES c1ccc(-c2ccccc2)cc1
REMARK SMILES IDX 1 1 2 2 3 3 4 4 11 5 12 6 5 7 6 8 10 9 7 10 9 11 8 12
REMARK H PARENT
REMARK Flexibility Score: inf
ROOT
ATOM      1  C   UNL     1     -23.574  54.520  -1.732  1.00  0.00     0.000 A 
ATOM      2  C   UNL     1     -22.540  54.029  -0.931  1.00  0.00     0.001 A 
ATOM      3  C   UNL     1     -21.209  54.306  -1.256  1.00  0.00     0.009 A 
ATOM      4  C   UNL     1     -20.897  55.078  -2.392  1.00  0.00    -0.018 A 
ATOM      5  C   UNL     1     -21.949  55.566  -3.192  1.00  0.00     0.009 A 
ATOM      6  C   UNL     1     -23.278  55.288  -2.861  1.00  0.00     0.001 A 
ENDROOT
BRANCH   4   7
ATOM      7  C   UNL     1     -19.484  55.374  -2.740  1.00  0.00    -0.018 A 
ATOM      8  C   UNL     1     -18.457  54.480  -2.381  1.00  0.00     0.009 A 
ATOM      9  C   UNL     1     -19.148  56.552  -3.433  1.00  0.00     0.009 A 
ATOM     10  C   UNL     1     -17.126  54.761  -2.709  1.00  0.00     0.001 A 
ATOM     11  C   UNL     1     -17.816  56.827  -3.759  1.00  0.00     0.001 A 
ATOM     12  C   UNL     1     -16.807  55.933  -3.396  1.00  0.00     0.000 A 
ENDBRANCH   4   7
TORSDOF 1
ENDMDL
MODEL 3
REMARK VINA RESULT:    -6.266      0.117      4.947
REMARK INTER + INTRA:          -6.949
REMARK INTER:                  -6.630
REMARK INTRA:                  -0.319
REMARK UNBOUND:                -0.316
REMARK SMILES c1ccc(-c2ccccc2)cc1
REMARK SMILES IDX 1 1 2 2 3 3 4 4 11 5 12 6 5 7 6 8 10 9 7 10 9 11 8 12
REMARK H PARENT
REMARK Flexibility Score: inf
ROOT
ATOM      1  C   UNL     1     -23.570  54.520  -1.759  1.00  0.00     0.000 A 
ATOM      2  C   UNL     1     -23.273  55.362  -2.833  1.00  0.00     0.001 A 
ATOM      3  C   UNL     1     -21.942  55.652  -3.149  1.00  0.00     0.009 A 
ATOM      4  C   UNL     1     -20.891  55.103  -2.389  1.00  0.00    -0.018 A 
ATOM      5  C   UNL     1     -21.205  54.257  -1.308  1.00  0.00     0.009 A 
ATOM      6  C   UNL     1     -22.537  53.968  -0.998  1.00  0.00     0.001 A 
ENDROOT
BRANCH   4   7
ATOM      7  C   UNL     1     -19.477  55.411  -2.723  1.00  0.00    -0.018 A 
ATOM      8  C   UNL     1     -19.153  56.546  -3.490  1.00  0.00     0.009 A 
ATOM      9  C   UNL     1     -18.438  54.572  -2.279  1.00  0.00     0.009 A 
ATOM     10  C   UNL     1     -17.821  56.834  -3.804  1.00  0.00     0.001 A 
ATOM     11  C   UNL     1     -17.107  54.864  -2.595  1.00  0.00     0.001 A 
ATOM     12  C   UNL     1     -16.799  55.994  -3.357  1.00  0.00     0.000 A 
ENDBRANCH   4   7
TORSDOF 1
ENDMDL
MODEL 4
REMARK VINA RESULT:    -6.263      0.121      1.403
REMARK INTER + INTRA:          -6.945
REMARK INTER:                  -6.629
REMARK INTRA:                  -0.316
REMARK UNBOUND:                -0.316
REMARK SMILES c1ccc(-c2ccccc2)cc1
REMARK SMILES IDX 1 1 2 2 3 3 4 4 11 5 12 6 5 7 6 8 10 9 7 10 9 11 8 12
REMARK H PARENT
REMARK Flexibility Score: inf
ROOT
ATOM      1  C   UNL     1     -16.782  55.920  -3.318  1.00  0.00     0.000 A 
ATOM      2  C   UNL     1     -17.127  54.748  -2.640  1.00  0.00     0.001 A 
ATOM      3  C   UNL     1     -18.465  54.481  -2.337  1.00  0.00     0.009 A 
ATOM      4  C   UNL     1     -19.476  55.389  -2.708  1.00  0.00    -0.018 A 
ATOM      5  C   UNL     1     -19.115  56.567  -3.390  1.00  0.00     0.009 A 
ATOM      6  C   UNL     1     -17.775  56.828  -3.692  1.00  0.00     0.001 A 
ENDROOT
BRANCH   4   7
ATOM      7  C   UNL     1     -20.899  55.107  -2.388  1.00  0.00    -0.018 A 
ATOM      8  C   UNL     1     -21.237  54.295  -1.289  1.00  0.00     0.009 A 
ATOM      9  C   UNL     1     -21.931  55.647  -3.177  1.00  0.00     0.009 A 
ATOM     10  C   UNL     1     -22.578  54.030  -0.989  1.00  0.00     0.001 A 
ATOM     11  C   UNL     1     -23.270  55.380  -2.872  1.00  0.00     0.001 A 
ATOM     12  C   UNL     1     -23.592  54.572  -1.780  1.00  0.00     0.000 A 
ENDBRANCH   4   7
TORSDOF 1
ENDMDL
MODEL 5
REMARK VINA RESULT:    -5.893      1.124      1.398
REMARK INTER + INTRA:          -6.554
REMARK INTER:                  -6.262
REMARK INTRA:                  -0.292
REMARK UNBOUND:                -0.316
REMARK SMILES c1ccc(-c2ccccc2)cc1
REMARK SMILES IDX 1 1 2 2 3 3 4 4 11 5 12 6 5 7 6 8 10 9 7 10 9 11 8 12
REMARK H PARENT
REMARK Flexibility Score: inf
ROOT
ATOM      1  C   UNL     1     -18.159  55.300  -3.691  1.00  0.00     0.000 A 
ATOM      2  C   UNL     1     -18.960  56.442  -3.622  1.00  0.00     0.001 A 
ATOM      3  C   UNL     1     -20.232  56.372  -3.046  1.00  0.00     0.009 A 
ATOM      4  C   UNL     1     -20.719  55.153  -2.535  1.00  0.00    -0.018 A 
ATOM      5  C   UNL     1     -19.901  54.009  -2.613  1.00  0.00     0.009 A 
ATOM      6  C   UNL     1     -18.629  54.085  -3.187  1.00  0.00     0.001 A 
ENDROOT
BRANCH   4   7
ATOM      7  C   UNL     1     -22.070  55.076  -1.924  1.00  0.00    -0.018 A 
ATOM      8  C   UNL     1     -22.219  54.817  -0.548  1.00  0.00     0.009 A 
ATOM      9  C   UNL     1     -23.223  55.259  -2.709  1.00  0.00     0.009 A 
ATOM     10  C   UNL     1     -23.492  54.744   0.026  1.00  0.00     0.001 A 
ATOM     11  C   UNL     1     -24.495  55.186  -2.130  1.00  0.00     0.001 A 
ATOM     12  C   UNL     1     -24.628  54.928  -0.764  1.00  0.00     0.000 A 
ENDBRANCH   4   7
TORSDOF 1
ENDMDL
MODEL 6
REMARK VINA RESULT:    -5.881      1.615      2.985
REMARK INTER + INTRA:          -6.540
REMARK INTER:                  -6.243
REMARK INTRA:                  -0.297
REMARK UNBOUND:                -0.316
REMARK SMILES c1ccc(-c2ccccc2)cc1
REMARK SMILES IDX 1 1 2 2 3 3 4 4 11 5 12 6 5 7 6 8 10 9 7 10 9 11 8 12
REMARK H PARENT
REMARK Flexibility Score: inf
ROOT
ATOM      1  C   UNL     1     -19.033  53.578  -2.785  1.00  0.00     0.000 A 
ATOM      2  C   UNL     1     -19.605  54.815  -3.093  1.00  0.00     0.001 A 
ATOM      3  C   UNL     1     -20.872  55.142  -2.602  1.00  0.00     0.009 A 
ATOM      4  C   UNL     1     -21.584  54.231  -1.798  1.00  0.00    -0.018 A 
ATOM      5  C   UNL     1     -20.996  52.988  -1.496  1.00  0.00     0.009 A 
ATOM      6  C   UNL     1     -19.728  52.666  -1.988  1.00  0.00     0.001 A 
ENDROOT
BRANCH   4   7
ATOM      7  C   UNL     1     -22.931  54.577  -1.275  1.00  0.00    -0.018 A 
ATOM      8  C   UNL     1     -23.974  54.919  -2.157  1.00  0.00     0.009 A 
ATOM      9  C   UNL     1     -23.186  54.570   0.109  1.00  0.00     0.009 A 
ATOM     10  C   UNL     1     -25.242  55.245  -1.663  1.00  0.00     0.001 A 
ATOM     11  C   UNL     1     -24.455  54.896   0.597  1.00  0.00     0.001 A 
ATOM     12  C   UNL     1     -25.482  55.234  -0.288  1.00  0.00     0.000 A 
ENDBRANCH   4   7
TORSDOF 1
ENDMDL
MODEL 7
REMARK VINA RESULT:    -5.878      1.674      3.335
REMARK INTER + INTRA:          -6.538
REMARK INTER:                  -6.240
REMARK INTRA:                  -0.297
REMARK UNBOUND:                -0.316
REMARK SMILES c1ccc(-c2ccccc2)cc1
REMARK SMILES IDX 1 1 2 2 3 3 4 4 11 5 12 6 5 7 6 8 10 9 7 10 9 11 8 12
REMARK H PARENT
REMARK Flexibility Score: inf
ROOT
ATOM      1  C   UNL     1     -19.095  53.464  -2.627  1.00  0.00     0.000 A 
ATOM      2  C   UNL     1     -19.850  52.616  -1.814  1.00  0.00     0.001 A 
ATOM      3  C   UNL     1     -21.132  52.996  -1.405  1.00  0.00     0.009 A 
ATOM      4  C   UNL     1     -21.672  54.233  -1.805  1.00  0.00    -0.018 A 
ATOM      5  C   UNL     1     -20.899  55.079  -2.624  1.00  0.00     0.009 A 
ATOM      6  C   UNL     1     -19.619  54.694  -3.032  1.00  0.00     0.001 A 
ENDROOT
BRANCH   4   7
ATOM      7  C   UNL     1     -23.034  54.639  -1.373  1.00  0.00    -0.018 A 
ATOM      8  C   UNL     1     -24.022  54.958  -2.324  1.00  0.00     0.009 A 
ATOM      9  C   UNL     1     -23.359  54.712  -0.005  1.00  0.00     0.009 A 
ATOM     10  C   UNL     1     -25.303  55.341  -1.915  1.00  0.00     0.001 A 
ATOM     11  C   UNL     1     -24.642  55.095   0.399  1.00  0.00     0.001 A 
ATOM     12  C   UNL     1     -25.613  55.409  -0.555  1.00  0.00     0.000 A 
ENDBRANCH   4   7
TORSDOF 1
ENDMDL
MODEL 8
REMARK VINA RESULT:    -5.861      1.632      5.544
REMARK INTER + INTRA:          -6.520
REMARK INTER:                  -6.222
REMARK INTRA:                  -0.297
REMARK UNBOUND:                -0.316
REMARK SMILES c1ccc(-c2ccccc2)cc1
REMARK SMILES IDX 1 1 2 2 3 3 4 4 11 5 12 6 5 7 6 8 10 9 7 10 9 11 8 12
REMARK H PARENT
REMARK Flexibility Score: inf
ROOT
ATOM      1  C   UNL     1     -25.336  55.151   0.072  1.00  0.00     0.000 A 
ATOM      2  C   UNL     1     -24.285  54.729   0.889  1.00  0.00     0.001 A 
ATOM      3  C   UNL     1     -23.045  54.407   0.328  1.00  0.00     0.009 A 
ATOM      4  C   UNL     1     -22.845  54.503  -1.063  1.00  0.00    -0.018 A 
ATOM      5  C   UNL     1     -23.913  54.929  -1.876  1.00  0.00     0.009 A 
ATOM      6  C   UNL     1     -25.150  55.251  -1.310  1.00  0.00     0.001 A 
ENDROOT
BRANCH   4   7
ATOM      7  C   UNL     1     -21.529  54.162  -1.662  1.00  0.00    -0.018 A 
ATOM      8  C   UNL     1     -20.830  55.106  -2.437  1.00  0.00     0.009 A 
ATOM      9  C   UNL     1     -20.961  52.889  -1.466  1.00  0.00     0.009 A 
ATOM     10  C   UNL     1     -19.591  54.783  -3.001  1.00  0.00     0.001 A 
ATOM     11  C   UNL     1     -19.722  52.571  -2.031  1.00  0.00     0.001 A 
ATOM     12  C   UNL     1     -19.038  53.517  -2.798  1.00  0.00     0.000 A 
ENDBRANCH   4   7
TORSDOF 1
ENDMDL
MODEL 9
REMARK VINA RESULT:    -5.820      1.764      5.324
REMARK INTER + INTRA:          -6.476
REMARK INTER:                  -6.180
REMARK INTRA:                  -0.296
REMARK UNBOUND:                -0.316
REMARK SMILES c1ccc(-c2ccccc2)cc1
REMARK SMILES IDX 1 1 2 2 3 3 4 4 11 5 12 6 5 7 6 8 10 9 7 10 9 11 8 12
REMARK H PARENT
REMARK Flexibility Score: inf
ROOT
ATOM      1  C   UNL     1     -25.659  55.478  -0.454  1.00  0.00     0.000 A 
ATOM      2  C   UNL     1     -25.349  55.399  -1.814  1.00  0.00     0.001 A 
ATOM      3  C   UNL     1     -24.080  54.974  -2.220  1.00  0.00     0.009 A 
ATOM      4  C   UNL     1     -23.105  54.624  -1.266  1.00  0.00    -0.018 A 
ATOM      5  C   UNL     1     -23.431  54.709   0.101  1.00  0.00     0.009 A 
ATOM      6  C   UNL     1     -24.701  55.133   0.502  1.00  0.00     0.001 A 
ENDROOT
BRANCH   4   7
ATOM      7  C   UNL     1     -21.757  54.172  -1.695  1.00  0.00    -0.018 A 
ATOM      8  C   UNL     1     -21.274  52.904  -1.318  1.00  0.00     0.009 A 
ATOM      9  C   UNL     1     -20.940  55.003  -2.484  1.00  0.00     0.009 A 
ATOM     10  C   UNL     1     -20.004  52.480  -1.722  1.00  0.00     0.001 A 
ATOM     11  C   UNL     1     -19.670  54.574  -2.886  1.00  0.00     0.001 A 
ATOM     12  C   UNL     1     -19.203  53.314  -2.505  1.00  0.00     0.000 A 
ENDBRANCH   4   7
TORSDOF 1
ENDMDL
