MODEL 1
REMARK VINA RESULT:    -3.931      0.000      0.000
REMARK INTER + INTRA:          -4.344
REMARK INTER:                  -4.161
REMARK INTRA:                  -0.183
REMARK UNBOUND:                -0.183
REMARK SMILES CC(C)[C@@H]1CC[C@H](C)CC1=O
REMARK SMILES IDX 8 1 7 2 6 3 5 4 4 5 10 6 11 7 9 8 2 9 1 10 3 11
REMARK H PARENT
REMARK Flexibility Score: inf
ROOT
ATOM      1  C   UNL     1     137.289 134.974 129.656  1.00  0.00     0.008 C 
ATOM      2  C   UNL     1     138.768 134.555 129.647  1.00  0.00    -0.007 C 
ATOM      3  C   UNL     1     139.432 134.796 128.274  1.00  0.00     0.004 C 
ATOM      4  C   UNL     1     139.607 136.291 127.960  1.00  0.00     0.012 C 
ATOM      5  C   UNL     1     140.418 137.018 129.060  1.00  0.00     0.058 C 
ATOM      6  C   UNL     1     139.841 136.689 130.427  1.00  0.00     0.136 C 
ATOM      7  O   UNL     1     139.705 137.551 131.285  1.00  0.00    -0.299 OA
ATOM      8  C   UNL     1     139.556 135.252 130.770  1.00  0.00     0.079 C 
ENDROOT
BRANCH   5   9
ATOM      9  C   UNL     1     140.567 138.551 128.809  1.00  0.00    -0.007 C 
ATOM     10  C   UNL     1     139.331 139.192 128.152  1.00  0.00     0.008 C 
ATOM     11  C   UNL     1     141.826 138.875 127.989  1.00  0.00     0.008 C 
ENDBRANCH   5   9
TORSDOF 1
ENDMDL
MODEL 2
REMARK VINA RESULT:    -3.910      3.778      5.958
REMARK INTER + INTRA:          -4.321
REMARK INTER:                  -4.143
REMARK INTRA:                  -0.179
REMARK UNBOUND:                -0.183
REMARK SMILES CC(C)[C@@H]1CC[C@H](C)CC1=O
REMARK SMILES IDX 8 1 7 2 6 3 5 4 4 5 10 6 11 7 9 8 2 9 1 10 3 11
REMARK H PARENT
REMARK Flexibility Score: inf
ROOT
ATOM      1  C   UNL     1     137.864 140.236 129.727  1.00  0.00     0.008 C 
ATOM      2  C   UNL     1     136.380 140.634 129.769  1.00  0.00    -0.007 C 
ATOM      3  C   UNL     1     135.682 140.424 128.408  1.00  0.00     0.004 C 
ATOM      4  C   UNL     1     135.519 138.936 128.054  1.00  0.00     0.012 C 
ATOM      5  C   UNL     1     134.749 138.166 129.153  1.00  0.00     0.058 C 
ATOM      6  C   UNL     1     135.358 138.462 130.513  1.00  0.00     0.136 C 
ATOM      7  O   UNL     1     135.529 137.577 131.340  1.00  0.00    -0.299 OA
ATOM      8  C   UNL     1     135.632 139.892 130.892  1.00  0.00     0.079 C 
ENDROOT
BRANCH   5   9
ATOM      9  C   UNL     1     134.614 136.638 128.859  1.00  0.00    -0.007 C 
ATOM     10  C   UNL     1     135.862 136.025 128.198  1.00  0.00     0.008 C 
ATOM     11  C   UNL     1     133.366 136.326 128.019  1.00  0.00     0.008 C 
ENDBRANCH   5   9
TORSDOF 1
ENDMDL
MODEL 3
REMARK VINA RESULT:    -3.882      2.445      4.252
REMARK INTER + INTRA:          -4.291
REMARK INTER:                  -4.107
REMARK INTRA:                  -0.184
REMARK UNBOUND:                -0.183
REMARK SMILES CC(C)[C@@H]1CC[C@H](C)CC1=O
REMARK SMILES IDX 8 1 7 2 6 3 5 4 4 5 10 6 11 7 9 8 2 9 1 10 3 11
REMARK H PARENT
REMARK Flexibility Score: inf
ROOT
ATOM      1  C   UNL     1     140.219 137.362 129.810  1.00  0.00     0.008 C 
ATOM      2  C   UNL     1     140.571 138.855 129.704  1.00  0.00    -0.007 C 
ATOM      3  C   UNL     1     140.329 139.410 128.284  1.00  0.00     0.004 C 
ATOM      4  C   UNL     1     138.834 139.494 127.932  1.00  0.00     0.012 C 
ATOM      5  C   UNL     1     138.050 140.344 128.960  1.00  0.00     0.058 C 
ATOM      6  C   UNL     1     138.375 139.880 130.369  1.00  0.00     0.136 C 
ATOM      7  O   UNL     1     137.503 139.763 131.219  1.00  0.00    -0.299 OA
ATOM      8  C   UNL     1     139.816 139.686 130.757  1.00  0.00     0.079 C 
ENDROOT
BRANCH   5   9
ATOM      9  C   UNL     1     136.516 140.404 128.671  1.00  0.00    -0.007 C 
ATOM     10  C   UNL     1     135.971 139.149 127.965  1.00  0.00     0.008 C 
ATOM     11  C   UNL     1     136.134 141.663 127.877  1.00  0.00     0.008 C 
ENDBRANCH   5   9
TORSDOF 1
ENDMDL
MODEL 4
REMARK VINA RESULT:    -3.850      2.409      4.279
REMARK INTER + INTRA:          -4.258
REMARK INTER:                  -4.073
REMARK INTRA:                  -0.184
REMARK UNBOUND:                -0.183
REMARK SMILES CC(C)[C@@H]1CC[C@H](C)CC1=O
REMARK SMILES IDX 8 1 7 2 6 3 5 4 4 5 10 6 11 7 9 8 2 9 1 10 3 11
REMARK H PARENT
REMARK Flexibility Score: inf
ROOT
ATOM      1  C   UNL     1     134.692 138.028 129.498  1.00  0.00     0.008 C 
ATOM      2  C   UNL     1     134.323 136.536 129.493  1.00  0.00    -0.007 C 
ATOM      3  C   UNL     1     134.648 135.861 128.142  1.00  0.00     0.004 C 
ATOM      4  C   UNL     1     136.161 135.732 127.899  1.00  0.00     0.012 C 
ATOM      5  C   UNL     1     136.863 134.962 129.042  1.00  0.00     0.058 C 
ATOM      6  C   UNL     1     136.454 135.546 130.384  1.00  0.00     0.136 C 
ATOM      7  O   UNL     1     137.270 135.723 131.277  1.00  0.00    -0.299 OA
ATOM      8  C   UNL     1     134.994 135.787 130.658  1.00  0.00     0.079 C 
ENDROOT
BRANCH   5   9
ATOM      9  C   UNL     1     138.410 134.861 128.862  1.00  0.00    -0.007 C 
ATOM     10  C   UNL     1     139.029 136.077 128.149  1.00  0.00     0.008 C 
ATOM     11  C   UNL     1     138.818 133.566 128.144  1.00  0.00     0.008 C 
ENDBRANCH   5   9
TORSDOF 1
ENDMDL
MODEL 5
REMARK VINA RESULT:    -3.842      2.196      3.734
REMARK INTER + INTRA:          -4.249
REMARK INTER:                  -4.066
REMARK INTRA:                  -0.184
REMARK UNBOUND:                -0.183
REMARK SMILES CC(C)[C@@H]1CC[C@H](C)CC1=O
REMARK SMILES IDX 8 1 7 2 6 3 5 4 4 5 10 6 11 7 9 8 2 9 1 10 3 11
REMARK H PARENT
REMARK Flexibility Score: inf
ROOT
ATOM      1  C   UNL     1     140.243 136.742 129.945  1.00  0.00     0.008 C 
ATOM      2  C   UNL     1     140.250 137.325 128.523  1.00  0.00    -0.007 C 
ATOM      3  C   UNL     1     138.849 137.295 127.875  1.00  0.00     0.004 C 
ATOM      4  C   UNL     1     137.875 138.286 128.534  1.00  0.00     0.012 C 
ATOM      5  C   UNL     1     138.424 139.733 128.508  1.00  0.00     0.058 C 
ATOM      6  C   UNL     1     139.849 139.753 129.034  1.00  0.00     0.136 C 
ATOM      7  O   UNL     1     140.234 140.628 129.797  1.00  0.00    -0.299 OA
ATOM      8  C   UNL     1     140.835 138.749 128.503  1.00  0.00     0.079 C 
ENDROOT
BRANCH   5   9
ATOM      9  C   UNL     1     137.491 140.762 129.220  1.00  0.00    -0.007 C 
ATOM     10  C   UNL     1     136.748 140.182 130.437  1.00  0.00     0.008 C 
ATOM     11  C   UNL     1     136.488 141.395 128.243  1.00  0.00     0.008 C 
ENDBRANCH   5   9
TORSDOF 1
ENDMDL
MODEL 6
REMARK VINA RESULT:    -3.840      3.189      4.525
REMARK INTER + INTRA:          -4.247
REMARK INTER:                  -4.068
REMARK INTRA:                  -0.180
REMARK UNBOUND:                -0.183
REMARK SMILES CC(C)[C@@H]1CC[C@H](C)CC1=O
REMARK SMILES IDX 8 1 7 2 6 3 5 4 4 5 10 6 11 7 9 8 2 9 1 10 3 11
REMARK H PARENT
REMARK Flexibility Score: inf
ROOT
ATOM      1  C   UNL     1     134.891 140.226 130.903  1.00  0.00     0.008 C 
ATOM      2  C   UNL     1     134.975 139.867 129.411  1.00  0.00    -0.007 C 
ATOM      3  C   UNL     1     135.788 140.904 128.608  1.00  0.00     0.004 C 
ATOM      4  C   UNL     1     137.288 140.865 128.945  1.00  0.00     0.012 C 
ATOM      5  C   UNL     1     137.889 139.456 128.726  1.00  0.00     0.058 C 
ATOM      6  C   UNL     1     137.025 138.413 129.416  1.00  0.00     0.136 C 
ATOM      7  O   UNL     1     137.522 137.492 130.048  1.00  0.00    -0.299 OA
ATOM      8  C   UNL     1     135.536 138.448 129.206  1.00  0.00     0.079 C 
ENDROOT
BRANCH   5   9
ATOM      9  C   UNL     1     139.398 139.359 129.114  1.00  0.00    -0.007 C 
ATOM     10  C   UNL     1     139.869 140.490 130.047  1.00  0.00     0.008 C 
ATOM     11  C   UNL     1     140.303 139.287 127.875  1.00  0.00     0.008 C 
ENDBRANCH   5   9
TORSDOF 1
ENDMDL
MODEL 7
REMARK VINA RESULT:    -3.834      1.631      4.180
REMARK INTER + INTRA:          -4.241
REMARK INTER:                  -4.087
REMARK INTRA:                  -0.154
REMARK UNBOUND:                -0.183
REMARK SMILES CC(C)[C@@H]1CC[C@H](C)CC1=O
REMARK SMILES IDX 8 1 7 2 6 3 5 4 4 5 10 6 11 7 9 8 2 9 1 10 3 11
REMARK H PARENT
REMARK Flexibility Score: inf
ROOT
ATOM      1  C   UNL     1     139.295 140.227 130.072  1.00  0.00     0.008 C 
ATOM      2  C   UNL     1     139.717 139.867 128.638  1.00  0.00    -0.007 C 
ATOM      3  C   UNL     1     141.038 139.071 128.603  1.00  0.00     0.004 C 
ATOM      4  C   UNL     1     140.883 137.649 129.167  1.00  0.00     0.012 C 
ATOM      5  C   UNL     1     139.781 136.854 128.426  1.00  0.00     0.058 C 
ATOM      6  C   UNL     1     138.509 137.682 128.352  1.00  0.00     0.136 C 
ATOM      7  O   UNL     1     137.411 137.182 128.553  1.00  0.00    -0.299 OA
ATOM      8  C   UNL     1     138.598 139.113 127.897  1.00  0.00     0.079 C 
ENDROOT
BRANCH   5   9
ATOM      9  C   UNL     1     139.550 135.424 129.009  1.00  0.00    -0.007 C 
ATOM     10  C   UNL     1     140.601 135.007 130.055  1.00  0.00     0.008 C 
ATOM     11  C   UNL     1     139.461 134.363 127.901  1.00  0.00     0.008 C 
ENDBRANCH   5   9
TORSDOF 1
ENDMDL
MODEL 8
REMARK VINA RESULT:    -3.816      2.062      4.398
REMARK INTER + INTRA:          -4.221
REMARK INTER:                  -4.061
REMARK INTRA:                  -0.160
REMARK UNBOUND:                -0.183
REMARK SMILES CC(C)[C@@H]1CC[C@H](C)CC1=O
REMARK SMILES IDX 8 1 7 2 6 3 5 4 4 5 10 6 11 7 9 8 2 9 1 10 3 11
REMARK H PARENT
REMARK Flexibility Score: inf
ROOT
ATOM      1  C   UNL     1     140.233 135.785 130.064  1.00  0.00     0.008 C 
ATOM      2  C   UNL     1     139.872 135.462 128.605  1.00  0.00    -0.007 C 
ATOM      3  C   UNL     1     139.053 134.159 128.484  1.00  0.00     0.004 C 
ATOM      4  C   UNL     1     137.632 134.302 129.054  1.00  0.00     0.012 C 
ATOM      5  C   UNL     1     136.858 135.461 128.382  1.00  0.00     0.058 C 
ATOM      6  C   UNL     1     137.708 136.722 128.392  1.00  0.00     0.136 C 
ATOM      7  O   UNL     1     137.226 137.813 128.661  1.00  0.00    -0.299 OA
ATOM      8  C   UNL     1     139.139 136.638 127.935  1.00  0.00     0.079 C 
ENDROOT
BRANCH   5   9
ATOM      9  C   UNL     1     135.430 135.679 128.975  1.00  0.00    -0.007 C 
ATOM     10  C   UNL     1     135.032 134.626 130.026  1.00  0.00     0.008 C 
ATOM     11  C   UNL     1     134.361 135.755 127.875  1.00  0.00     0.008 C 
ENDBRANCH   5   9
TORSDOF 1
ENDMDL
MODEL 9
REMARK VINA RESULT:    -3.770      3.637      4.700
REMARK INTER + INTRA:          -4.172
REMARK INTER:                  -4.008
REMARK INTRA:                  -0.165
REMARK UNBOUND:                -0.183
REMARK SMILES CC(C)[C@@H]1CC[C@H](C)CC1=O
REMARK SMILES IDX 8 1 7 2 6 3 5 4 4 5 10 6 11 7 9 8 2 9 1 10 3 11
REMARK H PARENT
REMARK Flexibility Score: inf
ROOT
ATOM      1  C   UNL     1     135.469 135.007 130.124  1.00  0.00     0.008 C 
ATOM      2  C   UNL     1     135.268 135.365 128.642  1.00  0.00    -0.007 C 
ATOM      3  C   UNL     1     134.018 136.244 128.421  1.00  0.00     0.004 C 
ATOM      4  C   UNL     1     134.190 137.664 128.986  1.00  0.00     0.012 C 
ATOM      5  C   UNL     1     135.430 138.372 128.392  1.00  0.00     0.058 C 
ATOM      6  C   UNL     1     136.644 137.464 128.499  1.00  0.00     0.136 C 
ATOM      7  O   UNL     1     137.735 137.896 128.841  1.00  0.00    -0.299 OA
ATOM      8  C   UNL     1     136.523 136.033 128.051  1.00  0.00     0.079 C 
ENDROOT
BRANCH   5   9
ATOM      9  C   UNL     1     135.674 139.796 128.986  1.00  0.00    -0.007 C 
ATOM     10  C   UNL     1     134.635 140.209 130.044  1.00  0.00     0.008 C 
ATOM     11  C   UNL     1     135.761 140.866 127.887  1.00  0.00     0.008 C 
ENDBRANCH   5   9
TORSDOF 1
ENDMDL
