MODEL 1
REMARK VINA RESULT:    -6.101      0.000      0.000
REMARK INTER + INTRA:          -9.658
REMARK INTER:                  -8.597
REMARK INTRA:                  -1.060
REMARK UNBOUND:                -1.060
REMARK SMILES OCC1=C[C@@H](O)[C@H]2C=CO[C@H](O[C@H]3O[C@H](CO)[C@H](O)[C@@H](O)[C@H]3O)[C@@H]12
REMARK SMILES IDX 12 1 11 2 8 3 9 4 7 5 10 6 24 7 5 8 3 9 4 10 6 11 2 13 1 14
REMARK SMILES IDX 13 16 22 17 14 18 20 19 15 20 18 21 23 22 21 24 16 26 17 27
REMARK SMILES IDX 19 29
REMARK H PARENT 6 12 1 15 23 23 21 25 17 28 19 30
REMARK Flexibility Score: inf
ROOT
ATOM      1  O   UNL     1     -10.154   5.047  34.894  1.00  0.00    -0.310 OA
ENDROOT
BRANCH   1   2
ATOM      2  C   UNL     1      -9.517   3.821  35.213  1.00  0.00     0.316 C 
ATOM      3  C   UNL     1      -9.239   0.982  35.105  1.00  0.00     0.018 C 
ATOM      4  C   UNL     1     -10.250   1.537  35.772  1.00  0.00     0.186 C 
ATOM      5  C   UNL     1      -8.410   1.775  34.123  1.00  0.00     0.061 C 
ATOM      6  O   UNL     1     -10.510   2.903  35.664  1.00  0.00    -0.472 OA
ATOM      7  C   UNL     1      -8.825   3.258  33.951  1.00  0.00     0.096 C 
ATOM      8  C   UNL     1      -6.901   1.803  34.444  1.00  0.00     0.145 C 
ATOM      9  C   UNL     1      -7.510   3.944  33.705  1.00  0.00    -0.036 C 
ATOM     10  C   UNL     1      -6.476   3.165  34.005  1.00  0.00     0.007 C 
BRANCH   8  11
ATOM     11  O   UNL     1      -6.618   1.601  35.808  1.00  0.00    -0.388 OA
ATOM     12  H   UNL     1      -6.291   2.457  36.188  1.00  0.00     0.211 HD
ENDBRANCH   8  11
BRANCH   9  13
ATOM     13  C   UNL     1      -7.340   5.351  33.189  1.00  0.00     0.187 C 
BRANCH  13  14
ATOM     14  O   UNL     1      -8.565   5.900  32.787  1.00  0.00    -0.392 OA
ATOM     15  H   UNL     1      -8.448   6.886  32.781  1.00  0.00     0.211 HD
ENDBRANCH  13  14
ENDBRANCH   9  13
ENDBRANCH   1   2
BRANCH   1  16
ATOM     16  C   UNL     1     -11.253   5.351  35.747  1.00  0.00     0.286 C 
ATOM     17  C   UNL     1     -12.585   5.495  34.969  1.00  0.00     0.202 C 
ATOM     18  O   UNL     1     -10.982   6.531  36.487  1.00  0.00    -0.341 OA
ATOM     19  C   UNL     1     -12.616   6.770  34.095  1.00  0.00     0.179 C 
ATOM     20  C   UNL     1     -10.778   7.651  35.640  1.00  0.00     0.178 C 
ATOM     21  C   UNL     1     -12.074   8.001  34.861  1.00  0.00     0.177 C 
BRANCH  17  22
ATOM     22  O   UNL     1     -12.826   4.354  34.188  1.00  0.00    -0.385 OA
ATOM     23  H   UNL     1     -13.173   4.672  33.313  1.00  0.00     0.211 HD
ENDBRANCH  17  22
BRANCH  19  24
ATOM     24  O   UNL     1     -11.941   6.580  32.874  1.00  0.00    -0.387 OA
ATOM     25  H   UNL     1     -11.068   7.042  32.921  1.00  0.00     0.211 HD
ENDBRANCH  19  24
BRANCH  20  26
ATOM     26  C   UNL     1     -10.297   8.830  36.501  1.00  0.00     0.191 C 
BRANCH  26  27
ATOM     27  O   UNL     1      -8.966   8.650  36.904  1.00  0.00    -0.394 OA
ATOM     28  H   UNL     1      -8.521   9.534  36.820  1.00  0.00     0.210 HD
ENDBRANCH  26  27
ENDBRANCH  20  26
BRANCH  21  29
ATOM     29  O   UNL     1     -13.065   8.524  35.714  1.00  0.00    -0.387 OA
ATOM     30  H   UNL     1     -13.891   8.657  35.180  1.00  0.00     0.211 HD
ENDBRANCH  21  29
ENDBRANCH   1  16
TORSDOF 10
ENDMDL
MODEL 2
REMARK VINA RESULT:    -6.067      9.399     11.850
REMARK INTER + INTRA:          -9.610
REMARK INTER:                  -7.978
REMARK INTRA:                  -1.632
REMARK UNBOUND:                -1.060
REMARK SMILES OCC1=C[C@@H](O)[C@H]2C=CO[C@H](O[C@H]3O[C@H](CO)[C@H](O)[C@@H](O)[C@H]3O)[C@@H]12
REMARK SMILES IDX 12 1 11 2 8 3 9 4 7 5 10 6 24 7 5 8 3 9 4 10 6 11 2 13 1 14
REMARK SMILES IDX 13 16 22 17 14 18 20 19 15 20 18 21 23 22 21 24 16 26 17 27
REMARK SMILES IDX 19 29
REMARK H PARENT 6 12 1 15 23 23 21 25 17 28 19 30
REMARK Flexibility Score: inf
ROOT
ATOM      1  O   UNL     1     -17.408  12.268  37.591  1.00  0.00    -0.310 OA
ENDROOT
BRANCH   1   2
ATOM      2  C   UNL     1     -18.651  11.615  37.790  1.00  0.00     0.316 C 
ATOM      3  C   UNL     1     -21.492  11.416  37.596  1.00  0.00     0.018 C 
ATOM      4  C   UNL     1     -20.932  12.302  38.418  1.00  0.00     0.186 C 
ATOM      5  C   UNL     1     -20.696  10.729  36.512  1.00  0.00     0.061 C 
ATOM      6  O   UNL     1     -19.559  12.548  38.372  1.00  0.00    -0.472 OA
ATOM      7  C   UNL     1     -19.202  11.135  36.428  1.00  0.00     0.096 C 
ATOM      8  C   UNL     1     -20.702   9.188  36.601  1.00  0.00     0.145 C 
ATOM      9  C   UNL     1     -18.537   9.858  35.996  1.00  0.00    -0.036 C 
ATOM     10  C   UNL     1     -19.339   8.808  36.124  1.00  0.00     0.007 C 
BRANCH   8  11
ATOM     11  O   UNL     1     -20.934   8.706  37.902  1.00  0.00    -0.388 OA
ATOM     12  H   UNL     1     -20.834   9.463  38.536  1.00  0.00     0.211 HD
ENDBRANCH   8  11
BRANCH   9  13
ATOM     13  C   UNL     1     -17.123   9.739  35.482  1.00  0.00     0.187 C 
BRANCH  13  14
ATOM     14  O   UNL     1     -16.690  10.937  34.897  1.00  0.00    -0.392 OA
ATOM     15  H   UNL     1     -15.952  11.281  35.466  1.00  0.00     0.211 HD
ENDBRANCH  13  14
ENDBRANCH   9  13
ENDBRANCH   1   2
BRANCH   1  16
ATOM     16  C   UNL     1     -17.523  13.683  37.480  1.00  0.00     0.286 C 
ATOM     17  C   UNL     1     -16.789  14.242  36.236  1.00  0.00     0.202 C 
ATOM     18  O   UNL     1     -17.041  14.304  38.661  1.00  0.00    -0.341 OA
ATOM     19  C   UNL     1     -15.252  14.151  36.376  1.00  0.00     0.179 C 
ATOM     20  C   UNL     1     -15.673  14.006  38.894  1.00  0.00     0.178 C 
ATOM     21  C   UNL     1     -14.778  14.605  37.777  1.00  0.00     0.177 C 
BRANCH  17  22
ATOM     22  O   UNL     1     -17.220  13.587  35.072  1.00  0.00    -0.385 OA
ATOM     23  H   UNL     1     -18.077  13.138  35.296  1.00  0.00     0.211 HD
ENDBRANCH  17  22
BRANCH  19  24
ATOM     24  O   UNL     1     -14.777  12.863  36.058  1.00  0.00    -0.387 OA
ATOM     25  H   UNL     1     -13.976  12.957  35.484  1.00  0.00     0.211 HD
ENDBRANCH  19  24
BRANCH  20  26
ATOM     26  C   UNL     1     -15.288  14.545  40.281  1.00  0.00     0.191 C 
BRANCH  26  27
ATOM     27  O   UNL     1     -15.961  15.743  40.561  1.00  0.00    -0.394 OA
ATOM     28  H   UNL     1     -16.892  15.631  40.231  1.00  0.00     0.210 HD
ENDBRANCH  26  27
ENDBRANCH  20  26
BRANCH  21  29
ATOM     29  O   UNL     1     -14.731  16.010  37.848  1.00  0.00    -0.387 OA
ATOM     30  H   UNL     1     -13.849  16.306  37.504  1.00  0.00     0.211 HD
ENDBRANCH  21  29
ENDBRANCH   1  16
TORSDOF 10
ENDMDL
MODEL 3
REMARK VINA RESULT:    -6.037      1.452      3.680
REMARK INTER + INTRA:          -9.568
REMARK INTER:                  -8.378
REMARK INTRA:                  -1.191
REMARK UNBOUND:                -1.060
REMARK SMILES OCC1=C[C@@H](O)[C@H]2C=CO[C@H](O[C@H]3O[C@H](CO)[C@H](O)[C@@H](O)[C@H]3O)[C@@H]12
REMARK SMILES IDX 12 1 11 2 8 3 9 4 7 5 10 6 24 7 5 8 3 9 4 10 6 11 2 13 1 14
REMARK SMILES IDX 13 16 22 17 14 18 20 19 15 20 18 21 23 22 21 24 16 26 17 27
REMARK SMILES IDX 19 29
REMARK H PARENT 6 12 1 15 23 23 21 25 17 28 19 30
REMARK Flexibility Score: inf
ROOT
ATOM      1  O   UNL     1     -10.639   4.922  34.879  1.00  0.00    -0.310 OA
ENDROOT
BRANCH   1   2
ATOM      2  C   UNL     1      -9.814   3.858  34.435  1.00  0.00     0.316 C 
ATOM      3  C   UNL     1      -7.334   2.459  34.236  1.00  0.00     0.018 C 
ATOM      4  C   UNL     1      -7.500   3.630  33.622  1.00  0.00     0.186 C 
ATOM      5  C   UNL     1      -8.287   1.985  35.307  1.00  0.00     0.061 C 
ATOM      6  O   UNL     1      -8.627   4.413  33.876  1.00  0.00    -0.472 OA
ATOM      7  C   UNL     1      -9.451   2.955  35.635  1.00  0.00     0.096 C 
ATOM      8  C   UNL     1      -8.954   0.626  35.007  1.00  0.00     0.145 C 
ATOM      9  C   UNL     1     -10.578   2.019  35.969  1.00  0.00    -0.036 C 
ATOM     10  C   UNL     1     -10.318   0.770  35.596  1.00  0.00     0.007 C 
BRANCH   8  11
ATOM     11  O   UNL     1      -9.026   0.333  33.632  1.00  0.00    -0.388 OA
ATOM     12  H   UNL     1      -8.279  -0.280  33.406  1.00  0.00     0.211 HD
ENDBRANCH   8  11
BRANCH   9  13
ATOM     13  C   UNL     1     -11.873   2.411  36.637  1.00  0.00     0.187 C 
BRANCH  13  14
ATOM     14  O   UNL     1     -12.794   2.916  35.709  1.00  0.00    -0.392 OA
ATOM     15  H   UNL     1     -12.714   2.354  34.894  1.00  0.00     0.211 HD
ENDBRANCH  13  14
ENDBRANCH   9  13
ENDBRANCH   1   2
BRANCH   1  16
ATOM     16  C   UNL     1     -10.462   6.123  34.134  1.00  0.00     0.286 C 
ATOM     17  C   UNL     1      -9.942   7.291  35.008  1.00  0.00     0.202 C 
ATOM     18  O   UNL     1     -11.677   6.484  33.497  1.00  0.00    -0.341 OA
ATOM     19  C   UNL     1     -11.011   7.798  36.002  1.00  0.00     0.179 C 
ATOM     20  C   UNL     1     -12.717   6.715  34.435  1.00  0.00     0.178 C 
ATOM     21  C   UNL     1     -12.396   7.943  35.327  1.00  0.00     0.177 C 
BRANCH  17  22
ATOM     22  O   UNL     1      -8.771   6.916  35.687  1.00  0.00    -0.385 OA
ATOM     23  H   UNL     1      -8.036   6.929  35.021  1.00  0.00     0.211 HD
ENDBRANCH  17  22
BRANCH  19  24
ATOM     24  O   UNL     1     -11.076   6.987  37.153  1.00  0.00    -0.387 OA
ATOM     25  H   UNL     1     -10.609   7.452  37.891  1.00  0.00     0.211 HD
ENDBRANCH  19  24
BRANCH  20  26
ATOM     26  C   UNL     1     -14.034   6.902  33.664  1.00  0.00     0.191 C 
BRANCH  26  27
ATOM     27  O   UNL     1     -14.829   7.891  34.258  1.00  0.00    -0.394 OA
ATOM     28  H   UNL     1     -14.560   8.756  33.850  1.00  0.00     0.210 HD
ENDBRANCH  26  27
ENDBRANCH  20  26
BRANCH  21  29
ATOM     29  O   UNL     1     -12.462   9.145  34.597  1.00  0.00    -0.387 OA
ATOM     30  H   UNL     1     -13.273   9.113  34.026  1.00  0.00     0.211 HD
ENDBRANCH  21  29
ENDBRANCH   1  16
TORSDOF 10
ENDMDL
MODEL 4
REMARK VINA RESULT:    -5.855      9.075     13.314
REMARK INTER + INTRA:          -9.311
REMARK INTER:                  -7.937
REMARK INTRA:                  -1.374
REMARK UNBOUND:                -1.060
REMARK SMILES OCC1=C[C@@H](O)[C@H]2C=CO[C@H](O[C@H]3O[C@H](CO)[C@H](O)[C@@H](O)[C@H]3O)[C@@H]12
REMARK SMILES IDX 12 1 11 2 8 3 9 4 7 5 10 6 24 7 5 8 3 9 4 10 6 11 2 13 1 14
REMARK SMILES IDX 13 16 22 17 14 18 20 19 15 20 18 21 23 22 21 24 16 26 17 27
REMARK SMILES IDX 19 29
REMARK H PARENT 6 12 1 15 23 23 21 25 17 28 19 30
REMARK Flexibility Score: inf
ROOT
ATOM      1  O   UNL     1     -18.955  12.526  37.807  1.00  0.00    -0.310 OA
ENDROOT
BRANCH   1   2
ATOM      2  C   UNL     1     -19.086  13.921  38.030  1.00  0.00     0.316 C 
ATOM      3  C   UNL     1     -20.168  16.206  39.355  1.00  0.00     0.018 C 
ATOM      4  C   UNL     1     -20.932  15.464  38.555  1.00  0.00     0.186 C 
ATOM      5  C   UNL     1     -18.833  15.708  39.858  1.00  0.00     0.061 C 
ATOM      6  O   UNL     1     -20.475  14.240  38.066  1.00  0.00    -0.472 OA
ATOM      7  C   UNL     1     -18.433  14.288  39.381  1.00  0.00     0.096 C 
ATOM      8  C   UNL     1     -17.640  16.617  39.494  1.00  0.00     0.145 C 
ATOM      9  C   UNL     1     -16.940  14.392  39.249  1.00  0.00    -0.036 C 
ATOM     10  C   UNL     1     -16.522  15.653  39.277  1.00  0.00     0.007 C 
BRANCH   8  11
ATOM     11  O   UNL     1     -17.864  17.398  38.345  1.00  0.00    -0.388 OA
ATOM     12  H   UNL     1     -17.027  17.415  37.813  1.00  0.00     0.211 HD
ENDBRANCH   8  11
BRANCH   9  13
ATOM     13  C   UNL     1     -15.992  13.229  39.092  1.00  0.00     0.187 C 
BRANCH  13  14
ATOM     14  O   UNL     1     -15.799  12.907  37.741  1.00  0.00    -0.392 OA
ATOM     15  H   UNL     1     -16.124  11.976  37.620  1.00  0.00     0.211 HD
ENDBRANCH  13  14
ENDBRANCH   9  13
ENDBRANCH   1   2
BRANCH   1  16
ATOM     16  C   UNL     1     -19.478  12.102  36.553  1.00  0.00     0.286 C 
ATOM     17  C   UNL     1     -20.637  11.086  36.706  1.00  0.00     0.202 C 
ATOM     18  O   UNL     1     -18.442  11.555  35.753  1.00  0.00    -0.341 OA
ATOM     19  C   UNL     1     -20.146   9.714  37.222  1.00  0.00     0.179 C 
ATOM     20  C   UNL     1     -17.843  10.424  36.368  1.00  0.00     0.178 C 
ATOM     21  C   UNL     1     -18.859   9.258  36.495  1.00  0.00     0.177 C 
BRANCH  17  22
ATOM     22  O   UNL     1     -21.638  11.602  37.546  1.00  0.00    -0.385 OA
ATOM     23  H   UNL     1     -22.348  10.911  37.605  1.00  0.00     0.211 HD
ENDBRANCH  17  22
BRANCH  19  24
ATOM     24  O   UNL     1     -19.981   9.714  38.621  1.00  0.00    -0.387 OA
ATOM     25  H   UNL     1     -19.512   8.882  38.882  1.00  0.00     0.211 HD
ENDBRANCH  19  24
BRANCH  20  26
ATOM     26  C   UNL     1     -16.612  10.018  35.542  1.00  0.00     0.191 C 
BRANCH  26  27
ATOM     27  O   UNL     1     -15.655  11.042  35.524  1.00  0.00    -0.394 OA
ATOM     28  H   UNL     1     -16.133  11.874  35.264  1.00  0.00     0.210 HD
ENDBRANCH  26  27
ENDBRANCH  20  26
BRANCH  21  29
ATOM     29  O   UNL     1     -19.174   8.707  35.238  1.00  0.00    -0.387 OA
ATOM     30  H   UNL     1     -19.764   9.348  34.761  1.00  0.00     0.211 HD
ENDBRANCH  21  29
ENDBRANCH   1  16
TORSDOF 10
ENDMDL
MODEL 5
REMARK VINA RESULT:    -5.766      9.001     11.835
REMARK INTER + INTRA:          -9.185
REMARK INTER:                  -7.557
REMARK INTRA:                  -1.628
REMARK UNBOUND:                -1.060
REMARK SMILES OCC1=C[C@@H](O)[C@H]2C=CO[C@H](O[C@H]3O[C@H](CO)[C@H](O)[C@@H](O)[C@H]3O)[C@@H]12
REMARK SMILES IDX 12 1 11 2 8 3 9 4 7 5 10 6 24 7 5 8 3 9 4 10 6 11 2 13 1 14
REMARK SMILES IDX 13 16 22 17 14 18 20 19 15 20 18 21 23 22 21 24 16 26 17 27
REMARK SMILES IDX 19 29
REMARK H PARENT 6 12 1 15 23 23 21 25 17 28 19 30
REMARK Flexibility Score: inf
ROOT
ATOM      1  O   UNL     1     -14.323  14.540  33.197  1.00  0.00    -0.310 OA
ENDROOT
BRANCH   1   2
ATOM      2  C   UNL     1     -13.198  15.381  33.000  1.00  0.00     0.316 C 
ATOM      3  C   UNL     1     -11.701  17.779  33.393  1.00  0.00     0.018 C 
ATOM      4  C   UNL     1     -12.826  17.795  32.679  1.00  0.00     0.186 C 
ATOM      5  C   UNL     1     -11.347  16.614  34.285  1.00  0.00     0.061 C 
ATOM      6  O   UNL     1     -13.666  16.681  32.650  1.00  0.00    -0.472 OA
ATOM      7  C   UNL     1     -12.380  15.459  34.309  1.00  0.00     0.096 C 
ATOM      8  C   UNL     1      -9.993  15.951  33.954  1.00  0.00     0.145 C 
ATOM      9  C   UNL     1     -11.513  14.243  34.477  1.00  0.00    -0.036 C 
ATOM     10  C   UNL     1     -10.231  14.508  34.251  1.00  0.00     0.007 C 
BRANCH   8  11
ATOM     11  O   UNL     1      -9.596  16.133  32.616  1.00  0.00    -0.388 OA
ATOM     12  H   UNL     1      -9.518  15.240  32.192  1.00  0.00     0.211 HD
ENDBRANCH   8  11
BRANCH   9  13
ATOM     13  C   UNL     1     -12.001  12.864  34.848  1.00  0.00     0.187 C 
BRANCH  13  14
ATOM     14  O   UNL     1     -13.180  12.926  35.603  1.00  0.00    -0.392 OA
ATOM     15  H   UNL     1     -13.909  12.582  35.023  1.00  0.00     0.211 HD
ENDBRANCH  13  14
ENDBRANCH   9  13
ENDBRANCH   1   2
BRANCH   1  16
ATOM     16  C   UNL     1     -15.504  15.250  33.554  1.00  0.00     0.286 C 
ATOM     17  C   UNL     1     -16.166  14.693  34.839  1.00  0.00     0.202 C 
ATOM     18  O   UNL     1     -16.426  15.234  32.476  1.00  0.00    -0.341 OA
ATOM     19  C   UNL     1     -16.798  13.301  34.613  1.00  0.00     0.179 C 
ATOM     20  C   UNL     1     -16.812  13.913  32.130  1.00  0.00     0.178 C 
ATOM     21  C   UNL     1     -17.598  13.244  33.290  1.00  0.00     0.177 C 
BRANCH  17  22
ATOM     22  O   UNL     1     -15.239  14.651  35.893  1.00  0.00    -0.385 OA
ATOM     23  H   UNL     1     -14.356  14.891  35.509  1.00  0.00     0.211 HD
ENDBRANCH  17  22
BRANCH  19  24
ATOM     24  O   UNL     1     -15.835  12.275  34.684  1.00  0.00    -0.387 OA
ATOM     25  H   UNL     1     -16.034  11.609  33.979  1.00  0.00     0.211 HD
ENDBRANCH  19  24
BRANCH  20  26
ATOM     26  C   UNL     1     -17.644  13.972  30.840  1.00  0.00     0.191 C 
BRANCH  26  27
ATOM     27  O   UNL     1     -18.525  15.063  30.857  1.00  0.00    -0.394 OA
ATOM     28  H   UNL     1     -18.082  15.795  30.354  1.00  0.00     0.210 HD
ENDBRANCH  26  27
ENDBRANCH  20  26
BRANCH  21  29
ATOM     29  O   UNL     1     -18.868  13.828  33.458  1.00  0.00    -0.387 OA
ATOM     30  H   UNL     1     -18.793  14.794  33.243  1.00  0.00     0.211 HD
ENDBRANCH  21  29
ENDBRANCH   1  16
TORSDOF 10
ENDMDL
MODEL 6
REMARK VINA RESULT:    -5.754      8.657     12.988
REMARK INTER + INTRA:          -9.169
REMARK INTER:                  -7.612
REMARK INTRA:                  -1.557
REMARK UNBOUND:                -1.060
REMARK SMILES OCC1=C[C@@H](O)[C@H]2C=CO[C@H](O[C@H]3O[C@H](CO)[C@H](O)[C@@H](O)[C@H]3O)[C@@H]12
REMARK SMILES IDX 12 1 11 2 8 3 9 4 7 5 10 6 24 7 5 8 3 9 4 10 6 11 2 13 1 14
REMARK SMILES IDX 13 16 22 17 14 18 20 19 15 20 18 21 23 22 21 24 16 26 17 27
REMARK SMILES IDX 19 29
REMARK H PARENT 6 12 1 15 23 23 21 25 17 28 19 30
REMARK Flexibility Score: inf
ROOT
ATOM      1  O   UNL     1     -13.986  15.567  32.940  1.00  0.00    -0.310 OA
ENDROOT
BRANCH   1   2
ATOM      2  C   UNL     1     -15.208  16.223  32.645  1.00  0.00     0.316 C 
ATOM      3  C   UNL     1     -17.143  17.342  30.870  1.00  0.00     0.018 C 
ATOM      4  C   UNL     1     -15.959  17.929  31.036  1.00  0.00     0.186 C 
ATOM      5  C   UNL     1     -17.394  15.925  31.328  1.00  0.00     0.061 C 
ATOM      6  O   UNL     1     -14.937  17.288  31.738  1.00  0.00    -0.472 OA
ATOM      7  C   UNL     1     -16.183  15.218  31.990  1.00  0.00     0.096 C 
ATOM      8  C   UNL     1     -18.557  15.780  32.333  1.00  0.00     0.145 C 
ATOM      9  C   UNL     1     -16.835  14.345  33.025  1.00  0.00    -0.036 C 
ATOM     10  C   UNL     1     -18.106  14.675  33.230  1.00  0.00     0.007 C 
BRANCH   8  11
ATOM     11  O   UNL     1     -18.810  16.955  33.065  1.00  0.00    -0.388 OA
ATOM     12  H   UNL     1     -19.569  17.430  32.637  1.00  0.00     0.211 HD
ENDBRANCH   8  11
BRANCH   9  13
ATOM     13  C   UNL     1     -16.160  13.223  33.775  1.00  0.00     0.187 C 
BRANCH  13  14
ATOM     14  O   UNL     1     -15.684  13.655  35.020  1.00  0.00    -0.392 OA
ATOM     15  H   UNL     1     -16.478  13.766  35.607  1.00  0.00     0.211 HD
ENDBRANCH  13  14
ENDBRANCH   9  13
ENDBRANCH   1   2
BRANCH   1  16
ATOM     16  C   UNL     1     -13.388  16.007  34.155  1.00  0.00     0.286 C 
ATOM     17  C   UNL     1     -12.098  16.832  33.917  1.00  0.00     0.202 C 
ATOM     18  O   UNL     1     -13.116  14.895  34.994  1.00  0.00    -0.341 OA
ATOM     19  C   UNL     1     -10.935  15.959  33.395  1.00  0.00     0.179 C 
ATOM     20  C   UNL     1     -12.218  13.981  34.385  1.00  0.00     0.178 C 
ATOM     21  C   UNL     1     -10.823  14.629  34.178  1.00  0.00     0.177 C 
BRANCH  17  22
ATOM     22  O   UNL     1     -12.350  17.899  33.039  1.00  0.00    -0.385 OA
ATOM     23  H   UNL     1     -13.323  17.884  32.840  1.00  0.00     0.211 HD
ENDBRANCH  17  22
BRANCH  19  24
ATOM     24  O   UNL     1     -11.032  15.740  32.007  1.00  0.00    -0.387 OA
ATOM     25  H   UNL     1     -10.646  16.521  31.538  1.00  0.00     0.211 HD
ENDBRANCH  19  24
BRANCH  20  26
ATOM     26  C   UNL     1     -12.135  12.723  35.264  1.00  0.00     0.191 C 
BRANCH  26  27
ATOM     27  O   UNL     1     -13.240  11.887  35.054  1.00  0.00    -0.394 OA
ATOM     28  H   UNL     1     -12.892  11.052  34.642  1.00  0.00     0.210 HD
ENDBRANCH  26  27
ENDBRANCH  20  26
BRANCH  21  29
ATOM     29  O   UNL     1     -10.160  14.834  35.403  1.00  0.00    -0.387 OA
ATOM     30  H   UNL     1     -10.848  14.915  36.114  1.00  0.00     0.211 HD
ENDBRANCH  21  29
ENDBRANCH   1  16
TORSDOF 10
ENDMDL
MODEL 7
REMARK VINA RESULT:    -5.707      9.841     13.136
REMARK INTER + INTRA:          -9.102
REMARK INTER:                  -7.561
REMARK INTRA:                  -1.541
REMARK UNBOUND:                -1.060
REMARK SMILES OCC1=C[C@@H](O)[C@H]2C=CO[C@H](O[C@H]3O[C@H](CO)[C@H](O)[C@@H](O)[C@H]3O)[C@@H]12
REMARK SMILES IDX 12 1 11 2 8 3 9 4 7 5 10 6 24 7 5 8 3 9 4 10 6 11 2 13 1 14
REMARK SMILES IDX 13 16 22 17 14 18 20 19 15 20 18 21 23 22 21 24 16 26 17 27
REMARK SMILES IDX 19 29
REMARK H PARENT 6 12 1 15 23 23 21 25 17 28 19 30
REMARK Flexibility Score: inf
ROOT
ATOM      1  O   UNL     1     -18.772  12.168  34.510  1.00  0.00    -0.310 OA
ENDROOT
BRANCH   1   2
ATOM      2  C   UNL     1     -18.184  13.245  33.798  1.00  0.00     0.316 C 
ATOM      3  C   UNL     1     -17.045  14.455  31.478  1.00  0.00     0.018 C 
ATOM      4  C   UNL     1     -16.389  13.497  32.131  1.00  0.00     0.186 C 
ATOM      5  C   UNL     1     -18.515  14.708  31.713  1.00  0.00     0.061 C 
ATOM      6  O   UNL     1     -17.017  12.762  33.138  1.00  0.00    -0.472 OA
ATOM      7  C   UNL     1     -19.190  13.778  32.753  1.00  0.00     0.096 C 
ATOM      8  C   UNL     1     -18.846  16.145  32.168  1.00  0.00     0.145 C 
ATOM      9  C   UNL     1     -20.208  14.680  33.393  1.00  0.00    -0.036 C 
ATOM     10  C   UNL     1     -19.996  15.959  33.101  1.00  0.00     0.007 C 
BRANCH   8  11
ATOM     11  O   UNL     1     -17.771  16.787  32.813  1.00  0.00    -0.388 OA
ATOM     12  H   UNL     1     -17.196  17.201  32.119  1.00  0.00     0.211 HD
ENDBRANCH   8  11
BRANCH   9  13
ATOM     13  C   UNL     1     -21.344  14.229  34.277  1.00  0.00     0.187 C 
BRANCH  13  14
ATOM     14  O   UNL     1     -20.996  14.303  35.633  1.00  0.00    -0.392 OA
ATOM     15  H   UNL     1     -21.488  15.077  36.012  1.00  0.00     0.211 HD
ENDBRANCH  13  14
ENDBRANCH   9  13
ENDBRANCH   1   2
BRANCH   1  16
ATOM     16  C   UNL     1     -18.237  11.996  35.818  1.00  0.00     0.286 C 
ATOM     17  C   UNL     1     -17.514  10.637  35.990  1.00  0.00     0.202 C 
ATOM     18  O   UNL     1     -19.265  12.136  36.786  1.00  0.00    -0.341 OA
ATOM     19  C   UNL     1     -18.500   9.447  35.991  1.00  0.00     0.179 C 
ATOM     20  C   UNL     1     -20.287  11.167  36.614  1.00  0.00     0.178 C 
ATOM     21  C   UNL     1     -19.743   9.735  36.867  1.00  0.00     0.177 C 
BRANCH  17  22
ATOM     22  O   UNL     1     -16.536  10.469  34.996  1.00  0.00    -0.385 OA
ATOM     23  H   UNL     1     -15.661  10.408  35.461  1.00  0.00     0.211 HD
ENDBRANCH  17  22
BRANCH  19  24
ATOM     24  O   UNL     1     -18.862   9.071  34.683  1.00  0.00    -0.387 OA
ATOM     25  H   UNL     1     -18.197   8.419  34.348  1.00  0.00     0.211 HD
ENDBRANCH  19  24
BRANCH  20  26
ATOM     26  C   UNL     1     -21.446  11.510  37.564  1.00  0.00     0.191 C 
BRANCH  26  27
ATOM     27  O   UNL     1     -20.974  12.114  38.738  1.00  0.00    -0.394 OA
ATOM     28  H   UNL     1     -21.771  12.435  39.235  1.00  0.00     0.210 HD
ENDBRANCH  26  27
ENDBRANCH  20  26
BRANCH  21  29
ATOM     29  O   UNL     1     -19.443   9.528  38.227  1.00  0.00    -0.387 OA
ATOM     30  H   UNL     1     -18.627  10.050  38.445  1.00  0.00     0.211 HD
ENDBRANCH  21  29
ENDBRANCH   1  16
TORSDOF 10
ENDMDL
MODEL 8
REMARK VINA RESULT:    -5.649     10.013     11.605
REMARK INTER + INTRA:          -9.021
REMARK INTER:                  -7.419
REMARK INTRA:                  -1.602
REMARK UNBOUND:                -1.060
REMARK SMILES OCC1=C[C@@H](O)[C@H]2C=CO[C@H](O[C@H]3O[C@H](CO)[C@H](O)[C@@H](O)[C@H]3O)[C@@H]12
REMARK SMILES IDX 12 1 11 2 8 3 9 4 7 5 10 6 24 7 5 8 3 9 4 10 6 11 2 13 1 14
REMARK SMILES IDX 13 16 22 17 14 18 20 19 15 20 18 21 23 22 21 24 16 26 17 27
REMARK SMILES IDX 19 29
REMARK H PARENT 6 12 1 15 23 23 21 25 17 28 19 30
REMARK Flexibility Score: inf
ROOT
ATOM      1  O   UNL     1     -14.266  14.361  35.104  1.00  0.00    -0.310 OA
ENDROOT
BRANCH   1   2
ATOM      2  C   UNL     1     -14.838  13.665  36.198  1.00  0.00     0.316 C 
ATOM      3  C   UNL     1     -16.223  13.517  38.690  1.00  0.00     0.018 C 
ATOM      4  C   UNL     1     -14.985  14.007  38.633  1.00  0.00     0.186 C 
ATOM      5  C   UNL     1     -17.060  13.337  37.446  1.00  0.00     0.061 C 
ATOM      6  O   UNL     1     -14.379  14.270  37.404  1.00  0.00    -0.472 OA
ATOM      7  C   UNL     1     -16.378  13.764  36.121  1.00  0.00     0.096 C 
ATOM      8  C   UNL     1     -17.546  11.891  37.213  1.00  0.00     0.145 C 
ATOM      9  C   UNL     1     -16.934  12.780  35.130  1.00  0.00    -0.036 C 
ATOM     10  C   UNL     1     -17.533  11.755  35.726  1.00  0.00     0.007 C 
BRANCH   8  11
ATOM     11  O   UNL     1     -16.722  10.922  37.816  1.00  0.00    -0.388 OA
ATOM     12  H   UNL     1     -15.779  11.218  37.727  1.00  0.00     0.211 HD
ENDBRANCH   8  11
BRANCH   9  13
ATOM     13  C   UNL     1     -16.837  12.899  33.629  1.00  0.00     0.187 C 
BRANCH  13  14
ATOM     14  O   UNL     1     -16.570  14.218  33.238  1.00  0.00    -0.392 OA
ATOM     15  H   UNL     1     -17.300  14.486  32.620  1.00  0.00     0.211 HD
ENDBRANCH  13  14
ENDBRANCH   9  13
ENDBRANCH   1   2
BRANCH   1  16
ATOM     16  C   UNL     1     -13.666  15.599  35.472  1.00  0.00     0.286 C 
ATOM     17  C   UNL     1     -14.140  16.776  34.584  1.00  0.00     0.202 C 
ATOM     18  O   UNL     1     -12.252  15.485  35.431  1.00  0.00    -0.341 OA
ATOM     19  C   UNL     1     -13.590  16.678  33.143  1.00  0.00     0.179 C 
ATOM     20  C   UNL     1     -11.786  15.158  34.131  1.00  0.00     0.178 C 
ATOM     21  C   UNL     1     -12.089  16.304  33.128  1.00  0.00     0.177 C 
BRANCH  17  22
ATOM     22  O   UNL     1     -15.542  16.854  34.575  1.00  0.00    -0.385 OA
ATOM     23  H   UNL     1     -15.785  17.704  35.025  1.00  0.00     0.211 HD
ENDBRANCH  17  22
BRANCH  19  24
ATOM     24  O   UNL     1     -14.354  15.796  32.354  1.00  0.00    -0.387 OA
ATOM     25  H   UNL     1     -15.129  16.292  31.989  1.00  0.00     0.211 HD
ENDBRANCH  19  24
BRANCH  20  26
ATOM     26  C   UNL     1     -10.281  14.859  34.214  1.00  0.00     0.191 C 
BRANCH  26  27
ATOM     27  O   UNL     1      -9.706  14.807  32.937  1.00  0.00    -0.394 OA
ATOM     28  H   UNL     1      -9.490  13.854  32.760  1.00  0.00     0.210 HD
ENDBRANCH  26  27
ENDBRANCH  20  26
BRANCH  21  29
ATOM     29  O   UNL     1     -11.297  17.439  33.386  1.00  0.00    -0.387 OA
ATOM     30  H   UNL     1     -10.388  17.268  33.027  1.00  0.00     0.211 HD
ENDBRANCH  21  29
ENDBRANCH   1  16
TORSDOF 10
ENDMDL
MODEL 9
REMARK VINA RESULT:    -5.611     10.096     11.726
REMARK INTER + INTRA:          -8.967
REMARK INTER:                  -7.413
REMARK INTRA:                  -1.554
REMARK UNBOUND:                -1.060
REMARK SMILES OCC1=C[C@@H](O)[C@H]2C=CO[C@H](O[C@H]3O[C@H](CO)[C@H](O)[C@@H](O)[C@H]3O)[C@@H]12
REMARK SMILES IDX 12 1 11 2 8 3 9 4 7 5 10 6 24 7 5 8 3 9 4 10 6 11 2 13 1 14
REMARK SMILES IDX 13 16 22 17 14 18 20 19 15 20 18 21 23 22 21 24 16 26 17 27
REMARK SMILES IDX 19 29
REMARK H PARENT 6 12 1 15 23 23 21 25 17 28 19 30
REMARK Flexibility Score: inf
ROOT
ATOM      1  O   UNL     1     -17.383  12.328  35.920  1.00  0.00    -0.310 OA
ENDROOT
BRANCH   1   2
ATOM      2  C   UNL     1     -16.533  12.641  34.828  1.00  0.00     0.316 C 
ATOM      3  C   UNL     1     -15.869  14.028  32.424  1.00  0.00     0.018 C 
ATOM      4  C   UNL     1     -16.832  13.108  32.428  1.00  0.00     0.186 C 
ATOM      5  C   UNL     1     -15.327  14.613  33.707  1.00  0.00     0.061 C 
ATOM      6  O   UNL     1     -17.301  12.573  33.629  1.00  0.00    -0.472 OA
ATOM      7  C   UNL     1     -15.974  14.070  35.007  1.00  0.00     0.096 C 
ATOM      8  C   UNL     1     -13.806  14.429  33.894  1.00  0.00     0.145 C 
ATOM      9  C   UNL     1     -14.826  14.084  35.978  1.00  0.00    -0.036 C 
ATOM     10  C   UNL     1     -13.657  14.244  35.368  1.00  0.00     0.007 C 
BRANCH   8  11
ATOM     11  O   UNL     1     -13.287  13.326  33.191  1.00  0.00    -0.388 OA
ATOM     12  H   UNL     1     -12.340  13.519  32.967  1.00  0.00     0.211 HD
ENDBRANCH   8  11
BRANCH   9  13
ATOM     13  C   UNL     1     -14.944  13.928  37.474  1.00  0.00     0.187 C 
BRANCH  13  14
ATOM     14  O   UNL     1     -16.255  14.164  37.911  1.00  0.00    -0.392 OA
ATOM     15  H   UNL     1     -16.799  14.337  37.098  1.00  0.00     0.211 HD
ENDBRANCH  13  14
ENDBRANCH   9  13
ENDBRANCH   1   2
BRANCH   1  16
ATOM     16  C   UNL     1     -18.762  12.286  35.569  1.00  0.00     0.286 C 
ATOM     17  C   UNL     1     -19.646  13.112  36.537  1.00  0.00     0.202 C 
ATOM     18  O   UNL     1     -19.210  10.941  35.516  1.00  0.00    -0.341 OA
ATOM     19  C   UNL     1     -19.748  12.460  37.935  1.00  0.00     0.179 C 
ATOM     20  C   UNL     1     -19.070  10.287  36.768  1.00  0.00     0.178 C 
ATOM     21  C   UNL     1     -19.990  10.935  37.837  1.00  0.00     0.177 C 
BRANCH  17  22
ATOM     22  O   UNL     1     -19.168  14.429  36.639  1.00  0.00    -0.385 OA
ATOM     23  H   UNL     1     -19.928  15.028  36.417  1.00  0.00     0.211 HD
ENDBRANCH  17  22
BRANCH  19  24
ATOM     24  O   UNL     1     -18.624  12.758  38.730  1.00  0.00    -0.387 OA
ATOM     25  H   UNL     1     -17.949  13.209  38.164  1.00  0.00     0.211 HD
ENDBRANCH  19  24
BRANCH  20  26
ATOM     26  C   UNL     1     -19.385   8.796  36.575  1.00  0.00     0.191 C 
BRANCH  26  27
ATOM     27  O   UNL     1     -19.487   8.138  37.809  1.00  0.00    -0.394 OA
ATOM     28  H   UNL     1     -18.579   8.146  38.212  1.00  0.00     0.210 HD
ENDBRANCH  26  27
ENDBRANCH  20  26
BRANCH  21  29
ATOM     29  O   UNL     1     -21.348  10.669  37.580  1.00  0.00    -0.387 OA
ATOM     30  H   UNL     1     -21.510  10.806  36.610  1.00  0.00     0.211 HD
ENDBRANCH  21  29
ENDBRANCH   1  16
TORSDOF 10
ENDMDL
