MODEL 1
REMARK VINA RESULT:    -6.812      0.000      0.000
REMARK INTER + INTRA:          -8.271
REMARK INTER:                  -8.007
REMARK INTRA:                  -0.264
REMARK UNBOUND:                -0.264
REMARK SMILES O=c1c(O)c(-c2ccc(O)c(O)c2)oc2cc(O)ccc12
REMARK SMILES IDX 5 1 3 2 2 3 1 4 21 5 15 6 14 7 16 8 17 9 19 10 20 11 6 12
REMARK SMILES IDX 7 13 8 14 9 15 13 16 11 17 10 18 12 20 4 22 18 24
REMARK H PARENT 10 19 12 21 4 23 18 25
REMARK Flexibility Score: inf
ROOT
ATOM      1  C   UNL     1       9.328  52.745  20.322  1.00  0.00     0.180 A 
ATOM      2  C   UNL     1      10.216  53.374  19.424  1.00  0.00     0.208 A 
ATOM      3  C   UNL     1      11.596  53.269  19.654  1.00  0.00     0.235 A 
ATOM      4  O   UNL     1      12.410  53.832  18.872  1.00  0.00    -0.285 OA
ATOM      5  C   UNL     1      12.059  52.530  20.754  1.00  0.00     0.069 A 
ATOM      6  C   UNL     1      11.106  51.910  21.592  1.00  0.00     0.142 A 
ATOM      7  O   UNL     1       9.808  52.041  21.344  1.00  0.00    -0.452 OA
ATOM      8  C   UNL     1      11.529  51.155  22.692  1.00  0.00     0.094 A 
ATOM      9  C   UNL     1      12.892  51.013  22.969  1.00  0.00     0.119 A 
ATOM     10  C   UNL     1      13.841  51.627  22.140  1.00  0.00     0.047 A 
ATOM     11  C   UNL     1      13.429  52.382  21.038  1.00  0.00     0.020 A 
ENDROOT
BRANCH   1  12
ATOM     12  C   UNL     1       7.858  52.823  20.158  1.00  0.00     0.025 A 
ATOM     13  C   UNL     1       7.071  53.642  20.988  1.00  0.00     0.016 A 
ATOM     14  C   UNL     1       5.684  53.681  20.831  1.00  0.00     0.051 A 
ATOM     15  C   UNL     1       5.061  52.895  19.853  1.00  0.00     0.157 A 
ATOM     16  C   UNL     1       7.226  52.021  19.195  1.00  0.00     0.062 A 
ATOM     17  C   UNL     1       5.836  52.058  19.034  1.00  0.00     0.158 A 
BRANCH  15  18
ATOM     18  O   UNL     1       3.675  52.938  19.698  1.00  0.00    -0.504 OA
ATOM     19  H   UNL     1       3.236  53.549  19.021  1.00  0.00     0.293 HD
ENDBRANCH  15  18
BRANCH  17  20
ATOM     20  O   UNL     1       5.245  51.257  18.056  1.00  0.00    -0.504 OA
ATOM     21  H   UNL     1       5.775  50.869  17.286  1.00  0.00     0.293 HD
ENDBRANCH  17  20
ENDBRANCH   1  12
BRANCH   2  22
ATOM     22  O   UNL     1       9.728  54.062  18.311  1.00  0.00    -0.502 OA
ATOM     23  H   UNL     1      10.332  54.381  17.564  1.00  0.00     0.293 HD
ENDBRANCH   2  22
BRANCH   9  24
ATOM     24  O   UNL     1      13.294  50.258  24.069  1.00  0.00    -0.508 OA
ATOM     25  H   UNL     1      13.341  49.247  24.029  1.00  0.00     0.293 HD
ENDBRANCH   9  24
TORSDOF 5
ENDMDL
MODEL 2
REMARK VINA RESULT:    -6.527      1.809      2.987
REMARK INTER + INTRA:          -7.936
REMARK INTER:                  -7.801
REMARK INTRA:                  -0.135
REMARK UNBOUND:                -0.264
REMARK SMILES O=c1c(O)c(-c2ccc(O)c(O)c2)oc2cc(O)ccc12
REMARK SMILES IDX 5 1 3 2 2 3 1 4 21 5 15 6 14 7 16 8 17 9 19 10 20 11 6 12
REMARK SMILES IDX 7 13 8 14 9 15 13 16 11 17 10 18 12 20 4 22 18 24
REMARK H PARENT 10 19 12 21 4 23 18 25
REMARK Flexibility Score: inf
ROOT
ATOM      1  C   UNL     1       8.338  52.345  21.732  1.00  0.00     0.180 A 
ATOM      2  C   UNL     1       8.190  52.109  23.115  1.00  0.00     0.208 A 
ATOM      3  C   UNL     1       9.335  51.840  23.880  1.00  0.00     0.235 A 
ATOM      4  O   UNL     1       9.227  51.614  25.117  1.00  0.00    -0.285 OA
ATOM      5  C   UNL     1      10.594  51.831  23.260  1.00  0.00     0.069 A 
ATOM      6  C   UNL     1      10.660  52.101  21.876  1.00  0.00     0.142 A 
ATOM      7  O   UNL     1       9.551  52.343  21.185  1.00  0.00    -0.452 OA
ATOM      8  C   UNL     1      11.898  52.112  21.224  1.00  0.00     0.094 A 
ATOM      9  C   UNL     1      13.073  51.854  21.936  1.00  0.00     0.119 A 
ATOM     10  C   UNL     1      13.012  51.584  23.310  1.00  0.00     0.047 A 
ATOM     11  C   UNL     1      11.780  51.572  23.971  1.00  0.00     0.020 A 
ENDROOT
BRANCH   1  12
ATOM     12  C   UNL     1       7.178  52.619  20.853  1.00  0.00     0.025 A 
ATOM     13  C   UNL     1       6.362  53.748  21.047  1.00  0.00     0.016 A 
ATOM     14  C   UNL     1       5.259  53.973  20.220  1.00  0.00     0.051 A 
ATOM     15  C   UNL     1       4.946  53.069  19.197  1.00  0.00     0.157 A 
ATOM     16  C   UNL     1       6.847  51.705  19.840  1.00  0.00     0.062 A 
ATOM     17  C   UNL     1       5.743  51.927  19.010  1.00  0.00     0.158 A 
BRANCH  15  18
ATOM     18  O   UNL     1       3.844  53.297  18.373  1.00  0.00    -0.504 OA
ATOM     19  H   UNL     1       3.290  54.141  18.450  1.00  0.00     0.293 HD
ENDBRANCH  15  18
BRANCH  17  20
ATOM     20  O   UNL     1       5.453  51.003  18.005  1.00  0.00    -0.504 OA
ATOM     21  H   UNL     1       5.361  51.276  17.034  1.00  0.00     0.293 HD
ENDBRANCH  17  20
ENDBRANCH   1  12
BRANCH   2  22
ATOM     22  O   UNL     1       6.929  52.172  23.713  1.00  0.00    -0.502 OA
ATOM     23  H   UNL     1       6.207  51.488  23.527  1.00  0.00     0.293 HD
ENDBRANCH   2  22
BRANCH   9  24
ATOM     24  O   UNL     1      14.297  51.868  21.270  1.00  0.00    -0.508 OA
ATOM     25  H   UNL     1      14.569  51.118  20.647  1.00  0.00     0.293 HD
ENDBRANCH   9  24
TORSDOF 5
ENDMDL
MODEL 3
REMARK VINA RESULT:    -6.505      2.365      4.526
REMARK INTER + INTRA:          -7.910
REMARK INTER:                  -7.628
REMARK INTRA:                  -0.281
REMARK UNBOUND:                -0.264
REMARK SMILES O=c1c(O)c(-c2ccc(O)c(O)c2)oc2cc(O)ccc12
REMARK SMILES IDX 5 1 3 2 2 3 1 4 21 5 15 6 14 7 16 8 17 9 19 10 20 11 6 12
REMARK SMILES IDX 7 13 8 14 9 15 13 16 11 17 10 18 12 20 4 22 18 24
REMARK H PARENT 10 19 12 21 4 23 18 25
REMARK Flexibility Score: inf
ROOT
ATOM      1  C   UNL     1      11.867  51.782  22.150  1.00  0.00     0.180 A 
ATOM      2  C   UNL     1      11.616  50.766  23.097  1.00  0.00     0.208 A 
ATOM      3  C   UNL     1      12.572  50.523  24.095  1.00  0.00     0.235 A 
ATOM      4  O   UNL     1      12.376  49.612  24.946  1.00  0.00    -0.285 OA
ATOM      5  C   UNL     1      13.738  51.302  24.140  1.00  0.00     0.069 A 
ATOM      6  C   UNL     1      13.903  52.316  23.170  1.00  0.00     0.142 A 
ATOM      7  O   UNL     1      12.978  52.509  22.236  1.00  0.00    -0.452 OA
ATOM      8  C   UNL     1      15.048  53.121  23.188  1.00  0.00     0.094 A 
ATOM      9  C   UNL     1      16.032  52.927  24.162  1.00  0.00     0.119 A 
ATOM     10  C   UNL     1      15.873  51.921  25.125  1.00  0.00     0.047 A 
ATOM     11  C   UNL     1      14.733  51.112  25.116  1.00  0.00     0.020 A 
ENDROOT
BRANCH   1  12
ATOM     12  C   UNL     1      10.917  52.089  21.057  1.00  0.00     0.025 A 
ATOM     13  C   UNL     1      11.152  51.657  19.739  1.00  0.00     0.016 A 
ATOM     14  C   UNL     1      10.253  51.979  18.720  1.00  0.00     0.051 A 
ATOM     15  C   UNL     1       9.115  52.747  18.996  1.00  0.00     0.157 A 
ATOM     16  C   UNL     1       9.786  52.877  21.324  1.00  0.00     0.062 A 
ATOM     17  C   UNL     1       8.883  53.201  20.305  1.00  0.00     0.158 A 
BRANCH  15  18
ATOM     18  O   UNL     1       8.219  53.066  17.976  1.00  0.00    -0.504 OA
ATOM     19  H   UNL     1       7.302  53.445  18.175  1.00  0.00     0.293 HD
ENDBRANCH  15  18
BRANCH  17  20
ATOM     20  O   UNL     1       7.763  53.974  20.612  1.00  0.00    -0.504 OA
ATOM     21  H   UNL     1       7.560  54.276  21.557  1.00  0.00     0.293 HD
ENDBRANCH  17  20
ENDBRANCH   1  12
BRANCH   2  22
ATOM     22  O   UNL     1      10.424  50.040  23.057  1.00  0.00    -0.502 OA
ATOM     23  H   UNL     1      10.314  49.211  22.486  1.00  0.00     0.293 HD
ENDBRANCH   2  22
BRANCH   9  24
ATOM     24  O   UNL     1      17.166  53.738  24.164  1.00  0.00    -0.508 OA
ATOM     25  H   UNL     1      17.175  54.636  23.696  1.00  0.00     0.293 HD
ENDBRANCH   9  24
TORSDOF 5
ENDMDL
MODEL 4
REMARK VINA RESULT:    -6.212      2.985      5.989
REMARK INTER + INTRA:          -7.565
REMARK INTER:                  -7.251
REMARK INTRA:                  -0.314
REMARK UNBOUND:                -0.264
REMARK SMILES O=c1c(O)c(-c2ccc(O)c(O)c2)oc2cc(O)ccc12
REMARK SMILES IDX 5 1 3 2 2 3 1 4 21 5 15 6 14 7 16 8 17 9 19 10 20 11 6 12
REMARK SMILES IDX 7 13 8 14 9 15 13 16 11 17 10 18 12 20 4 22 18 24
REMARK H PARENT 10 19 12 21 4 23 18 25
REMARK Flexibility Score: inf
ROOT
ATOM      1  C   UNL     1      11.296  51.796  21.186  1.00  0.00     0.180 A 
ATOM      2  C   UNL     1      12.086  51.067  22.099  1.00  0.00     0.208 A 
ATOM      3  C   UNL     1      11.540  50.728  23.346  1.00  0.00     0.235 A 
ATOM      4  O   UNL     1      12.231  50.086  24.184  1.00  0.00    -0.285 OA
ATOM      5  C   UNL     1      10.221  51.102  23.647  1.00  0.00     0.069 A 
ATOM      6  C   UNL     1       9.487  51.810  22.670  1.00  0.00     0.142 A 
ATOM      7  O   UNL     1      10.044  52.120  21.504  1.00  0.00    -0.452 OA
ATOM      8  C   UNL     1       8.165  52.192  22.928  1.00  0.00     0.094 A 
ATOM      9  C   UNL     1       7.566  51.878  24.152  1.00  0.00     0.119 A 
ATOM     10  C   UNL     1       8.292  51.177  25.125  1.00  0.00     0.047 A 
ATOM     11  C   UNL     1       9.612  50.790  24.877  1.00  0.00     0.020 A 
ENDROOT
BRANCH   1  12
ATOM     12  C   UNL     1      11.806  52.207  19.858  1.00  0.00     0.025 A 
ATOM     13  C   UNL     1      11.729  51.350  18.747  1.00  0.00     0.016 A 
ATOM     14  C   UNL     1      12.239  51.750  17.510  1.00  0.00     0.051 A 
ATOM     15  C   UNL     1      12.844  53.005  17.366  1.00  0.00     0.157 A 
ATOM     16  C   UNL     1      12.433  53.456  19.715  1.00  0.00     0.062 A 
ATOM     17  C   UNL     1      12.944  53.861  18.477  1.00  0.00     0.158 A 
BRANCH  15  18
ATOM     18  O   UNL     1      13.351  53.403  16.129  1.00  0.00    -0.504 OA
ATOM     19  H   UNL     1      12.817  53.992  15.502  1.00  0.00     0.293 HD
ENDBRANCH  15  18
BRANCH  17  20
ATOM     20  O   UNL     1      13.548  55.113  18.369  1.00  0.00    -0.504 OA
ATOM     21  H   UNL     1      13.018  55.973  18.437  1.00  0.00     0.293 HD
ENDBRANCH  17  20
ENDBRANCH   1  12
BRANCH   2  22
ATOM     22  O   UNL     1      13.379  50.666  21.753  1.00  0.00    -0.502 OA
ATOM     23  H   UNL     1      13.951  51.188  21.102  1.00  0.00     0.293 HD
ENDBRANCH   2  22
BRANCH   9  24
ATOM     24  O   UNL     1       6.250  52.267  24.392  1.00  0.00    -0.508 OA
ATOM     25  H   UNL     1       6.002  53.239  24.529  1.00  0.00     0.293 HD
ENDBRANCH   9  24
TORSDOF 5
ENDMDL
MODEL 5
REMARK VINA RESULT:    -6.144      1.248      3.129
REMARK INTER + INTRA:          -7.486
REMARK INTER:                  -7.246
REMARK INTRA:                  -0.240
REMARK UNBOUND:                -0.264
REMARK SMILES O=c1c(O)c(-c2ccc(O)c(O)c2)oc2cc(O)ccc12
REMARK SMILES IDX 5 1 3 2 2 3 1 4 21 5 15 6 14 7 16 8 17 9 19 10 20 11 6 12
REMARK SMILES IDX 7 13 8 14 9 15 13 16 11 17 10 18 12 20 4 22 18 24
REMARK H PARENT 10 19 12 21 4 23 18 25
REMARK Flexibility Score: inf
ROOT
ATOM      1  C   UNL     1       9.347  52.819  20.232  1.00  0.00     0.180 A 
ATOM      2  C   UNL     1      10.003  52.120  21.267  1.00  0.00     0.208 A 
ATOM      3  C   UNL     1      11.406  52.103  21.288  1.00  0.00     0.235 A 
ATOM      4  O   UNL     1      12.015  51.476  22.196  1.00  0.00    -0.285 OA
ATOM      5  C   UNL     1      12.119  52.794  20.296  1.00  0.00     0.069 A 
ATOM      6  C   UNL     1      11.388  53.489  19.308  1.00  0.00     0.142 A 
ATOM      7  O   UNL     1      10.060  53.473  19.319  1.00  0.00    -0.452 OA
ATOM      8  C   UNL     1      12.064  54.199  18.308  1.00  0.00     0.094 A 
ATOM      9  C   UNL     1      13.462  54.221  18.280  1.00  0.00     0.119 A 
ATOM     10  C   UNL     1      14.191  53.530  19.257  1.00  0.00     0.047 A 
ATOM     11  C   UNL     1      13.526  52.820  20.261  1.00  0.00     0.020 A 
ENDROOT
BRANCH   1  12
ATOM     12  C   UNL     1       7.870  52.870  20.131  1.00  0.00     0.025 A 
ATOM     13  C   UNL     1       7.101  53.641  21.019  1.00  0.00     0.016 A 
ATOM     14  C   UNL     1       5.708  53.654  20.919  1.00  0.00     0.051 A 
ATOM     15  C   UNL     1       5.061  52.888  19.941  1.00  0.00     0.157 A 
ATOM     16  C   UNL     1       7.216  52.086  19.166  1.00  0.00     0.062 A 
ATOM     17  C   UNL     1       5.821  52.097  19.063  1.00  0.00     0.158 A 
BRANCH  15  18
ATOM     18  O   UNL     1       3.670  52.904  19.844  1.00  0.00    -0.504 OA
ATOM     19  H   UNL     1       3.114  53.611  20.309  1.00  0.00     0.293 HD
ENDBRANCH  15  18
BRANCH  17  20
ATOM     20  O   UNL     1       5.207  51.316  18.083  1.00  0.00    -0.504 OA
ATOM     21  H   UNL     1       4.201  51.222  18.022  1.00  0.00     0.293 HD
ENDBRANCH  17  20
ENDBRANCH   1  12
BRANCH   2  22
ATOM     22  O   UNL     1       9.266  51.483  22.269  1.00  0.00    -0.502 OA
ATOM     23  H   UNL     1       9.457  50.532  22.559  1.00  0.00     0.293 HD
ENDBRANCH   2  22
BRANCH   9  24
ATOM     24  O   UNL     1      14.117  54.931  17.276  1.00  0.00    -0.508 OA
ATOM     25  H   UNL     1      13.727  55.781  16.888  1.00  0.00     0.293 HD
ENDBRANCH   9  24
TORSDOF 5
ENDMDL
MODEL 6
REMARK VINA RESULT:    -6.028      2.021      3.388
REMARK INTER + INTRA:          -7.350
REMARK INTER:                  -7.729
REMARK INTRA:                   0.379
REMARK UNBOUND:                -0.264
REMARK SMILES O=c1c(O)c(-c2ccc(O)c(O)c2)oc2cc(O)ccc12
REMARK SMILES IDX 5 1 3 2 2 3 1 4 21 5 15 6 14 7 16 8 17 9 19 10 20 11 6 12
REMARK SMILES IDX 7 13 8 14 9 15 13 16 11 17 10 18 12 20 4 22 18 24
REMARK H PARENT 10 19 12 21 4 23 18 25
REMARK Flexibility Score: inf
ROOT
ATOM      1  C   UNL     1       8.655  52.315  20.952  1.00  0.00     0.180 A 
ATOM      2  C   UNL     1       7.833  52.415  22.094  1.00  0.00     0.208 A 
ATOM      3  C   UNL     1       8.399  52.177  23.356  1.00  0.00     0.235 A 
ATOM      4  O   UNL     1       7.683  52.249  24.392  1.00  0.00    -0.285 OA
ATOM      5  C   UNL     1       9.765  51.866  23.453  1.00  0.00     0.069 A 
ATOM      6  C   UNL     1      10.524  51.809  22.264  1.00  0.00     0.142 A 
ATOM      7  O   UNL     1       9.948  52.032  21.088  1.00  0.00    -0.452 OA
ATOM      8  C   UNL     1      11.891  51.513  22.320  1.00  0.00     0.094 A 
ATOM      9  C   UNL     1      12.510  51.270  23.550  1.00  0.00     0.119 A 
ATOM     10  C   UNL     1      11.760  51.324  24.733  1.00  0.00     0.047 A 
ATOM     11  C   UNL     1      10.394  51.621  24.687  1.00  0.00     0.020 A 
ENDROOT
BRANCH   1  12
ATOM     12  C   UNL     1       8.129  52.534  19.584  1.00  0.00     0.025 A 
ATOM     13  C   UNL     1       8.958  52.995  18.546  1.00  0.00     0.016 A 
ATOM     14  C   UNL     1       8.435  53.217  17.271  1.00  0.00     0.051 A 
ATOM     15  C   UNL     1       7.075  52.996  17.015  1.00  0.00     0.157 A 
ATOM     16  C   UNL     1       6.763  52.335  19.329  1.00  0.00     0.062 A 
ATOM     17  C   UNL     1       6.235  52.556  18.052  1.00  0.00     0.158 A 
BRANCH  15  18
ATOM     18  O   UNL     1       6.556  53.218  15.740  1.00  0.00    -0.504 OA
ATOM     19  H   UNL     1       6.511  52.478  15.049  1.00  0.00     0.293 HD
ENDBRANCH  15  18
BRANCH  17  20
ATOM     20  O   UNL     1       4.876  52.334  17.832  1.00  0.00    -0.504 OA
ATOM     21  H   UNL     1       4.473  51.405  17.848  1.00  0.00     0.293 HD
ENDBRANCH  17  20
ENDBRANCH   1  12
BRANCH   2  22
ATOM     22  O   UNL     1       6.489  52.774  21.970  1.00  0.00    -0.502 OA
ATOM     23  H   UNL     1       6.071  53.005  21.078  1.00  0.00     0.293 HD
ENDBRANCH   2  22
BRANCH   9  24
ATOM     24  O   UNL     1      13.872  50.976  23.587  1.00  0.00    -0.508 OA
ATOM     25  H   UNL     1      14.379  50.926  24.463  1.00  0.00     0.293 HD
ENDBRANCH   9  24
TORSDOF 5
ENDMDL
MODEL 7
REMARK VINA RESULT:    -5.899      2.404      7.750
REMARK INTER + INTRA:          -7.197
REMARK INTER:                  -6.882
REMARK INTRA:                  -0.315
REMARK UNBOUND:                -0.264
REMARK SMILES O=c1c(O)c(-c2ccc(O)c(O)c2)oc2cc(O)ccc12
REMARK SMILES IDX 5 1 3 2 2 3 1 4 21 5 15 6 14 7 16 8 17 9 19 10 20 11 6 12
REMARK SMILES IDX 7 13 8 14 9 15 13 16 11 17 10 18 12 20 4 22 18 24
REMARK H PARENT 10 19 12 21 4 23 18 25
REMARK Flexibility Score: inf
ROOT
ATOM      1  C   UNL     1      11.976  51.580  22.594  1.00  0.00     0.180 A 
ATOM      2  C   UNL     1      11.427  50.620  23.470  1.00  0.00     0.208 A 
ATOM      3  C   UNL     1      10.033  50.555  23.613  1.00  0.00     0.235 A 
ATOM      4  O   UNL     1       9.518  49.713  24.399  1.00  0.00    -0.285 OA
ATOM      5  C   UNL     1       9.221  51.428  22.872  1.00  0.00     0.069 A 
ATOM      6  C   UNL     1       9.847  52.344  21.999  1.00  0.00     0.142 A 
ATOM      7  O   UNL     1      11.171  52.379  21.899  1.00  0.00    -0.452 OA
ATOM      8  C   UNL     1       9.071  53.224  21.234  1.00  0.00     0.094 A 
ATOM      9  C   UNL     1       7.677  53.202  21.333  1.00  0.00     0.119 A 
ATOM     10  C   UNL     1       7.052  52.295  22.199  1.00  0.00     0.047 A 
ATOM     11  C   UNL     1       7.817  51.412  22.966  1.00  0.00     0.020 A 
ENDROOT
BRANCH   1  12
ATOM     12  C   UNL     1      13.437  51.723  22.402  1.00  0.00     0.025 A 
ATOM     13  C   UNL     1      14.116  51.016  21.394  1.00  0.00     0.016 A 
ATOM     14  C   UNL     1      15.499  51.149  21.247  1.00  0.00     0.051 A 
ATOM     15  C   UNL     1      16.226  51.978  22.111  1.00  0.00     0.157 A 
ATOM     16  C   UNL     1      14.174  52.536  23.279  1.00  0.00     0.062 A 
ATOM     17  C   UNL     1      15.559  52.672  23.134  1.00  0.00     0.158 A 
BRANCH  15  18
ATOM     18  O   UNL     1      17.606  52.109  21.960  1.00  0.00    -0.504 OA
ATOM     19  H   UNL     1      18.242  51.939  22.730  1.00  0.00     0.293 HD
ENDBRANCH  15  18
BRANCH  17  20
ATOM     20  O   UNL     1      16.255  53.500  24.015  1.00  0.00    -0.504 OA
ATOM     21  H   UNL     1      17.157  53.896  23.782  1.00  0.00     0.293 HD
ENDBRANCH  17  20
ENDBRANCH   1  12
BRANCH   2  22
ATOM     22  O   UNL     1      12.257  49.732  24.158  1.00  0.00    -0.502 OA
ATOM     23  H   UNL     1      13.175  49.997  24.492  1.00  0.00     0.293 HD
ENDBRANCH   2  22
BRANCH   9  24
ATOM     24  O   UNL     1       6.920  54.086  20.565  1.00  0.00    -0.508 OA
ATOM     25  H   UNL     1       6.329  53.759  19.811  1.00  0.00     0.293 HD
ENDBRANCH   9  24
TORSDOF 5
ENDMDL
MODEL 8
REMARK VINA RESULT:    -5.862      2.262      7.307
REMARK INTER + INTRA:          -7.154
REMARK INTER:                  -6.912
REMARK INTRA:                  -0.242
REMARK UNBOUND:                -0.264
REMARK SMILES O=c1c(O)c(-c2ccc(O)c(O)c2)oc2cc(O)ccc12
REMARK SMILES IDX 5 1 3 2 2 3 1 4 21 5 15 6 14 7 16 8 17 9 19 10 20 11 6 12
REMARK SMILES IDX 7 13 8 14 9 15 13 16 11 17 10 18 12 20 4 22 18 24
REMARK H PARENT 10 19 12 21 4 23 18 25
REMARK Flexibility Score: inf
ROOT
ATOM      1  C   UNL     1       8.685  52.694  19.511  1.00  0.00     0.180 A 
ATOM      2  C   UNL     1       7.973  52.755  20.727  1.00  0.00     0.208 A 
ATOM      3  C   UNL     1       6.592  52.997  20.689  1.00  0.00     0.235 A 
ATOM      4  O   UNL     1       5.935  53.068  21.764  1.00  0.00    -0.285 OA
ATOM      5  C   UNL     1       5.951  53.153  19.450  1.00  0.00     0.069 A 
ATOM      6  C   UNL     1       6.731  53.054  18.277  1.00  0.00     0.142 A 
ATOM      7  O   UNL     1       8.038  52.832  18.356  1.00  0.00    -0.452 OA
ATOM      8  C   UNL     1       6.127  53.193  17.022  1.00  0.00     0.094 A 
ATOM      9  C   UNL     1       4.753  53.432  16.923  1.00  0.00     0.119 A 
ATOM     10  C   UNL     1       3.976  53.533  18.085  1.00  0.00     0.047 A 
ATOM     11  C   UNL     1       4.569  53.394  19.343  1.00  0.00     0.020 A 
ENDROOT
BRANCH   1  12
ATOM     12  C   UNL     1      10.147  52.459  19.467  1.00  0.00     0.025 A 
ATOM     13  C   UNL     1      10.678  51.214  19.087  1.00  0.00     0.016 A 
ATOM     14  C   UNL     1      12.060  51.009  19.077  1.00  0.00     0.051 A 
ATOM     15  C   UNL     1      12.930  52.038  19.457  1.00  0.00     0.157 A 
ATOM     16  C   UNL     1      11.023  53.480  19.867  1.00  0.00     0.062 A 
ATOM     17  C   UNL     1      12.408  53.279  19.858  1.00  0.00     0.158 A 
BRANCH  15  18
ATOM     18  O   UNL     1      14.310  51.830  19.444  1.00  0.00    -0.504 OA
ATOM     19  H   UNL     1      14.957  52.548  19.745  1.00  0.00     0.293 HD
ENDBRANCH  15  18
BRANCH  17  20
ATOM     20  O   UNL     1      13.248  54.321  20.249  1.00  0.00    -0.504 OA
ATOM     21  H   UNL     1      14.225  54.353  19.985  1.00  0.00     0.293 HD
ENDBRANCH  17  20
ENDBRANCH   1  12
BRANCH   2  22
ATOM     22  O   UNL     1       8.629  52.547  21.942  1.00  0.00    -0.502 OA
ATOM     23  H   UNL     1       9.432  51.937  22.027  1.00  0.00     0.293 HD
ENDBRANCH   2  22
BRANCH   9  24
ATOM     24  O   UNL     1       4.168  53.569  15.665  1.00  0.00    -0.508 OA
ATOM     25  H   UNL     1       3.249  53.977  15.550  1.00  0.00     0.293 HD
ENDBRANCH   9  24
TORSDOF 5
ENDMDL
MODEL 9
REMARK VINA RESULT:    -5.851      2.879      5.472
REMARK INTER + INTRA:          -7.141
REMARK INTER:                  -6.820
REMARK INTRA:                  -0.321
REMARK UNBOUND:                -0.264
REMARK SMILES O=c1c(O)c(-c2ccc(O)c(O)c2)oc2cc(O)ccc12
REMARK SMILES IDX 5 1 3 2 2 3 1 4 21 5 15 6 14 7 16 8 17 9 19 10 20 11 6 12
REMARK SMILES IDX 7 13 8 14 9 15 13 16 11 17 10 18 12 20 4 22 18 24
REMARK H PARENT 10 19 12 21 4 23 18 25
REMARK Flexibility Score: inf
ROOT
ATOM      1  C   UNL     1      11.114  52.554  20.544  1.00  0.00     0.180 A 
ATOM      2  C   UNL     1       9.835  53.015  20.920  1.00  0.00     0.208 A 
ATOM      3  C   UNL     1       9.249  52.504  22.088  1.00  0.00     0.235 A 
ATOM      4  O   UNL     1       8.101  52.892  22.439  1.00  0.00    -0.285 OA
ATOM      5  C   UNL     1       9.952  51.567  22.860  1.00  0.00     0.069 A 
ATOM      6  C   UNL     1      11.238  51.174  22.429  1.00  0.00     0.142 A 
ATOM      7  O   UNL     1      11.754  51.676  21.312  1.00  0.00    -0.452 OA
ATOM      8  C   UNL     1      11.976  50.250  23.178  1.00  0.00     0.094 A 
ATOM      9  C   UNL     1      11.444  49.709  24.352  1.00  0.00     0.119 A 
ATOM     10  C   UNL     1      10.167  50.095  24.783  1.00  0.00     0.047 A 
ATOM     11  C   UNL     1       9.423  51.018  24.043  1.00  0.00     0.020 A 
ENDROOT
BRANCH   1  12
ATOM     12  C   UNL     1      11.793  53.032  19.317  1.00  0.00     0.025 A 
ATOM     13  C   UNL     1      11.541  52.444  18.065  1.00  0.00     0.016 A 
ATOM     14  C   UNL     1      12.211  52.895  16.926  1.00  0.00     0.051 A 
ATOM     15  C   UNL     1      13.151  53.929  17.020  1.00  0.00     0.157 A 
ATOM     16  C   UNL     1      12.752  54.053  19.410  1.00  0.00     0.062 A 
ATOM     17  C   UNL     1      13.425  54.508  18.271  1.00  0.00     0.158 A 
BRANCH  15  18
ATOM     18  O   UNL     1      13.817  54.378  15.880  1.00  0.00    -0.504 OA
ATOM     19  H   UNL     1      13.837  53.832  15.028  1.00  0.00     0.293 HD
ENDBRANCH  15  18
BRANCH  17  20
ATOM     20  O   UNL     1      14.360  55.535  18.400  1.00  0.00    -0.504 OA
ATOM     21  H   UNL     1      15.011  55.766  17.659  1.00  0.00     0.293 HD
ENDBRANCH  17  20
ENDBRANCH   1  12
BRANCH   2  22
ATOM     22  O   UNL     1       9.180  53.985  20.158  1.00  0.00    -0.502 OA
ATOM     23  H   UNL     1       9.682  54.677  19.616  1.00  0.00     0.293 HD
ENDBRANCH   2  22
BRANCH   9  24
ATOM     24  O   UNL     1      12.192  48.789  25.085  1.00  0.00    -0.508 OA
ATOM     25  H   UNL     1      12.941  49.086  25.699  1.00  0.00     0.293 HD
ENDBRANCH   9  24
TORSDOF 5
ENDMDL
