MODEL 1
REMARK VINA RESULT:    -2.852      0.000      0.000
REMARK INTER + INTRA:          -7.205
REMARK INTER:                  -5.521
REMARK INTRA:                  -1.685
REMARK UNBOUND:                -1.685
REMARK SMILES CCCCCC=CCC=CCCCCCCCCOC(C)=O
REMARK SMILES IDX 12 1 11 2 10 3 9 4 8 5 7 6 6 7 5 8 4 9 3 10 2 11 1 12 13 13
REMARK SMILES IDX 14 14 15 15 16 16 17 17 18 18 19 19 20 20 22 21 21 22
REMARK H PARENT
REMARK Flexibility Score: inf
ROOT
ATOM      1  C   UNL     1      22.031  51.264  50.263  1.00  0.00     0.004 C 
ENDROOT
BRANCH   1   2
ATOM      2  C   UNL     1      23.341  51.666  50.965  1.00  0.00     0.027 C 
BRANCH   2   3
ATOM      3  C   UNL     1      23.844  50.621  51.926  1.00  0.00    -0.031 C 
ATOM      4  C   UNL     1      23.951  50.790  53.257  1.00  0.00    -0.027 C 
BRANCH   4   5
ATOM      5  C   UNL     1      23.536  52.036  53.995  1.00  0.00     0.054 C 
BRANCH   5   6
ATOM      6  C   UNL     1      23.413  51.773  55.476  1.00  0.00    -0.027 C 
ATOM      7  C   UNL     1      22.272  51.385  56.073  1.00  0.00    -0.031 C 
BRANCH   7   8
ATOM      8  C   UNL     1      20.956  51.182  55.360  1.00  0.00     0.027 C 
BRANCH   8   9
ATOM      9  C   UNL     1      19.782  51.845  56.095  1.00  0.00     0.004 C 
BRANCH   9  10
ATOM     10  C   UNL     1      19.293  53.116  55.380  1.00  0.00     0.000 C 
BRANCH  10  11
ATOM     11  C   UNL     1      19.715  54.401  56.110  1.00  0.00    -0.003 C 
ATOM     12  C   UNL     1      18.757  55.565  55.859  1.00  0.00     0.004 C 
ENDBRANCH  10  11
ENDBRANCH   9  10
ENDBRANCH   8   9
ENDBRANCH   7   8
ENDBRANCH   5   6
ENDBRANCH   4   5
ENDBRANCH   2   3
ENDBRANCH   1   2
BRANCH   1  13
ATOM     13  C   UNL     1      21.279  52.447  49.615  1.00  0.00     0.000 C 
BRANCH  13  14
ATOM     14  C   UNL     1      21.935  53.002  48.337  1.00  0.00     0.000 C 
BRANCH  14  15
ATOM     15  C   UNL     1      23.274  53.730  48.594  1.00  0.00     0.000 C 
BRANCH  15  16
ATOM     16  C   UNL     1      23.075  55.240  48.818  1.00  0.00     0.003 C 
BRANCH  16  17
ATOM     17  C   UNL     1      24.123  55.844  49.769  1.00  0.00     0.042 C 
BRANCH  17  18
ATOM     18  C   UNL     1      23.601  56.053  51.192  1.00  0.00     0.233 C 
BRANCH  18  19
ATOM     19  O   UNL     1      22.256  55.592  51.290  1.00  0.00    -0.466 OA
BRANCH  19  20
ATOM     20  C   UNL     1      21.717  55.072  52.470  1.00  0.00     0.302 C 
ATOM     21  O   UNL     1      20.667  54.374  52.446  1.00  0.00    -0.253 OA
ATOM     22  C   UNL     1      22.364  55.388  53.776  1.00  0.00     0.139 C 
ENDBRANCH  19  20
ENDBRANCH  18  19
ENDBRANCH  17  18
ENDBRANCH  16  17
ENDBRANCH  15  16
ENDBRANCH  14  15
ENDBRANCH  13  14
ENDBRANCH   1  13
TORSDOF 16
ENDMDL
MODEL 2
REMARK VINA RESULT:    -2.511      1.401      5.150
REMARK INTER + INTRA:          -6.544
REMARK INTER:                  -5.550
REMARK INTRA:                  -0.994
REMARK UNBOUND:                -1.685
REMARK SMILES CCCCCC=CCC=CCCCCCCCCOC(C)=O
REMARK SMILES IDX 12 1 11 2 10 3 9 4 8 5 7 6 6 7 5 8 4 9 3 10 2 11 1 12 13 13
REMARK SMILES IDX 14 14 15 15 16 16 17 17 18 18 19 19 20 20 22 21 21 22
REMARK H PARENT
REMARK Flexibility Score: inf
ROOT
ATOM      1  C   UNL     1      20.007  51.625  56.045  1.00  0.00     0.004 C 
ENDROOT
BRANCH   1   2
ATOM      2  C   UNL     1      21.246  51.330  55.180  1.00  0.00     0.027 C 
BRANCH   2   3
ATOM      3  C   UNL     1      22.433  50.865  55.984  1.00  0.00    -0.031 C 
ATOM      4  C   UNL     1      23.607  50.467  55.460  1.00  0.00    -0.027 C 
BRANCH   4   5
ATOM      5  C   UNL     1      23.931  50.475  53.989  1.00  0.00     0.054 C 
BRANCH   5   6
ATOM      6  C   UNL     1      23.752  51.853  53.402  1.00  0.00    -0.027 C 
ATOM      7  C   UNL     1      23.161  52.090  52.218  1.00  0.00    -0.031 C 
BRANCH   7   8
ATOM      8  C   UNL     1      22.617  51.021  51.301  1.00  0.00     0.027 C 
BRANCH   8   9
ATOM      9  C   UNL     1      21.483  51.538  50.404  1.00  0.00     0.004 C 
BRANCH   9  10
ATOM     10  C   UNL     1      21.671  53.017  50.026  1.00  0.00     0.000 C 
BRANCH  10  11
ATOM     11  C   UNL     1      22.544  53.197  48.774  1.00  0.00    -0.003 C 
ATOM     12  C   UNL     1      23.068  54.624  48.619  1.00  0.00     0.004 C 
ENDBRANCH  10  11
ENDBRANCH   9  10
ENDBRANCH   8   9
ENDBRANCH   7   8
ENDBRANCH   5   6
ENDBRANCH   4   5
ENDBRANCH   2   3
ENDBRANCH   1   2
BRANCH   1  13
ATOM     13  C   UNL     1      19.297  52.950  55.689  1.00  0.00     0.000 C 
BRANCH  13  14
ATOM     14  C   UNL     1      19.579  53.468  54.265  1.00  0.00     0.000 C 
BRANCH  14  15
ATOM     15  C   UNL     1      20.829  54.371  54.171  1.00  0.00     0.000 C 
BRANCH  15  16
ATOM     16  C   UNL     1      21.185  55.004  55.528  1.00  0.00     0.003 C 
BRANCH  16  17
ATOM     17  C   UNL     1      22.659  54.793  55.915  1.00  0.00     0.042 C 
BRANCH  17  18
ATOM     18  C   UNL     1      23.637  55.147  54.792  1.00  0.00     0.233 C 
BRANCH  18  19
ATOM     19  O   UNL     1      23.058  56.125  53.932  1.00  0.00    -0.466 OA
BRANCH  19  20
ATOM     20  C   UNL     1      23.051  56.003  52.540  1.00  0.00     0.302 C 
ATOM     21  O   UNL     1      24.125  55.832  51.902  1.00  0.00    -0.253 OA
ATOM     22  C   UNL     1      21.763  56.125  51.798  1.00  0.00     0.139 C 
ENDBRANCH  19  20
ENDBRANCH  18  19
ENDBRANCH  17  18
ENDBRANCH  16  17
ENDBRANCH  15  16
ENDBRANCH  14  15
ENDBRANCH  13  14
ENDBRANCH   1  13
TORSDOF 16
ENDMDL
MODEL 3
REMARK VINA RESULT:    -1.783      1.885      6.144
REMARK INTER + INTRA:          -5.135
REMARK INTER:                  -3.564
REMARK INTRA:                  -1.571
REMARK UNBOUND:                -1.685
REMARK SMILES CCCCCC=CCC=CCCCCCCCCOC(C)=O
REMARK SMILES IDX 12 1 11 2 10 3 9 4 8 5 7 6 6 7 5 8 4 9 3 10 2 11 1 12 13 13
REMARK SMILES IDX 14 14 15 15 16 16 17 17 18 18 19 19 20 20 22 21 21 22
REMARK H PARENT
REMARK Flexibility Score: inf
ROOT
ATOM      1  C   UNL     1      20.854  53.641  52.315  1.00  0.00     0.004 C 
ENDROOT
BRANCH   1   2
ATOM      2  C   UNL     1      20.842  55.033  51.659  1.00  0.00     0.027 C 
BRANCH   2   3
ATOM      3  C   UNL     1      22.072  55.846  51.972  1.00  0.00    -0.031 C 
ATOM      4  C   UNL     1      23.059  56.113  51.097  1.00  0.00    -0.027 C 
BRANCH   4   5
ATOM      5  C   UNL     1      23.061  55.680  49.655  1.00  0.00     0.054 C 
BRANCH   5   6
ATOM      6  C   UNL     1      24.118  54.633  49.404  1.00  0.00    -0.027 C 
ATOM      7  C   UNL     1      23.860  53.316  49.325  1.00  0.00    -0.031 C 
BRANCH   7   8
ATOM      8  C   UNL     1      22.494  52.696  49.497  1.00  0.00     0.027 C 
BRANCH   8   9
ATOM      9  C   UNL     1      22.450  51.683  50.649  1.00  0.00     0.004 C 
BRANCH   9  10
ATOM     10  C   UNL     1      23.849  51.152  51.009  1.00  0.00     0.000 C 
BRANCH  10  11
ATOM     11  C   UNL     1      24.105  49.744  50.448  1.00  0.00    -0.003 C 
ATOM     12  C   UNL     1      24.022  49.690  48.923  1.00  0.00     0.004 C 
ENDBRANCH  10  11
ENDBRANCH   9  10
ENDBRANCH   8   9
ENDBRANCH   7   8
ENDBRANCH   5   6
ENDBRANCH   4   5
ENDBRANCH   2   3
ENDBRANCH   1   2
BRANCH   1  13
ATOM     13  C   UNL     1      19.916  53.516  53.536  1.00  0.00     0.000 C 
BRANCH  13  14
ATOM     14  C   UNL     1      20.227  52.328  54.466  1.00  0.00     0.000 C 
BRANCH  14  15
ATOM     15  C   UNL     1      21.410  51.457  53.984  1.00  0.00     0.000 C 
BRANCH  15  16
ATOM     16  C   UNL     1      22.072  50.693  55.144  1.00  0.00     0.003 C 
BRANCH  16  17
ATOM     17  C   UNL     1      22.881  51.611  56.077  1.00  0.00     0.042 C 
BRANCH  17  18
ATOM     18  C   UNL     1      23.876  52.505  55.334  1.00  0.00     0.233 C 
BRANCH  18  19
ATOM     19  O   UNL     1      23.200  53.630  54.780  1.00  0.00    -0.466 OA
BRANCH  19  20
ATOM     20  C   UNL     1      23.094  54.855  55.446  1.00  0.00     0.302 C 
ATOM     21  O   UNL     1      24.125  55.492  55.793  1.00  0.00    -0.253 OA
ATOM     22  C   UNL     1      21.745  55.388  55.791  1.00  0.00     0.139 C 
ENDBRANCH  19  20
ENDBRANCH  18  19
ENDBRANCH  17  18
ENDBRANCH  16  17
ENDBRANCH  15  16
ENDBRANCH  14  15
ENDBRANCH  13  14
ENDBRANCH   1  13
TORSDOF 16
ENDMDL
MODEL 4
REMARK VINA RESULT:    -1.385      6.556     11.128
REMARK INTER + INTRA:          -4.365
REMARK INTER:                  -2.817
REMARK INTRA:                  -1.548
REMARK UNBOUND:                -1.685
REMARK SMILES CCCCCC=CCC=CCCCCCCCCOC(C)=O
REMARK SMILES IDX 12 1 11 2 10 3 9 4 8 5 7 6 6 7 5 8 4 9 3 10 2 11 1 12 13 13
REMARK SMILES IDX 14 14 15 15 16 16 17 17 18 18 19 19 20 20 22 21 21 22
REMARK H PARENT
REMARK Flexibility Score: inf
ROOT
ATOM      1  C   UNL     1      20.674  53.117  43.633  1.00  0.00     0.004 C 
ENDROOT
BRANCH   1   2
ATOM      2  C   UNL     1      21.212  52.893  42.208  1.00  0.00     0.027 C 
BRANCH   2   3
ATOM      3  C   UNL     1      22.148  53.981  41.750  1.00  0.00    -0.031 C 
ATOM      4  C   UNL     1      22.932  53.910  40.658  1.00  0.00    -0.027 C 
BRANCH   4   5
ATOM      5  C   UNL     1      22.955  52.749  39.699  1.00  0.00     0.054 C 
BRANCH   5   6
ATOM      6  C   UNL     1      22.500  53.174  38.324  1.00  0.00    -0.027 C 
ATOM      7  C   UNL     1      21.218  53.148  37.921  1.00  0.00    -0.031 C 
BRANCH   7   8
ATOM      8  C   UNL     1      20.061  52.673  38.767  1.00  0.00     0.027 C 
BRANCH   8   9
ATOM      9  C   UNL     1      18.851  53.614  38.689  1.00  0.00     0.004 C 
BRANCH   9  10
ATOM     10  C   UNL     1      19.242  55.082  38.932  1.00  0.00     0.000 C 
BRANCH  10  11
ATOM     11  C   UNL     1      18.400  55.739  40.039  1.00  0.00    -0.003 C 
ATOM     12  C   UNL     1      18.311  54.882  41.301  1.00  0.00     0.004 C 
ENDBRANCH  10  11
ENDBRANCH   9  10
ENDBRANCH   8   9
ENDBRANCH   7   8
ENDBRANCH   5   6
ENDBRANCH   4   5
ENDBRANCH   2   3
ENDBRANCH   1   2
BRANCH   1  13
ATOM     13  C   UNL     1      21.507  52.423  44.733  1.00  0.00     0.000 C 
BRANCH  13  14
ATOM     14  C   UNL     1      20.848  52.411  46.126  1.00  0.00     0.000 C 
BRANCH  14  15
ATOM     15  C   UNL     1      21.751  52.984  47.242  1.00  0.00     0.000 C 
BRANCH  15  16
ATOM     16  C   UNL     1      21.857  52.028  48.444  1.00  0.00     0.003 C 
BRANCH  16  17
ATOM     17  C   UNL     1      21.364  52.664  49.755  1.00  0.00     0.042 C 
BRANCH  17  18
ATOM     18  C   UNL     1      21.361  51.691  50.937  1.00  0.00     0.233 C 
BRANCH  18  19
ATOM     19  O   UNL     1      21.711  52.379  52.135  1.00  0.00    -0.466 OA
BRANCH  19  20
ATOM     20  C   UNL     1      21.145  52.077  53.376  1.00  0.00     0.302 C 
ATOM     21  O   UNL     1      20.151  52.723  53.806  1.00  0.00    -0.253 OA
ATOM     22  C   UNL     1      21.755  51.011  54.222  1.00  0.00     0.139 C 
ENDBRANCH  19  20
ENDBRANCH  18  19
ENDBRANCH  17  18
ENDBRANCH  16  17
ENDBRANCH  15  16
ENDBRANCH  14  15
ENDBRANCH  13  14
ENDBRANCH   1  13
TORSDOF 16
ENDMDL
MODEL 5
REMARK VINA RESULT:    -1.381      5.060      6.568
REMARK INTER + INTRA:          -4.358
REMARK INTER:                  -2.629
REMARK INTRA:                  -1.729
REMARK UNBOUND:                -1.685
REMARK SMILES CCCCCC=CCC=CCCCCCCCCOC(C)=O
REMARK SMILES IDX 12 1 11 2 10 3 9 4 8 5 7 6 6 7 5 8 4 9 3 10 2 11 1 12 13 13
REMARK SMILES IDX 14 14 15 15 16 16 17 17 18 18 19 19 20 20 22 21 21 22
REMARK H PARENT
REMARK Flexibility Score: inf
ROOT
ATOM      1  C   UNL     1      21.400  52.843  48.927  1.00  0.00     0.004 C 
ENDROOT
BRANCH   1   2
ATOM      2  C   UNL     1      21.310  51.774  50.031  1.00  0.00     0.027 C 
BRANCH   2   3
ATOM      3  C   UNL     1      22.442  50.780  49.987  1.00  0.00    -0.031 C 
ATOM      4  C   UNL     1      23.494  50.777  50.825  1.00  0.00    -0.027 C 
BRANCH   4   5
ATOM      5  C   UNL     1      23.675  51.740  51.970  1.00  0.00     0.054 C 
BRANCH   5   6
ATOM      6  C   UNL     1      23.734  51.009  53.288  1.00  0.00    -0.027 C 
ATOM      7  C   UNL     1      22.670  50.830  54.092  1.00  0.00    -0.031 C 
BRANCH   7   8
ATOM      8  C   UNL     1      21.282  51.352  53.806  1.00  0.00     0.027 C 
BRANCH   8   9
ATOM      9  C   UNL     1      20.851  52.445  54.794  1.00  0.00     0.004 C 
BRANCH   9  10
ATOM     10  C   UNL     1      20.089  53.587  54.099  1.00  0.00     0.000 C 
BRANCH  10  11
ATOM     11  C   UNL     1      20.849  54.147  52.886  1.00  0.00    -0.003 C 
ATOM     12  C   UNL     1      21.742  55.335  53.244  1.00  0.00     0.004 C 
ENDBRANCH  10  11
ENDBRANCH   9  10
ENDBRANCH   8   9
ENDBRANCH   7   8
ENDBRANCH   5   6
ENDBRANCH   4   5
ENDBRANCH   2   3
ENDBRANCH   1   2
BRANCH   1  13
ATOM     13  C   UNL     1      21.847  52.290  47.555  1.00  0.00     0.000 C 
BRANCH  13  14
ATOM     14  C   UNL     1      20.919  52.658  46.381  1.00  0.00     0.000 C 
BRANCH  14  15
ATOM     15  C   UNL     1      21.467  52.232  45.001  1.00  0.00     0.000 C 
BRANCH  15  16
ATOM     16  C   UNL     1      20.770  52.978  43.849  1.00  0.00     0.003 C 
BRANCH  16  17
ATOM     17  C   UNL     1      21.471  52.769  42.495  1.00  0.00     0.042 C 
BRANCH  17  18
ATOM     18  C   UNL     1      21.635  54.062  41.693  1.00  0.00     0.233 C 
BRANCH  18  19
ATOM     19  O   UNL     1      21.161  53.873  40.363  1.00  0.00    -0.466 OA
BRANCH  19  20
ATOM     20  C   UNL     1      19.822  53.603  40.066  1.00  0.00     0.302 C 
ATOM     21  O   UNL     1      19.510  52.646  39.307  1.00  0.00    -0.253 OA
ATOM     22  C   UNL     1      18.754  54.487  40.616  1.00  0.00     0.139 C 
ENDBRANCH  19  20
ENDBRANCH  18  19
ENDBRANCH  17  18
ENDBRANCH  16  17
ENDBRANCH  15  16
ENDBRANCH  14  15
ENDBRANCH  13  14
ENDBRANCH   1  13
TORSDOF 16
ENDMDL
MODEL 6
REMARK VINA RESULT:    -1.297      6.167     11.048
REMARK INTER + INTRA:          -4.194
REMARK INTER:                  -2.897
REMARK INTRA:                  -1.297
REMARK UNBOUND:                -1.685
REMARK SMILES CCCCCC=CCC=CCCCCCCCCOC(C)=O
REMARK SMILES IDX 12 1 11 2 10 3 9 4 8 5 7 6 6 7 5 8 4 9 3 10 2 11 1 12 13 13
REMARK SMILES IDX 14 14 15 15 16 16 17 17 18 18 19 19 20 20 22 21 21 22
REMARK H PARENT
REMARK Flexibility Score: inf
ROOT
ATOM      1  C   UNL     1      21.635  52.298  45.570  1.00  0.00     0.004 C 
ENDROOT
BRANCH   1   2
ATOM      2  C   UNL     1      20.784  52.697  44.350  1.00  0.00     0.027 C 
BRANCH   2   3
ATOM      3  C   UNL     1      21.602  52.918  43.104  1.00  0.00    -0.031 C 
ATOM      4  C   UNL     1      21.093  53.061  41.866  1.00  0.00    -0.027 C 
BRANCH   4   5
ATOM      5  C   UNL     1      19.621  53.073  41.546  1.00  0.00     0.054 C 
BRANCH   5   6
ATOM      6  C   UNL     1      19.210  54.389  40.934  1.00  0.00    -0.027 C 
ATOM      7  C   UNL     1      18.907  54.546  39.633  1.00  0.00    -0.031 C 
BRANCH   7   8
ATOM      8  C   UNL     1      18.956  53.444  38.602  1.00  0.00     0.027 C 
BRANCH   8   9
ATOM      9  C   UNL     1      20.229  53.498  37.745  1.00  0.00     0.004 C 
BRANCH   9  10
ATOM     10  C   UNL     1      21.310  52.527  38.251  1.00  0.00     0.000 C 
BRANCH  10  11
ATOM     11  C   UNL     1      22.657  53.225  38.500  1.00  0.00    -0.003 C 
ATOM     12  C   UNL     1      23.657  52.334  39.237  1.00  0.00     0.004 C 
ENDBRANCH  10  11
ENDBRANCH   9  10
ENDBRANCH   8   9
ENDBRANCH   7   8
ENDBRANCH   5   6
ENDBRANCH   4   5
ENDBRANCH   2   3
ENDBRANCH   1   2
BRANCH   1  13
ATOM     13  C   UNL     1      21.007  52.689  46.926  1.00  0.00     0.000 C 
BRANCH  13  14
ATOM     14  C   UNL     1      21.958  52.568  48.132  1.00  0.00     0.000 C 
BRANCH  14  15
ATOM     15  C   UNL     1      21.232  52.285  49.467  1.00  0.00     0.000 C 
BRANCH  15  16
ATOM     16  C   UNL     1      21.920  51.167  50.270  1.00  0.00     0.003 C 
BRANCH  16  17
ATOM     17  C   UNL     1      22.669  51.696  51.506  1.00  0.00     0.042 C 
BRANCH  17  18
ATOM     18  C   UNL     1      22.052  52.969  52.089  1.00  0.00     0.233 C 
BRANCH  18  19
ATOM     19  O   UNL     1      22.050  52.901  53.513  1.00  0.00    -0.466 OA
BRANCH  19  20
ATOM     20  C   UNL     1      21.035  52.275  54.241  1.00  0.00     0.302 C 
ATOM     21  O   UNL     1      21.159  51.080  54.625  1.00  0.00    -0.253 OA
ATOM     22  C   UNL     1      19.772  53.014  54.526  1.00  0.00     0.139 C 
ENDBRANCH  19  20
ENDBRANCH  18  19
ENDBRANCH  17  18
ENDBRANCH  16  17
ENDBRANCH  15  16
ENDBRANCH  14  15
ENDBRANCH  13  14
ENDBRANCH   1  13
TORSDOF 16
ENDMDL
