MODEL 1
REMARK VINA RESULT:    -3.935      0.000      0.000
REMARK INTER + INTRA:          -4.659
REMARK INTER:                  -4.625
REMARK INTRA:                  -0.034
REMARK UNBOUND:                -0.034
REMARK SMILES CCCCC(=O)[O-]
REMARK SMILES IDX 4 1 5 2 6 3 7 4 3 5 2 6 1 7
REMARK H PARENT
REMARK Flexibility Score: inf
ROOT
ATOM      1  C   UNL     1       9.294 -12.333  27.191  1.00  0.00     0.053 C 
ENDROOT
BRANCH   1   2
ATOM      2  C   UNL     1       9.257 -12.032  25.726  1.00  0.00     0.041 C 
ATOM      3  O   UNL     1       9.352 -12.964  24.885  1.00  0.00    -0.550 OA
ATOM      4  O   UNL     1       9.066 -10.727  25.288  1.00  0.00    -0.550 OA
ENDBRANCH   1   2
BRANCH   1   5
ATOM      5  C   UNL     1       8.202 -13.345  27.558  1.00  0.00     0.006 C 
BRANCH   5   6
ATOM      6  C   UNL     1       7.875 -13.342  29.059  1.00  0.00    -0.003 C 
ATOM      7  C   UNL     1       8.207 -12.009  29.733  1.00  0.00     0.004 C 
ENDBRANCH   5   6
ENDBRANCH   1   5
TORSDOF 3
ENDMDL
MODEL 2
REMARK VINA RESULT:    -3.846      1.590      2.073
REMARK INTER + INTRA:          -4.555
REMARK INTER:                  -4.528
REMARK INTRA:                  -0.026
REMARK UNBOUND:                -0.034
REMARK SMILES CCCCC(=O)[O-]
REMARK SMILES IDX 4 1 5 2 6 3 7 4 3 5 2 6 1 7
REMARK H PARENT
REMARK Flexibility Score: inf
ROOT
ATOM      1  C   UNL     1       9.251 -12.451  28.619  1.00  0.00     0.053 C 
ENDROOT
BRANCH   1   2
ATOM      2  C   UNL     1       8.886 -12.801  27.210  1.00  0.00     0.041 C 
ATOM      3  O   UNL     1       7.882 -13.523  26.976  1.00  0.00    -0.550 OA
ATOM      4  O   UNL     1       9.625 -12.286  26.152  1.00  0.00    -0.550 OA
ENDBRANCH   1   2
BRANCH   1   5
ATOM      5  C   UNL     1       8.053 -12.668  29.552  1.00  0.00     0.006 C 
BRANCH   5   6
ATOM      6  C   UNL     1       7.890 -11.533  30.574  1.00  0.00    -0.003 C 
ATOM      7  C   UNL     1       8.744 -11.738  31.826  1.00  0.00     0.004 C 
ENDBRANCH   5   6
ENDBRANCH   1   5
TORSDOF 3
ENDMDL
MODEL 3
REMARK VINA RESULT:    -3.845      2.563      3.922
REMARK INTER + INTRA:          -4.554
REMARK INTER:                  -4.528
REMARK INTRA:                  -0.026
REMARK UNBOUND:                -0.034
REMARK SMILES CCCCC(=O)[O-]
REMARK SMILES IDX 4 1 5 2 6 3 7 4 3 5 2 6 1 7
REMARK H PARENT
REMARK Flexibility Score: inf
ROOT
ATOM      1  C   UNL     1       8.677 -12.894  27.269  1.00  0.00     0.053 C 
ENDROOT
BRANCH   1   2
ATOM      2  C   UNL     1       9.067 -12.565  28.676  1.00  0.00     0.041 C 
ATOM      3  O   UNL     1      10.187 -12.925  29.124  1.00  0.00    -0.550 OA
ATOM      4  O   UNL     1       8.214 -11.817  29.478  1.00  0.00    -0.550 OA
ENDBRANCH   1   2
BRANCH   1   5
ATOM      5  C   UNL     1       9.654 -12.250  26.278  1.00  0.00     0.006 C 
BRANCH   5   6
ATOM      6  C   UNL     1       8.981 -11.193  25.389  1.00  0.00    -0.003 C 
ATOM      7  C   UNL     1       9.313 -11.370  23.907  1.00  0.00     0.004 C 
ENDBRANCH   5   6
ENDBRANCH   1   5
TORSDOF 3
ENDMDL
MODEL 4
REMARK VINA RESULT:    -3.592      2.000      2.760
REMARK INTER + INTRA:          -4.256
REMARK INTER:                  -4.122
REMARK INTRA:                  -0.134
REMARK UNBOUND:                -0.034
REMARK SMILES CCCCC(=O)[O-]
REMARK SMILES IDX 4 1 5 2 6 3 7 4 3 5 2 6 1 7
REMARK H PARENT
REMARK Flexibility Score: inf
ROOT
ATOM      1  C   UNL     1       9.724 -11.901  24.113  1.00  0.00     0.053 C 
ENDROOT
BRANCH   1   2
ATOM      2  C   UNL     1      11.054 -12.543  24.357  1.00  0.00     0.041 C 
ATOM      3  O   UNL     1      11.289 -13.700  23.921  1.00  0.00    -0.550 OA
ATOM      4  O   UNL     1      12.052 -11.842  25.023  1.00  0.00    -0.550 OA
ENDBRANCH   1   2
BRANCH   1   5
ATOM      5  C   UNL     1       9.091 -11.460  25.439  1.00  0.00     0.006 C 
BRANCH   5   6
ATOM      6  C   UNL     1       8.759 -12.645  26.358  1.00  0.00    -0.003 C 
ATOM      7  C   UNL     1       9.306 -12.464  27.774  1.00  0.00     0.004 C 
ENDBRANCH   5   6
ENDBRANCH   1   5
TORSDOF 3
ENDMDL
MODEL 5
REMARK VINA RESULT:    -3.543      2.300      3.863
REMARK INTER + INTRA:          -4.199
REMARK INTER:                  -4.094
REMARK INTRA:                  -0.105
REMARK UNBOUND:                -0.034
REMARK SMILES CCCCC(=O)[O-]
REMARK SMILES IDX 4 1 5 2 6 3 7 4 3 5 2 6 1 7
REMARK H PARENT
REMARK Flexibility Score: inf
ROOT
ATOM      1  C   UNL     1       8.473 -12.965  26.150  1.00  0.00     0.053 C 
ENDROOT
BRANCH   1   2
ATOM      2  C   UNL     1       8.758 -12.984  27.619  1.00  0.00     0.041 C 
ATOM      3  O   UNL     1       7.875 -13.365  28.431  1.00  0.00    -0.550 OA
ATOM      4  O   UNL     1      10.017 -12.627  28.088  1.00  0.00    -0.550 OA
ENDBRANCH   1   2
BRANCH   1   5
ATOM      5  C   UNL     1       9.190 -11.786  25.481  1.00  0.00     0.006 C 
BRANCH   5   6
ATOM      6  C   UNL     1      10.268 -12.241  24.484  1.00  0.00    -0.003 C 
ATOM      7  C   UNL     1      11.687 -11.954  24.978  1.00  0.00     0.004 C 
ENDBRANCH   5   6
ENDBRANCH   1   5
TORSDOF 3
ENDMDL
MODEL 6
REMARK VINA RESULT:    -3.464     11.463     12.405
REMARK INTER + INTRA:          -4.106
REMARK INTER:                  -4.046
REMARK INTRA:                  -0.060
REMARK UNBOUND:                -0.034
REMARK SMILES CCCCC(=O)[O-]
REMARK SMILES IDX 4 1 5 2 6 3 7 4 3 5 2 6 1 7
REMARK H PARENT
REMARK Flexibility Score: inf
ROOT
ATOM      1  C   UNL     1      13.443  -5.768  34.678  1.00  0.00     0.053 C 
ENDROOT
BRANCH   1   2
ATOM      2  C   UNL     1      12.958  -6.290  35.994  1.00  0.00     0.041 C 
ATOM      3  O   UNL     1      13.069  -7.513  36.271  1.00  0.00    -0.550 OA
ATOM      4  O   UNL     1      12.428  -5.416  36.936  1.00  0.00    -0.550 OA
ENDBRANCH   1   2
BRANCH   1   5
ATOM      5  C   UNL     1      13.264  -4.246  34.607  1.00  0.00     0.006 C 
BRANCH   5   6
ATOM      6  C   UNL     1      14.478  -3.538  33.985  1.00  0.00    -0.003 C 
ATOM      7  C   UNL     1      15.795  -4.259  34.276  1.00  0.00     0.004 C 
ENDBRANCH   5   6
ENDBRANCH   1   5
TORSDOF 3
ENDMDL
MODEL 7
REMARK VINA RESULT:    -3.421     11.126     12.071
REMARK INTER + INTRA:          -4.055
REMARK INTER:                  -3.975
REMARK INTRA:                  -0.080
REMARK UNBOUND:                -0.034
REMARK SMILES CCCCC(=O)[O-]
REMARK SMILES IDX 4 1 5 2 6 3 7 4 3 5 2 6 1 7
REMARK H PARENT
REMARK Flexibility Score: inf
ROOT
ATOM      1  C   UNL     1      18.572 -17.878  20.802  1.00  0.00     0.053 C 
ENDROOT
BRANCH   1   2
ATOM      2  C   UNL     1      17.264 -17.350  20.302  1.00  0.00     0.041 C 
ATOM      3  O   UNL     1      16.619 -16.508  20.980  1.00  0.00    -0.550 OA
ATOM      4  O   UNL     1      16.780 -17.751  19.062  1.00  0.00    -0.550 OA
ENDBRANCH   1   2
BRANCH   1   5
ATOM      5  C   UNL     1      19.228 -16.869  21.752  1.00  0.00     0.006 C 
BRANCH   5   6
ATOM      6  C   UNL     1      19.337 -17.397  23.191  1.00  0.00    -0.003 C 
ATOM      7  C   UNL     1      18.822 -16.397  24.227  1.00  0.00     0.004 C 
ENDBRANCH   5   6
ENDBRANCH   1   5
TORSDOF 3
ENDMDL
MODEL 8
REMARK VINA RESULT:    -3.323     18.578     19.459
REMARK INTER + INTRA:          -3.940
REMARK INTER:                  -3.867
REMARK INTRA:                  -0.073
REMARK UNBOUND:                -0.034
REMARK SMILES CCCCC(=O)[O-]
REMARK SMILES IDX 4 1 5 2 6 3 7 4 3 5 2 6 1 7
REMARK H PARENT
REMARK Flexibility Score: inf
ROOT
ATOM      1  C   UNL     1      21.848  -1.228  37.979  1.00  0.00     0.053 C 
ENDROOT
BRANCH   1   2
ATOM      2  C   UNL     1      22.402  -0.820  36.650  1.00  0.00     0.041 C 
ATOM      3  O   UNL     1      21.785  -1.105  35.590  1.00  0.00    -0.550 OA
ATOM      4  O   UNL     1      23.577  -0.080  36.584  1.00  0.00    -0.550 OA
ENDBRANCH   1   2
BRANCH   1   5
ATOM      5  C   UNL     1      20.903  -2.425  37.820  1.00  0.00     0.006 C 
BRANCH   5   6
ATOM      6  C   UNL     1      19.434  -2.055  38.075  1.00  0.00    -0.003 C 
ATOM      7  C   UNL     1      18.478  -2.715  37.080  1.00  0.00     0.004 C 
ENDBRANCH   5   6
ENDBRANCH   1   5
TORSDOF 3
ENDMDL
MODEL 9
REMARK VINA RESULT:    -3.232     18.218     19.158
REMARK INTER + INTRA:          -3.833
REMARK INTER:                  -3.729
REMARK INTRA:                  -0.104
REMARK UNBOUND:                -0.034
REMARK SMILES CCCCC(=O)[O-]
REMARK SMILES IDX 4 1 5 2 6 3 7 4 3 5 2 6 1 7
REMARK H PARENT
REMARK Flexibility Score: inf
ROOT
ATOM      1  C   UNL     1      20.063  -1.725  37.829  1.00  0.00     0.053 C 
ENDROOT
BRANCH   1   2
ATOM      2  C   UNL     1      19.756  -2.563  36.628  1.00  0.00     0.041 C 
ATOM      3  O   UNL     1      20.569  -2.617  35.668  1.00  0.00    -0.550 OA
ATOM      4  O   UNL     1      18.595  -3.325  36.590  1.00  0.00    -0.550 OA
ENDBRANCH   1   2
BRANCH   1   5
ATOM      5  C   UNL     1      21.576  -1.683  38.081  1.00  0.00     0.006 C 
BRANCH   5   6
ATOM      6  C   UNL     1      22.175  -0.289  37.845  1.00  0.00    -0.003 C 
ATOM      7  C   UNL     1      23.121  -0.248  36.644  1.00  0.00     0.004 C 
ENDBRANCH   5   6
ENDBRANCH   1   5
TORSDOF 3
ENDMDL
