MODEL 1
REMARK VINA RESULT:    -5.041      0.000      0.000
REMARK INTER + INTRA:          -5.724
REMARK INTER:                  -5.630
REMARK INTRA:                  -0.093
REMARK UNBOUND:                -0.093
REMARK SMILES COc1cc2ccc(=O)oc2cc1OC
REMARK SMILES IDX 3 1 13 2 12 3 11 4 5 5 4 6 6 7 7 8 8 9 9 10 10 11 2 12 1 13
REMARK SMILES IDX 14 14 15 15
REMARK H PARENT
REMARK Flexibility Score: inf
ROOT
ATOM      1  C   UNL     1      -8.897  -2.728  -6.461  1.00  0.00     0.161 A 
ATOM      2  C   UNL     1      -9.158  -3.395  -5.252  1.00  0.00     0.164 A 
ATOM      3  C   UNL     1      -8.821  -2.783  -4.028  1.00  0.00     0.098 A 
ATOM      4  C   UNL     1      -8.230  -1.517  -4.010  1.00  0.00     0.142 A 
ATOM      5  C   UNL     1      -7.969  -0.847  -5.222  1.00  0.00     0.022 A 
ATOM      6  C   UNL     1      -8.301  -1.451  -6.441  1.00  0.00     0.062 A 
ATOM      7  C   UNL     1      -7.377   0.418  -5.169  1.00  0.00     0.019 A 
ATOM      8  C   UNL     1      -7.063   0.978  -3.931  1.00  0.00     0.094 A 
ATOM      9  C   UNL     1      -7.352   0.255  -2.769  1.00  0.00     0.336 A 
ATOM     10  O   UNL     1      -7.079   0.741  -1.642  1.00  0.00    -0.246 OA
ATOM     11  O   UNL     1      -7.916  -0.948  -2.848  1.00  0.00    -0.423 OA
ENDROOT
BRANCH   1  12
ATOM     12  O   UNL     1      -9.246  -3.367  -7.661  1.00  0.00    -0.493 OA
ATOM     13  C   UNL     1      -8.344  -3.621  -8.733  1.00  0.00     0.278 C 
ENDBRANCH   1  12
BRANCH   2  14
ATOM     14  O   UNL     1      -9.752  -4.666  -5.309  1.00  0.00    -0.493 OA
ATOM     15  C   UNL     1      -9.037  -5.886  -5.470  1.00  0.00     0.278 C 
ENDBRANCH   2  14
TORSDOF 2
ENDMDL
MODEL 2
REMARK VINA RESULT:    -4.949     12.101     13.898
REMARK INTER + INTRA:          -5.620
REMARK INTER:                  -5.492
REMARK INTRA:                  -0.128
REMARK UNBOUND:                -0.093
REMARK SMILES COc1cc2ccc(=O)oc2cc1OC
REMARK SMILES IDX 3 1 13 2 12 3 11 4 5 5 4 6 6 7 7 8 8 9 9 10 10 11 2 12 1 13
REMARK SMILES IDX 14 14 15 15
REMARK H PARENT
REMARK Flexibility Score: inf
ROOT
ATOM      1  C   UNL     1      -4.664  -6.900   7.381  1.00  0.00     0.161 A 
ATOM      2  C   UNL     1      -3.747  -5.844   7.512  1.00  0.00     0.164 A 
ATOM      3  C   UNL     1      -2.763  -5.645   6.522  1.00  0.00     0.098 A 
ATOM      4  C   UNL     1      -2.694  -6.492   5.413  1.00  0.00     0.142 A 
ATOM      5  C   UNL     1      -3.615  -7.551   5.281  1.00  0.00     0.022 A 
ATOM      6  C   UNL     1      -4.595  -7.753   6.262  1.00  0.00     0.062 A 
ATOM      7  C   UNL     1      -3.520  -8.381   4.160  1.00  0.00     0.019 A 
ATOM      8  C   UNL     1      -2.527  -8.140   3.211  1.00  0.00     0.094 A 
ATOM      9  C   UNL     1      -1.648  -7.069   3.408  1.00  0.00     0.336 A 
ATOM     10  O   UNL     1      -0.746  -6.834   2.564  1.00  0.00    -0.246 OA
ATOM     11  O   UNL     1      -1.761  -6.296   4.484  1.00  0.00    -0.423 OA
ENDROOT
BRANCH   1  12
ATOM     12  O   UNL     1      -5.631  -7.068   8.385  1.00  0.00    -0.493 OA
ATOM     13  C   UNL     1      -5.801  -8.256   9.152  1.00  0.00     0.278 C 
ENDBRANCH   1  12
BRANCH   2  14
ATOM     14  O   UNL     1      -3.845  -5.013   8.639  1.00  0.00    -0.493 OA
ATOM     15  C   UNL     1      -4.101  -3.613   8.591  1.00  0.00     0.278 C 
ENDBRANCH   2  14
TORSDOF 2
ENDMDL
MODEL 3
REMARK VINA RESULT:    -4.858     12.792     15.568
REMARK INTER + INTRA:          -5.519
REMARK INTER:                  -5.411
REMARK INTRA:                  -0.109
REMARK UNBOUND:                -0.093
REMARK SMILES COc1cc2ccc(=O)oc2cc1OC
REMARK SMILES IDX 3 1 13 2 12 3 11 4 5 5 4 6 6 7 7 8 8 9 9 10 10 11 2 12 1 13
REMARK SMILES IDX 14 14 15 15
REMARK H PARENT
REMARK Flexibility Score: inf
ROOT
ATOM      1  C   UNL     1      -0.617   7.828   5.569  1.00  0.00     0.161 A 
ATOM      2  C   UNL     1      -0.412   6.483   5.920  1.00  0.00     0.164 A 
ATOM      3  C   UNL     1      -1.469   5.558   5.795  1.00  0.00     0.098 A 
ATOM      4  C   UNL     1      -2.719   5.972   5.327  1.00  0.00     0.142 A 
ATOM      5  C   UNL     1      -2.924   7.321   4.974  1.00  0.00     0.022 A 
ATOM      6  C   UNL     1      -1.877   8.244   5.096  1.00  0.00     0.062 A 
ATOM      7  C   UNL     1      -4.186   7.704   4.508  1.00  0.00     0.019 A 
ATOM      8  C   UNL     1      -5.197   6.749   4.405  1.00  0.00     0.094 A 
ATOM      9  C   UNL     1      -4.920   5.427   4.772  1.00  0.00     0.336 A 
ATOM     10  O   UNL     1      -5.817   4.550   4.686  1.00  0.00    -0.246 OA
ATOM     11  O   UNL     1      -3.710   5.091   5.213  1.00  0.00    -0.423 OA
ENDROOT
BRANCH   1  12
ATOM     12  O   UNL     1       0.458   8.720   5.706  1.00  0.00    -0.493 OA
ATOM     13  C   UNL     1       0.643   9.889   4.914  1.00  0.00     0.278 C 
ENDBRANCH   1  12
BRANCH   2  14
ATOM     14  O   UNL     1       0.856   6.102   6.388  1.00  0.00    -0.493 OA
ATOM     15  C   UNL     1       1.082   5.180   7.448  1.00  0.00     0.278 C 
ENDBRANCH   2  14
TORSDOF 2
ENDMDL
MODEL 4
REMARK VINA RESULT:    -4.719      1.654      2.943
REMARK INTER + INTRA:          -5.364
REMARK INTER:                  -5.247
REMARK INTRA:                  -0.118
REMARK UNBOUND:                -0.093
REMARK SMILES COc1cc2ccc(=O)oc2cc1OC
REMARK SMILES IDX 3 1 13 2 12 3 11 4 5 5 4 6 6 7 7 8 8 9 9 10 10 11 2 12 1 13
REMARK SMILES IDX 14 14 15 15
REMARK H PARENT
REMARK Flexibility Score: inf
ROOT
ATOM      1  C   UNL     1      -8.265  -3.686  -6.776  1.00  0.00     0.161 A 
ATOM      2  C   UNL     1      -7.491  -2.821  -7.568  1.00  0.00     0.164 A 
ATOM      3  C   UNL     1      -7.086  -1.574  -7.050  1.00  0.00     0.098 A 
ATOM      4  C   UNL     1      -7.450  -1.194  -5.756  1.00  0.00     0.142 A 
ATOM      5  C   UNL     1      -8.226  -2.062  -4.962  1.00  0.00     0.022 A 
ATOM      6  C   UNL     1      -8.631  -3.302  -5.471  1.00  0.00     0.062 A 
ATOM      7  C   UNL     1      -8.573  -1.652  -3.670  1.00  0.00     0.019 A 
ATOM      8  C   UNL     1      -8.147  -0.408  -3.207  1.00  0.00     0.094 A 
ATOM      9  C   UNL     1      -7.378   0.401  -4.052  1.00  0.00     0.336 A 
ATOM     10  O   UNL     1      -6.982   1.527  -3.654  1.00  0.00    -0.246 OA
ATOM     11  O   UNL     1      -7.062  -0.014  -5.276  1.00  0.00    -0.423 OA
ENDROOT
BRANCH   1  12
ATOM     12  O   UNL     1      -8.650  -4.920  -7.324  1.00  0.00    -0.493 OA
ATOM     13  C   UNL     1      -8.027  -6.166  -7.027  1.00  0.00     0.278 C 
ENDBRANCH   1  12
BRANCH   2  14
ATOM     14  O   UNL     1      -7.144  -3.235  -8.863  1.00  0.00    -0.493 OA
ATOM     15  C   UNL     1      -6.318  -2.493  -9.754  1.00  0.00     0.278 C 
ENDBRANCH   2  14
TORSDOF 2
ENDMDL
MODEL 5
REMARK VINA RESULT:    -4.654      1.613      2.919
REMARK INTER + INTRA:          -5.291
REMARK INTER:                  -5.166
REMARK INTRA:                  -0.125
REMARK UNBOUND:                -0.093
REMARK SMILES COc1cc2ccc(=O)oc2cc1OC
REMARK SMILES IDX 3 1 13 2 12 3 11 4 5 5 4 6 6 7 7 8 8 9 9 10 10 11 2 12 1 13
REMARK SMILES IDX 14 14 15 15
REMARK H PARENT
REMARK Flexibility Score: inf
ROOT
ATOM      1  C   UNL     1      -8.561  -2.616  -4.665  1.00  0.00     0.161 A 
ATOM      2  C   UNL     1      -8.200  -2.075  -5.910  1.00  0.00     0.164 A 
ATOM      3  C   UNL     1      -7.752  -0.741  -5.990  1.00  0.00     0.098 A 
ATOM      4  C   UNL     1      -7.666   0.046  -4.839  1.00  0.00     0.142 A 
ATOM      5  C   UNL     1      -8.027  -0.497  -3.590  1.00  0.00     0.022 A 
ATOM      6  C   UNL     1      -8.473  -1.822  -3.505  1.00  0.00     0.062 A 
ATOM      7  C   UNL     1      -7.929   0.317  -2.456  1.00  0.00     0.019 A 
ATOM      8  C   UNL     1      -7.481   1.630  -2.591  1.00  0.00     0.094 A 
ATOM      9  C   UNL     1      -7.138   2.101  -3.864  1.00  0.00     0.336 A 
ATOM     10  O   UNL     1      -6.730   3.282  -4.008  1.00  0.00    -0.246 OA
ATOM     11  O   UNL     1      -7.241   1.305  -4.925  1.00  0.00    -0.423 OA
ENDROOT
BRANCH   1  12
ATOM     12  O   UNL     1      -9.002  -3.948  -4.623  1.00  0.00    -0.493 OA
ATOM     13  C   UNL     1     -10.125  -4.404  -3.875  1.00  0.00     0.278 C 
ENDBRANCH   1  12
BRANCH   2  14
ATOM     14  O   UNL     1      -8.299  -2.894  -7.046  1.00  0.00    -0.493 OA
ATOM     15  C   UNL     1      -7.188  -3.378  -7.793  1.00  0.00     0.278 C 
ENDBRANCH   2  14
TORSDOF 2
ENDMDL
MODEL 6
REMARK VINA RESULT:    -4.650     12.223     13.826
REMARK INTER + INTRA:          -5.287
REMARK INTER:                  -5.149
REMARK INTRA:                  -0.138
REMARK UNBOUND:                -0.093
REMARK SMILES COc1cc2ccc(=O)oc2cc1OC
REMARK SMILES IDX 3 1 13 2 12 3 11 4 5 5 4 6 6 7 7 8 8 9 9 10 10 11 2 12 1 13
REMARK SMILES IDX 14 14 15 15
REMARK H PARENT
REMARK Flexibility Score: inf
ROOT
ATOM      1  C   UNL     1      -3.694  -5.981   7.395  1.00  0.00     0.161 A 
ATOM      2  C   UNL     1      -4.732  -6.907   7.198  1.00  0.00     0.164 A 
ATOM      3  C   UNL     1      -4.699  -7.768   6.083  1.00  0.00     0.098 A 
ATOM      4  C   UNL     1      -3.641  -7.706   5.173  1.00  0.00     0.142 A 
ATOM      5  C   UNL     1      -2.599  -6.778   5.371  1.00  0.00     0.022 A 
ATOM      6  C   UNL     1      -2.627  -5.920   6.478  1.00  0.00     0.062 A 
ATOM      7  C   UNL     1      -1.553  -6.741   4.443  1.00  0.00     0.019 A 
ATOM      8  C   UNL     1      -1.570  -7.616   3.356  1.00  0.00     0.094 A 
ATOM      9  C   UNL     1      -2.637  -8.511   3.225  1.00  0.00     0.336 A 
ATOM     10  O   UNL     1      -2.672  -9.309   2.253  1.00  0.00    -0.246 OA
ATOM     11  O   UNL     1      -3.619  -8.524   4.123  1.00  0.00    -0.423 OA
ENDROOT
BRANCH   1  12
ATOM     12  O   UNL     1      -3.759  -5.139   8.517  1.00  0.00    -0.493 OA
ATOM     13  C   UNL     1      -4.048  -3.746   8.466  1.00  0.00     0.278 C 
ENDBRANCH   1  12
BRANCH   2  14
ATOM     14  O   UNL     1      -5.780  -6.941   8.132  1.00  0.00    -0.493 OA
ATOM     15  C   UNL     1      -5.934  -7.937   9.137  1.00  0.00     0.278 C 
ENDBRANCH   2  14
TORSDOF 2
ENDMDL
MODEL 7
REMARK VINA RESULT:    -4.635      1.615      2.090
REMARK INTER + INTRA:          -5.270
REMARK INTER:                  -5.145
REMARK INTRA:                  -0.125
REMARK UNBOUND:                -0.093
REMARK SMILES COc1cc2ccc(=O)oc2cc1OC
REMARK SMILES IDX 3 1 13 2 12 3 11 4 5 5 4 6 6 7 7 8 8 9 9 10 10 11 2 12 1 13
REMARK SMILES IDX 14 14 15 15
REMARK H PARENT
REMARK Flexibility Score: inf
ROOT
ATOM      1  C   UNL     1      -8.940  -0.556  -7.136  1.00  0.00     0.161 A 
ATOM      2  C   UNL     1      -8.425  -1.683  -6.473  1.00  0.00     0.164 A 
ATOM      3  C   UNL     1      -7.927  -1.557  -5.161  1.00  0.00     0.098 A 
ATOM      4  C   UNL     1      -7.943  -0.317  -4.515  1.00  0.00     0.142 A 
ATOM      5  C   UNL     1      -8.460   0.813  -5.179  1.00  0.00     0.022 A 
ATOM      6  C   UNL     1      -8.956   0.693  -6.484  1.00  0.00     0.062 A 
ATOM      7  C   UNL     1      -8.462   2.039  -4.506  1.00  0.00     0.019 A 
ATOM      8  C   UNL     1      -7.957   2.109  -3.208  1.00  0.00     0.094 A 
ATOM      9  C   UNL     1      -7.461   0.945  -2.611  1.00  0.00     0.336 A 
ATOM     10  O   UNL     1      -7.002   0.985  -1.441  1.00  0.00    -0.246 OA
ATOM     11  O   UNL     1      -7.471  -0.208  -3.275  1.00  0.00    -0.423 OA
ENDROOT
BRANCH   1  12
ATOM     12  O   UNL     1      -9.427  -0.719  -8.443  1.00  0.00    -0.493 OA
ATOM     13  C   UNL     1      -8.864  -0.105  -9.597  1.00  0.00     0.278 C 
ENDBRANCH   1  12
BRANCH   2  14
ATOM     14  O   UNL     1      -8.424  -2.912  -7.152  1.00  0.00    -0.493 OA
ATOM     15  C   UNL     1      -8.866  -4.144  -6.593  1.00  0.00     0.278 C 
ENDBRANCH   2  14
TORSDOF 2
ENDMDL
MODEL 8
REMARK VINA RESULT:    -4.575     12.780     14.691
REMARK INTER + INTRA:          -5.203
REMARK INTER:                  -5.101
REMARK INTRA:                  -0.102
REMARK UNBOUND:                -0.093
REMARK SMILES COc1cc2ccc(=O)oc2cc1OC
REMARK SMILES IDX 3 1 13 2 12 3 11 4 5 5 4 6 6 7 7 8 8 9 9 10 10 11 2 12 1 13
REMARK SMILES IDX 14 14 15 15
REMARK H PARENT
REMARK Flexibility Score: inf
ROOT
ATOM      1  C   UNL     1      -2.347  -7.434   8.109  1.00  0.00     0.161 A 
ATOM      2  C   UNL     1      -3.075  -6.310   7.686  1.00  0.00     0.164 A 
ATOM      3  C   UNL     1      -3.342  -6.124   6.315  1.00  0.00     0.098 A 
ATOM      4  C   UNL     1      -2.885  -7.051   5.374  1.00  0.00     0.142 A 
ATOM      5  C   UNL     1      -2.155  -8.179   5.798  1.00  0.00     0.022 A 
ATOM      6  C   UNL     1      -1.888  -8.369   7.160  1.00  0.00     0.062 A 
ATOM      7  C   UNL     1      -1.713  -9.089   4.832  1.00  0.00     0.019 A 
ATOM      8  C   UNL     1      -2.003  -8.857   3.488  1.00  0.00     0.094 A 
ATOM      9  C   UNL     1      -2.734  -7.715   3.141  1.00  0.00     0.336 A 
ATOM     10  O   UNL     1      -3.008  -7.487   1.935  1.00  0.00    -0.246 OA
ATOM     11  O   UNL     1      -3.143  -6.866   4.081  1.00  0.00    -0.423 OA
ENDROOT
BRANCH   1  12
ATOM     12  O   UNL     1      -2.100  -7.587   9.483  1.00  0.00    -0.493 OA
ATOM     13  C   UNL     1      -1.384  -8.675  10.059  1.00  0.00     0.278 C 
ENDBRANCH   1  12
BRANCH   2  14
ATOM     14  O   UNL     1      -3.518  -5.399   8.659  1.00  0.00    -0.493 OA
ATOM     15  C   UNL     1      -3.892  -4.052   8.392  1.00  0.00     0.278 C 
ENDBRANCH   2  14
TORSDOF 2
ENDMDL
MODEL 9
REMARK VINA RESULT:    -4.522     11.733     12.984
REMARK INTER + INTRA:          -5.145
REMARK INTER:                  -4.986
REMARK INTRA:                  -0.159
REMARK UNBOUND:                -0.093
REMARK SMILES COc1cc2ccc(=O)oc2cc1OC
REMARK SMILES IDX 3 1 13 2 12 3 11 4 5 5 4 6 6 7 7 8 8 9 9 10 10 11 2 12 1 13
REMARK SMILES IDX 14 14 15 15
REMARK H PARENT
REMARK Flexibility Score: inf
ROOT
ATOM      1  C   UNL     1      -2.781  -6.570   4.373  1.00  0.00     0.161 A 
ATOM      2  C   UNL     1      -3.969  -7.184   3.944  1.00  0.00     0.164 A 
ATOM      3  C   UNL     1      -4.973  -7.497   4.883  1.00  0.00     0.098 A 
ATOM      4  C   UNL     1      -4.792  -7.200   6.236  1.00  0.00     0.142 A 
ATOM      5  C   UNL     1      -3.601  -6.583   6.666  1.00  0.00     0.022 A 
ATOM      6  C   UNL     1      -2.600  -6.270   5.737  1.00  0.00     0.062 A 
ATOM      7  C   UNL     1      -3.450  -6.299   8.027  1.00  0.00     0.019 A 
ATOM      8  C   UNL     1      -4.474  -6.630   8.914  1.00  0.00     0.094 A 
ATOM      9  C   UNL     1      -5.630  -7.241   8.415  1.00  0.00     0.336 A 
ATOM     10  O   UNL     1      -6.567  -7.547   9.197  1.00  0.00    -0.246 OA
ATOM     11  O   UNL     1      -5.746  -7.500   7.115  1.00  0.00    -0.423 OA
ENDROOT
BRANCH   1  12
ATOM     12  O   UNL     1      -1.803  -6.272   3.410  1.00  0.00    -0.493 OA
ATOM     13  C   UNL     1      -0.675  -7.092   3.124  1.00  0.00     0.278 C 
ENDBRANCH   1  12
BRANCH   2  14
ATOM     14  O   UNL     1      -4.117  -7.469   2.577  1.00  0.00    -0.493 OA
ATOM     15  C   UNL     1      -4.070  -8.775   2.015  1.00  0.00     0.278 C 
ENDBRANCH   2  14
TORSDOF 2
ENDMDL
