MODEL 1
REMARK VINA RESULT:    -4.613      0.000      0.000
REMARK INTER + INTRA:          -8.057
REMARK INTER:                  -7.040
REMARK INTRA:                  -1.017
REMARK UNBOUND:                -1.017
REMARK SMILES O=C([O-])CCCCCCCCC(=O)[O-]
REMARK SMILES IDX 7 1 6 2 5 3 4 4 2 5 1 6 3 7 8 8 9 9 10 10 11 11 12 12 13 13
REMARK SMILES IDX 14 14
REMARK H PARENT
REMARK Flexibility Score: inf
ROOT
ATOM      1  C   UNL     1     161.182 167.968 160.838  1.00  0.00     0.000 C 
ENDROOT
BRANCH   1   2
ATOM      2  C   UNL     1     160.008 167.301 160.114  1.00  0.00     0.000 C 
BRANCH   2   3
ATOM      3  C   UNL     1     159.469 166.109 160.920  1.00  0.00     0.006 C 
BRANCH   3   4
ATOM      4  C   UNL     1     160.220 165.915 162.244  1.00  0.00     0.053 C 
BRANCH   4   5
ATOM      5  C   UNL     1     161.045 164.665 162.235  1.00  0.00     0.041 C 
ATOM      6  O   UNL     1     161.545 164.227 163.305  1.00  0.00    -0.550 OA
ATOM      7  O   UNL     1     161.287 164.000 161.040  1.00  0.00    -0.550 OA
ENDBRANCH   4   5
ENDBRANCH   3   4
ENDBRANCH   2   3
ENDBRANCH   1   2
BRANCH   1   8
ATOM      8  C   UNL     1     162.415 168.047 159.931  1.00  0.00     0.000 C 
BRANCH   8   9
ATOM      9  C   UNL     1     163.152 166.703 159.882  1.00  0.00     0.000 C 
BRANCH   9  10
ATOM     10  C   UNL     1     163.558 166.349 158.447  1.00  0.00     0.006 C 
BRANCH  10  11
ATOM     11  C   UNL     1     162.846 165.078 157.973  1.00  0.00     0.053 C 
BRANCH  11  12
ATOM     12  C   UNL     1     161.481 165.404 157.455  1.00  0.00     0.041 C 
ATOM     13  O   UNL     1     160.504 164.661 157.734  1.00  0.00    -0.550 OA
ATOM     14  O   UNL     1     161.279 166.556 156.706  1.00  0.00    -0.550 OA
ENDBRANCH  11  12
ENDBRANCH  10  11
ENDBRANCH   9  10
ENDBRANCH   8   9
ENDBRANCH   1   8
TORSDOF 9
ENDMDL
MODEL 2
REMARK VINA RESULT:    -4.593      0.223      4.481
REMARK INTER + INTRA:          -8.027
REMARK INTER:                  -7.041
REMARK INTRA:                  -0.986
REMARK UNBOUND:                -1.017
REMARK SMILES O=C([O-])CCCCCCCCC(=O)[O-]
REMARK SMILES IDX 7 1 6 2 5 3 4 4 2 5 1 6 3 7 8 8 9 9 10 10 11 11 12 12 13 13
REMARK SMILES IDX 14 14
REMARK H PARENT
REMARK Flexibility Score: inf
ROOT
ATOM      1  C   UNL     1     162.342 168.022 159.800  1.00  0.00     0.000 C 
ENDROOT
BRANCH   1   2
ATOM      2  C   UNL     1     163.216 166.777 159.983  1.00  0.00     0.000 C 
BRANCH   2   3
ATOM      3  C   UNL     1     163.642 166.198 158.625  1.00  0.00     0.006 C 
BRANCH   3   4
ATOM      4  C   UNL     1     162.874 164.918 158.272  1.00  0.00     0.053 C 
BRANCH   4   5
ATOM      5  C   UNL     1     161.534 165.223 157.674  1.00  0.00     0.041 C 
ATOM      6  O   UNL     1     160.540 164.499 157.944  1.00  0.00    -0.550 OA
ATOM      7  O   UNL     1     161.392 166.289 156.795  1.00  0.00    -0.550 OA
ENDBRANCH   4   5
ENDBRANCH   3   4
ENDBRANCH   2   3
ENDBRANCH   1   2
BRANCH   1   8
ATOM      8  C   UNL     1     161.142 167.998 160.754  1.00  0.00     0.000 C 
BRANCH   8   9
ATOM      9  C   UNL     1     159.924 167.346 160.090  1.00  0.00     0.000 C 
BRANCH   9  10
ATOM     10  C   UNL     1     159.445 166.129 160.890  1.00  0.00     0.006 C 
BRANCH  10  11
ATOM     11  C   UNL     1     160.143 166.058 162.252  1.00  0.00     0.053 C 
BRANCH  11  12
ATOM     12  C   UNL     1     160.974 164.817 162.351  1.00  0.00     0.041 C 
ATOM     13  O   UNL     1     161.336 164.386 163.477  1.00  0.00    -0.550 OA
ATOM     14  O   UNL     1     161.305 164.109 161.202  1.00  0.00    -0.550 OA
ENDBRANCH  11  12
ENDBRANCH  10  11
ENDBRANCH   9  10
ENDBRANCH   8   9
ENDBRANCH   1   8
TORSDOF 9
ENDMDL
MODEL 3
REMARK VINA RESULT:    -4.478      2.742      3.882
REMARK INTER + INTRA:          -7.851
REMARK INTER:                  -7.149
REMARK INTRA:                  -0.702
REMARK UNBOUND:                -1.017
REMARK SMILES O=C([O-])CCCCCCCCC(=O)[O-]
REMARK SMILES IDX 7 1 6 2 5 3 4 4 2 5 1 6 3 7 8 8 9 9 10 10 11 11 12 12 13 13
REMARK SMILES IDX 14 14
REMARK H PARENT
REMARK Flexibility Score: inf
ROOT
ATOM      1  C   UNL     1     159.280 164.959 160.715  1.00  0.00     0.000 C 
ENDROOT
BRANCH   1   2
ATOM      2  C   UNL     1     158.694 166.352 160.461  1.00  0.00     0.000 C 
BRANCH   2   3
ATOM      3  C   UNL     1     159.792 167.344 160.047  1.00  0.00     0.006 C 
BRANCH   3   4
ATOM      4  C   UNL     1     161.098 166.638 159.662  1.00  0.00     0.053 C 
BRANCH   4   5
ATOM      5  C   UNL     1     162.299 167.419 160.100  1.00  0.00     0.041 C 
ATOM      6  O   UNL     1     162.210 168.659 160.302  1.00  0.00    -0.550 OA
ATOM      7  O   UNL     1     163.524 166.783 160.256  1.00  0.00    -0.550 OA
ENDBRANCH   4   5
ENDBRANCH   3   4
ENDBRANCH   2   3
ENDBRANCH   1   2
BRANCH   1   8
ATOM      8  C   UNL     1     158.533 163.891 159.908  1.00  0.00     0.000 C 
BRANCH   8   9
ATOM      9  C   UNL     1     159.430 163.296 158.817  1.00  0.00     0.000 C 
BRANCH   9  10
ATOM     10  C   UNL     1     160.826 162.976 159.365  1.00  0.00     0.006 C 
BRANCH  10  11
ATOM     11  C   UNL     1     161.641 162.166 158.352  1.00  0.00     0.053 C 
BRANCH  11  12
ATOM     12  C   UNL     1     163.004 162.760 158.181  1.00  0.00     0.041 C 
ATOM     13  O   UNL     1     164.028 162.034 158.275  1.00  0.00    -0.550 OA
ATOM     14  O   UNL     1     163.140 164.108 157.870  1.00  0.00    -0.550 OA
ENDBRANCH  11  12
ENDBRANCH  10  11
ENDBRANCH   9  10
ENDBRANCH   8   9
ENDBRANCH   1   8
TORSDOF 9
ENDMDL
MODEL 4
REMARK VINA RESULT:    -4.475      2.631      4.158
REMARK INTER + INTRA:          -7.847
REMARK INTER:                  -7.038
REMARK INTRA:                  -0.809
REMARK UNBOUND:                -1.017
REMARK SMILES O=C([O-])CCCCCCCCC(=O)[O-]
REMARK SMILES IDX 7 1 6 2 5 3 4 4 2 5 1 6 3 7 8 8 9 9 10 10 11 11 12 12 13 13
REMARK SMILES IDX 14 14
REMARK H PARENT
REMARK Flexibility Score: inf
ROOT
ATOM      1  C   UNL     1     162.335 165.031 157.718  1.00  0.00     0.000 C 
ENDROOT
BRANCH   1   2
ATOM      2  C   UNL     1     163.050 166.319 158.140  1.00  0.00     0.000 C 
BRANCH   2   3
ATOM      3  C   UNL     1     163.335 166.322 159.649  1.00  0.00     0.006 C 
BRANCH   3   4
ATOM      4  C   UNL     1     162.050 166.390 160.484  1.00  0.00     0.053 C 
BRANCH   4   5
ATOM      5  C   UNL     1     161.335 167.693 160.294  1.00  0.00     0.041 C 
ATOM      6  O   UNL     1     161.925 168.781 160.524  1.00  0.00    -0.550 OA
ATOM      7  O   UNL     1     160.005 167.703 159.891  1.00  0.00    -0.550 OA
ENDBRANCH   4   5
ENDBRANCH   3   4
ENDBRANCH   2   3
ENDBRANCH   1   2
BRANCH   1   8
ATOM      8  C   UNL     1     163.213 163.802 157.983  1.00  0.00     0.000 C 
BRANCH   8   9
ATOM      9  C   UNL     1     162.358 162.585 158.356  1.00  0.00     0.000 C 
BRANCH   9  10
ATOM     10  C   UNL     1     161.170 162.994 159.234  1.00  0.00     0.006 C 
BRANCH  10  11
ATOM     11  C   UNL     1     159.849 162.498 158.637  1.00  0.00     0.053 C 
BRANCH  11  12
ATOM     12  C   UNL     1     158.698 163.272 159.198  1.00  0.00     0.041 C 
ATOM     13  O   UNL     1     157.517 162.960 158.892  1.00  0.00    -0.550 OA
ATOM     14  O   UNL     1     158.927 164.305 160.098  1.00  0.00    -0.550 OA
ENDBRANCH  11  12
ENDBRANCH  10  11
ENDBRANCH   9  10
ENDBRANCH   8   9
ENDBRANCH   1   8
TORSDOF 9
ENDMDL
MODEL 5
REMARK VINA RESULT:    -4.469      2.587      4.890
REMARK INTER + INTRA:          -7.837
REMARK INTER:                  -7.020
REMARK INTRA:                  -0.817
REMARK UNBOUND:                -1.017
REMARK SMILES O=C([O-])CCCCCCCCC(=O)[O-]
REMARK SMILES IDX 7 1 6 2 5 3 4 4 2 5 1 6 3 7 8 8 9 9 10 10 11 11 12 12 13 13
REMARK SMILES IDX 14 14
REMARK H PARENT
REMARK Flexibility Score: inf
ROOT
ATOM      1  C   UNL     1     162.129 162.275 158.797  1.00  0.00     0.000 C 
ENDROOT
BRANCH   1   2
ATOM      2  C   UNL     1     163.439 162.855 158.252  1.00  0.00     0.000 C 
BRANCH   2   3
ATOM      3  C   UNL     1     163.257 164.319 157.824  1.00  0.00     0.006 C 
BRANCH   3   4
ATOM      4  C   UNL     1     164.181 165.270 158.597  1.00  0.00     0.053 C 
BRANCH   4   5
ATOM      5  C   UNL     1     163.453 166.495 159.058  1.00  0.00     0.041 C 
ATOM      6  O   UNL     1     163.456 166.814 160.277  1.00  0.00    -0.550 OA
ATOM      7  O   UNL     1     162.746 167.268 158.146  1.00  0.00    -0.550 OA
ENDBRANCH   4   5
ENDBRANCH   3   4
ENDBRANCH   2   3
ENDBRANCH   1   2
BRANCH   1   8
ATOM      8  C   UNL     1     160.917 163.013 158.219  1.00  0.00     0.000 C 
BRANCH   8   9
ATOM      9  C   UNL     1     159.666 162.772 159.072  1.00  0.00     0.000 C 
BRANCH   9  10
ATOM     10  C   UNL     1     159.427 163.935 160.041  1.00  0.00     0.006 C 
BRANCH  10  11
ATOM     11  C   UNL     1     160.088 165.220 159.532  1.00  0.00     0.053 C 
BRANCH  11  12
ATOM     12  C   UNL     1     159.386 166.423 160.079  1.00  0.00     0.041 C 
ATOM     13  O   UNL     1     159.948 167.549 160.056  1.00  0.00    -0.550 OA
ATOM     14  O   UNL     1     158.091 166.308 160.570  1.00  0.00    -0.550 OA
ENDBRANCH  11  12
ENDBRANCH  10  11
ENDBRANCH   9  10
ENDBRANCH   8   9
ENDBRANCH   1   8
TORSDOF 9
ENDMDL
MODEL 6
REMARK VINA RESULT:    -4.409      2.574      4.367
REMARK INTER + INTRA:          -7.746
REMARK INTER:                  -7.015
REMARK INTRA:                  -0.731
REMARK UNBOUND:                -1.017
REMARK SMILES O=C([O-])CCCCCCCCC(=O)[O-]
REMARK SMILES IDX 7 1 6 2 5 3 4 4 2 5 1 6 3 7 8 8 9 9 10 10 11 11 12 12 13 13
REMARK SMILES IDX 14 14
REMARK H PARENT
REMARK Flexibility Score: inf
ROOT
ATOM      1  C   UNL     1     163.996 163.714 157.934  1.00  0.00     0.000 C 
ENDROOT
BRANCH   1   2
ATOM      2  C   UNL     1     163.293 162.402 158.301  1.00  0.00     0.000 C 
BRANCH   2   3
ATOM      3  C   UNL     1     162.008 162.670 159.098  1.00  0.00     0.006 C 
BRANCH   3   4
ATOM      4  C   UNL     1     160.779 162.014 158.456  1.00  0.00     0.053 C 
BRANCH   4   5
ATOM      5  C   UNL     1     159.535 162.814 158.698  1.00  0.00     0.041 C 
ATOM      6  O   UNL     1     158.498 162.595 158.018  1.00  0.00    -0.550 OA
ATOM      7  O   UNL     1     159.532 163.822 159.653  1.00  0.00    -0.550 OA
ENDBRANCH   4   5
ENDBRANCH   3   4
ENDBRANCH   2   3
ENDBRANCH   1   2
BRANCH   1   8
ATOM      8  C   UNL     1     163.007 164.886 157.931  1.00  0.00     0.000 C 
BRANCH   8   9
ATOM      9  C   UNL     1     163.702 166.194 158.327  1.00  0.00     0.000 C 
BRANCH   9  10
ATOM     10  C   UNL     1     163.501 166.496 159.817  1.00  0.00     0.006 C 
BRANCH  10  11
ATOM     11  C   UNL     1     162.033 166.326 160.218  1.00  0.00     0.053 C 
BRANCH  11  12
ATOM     12  C   UNL     1     161.348 167.655 160.276  1.00  0.00     0.041 C 
ATOM     13  O   UNL     1     162.005 168.695 160.544  1.00  0.00    -0.550 OA
ATOM     14  O   UNL     1     159.993 167.752 159.986  1.00  0.00    -0.550 OA
ENDBRANCH  11  12
ENDBRANCH  10  11
ENDBRANCH   9  10
ENDBRANCH   8   9
ENDBRANCH   1   8
TORSDOF 9
ENDMDL
MODEL 7
REMARK VINA RESULT:    -4.402      2.844      4.400
REMARK INTER + INTRA:          -7.735
REMARK INTER:                  -7.030
REMARK INTRA:                  -0.705
REMARK UNBOUND:                -1.017
REMARK SMILES O=C([O-])CCCCCCCCC(=O)[O-]
REMARK SMILES IDX 7 1 6 2 5 3 4 4 2 5 1 6 3 7 8 8 9 9 10 10 11 11 12 12 13 13
REMARK SMILES IDX 14 14
REMARK H PARENT
REMARK Flexibility Score: inf
ROOT
ATOM      1  C   UNL     1     159.083 164.317 160.118  1.00  0.00     0.000 C 
ENDROOT
BRANCH   1   2
ATOM      2  C   UNL     1     159.755 163.180 159.341  1.00  0.00     0.000 C 
BRANCH   2   3
ATOM      3  C   UNL     1     161.258 163.112 159.653  1.00  0.00     0.006 C 
BRANCH   3   4
ATOM      4  C   UNL     1     162.120 163.263 158.393  1.00  0.00     0.053 C 
BRANCH   4   5
ATOM      5  C   UNL     1     163.248 162.276 158.373  1.00  0.00     0.041 C 
ATOM      6  O   UNL     1     164.412 162.649 158.070  1.00  0.00    -0.550 OA
ATOM      7  O   UNL     1     163.006 160.939 158.660  1.00  0.00    -0.550 OA
ENDBRANCH   4   5
ENDBRANCH   3   4
ENDBRANCH   2   3
ENDBRANCH   1   2
BRANCH   1   8
ATOM      8  C   UNL     1     160.011 164.862 161.210  1.00  0.00     0.000 C 
BRANCH   8   9
ATOM      9  C   UNL     1     159.816 166.371 161.396  1.00  0.00     0.000 C 
BRANCH   9  10
ATOM     10  C   UNL     1     159.842 167.101 160.048  1.00  0.00     0.006 C 
BRANCH  10  11
ATOM     11  C   UNL     1     161.192 166.915 159.349  1.00  0.00     0.053 C 
BRANCH  11  12
ATOM     12  C   UNL     1     162.260 167.686 160.058  1.00  0.00     0.041 C 
ATOM     13  O   UNL     1     162.043 168.867 160.438  1.00  0.00    -0.550 OA
ATOM     14  O   UNL     1     163.479 167.082 160.345  1.00  0.00    -0.550 OA
ENDBRANCH  11  12
ENDBRANCH  10  11
ENDBRANCH   9  10
ENDBRANCH   8   9
ENDBRANCH   1   8
TORSDOF 9
ENDMDL
MODEL 8
REMARK VINA RESULT:    -4.384      2.480      4.136
REMARK INTER + INTRA:          -7.708
REMARK INTER:                  -6.805
REMARK INTRA:                  -0.904
REMARK UNBOUND:                -1.017
REMARK SMILES O=C([O-])CCCCCCCCC(=O)[O-]
REMARK SMILES IDX 7 1 6 2 5 3 4 4 2 5 1 6 3 7 8 8 9 9 10 10 11 11 12 12 13 13
REMARK SMILES IDX 14 14
REMARK H PARENT
REMARK Flexibility Score: inf
ROOT
ATOM      1  C   UNL     1     161.291 165.806 157.136  1.00  0.00     0.000 C 
ENDROOT
BRANCH   1   2
ATOM      2  C   UNL     1     160.622 164.690 157.946  1.00  0.00     0.000 C 
BRANCH   2   3
ATOM      3  C   UNL     1     161.643 163.971 158.841  1.00  0.00     0.006 C 
BRANCH   3   4
ATOM      4  C   UNL     1     161.677 162.459 158.586  1.00  0.00     0.053 C 
BRANCH   4   5
ATOM      5  C   UNL     1     163.078 161.959 158.409  1.00  0.00     0.041 C 
ATOM      6  O   UNL     1     164.006 162.759 158.120  1.00  0.00    -0.550 OA
ATOM      7  O   UNL     1     163.353 160.603 158.535  1.00  0.00    -0.550 OA
ENDBRANCH   4   5
ENDBRANCH   3   4
ENDBRANCH   2   3
ENDBRANCH   1   2
BRANCH   1   8
ATOM      8  C   UNL     1     162.770 165.948 157.511  1.00  0.00     0.000 C 
BRANCH   8   9
ATOM      9  C   UNL     1     163.047 167.313 158.153  1.00  0.00     0.000 C 
BRANCH   9  10
ATOM     10  C   UNL     1     163.014 167.219 159.683  1.00  0.00     0.006 C 
BRANCH  10  11
ATOM     11  C   UNL     1     161.973 168.177 160.270  1.00  0.00     0.053 C 
BRANCH  11  12
ATOM     12  C   UNL     1     160.701 167.448 160.571  1.00  0.00     0.041 C 
ATOM     13  O   UNL     1     159.681 167.635 159.857  1.00  0.00    -0.550 OA
ATOM     14  O   UNL     1     160.658 166.526 161.609  1.00  0.00    -0.550 OA
ENDBRANCH  11  12
ENDBRANCH  10  11
ENDBRANCH   9  10
ENDBRANCH   8   9
ENDBRANCH   1   8
TORSDOF 9
ENDMDL
MODEL 9
REMARK VINA RESULT:    -4.384      2.379      3.974
REMARK INTER + INTRA:          -7.708
REMARK INTER:                  -6.911
REMARK INTRA:                  -0.797
REMARK UNBOUND:                -1.017
REMARK SMILES O=C([O-])CCCCCCCCC(=O)[O-]
REMARK SMILES IDX 7 1 6 2 5 3 4 4 2 5 1 6 3 7 8 8 9 9 10 10 11 11 12 12 13 13
REMARK SMILES IDX 14 14
REMARK H PARENT
REMARK Flexibility Score: inf
ROOT
ATOM      1  C   UNL     1     160.122 167.042 159.740  1.00  0.00     0.000 C 
ENDROOT
BRANCH   1   2
ATOM      2  C   UNL     1     161.033 167.939 160.585  1.00  0.00     0.000 C 
BRANCH   2   3
ATOM      3  C   UNL     1     162.463 167.955 160.025  1.00  0.00     0.006 C 
BRANCH   3   4
ATOM      4  C   UNL     1     163.148 166.587 160.140  1.00  0.00     0.053 C 
BRANCH   4   5
ATOM      5  C   UNL     1     163.660 166.112 158.814  1.00  0.00     0.041 C 
ATOM      6  O   UNL     1     164.665 165.355 158.757  1.00  0.00    -0.550 OA
ATOM      7  O   UNL     1     163.044 166.529 157.641  1.00  0.00    -0.550 OA
ENDBRANCH   4   5
ENDBRANCH   3   4
ENDBRANCH   2   3
ENDBRANCH   1   2
BRANCH   1   8
ATOM      8  C   UNL     1     159.261 166.138 160.629  1.00  0.00     0.000 C 
BRANCH   8   9
ATOM      9  C   UNL     1     159.900 164.753 160.790  1.00  0.00     0.000 C 
BRANCH   9  10
ATOM     10  C   UNL     1     160.364 164.199 159.438  1.00  0.00     0.006 C 
BRANCH  10  11
ATOM     11  C   UNL     1     159.847 162.774 159.221  1.00  0.00     0.053 C 
BRANCH  11  12
ATOM     12  C   UNL     1     158.716 162.771 158.241  1.00  0.00     0.041 C 
ATOM     13  O   UNL     1     158.950 162.750 157.004  1.00  0.00    -0.550 OA
ATOM     14  O   UNL     1     157.403 162.740 158.696  1.00  0.00    -0.550 OA
ENDBRANCH  11  12
ENDBRANCH  10  11
ENDBRANCH   9  10
ENDBRANCH   8   9
ENDBRANCH   1   8
TORSDOF 9
ENDMDL
