MODEL 1
REMARK VINA RESULT:    -4.478      0.000      0.000
REMARK INTER + INTRA:          -5.895
REMARK INTER:                  -6.049
REMARK INTRA:                   0.154
REMARK UNBOUND:                 0.154
REMARK SMILES C=C(C)[C@H]1CC[C@H](C)C2=C(C1)[C@H](C)CC2
REMARK SMILES IDX 10 1 9 2 15 3 14 4 12 5 13 6 7 7 8 8 6 9 11 11 4 12 5 13
REMARK SMILES IDX 2 15 1 16 3 17
REMARK H PARENT
REMARK Flexibility Score: 80.00
ROOT
ATOM      1  C   UNL     1      13.254   8.249  22.889  1.00  0.00    -0.067 C 
ATOM      2  C   UNL     1      12.346   7.559  23.579  1.00  0.00    -0.068 C 
ATOM      3  C   UNL     1      11.367   6.886  22.669  1.00  0.00     0.032 C 
ATOM      4  C   UNL     1      11.927   7.109  21.264  1.00  0.00     0.012 C 
ATOM      5  C   UNL     1      13.024   8.173  21.412  1.00  0.00     0.012 C 
ATOM      6  C   UNL     1      12.575   9.530  20.858  1.00  0.00     0.012 C 
ENDROOT
BRANCH   2   7
ATOM      7  C   UNL     1      12.311   7.493  25.098  1.00  0.00     0.012 C 
ATOM      8  C   UNL     1      11.050   6.785  25.618  1.00  0.00     0.012 C 
BRANCH   7   9
ATOM      9  C   UNL     1      13.577   6.791  25.639  1.00  0.00     0.008 CG0
ATOM     10  G   UNL     1      14.808   7.711  25.674  1.00  0.00     0.000 G0
ENDBRANCH   7   9
ENDBRANCH   2   7
BRANCH   1  11
ATOM     11  C   UNL     1      14.399   9.014  23.505  1.00  0.00     0.039 C 
BRANCH  11  12
ATOM     12  C   UNL     1      15.353   8.084  24.287  1.00  0.00     0.018 C 
BRANCH  12  13
ATOM     13  C   UNL     1      14.802   7.714  25.683  1.00  0.00     0.009 CG0
ATOM     14  G   UNL     1      13.570   6.795  25.642  1.00  0.00     0.000 G0
ENDBRANCH  12  13
BRANCH  12  15
ATOM     15  C   UNL     1      16.728   8.730  24.424  1.00  0.00    -0.077 C 
ATOM     16  C   UNL     1      16.871  10.066  24.399  1.00  0.00     0.008 C 
ATOM     17  C   UNL     1      17.957   7.874  24.589  1.00  0.00     0.039 C 
ENDBRANCH  12  15
ENDBRANCH  11  12
ENDBRANCH   1  11
TORSDOF 1
ENDMDL
MODEL 2
REMARK VINA RESULT:    -4.235     10.252     12.666
REMARK INTER + INTRA:          -5.567
REMARK INTER:                  -5.725
REMARK INTRA:                   0.158
REMARK UNBOUND:                 0.154
REMARK SMILES C=C(C)[C@H]1CC[C@H](C)C2=C(C1)[C@H](C)CC2
REMARK SMILES IDX 10 1 9 2 15 3 14 4 12 5 13 6 7 7 8 8 6 9 11 11 4 12 5 13
REMARK SMILES IDX 2 15 1 16 3 17
REMARK H PARENT
REMARK Flexibility Score: 80.00
ROOT
ATOM      1  C   UNL     1       1.809   8.754  17.918  1.00  0.00    -0.067 C 
ATOM      2  C   UNL     1       2.336   8.407  16.743  1.00  0.00    -0.068 C 
ATOM      3  C   UNL     1       1.568   9.003  15.605  1.00  0.00     0.032 C 
ATOM      4  C   UNL     1       0.571   9.955  16.267  1.00  0.00     0.012 C 
ATOM      5  C   UNL     1       0.596   9.615  17.764  1.00  0.00     0.012 C 
ATOM      6  C   UNL     1      -0.669   8.862  18.196  1.00  0.00     0.012 C 
ENDROOT
BRANCH   2   7
ATOM      7  C   UNL     1       3.549   7.502  16.596  1.00  0.00     0.012 C 
ATOM      8  C   UNL     1       3.816   7.125  15.130  1.00  0.00     0.012 C 
BRANCH   7   9
ATOM      9  C   UNL     1       4.801   8.170  17.209  1.00  0.00     0.008 CG0
ATOM     10  G   UNL     1       4.865   8.041  18.739  1.00  0.00     0.000 G0
ENDBRANCH   7   9
ENDBRANCH   2   7
BRANCH   1  11
ATOM     11  C   UNL     1       2.365   8.346  19.259  1.00  0.00     0.039 C 
BRANCH  11  12
ATOM     12  C   UNL     1       3.793   8.894  19.478  1.00  0.00     0.018 C 
BRANCH  12  13
ATOM     13  C   UNL     1       4.864   8.056  18.743  1.00  0.00     0.009 CG0
ATOM     14  G   UNL     1       4.802   8.171  17.212  1.00  0.00     0.000 G0
ENDBRANCH  12  13
BRANCH  12  15
ATOM     15  C   UNL     1       4.113   8.959  20.967  1.00  0.00    -0.077 C 
ATOM     16  C   UNL     1       4.072  10.124  21.635  1.00  0.00     0.008 C 
ATOM     17  C   UNL     1       4.488   7.708  21.719  1.00  0.00     0.039 C 
ENDBRANCH  12  15
ENDBRANCH  11  12
ENDBRANCH   1  11
TORSDOF 1
ENDMDL
MODEL 3
REMARK VINA RESULT:    -4.233      3.585      6.308
REMARK INTER + INTRA:          -5.565
REMARK INTER:                  -5.703
REMARK INTRA:                   0.139
REMARK UNBOUND:                 0.154
REMARK SMILES C=C(C)[C@H]1CC[C@H](C)C2=C(C1)[C@H](C)CC2
REMARK SMILES IDX 10 1 9 2 15 3 14 4 12 5 13 6 7 7 8 8 6 9 11 11 4 12 5 13
REMARK SMILES IDX 2 15 1 16 3 17
REMARK H PARENT
REMARK Flexibility Score: 80.00
ROOT
ATOM      1  C   UNL     1      10.157   5.583  27.997  1.00  0.00    -0.067 C 
ATOM      2  C   UNL     1       9.717   6.190  29.099  1.00  0.00    -0.068 C 
ATOM      3  C   UNL     1       9.672   5.245  30.259  1.00  0.00     0.032 C 
ATOM      4  C   UNL     1      10.348   3.972  29.749  1.00  0.00     0.012 C 
ATOM      5  C   UNL     1      10.456   4.135  28.225  1.00  0.00     0.012 C 
ATOM      6  C   UNL     1       9.449   3.245  27.487  1.00  0.00     0.012 C 
ENDROOT
BRANCH   2   7
ATOM      7  C   UNL     1       9.299   7.651  29.150  1.00  0.00     0.012 C 
ATOM      8  C   UNL     1       8.661   8.025  30.497  1.00  0.00     0.012 C 
BRANCH   7   9
ATOM      9  C   UNL     1      10.506   8.571  28.859  1.00  0.00     0.008 CG0
ATOM     10  G   UNL     1      10.822   8.694  27.359  1.00  0.00     0.000 G0
ENDBRANCH   7   9
ENDBRANCH   2   7
BRANCH   1  11
ATOM     11  C   UNL     1      10.350   6.263  26.664  1.00  0.00     0.039 C 
BRANCH  11  12
ATOM     12  C   UNL     1      11.404   7.390  26.745  1.00  0.00     0.018 C 
BRANCH  12  13
ATOM     13  C   UNL     1      10.831   8.689  27.358  1.00  0.00     0.009 CG0
ATOM     14  G   UNL     1      10.513   8.581  28.858  1.00  0.00     0.000 G0
ENDBRANCH  12  13
BRANCH  12  15
ATOM     15  C   UNL     1      11.980   7.677  25.362  1.00  0.00    -0.077 C 
ATOM     16  C   UNL     1      11.467   7.097  24.264  1.00  0.00     0.008 C 
ATOM     17  C   UNL     1      13.143   8.621  25.204  1.00  0.00     0.039 C 
ENDBRANCH  12  15
ENDBRANCH  11  12
ENDBRANCH   1  11
TORSDOF 1
ENDMDL
MODEL 4
REMARK VINA RESULT:    -4.180      8.988     11.578
REMARK INTER + INTRA:          -5.493
REMARK INTER:                  -5.639
REMARK INTRA:                   0.146
REMARK UNBOUND:                 0.154
REMARK SMILES C=C(C)[C@H]1CC[C@H](C)C2=C(C1)[C@H](C)CC2
REMARK SMILES IDX 10 1 9 2 15 3 14 4 12 5 13 6 7 7 8 8 6 9 11 11 4 12 5 13
REMARK SMILES IDX 2 15 1 16 3 17
REMARK H PARENT
REMARK Flexibility Score: 80.00
ROOT
ATOM      1  C   UNL     1       6.232   7.405  15.622  1.00  0.00    -0.067 C 
ATOM      2  C   UNL     1       5.034   7.438  15.040  1.00  0.00    -0.068 C 
ATOM      3  C   UNL     1       5.030   6.660  13.761  1.00  0.00     0.032 C 
ATOM      4  C   UNL     1       6.389   5.961  13.727  1.00  0.00     0.012 C 
ATOM      5  C   UNL     1       7.231   6.626  14.826  1.00  0.00     0.012 C 
ATOM      6  C   UNL     1       8.303   7.550  14.236  1.00  0.00     0.012 C 
ENDROOT
BRANCH   2   7
ATOM      7  C   UNL     1       3.840   8.191  15.605  1.00  0.00     0.012 C 
ATOM      8  C   UNL     1       2.656   8.220  14.625  1.00  0.00     0.012 C 
BRANCH   7   9
ATOM      9  C   UNL     1       3.400   7.576  16.953  1.00  0.00     0.008 CG0
ATOM     10  G   UNL     1       4.271   8.030  18.136  1.00  0.00     0.000 G0
ENDBRANCH   7   9
ENDBRANCH   2   7
BRANCH   1  11
ATOM     11  C   UNL     1       6.562   8.061  16.940  1.00  0.00     0.039 C 
BRANCH  11  12
ATOM     12  C   UNL     1       5.723   7.474  18.097  1.00  0.00     0.018 C 
BRANCH  12  13
ATOM     13  C   UNL     1       4.286   8.042  18.128  1.00  0.00     0.009 CG0
ATOM     14  G   UNL     1       3.408   7.579  16.955  1.00  0.00     0.000 G0
ENDBRANCH  12  13
BRANCH  12  15
ATOM     15  C   UNL     1       6.413   7.728  19.433  1.00  0.00    -0.077 C 
ATOM     16  C   UNL     1       6.067   7.038  20.533  1.00  0.00     0.008 C 
ATOM     17  C   UNL     1       7.499   8.766  19.542  1.00  0.00     0.039 C 
ENDBRANCH  12  15
ENDBRANCH  11  12
ENDBRANCH   1  11
TORSDOF 1
ENDMDL
MODEL 5
REMARK VINA RESULT:    -4.121      1.188      4.231
REMARK INTER + INTRA:          -5.413
REMARK INTER:                  -5.560
REMARK INTRA:                   0.147
REMARK UNBOUND:                 0.154
REMARK SMILES C=C(C)[C@H]1CC[C@H](C)C2=C(C1)[C@H](C)CC2
REMARK SMILES IDX 10 1 9 2 15 3 14 4 12 5 13 6 7 7 8 8 6 9 11 11 4 12 5 13
REMARK SMILES IDX 2 15 1 16 3 17
REMARK H PARENT
REMARK Flexibility Score: 80.00
ROOT
ATOM      1  C   UNL     1      15.217   7.863  24.682  1.00  0.00    -0.067 C 
ATOM      2  C   UNL     1      14.648   7.299  25.746  1.00  0.00    -0.068 C 
ATOM      3  C   UNL     1      15.429   7.577  26.992  1.00  0.00     0.032 C 
ATOM      4  C   UNL     1      16.496   8.585  26.565  1.00  0.00     0.012 C 
ATOM      5  C   UNL     1      16.479   8.589  25.029  1.00  0.00     0.012 C 
ATOM      6  C   UNL     1      17.702   7.870  24.447  1.00  0.00     0.012 C 
ENDROOT
BRANCH   2   7
ATOM      7  C   UNL     1      13.378   6.464  25.682  1.00  0.00     0.012 C 
ATOM      8  C   UNL     1      13.065   5.782  27.024  1.00  0.00     0.012 C 
BRANCH   7   9
ATOM      9  C   UNL     1      12.181   7.333  25.235  1.00  0.00     0.008 CG0
ATOM     10  G   UNL     1      12.142   7.571  23.717  1.00  0.00     0.000 G0
ENDBRANCH   7   9
ENDBRANCH   2   7
BRANCH   1  11
ATOM     11  C   UNL     1      14.663   7.799  23.280  1.00  0.00     0.039 C 
BRANCH  11  12
ATOM     12  C   UNL     1      13.278   8.475  23.182  1.00  0.00     0.018 C 
BRANCH  12  13
ATOM     13  C   UNL     1      12.142   7.568  23.708  1.00  0.00     0.009 CG0
ATOM     14  G   UNL     1      12.184   7.337  25.227  1.00  0.00     0.000 G0
ENDBRANCH  12  13
BRANCH  12  15
ATOM     15  C   UNL     1      12.990   8.887  21.742  1.00  0.00    -0.077 C 
ATOM     16  C   UNL     1      13.302  10.115  21.296  1.00  0.00     0.008 C 
ATOM     17  C   UNL     1      12.343   7.915  20.789  1.00  0.00     0.039 C 
ENDBRANCH  12  15
ENDBRANCH  11  12
ENDBRANCH   1  11
TORSDOF 1
ENDMDL
MODEL 6
REMARK VINA RESULT:    -4.103     10.109     13.033
REMARK INTER + INTRA:          -5.388
REMARK INTER:                  -5.547
REMARK INTRA:                   0.159
REMARK UNBOUND:                 0.154
REMARK SMILES C=C(C)[C@H]1CC[C@H](C)C2=C(C1)[C@H](C)CC2
REMARK SMILES IDX 10 1 9 2 15 3 14 4 12 5 13 6 7 7 8 8 6 9 11 11 4 12 5 13
REMARK SMILES IDX 2 15 1 16 3 17
REMARK H PARENT
REMARK Flexibility Score: 80.00
ROOT
ATOM      1  C   UNL     1       3.670   8.837  19.515  1.00  0.00    -0.067 C 
ATOM      2  C   UNL     1       4.744   8.288  18.949  1.00  0.00    -0.068 C 
ATOM      3  C   UNL     1       5.608   7.609  19.966  1.00  0.00     0.032 C 
ATOM      4  C   UNL     1       4.794   7.654  21.259  1.00  0.00     0.012 C 
ATOM      5  C   UNL     1       3.645   8.640  20.999  1.00  0.00     0.012 C 
ATOM      6  C   UNL     1       3.863   9.969  21.731  1.00  0.00     0.012 C 
ENDROOT
BRANCH   2   7
ATOM      7  C   UNL     1       5.049   8.368  17.461  1.00  0.00     0.012 C 
ATOM      8  C   UNL     1       6.441   7.809  17.124  1.00  0.00     0.012 C 
BRANCH   7   9
ATOM      9  C   UNL     1       3.966   7.628  16.646  1.00  0.00     0.008 CG0
ATOM     10  G   UNL     1       2.689   8.460  16.445  1.00  0.00     0.000 G0
ENDBRANCH   7   9
ENDBRANCH   2   7
BRANCH   1  11
ATOM     11  C   UNL     1       2.585   9.567  18.764  1.00  0.00     0.039 C 
BRANCH  11  12
ATOM     12  C   UNL     1       1.878   8.647  17.744  1.00  0.00     0.018 C 
BRANCH  12  13
ATOM     13  C   UNL     1       2.701   8.463  16.449  1.00  0.00     0.009 CG0
ATOM     14  G   UNL     1       3.978   7.628  16.636  1.00  0.00     0.000 G0
ENDBRANCH  12  13
BRANCH  12  15
ATOM     15  C   UNL     1       0.494   9.193  17.408  1.00  0.00    -0.077 C 
ATOM     16  C   UNL     1       0.288   9.927  16.301  1.00  0.00     0.008 C 
ATOM     17  C   UNL     1      -0.673   8.919  18.321  1.00  0.00     0.039 C 
ENDBRANCH  12  15
ENDBRANCH  11  12
ENDBRANCH   1  11
TORSDOF 1
ENDMDL
MODEL 7
REMARK VINA RESULT:    -4.020      1.498      3.519
REMARK INTER + INTRA:          -5.277
REMARK INTER:                  -5.442
REMARK INTRA:                   0.165
REMARK UNBOUND:                 0.154
REMARK SMILES C=C(C)[C@H]1CC[C@H](C)C2=C(C1)[C@H](C)CC2
REMARK SMILES IDX 10 1 9 2 15 3 14 4 12 5 13 6 7 7 8 8 6 9 11 11 4 12 5 13
REMARK SMILES IDX 2 15 1 16 3 17
REMARK H PARENT
REMARK Flexibility Score: 80.00
ROOT
ATOM      1  C   UNL     1      13.110   7.318  25.577  1.00  0.00    -0.067 C 
ATOM      2  C   UNL     1      12.182   7.621  24.669  1.00  0.00    -0.068 C 
ATOM      3  C   UNL     1      10.820   7.689  25.285  1.00  0.00     0.032 C 
ATOM      4  C   UNL     1      11.068   7.567  26.789  1.00  0.00     0.012 C 
ATOM      5  C   UNL     1      12.526   7.111  26.939  1.00  0.00     0.012 C 
ATOM      6  C   UNL     1      12.619   5.638  27.356  1.00  0.00     0.012 C 
ENDROOT
BRANCH   2   7
ATOM      7  C   UNL     1      12.483   7.845  23.195  1.00  0.00     0.012 C 
ATOM      8  C   UNL     1      11.203   7.981  22.356  1.00  0.00     0.012 C 
BRANCH   7   9
ATOM      9  C   UNL     1      13.377   9.092  23.009  1.00  0.00     0.008 CG0
ATOM     10  G   UNL     1      14.862   8.818  23.298  1.00  0.00     0.000 G0
ENDBRANCH   7   9
ENDBRANCH   2   7
BRANCH   1  11
ATOM     11  C   UNL     1      14.586   7.205  25.287  1.00  0.00     0.039 C 
BRANCH  11  12
ATOM     12  C   UNL     1      15.175   8.544  24.790  1.00  0.00     0.018 C 
BRANCH  12  13
ATOM     13  C   UNL     1      14.862   8.807  23.300  1.00  0.00     0.009 CG0
ATOM     14  G   UNL     1      13.376   9.078  23.015  1.00  0.00     0.000 G0
ENDBRANCH  12  13
BRANCH  12  15
ATOM     15  C   UNL     1      16.683   8.576  25.019  1.00  0.00    -0.077 C 
ATOM     16  C   UNL     1      17.497   7.707  24.397  1.00  0.00     0.008 C 
ATOM     17  C   UNL     1      17.288   9.589  25.956  1.00  0.00     0.039 C 
ENDBRANCH  12  15
ENDBRANCH  11  12
ENDBRANCH   1  11
TORSDOF 1
ENDMDL
MODEL 8
REMARK VINA RESULT:    -4.005      1.523      4.814
REMARK INTER + INTRA:          -5.256
REMARK INTER:                  -5.408
REMARK INTRA:                   0.152
REMARK UNBOUND:                 0.154
REMARK SMILES C=C(C)[C@H]1CC[C@H](C)C2=C(C1)[C@H](C)CC2
REMARK SMILES IDX 10 1 9 2 15 3 14 4 12 5 13 6 7 7 8 8 6 9 11 11 4 12 5 13
REMARK SMILES IDX 2 15 1 16 3 17
REMARK H PARENT
REMARK Flexibility Score: 80.00
ROOT
ATOM      1  C   UNL     1      12.561   7.361  25.561  1.00  0.00    -0.067 C 
ATOM      2  C   UNL     1      13.844   7.546  25.871  1.00  0.00    -0.068 C 
ATOM      3  C   UNL     1      14.234   6.745  27.074  1.00  0.00     0.032 C 
ATOM      4  C   UNL     1      13.019   5.861  27.362  1.00  0.00     0.012 C 
ATOM      5  C   UNL     1      11.875   6.429  26.510  1.00  0.00     0.012 C 
ATOM      6  C   UNL     1      10.849   7.180  27.367  1.00  0.00     0.012 C 
ENDROOT
BRANCH   2   7
ATOM      7  C   UNL     1      14.774   8.473  25.104  1.00  0.00     0.012 C 
ATOM      8  C   UNL     1      16.137   8.629  25.797  1.00  0.00     0.012 C 
BRANCH   7   9
ATOM      9  C   UNL     1      14.968   7.968  23.656  1.00  0.00     0.008 CG0
ATOM     10  G   UNL     1      13.800   8.338  22.728  1.00  0.00     0.000 G0
ENDBRANCH   7   9
ENDBRANCH   2   7
BRANCH   1  11
ATOM     11  C   UNL     1      11.865   7.997  24.384  1.00  0.00     0.039 C 
BRANCH  11  12
ATOM     12  C   UNL     1      12.496   7.562  23.042  1.00  0.00     0.018 C 
BRANCH  12  13
ATOM     13  C   UNL     1      13.799   8.333  22.728  1.00  0.00     0.009 CG0
ATOM     14  G   UNL     1      14.972   7.975  23.654  1.00  0.00     0.000 G0
ENDBRANCH  12  13
BRANCH  12  15
ATOM     15  C   UNL     1      11.497   7.742  21.904  1.00  0.00    -0.077 C 
ATOM     16  C   UNL     1      10.471   8.603  22.012  1.00  0.00     0.008 C 
ATOM     17  C   UNL     1      11.644   6.948  20.632  1.00  0.00     0.039 C 
ENDBRANCH  12  15
ENDBRANCH  11  12
ENDBRANCH   1  11
TORSDOF 1
ENDMDL
MODEL 9
REMARK VINA RESULT:    -3.984      9.972     12.485
REMARK INTER + INTRA:          -5.228
REMARK INTER:                  -5.356
REMARK INTRA:                   0.129
REMARK UNBOUND:                 0.154
REMARK SMILES C=C(C)[C@H]1CC[C@H](C)C2=C(C1)[C@H](C)CC2
REMARK SMILES IDX 10 1 9 2 15 3 14 4 12 5 13 6 7 7 8 8 6 9 11 11 4 12 5 13
REMARK SMILES IDX 2 15 1 16 3 17
REMARK H PARENT
REMARK Flexibility Score: 80.00
ROOT
ATOM      1  C   UNL     1       4.481   7.929  18.642  1.00  0.00    -0.067 C 
ATOM      2  C   UNL     1       3.272   8.452  18.846  1.00  0.00    -0.068 C 
ATOM      3  C   UNL     1       3.230   9.247  20.113  1.00  0.00     0.032 C 
ATOM      4  C   UNL     1       4.683   9.302  20.585  1.00  0.00     0.012 C 
ATOM      5  C   UNL     1       5.439   8.265  19.741  1.00  0.00     0.012 C 
ATOM      6  C   UNL     1       5.791   7.017  20.560  1.00  0.00     0.012 C 
ENDROOT
BRANCH   2   7
ATOM      7  C   UNL     1       2.091   8.239  17.911  1.00  0.00     0.012 C 
ATOM      8  C   UNL     1       0.783   8.796  18.495  1.00  0.00     0.012 C 
BRANCH   7   9
ATOM      9  C   UNL     1       2.372   8.877  16.532  1.00  0.00     0.008 CG0
ATOM     10  G   UNL     1       3.270   8.008  15.637  1.00  0.00     0.000 G0
ENDBRANCH   7   9
ENDBRANCH   2   7
BRANCH   1  11
ATOM     11  C   UNL     1       4.865   7.102  17.440  1.00  0.00     0.039 C 
BRANCH  11  12
ATOM     12  C   UNL     1       4.740   7.908  16.128  1.00  0.00     0.018 C 
BRANCH  12  13
ATOM     13  C   UNL     1       3.278   8.006  15.635  1.00  0.00     0.009 CG0
ATOM     14  G   UNL     1       2.375   8.868  16.532  1.00  0.00     0.000 G0
ENDBRANCH  12  13
BRANCH  12  15
ATOM     15  C   UNL     1       5.615   7.291  15.042  1.00  0.00    -0.077 C 
ATOM     16  C   UNL     1       5.072   6.748  13.939  1.00  0.00     0.008 C 
ATOM     17  C   UNL     1       7.114   7.279  15.190  1.00  0.00     0.039 C 
ENDBRANCH  12  15
ENDBRANCH  11  12
ENDBRANCH   1  11
TORSDOF 1
ENDMDL
