MODEL 1
REMARK VINA RESULT:    -3.365      0.000      0.000
REMARK INTER + INTRA:          -4.152
REMARK INTER:                  -3.857
REMARK INTRA:                  -0.295
REMARK UNBOUND:                -0.295
REMARK SMILES O=C1C[C@@H](c2ccc(O)cc2)Oc2cc(O)cc(O)c21
REMARK SMILES IDX 3 1 4 2 12 3 13 4 14 5 15 6 17 7 18 8 20 9 2 10 1 11 5 12
REMARK SMILES IDX 6 13 11 14 7 15 10 16 8 17 9 18 19 20 16 22
REMARK H PARENT 9 19 19 21 16 23
REMARK Flexibility Score: inf
ROOT
ATOM      1  C   UNL     1      13.767 -13.064  27.958  1.00  0.00     0.131 C 
ATOM      2  C   UNL     1      14.202 -12.291  29.213  1.00  0.00     0.211 C 
ATOM      3  O   UNL     1      14.296 -13.170  30.337  1.00  0.00    -0.484 OA
ATOM      4  C   UNL     1      14.809 -14.471  30.239  1.00  0.00     0.138 A 
ATOM      5  C   UNL     1      15.128 -15.163  31.409  1.00  0.00     0.093 A 
ATOM      6  C   UNL     1      15.653 -16.454  31.345  1.00  0.00     0.123 A 
ATOM      7  C   UNL     1      15.833 -17.069  30.101  1.00  0.00     0.093 A 
ATOM      8  C   UNL     1      15.481 -16.410  28.917  1.00  0.00     0.133 A 
ATOM      9  C   UNL     1      14.992 -15.078  28.978  1.00  0.00     0.102 A 
ATOM     10  C   UNL     1      14.656 -14.260  27.787  1.00  0.00     0.174 C 
ATOM     11  O   UNL     1      15.140 -14.511  26.651  1.00  0.00    -0.294 OA
ENDROOT
BRANCH   2  12
ATOM     12  C   UNL     1      13.234 -11.172  29.511  1.00  0.00    -0.007 A 
ATOM     13  C   UNL     1      13.468 -10.289  30.581  1.00  0.00     0.011 A 
ATOM     14  C   UNL     1      12.056 -11.035  28.755  1.00  0.00     0.011 A 
ATOM     15  C   UNL     1      12.553  -9.274  30.871  1.00  0.00     0.046 A 
ATOM     16  C   UNL     1      11.143 -10.018  29.049  1.00  0.00     0.046 A 
ATOM     17  C   UNL     1      11.390  -9.134  30.107  1.00  0.00     0.115 A 
BRANCH  17  18
ATOM     18  O   UNL     1      10.488  -8.116  30.408  1.00  0.00    -0.508 OA
ATOM     19  H   UNL     1      10.246  -7.888  31.365  1.00  0.00     0.293 HD
ENDBRANCH  17  18
ENDBRANCH   2  12
BRANCH   8  20
ATOM     20  O   UNL     1      15.603 -17.124  27.724  1.00  0.00    -0.507 OA
ATOM     21  H   UNL     1      16.292 -16.923  27.013  1.00  0.00     0.293 HD
ENDBRANCH   8  20
BRANCH   6  22
ATOM     22  O   UNL     1      15.986 -17.120  32.521  1.00  0.00    -0.508 OA
ATOM     23  H   UNL     1      16.889 -16.997  32.963  1.00  0.00     0.293 HD
ENDBRANCH   6  22
TORSDOF 4
ENDMDL
MODEL 2
REMARK VINA RESULT:    -1.934     11.174     13.047
REMARK INTER + INTRA:          -2.512
REMARK INTER:                  -2.224
REMARK INTRA:                  -0.287
REMARK UNBOUND:                -0.295
REMARK SMILES O=C1C[C@@H](c2ccc(O)cc2)Oc2cc(O)cc(O)c21
REMARK SMILES IDX 3 1 4 2 12 3 13 4 14 5 15 6 17 7 18 8 20 9 2 10 1 11 5 12
REMARK SMILES IDX 6 13 11 14 7 15 10 16 8 17 9 18 19 20 16 22
REMARK H PARENT 9 19 19 21 16 23
REMARK Flexibility Score: inf
ROOT
ATOM      1  C   UNL     1      15.258  -1.153  28.092  1.00  0.00     0.131 C 
ATOM      2  C   UNL     1      15.728  -1.301  26.638  1.00  0.00     0.211 C 
ATOM      3  O   UNL     1      17.154  -1.399  26.577  1.00  0.00    -0.484 OA
ATOM      4  C   UNL     1      17.902  -2.123  27.515  1.00  0.00     0.138 A 
ATOM      5  C   UNL     1      19.242  -2.405  27.240  1.00  0.00     0.093 A 
ATOM      6  C   UNL     1      20.010  -3.136  28.147  1.00  0.00     0.123 A 
ATOM      7  C   UNL     1      19.443  -3.562  29.352  1.00  0.00     0.093 A 
ATOM      8  C   UNL     1      18.113  -3.256  29.668  1.00  0.00     0.133 A 
ATOM      9  C   UNL     1      17.315  -2.554  28.724  1.00  0.00     0.102 A 
ATOM     10  C   UNL     1      15.880  -2.238  28.921  1.00  0.00     0.174 C 
ATOM     11  O   UNL     1      15.160  -2.890  29.723  1.00  0.00    -0.294 OA
ENDROOT
BRANCH   2  12
ATOM     12  C   UNL     1      15.255  -0.136  25.803  1.00  0.00    -0.007 A 
ATOM     13  C   UNL     1      14.879  -0.323  24.461  1.00  0.00     0.011 A 
ATOM     14  C   UNL     1      15.237   1.161  26.345  1.00  0.00     0.011 A 
ATOM     15  C   UNL     1      14.470   0.765  23.684  1.00  0.00     0.046 A 
ATOM     16  C   UNL     1      14.828   2.247  25.565  1.00  0.00     0.046 A 
ATOM     17  C   UNL     1      14.441   2.050  24.232  1.00  0.00     0.115 A 
BRANCH  17  18
ATOM     18  O   UNL     1      14.031   3.125  23.446  1.00  0.00    -0.508 OA
ATOM     19  H   UNL     1      13.351   3.797  23.782  1.00  0.00     0.293 HD
ENDBRANCH  17  18
ENDBRANCH   2  12
BRANCH   8  20
ATOM     20  O   UNL     1      17.647  -3.636  30.928  1.00  0.00    -0.507 OA
ATOM     21  H   UNL     1      16.895  -4.293  31.078  1.00  0.00     0.293 HD
ENDBRANCH   8  20
BRANCH   6  22
ATOM     22  O   UNL     1      21.338  -3.427  27.846  1.00  0.00    -0.508 OA
ATOM     23  H   UNL     1      21.936  -3.915  28.502  1.00  0.00     0.293 HD
ENDBRANCH   6  22
TORSDOF 4
ENDMDL
MODEL 3
REMARK VINA RESULT:    -0.875      9.082     13.189
REMARK INTER + INTRA:          -1.298
REMARK INTER:                  -1.006
REMARK INTRA:                  -0.292
REMARK UNBOUND:                -0.295
REMARK SMILES O=C1C[C@@H](c2ccc(O)cc2)Oc2cc(O)cc(O)c21
REMARK SMILES IDX 3 1 4 2 12 3 13 4 14 5 15 6 17 7 18 8 20 9 2 10 1 11 5 12
REMARK SMILES IDX 6 13 11 14 7 15 10 16 8 17 9 18 19 20 16 22
REMARK H PARENT 9 19 19 21 16 23
REMARK Flexibility Score: inf
ROOT
ATOM      1  C   UNL     1      15.712  -3.087  28.312  1.00  0.00     0.131 C 
ATOM      2  C   UNL     1      16.286  -3.298  26.903  1.00  0.00     0.211 C 
ATOM      3  O   UNL     1      15.775  -2.314  25.999  1.00  0.00    -0.484 OA
ATOM      4  C   UNL     1      15.590  -0.975  26.365  1.00  0.00     0.138 A 
ATOM      5  C   UNL     1      15.357  -0.026  25.367  1.00  0.00     0.093 A 
ATOM      6  C   UNL     1      15.183   1.318  25.698  1.00  0.00     0.123 A 
ATOM      7  C   UNL     1      15.212   1.713  27.040  1.00  0.00     0.093 A 
ATOM      8  C   UNL     1      15.403   0.772  28.061  1.00  0.00     0.133 A 
ATOM      9  C   UNL     1      15.629  -0.589  27.723  1.00  0.00     0.102 A 
ATOM     10  C   UNL     1      15.912  -1.656  28.714  1.00  0.00     0.174 C 
ATOM     11  O   UNL     1      16.367  -1.394  29.859  1.00  0.00    -0.294 OA
ENDROOT
BRANCH   2  12
ATOM     12  C   UNL     1      15.962  -4.683  26.398  1.00  0.00    -0.007 A 
ATOM     13  C   UNL     1      16.989  -5.607  26.132  1.00  0.00     0.011 A 
ATOM     14  C   UNL     1      14.630  -5.046  26.133  1.00  0.00     0.011 A 
ATOM     15  C   UNL     1      16.685  -6.877  25.636  1.00  0.00     0.046 A 
ATOM     16  C   UNL     1      14.330  -6.317  25.636  1.00  0.00     0.046 A 
ATOM     17  C   UNL     1      15.357  -7.237  25.388  1.00  0.00     0.115 A 
BRANCH  17  18
ATOM     18  O   UNL     1      15.069  -8.507  24.893  1.00  0.00    -0.508 OA
ATOM     19  H   UNL     1      15.677  -9.297  25.075  1.00  0.00     0.293 HD
ENDBRANCH  17  18
ENDBRANCH   2  12
BRANCH   8  20
ATOM     20  O   UNL     1      15.326   1.229  29.377  1.00  0.00    -0.507 OA
ATOM     21  H   UNL     1      15.275   0.623  30.184  1.00  0.00     0.293 HD
ENDBRANCH   8  20
BRANCH   6  22
ATOM     22  O   UNL     1      14.974   2.253  24.688  1.00  0.00    -0.508 OA
ATOM     23  H   UNL     1      14.317   2.083  23.935  1.00  0.00     0.293 HD
ENDBRANCH   6  22
TORSDOF 4
ENDMDL
MODEL 4
REMARK VINA RESULT:    -0.409      4.350      6.394
REMARK INTER + INTRA:          -0.764
REMARK INTER:                  -0.479
REMARK INTRA:                  -0.285
REMARK UNBOUND:                -0.295
REMARK SMILES O=C1C[C@@H](c2ccc(O)cc2)Oc2cc(O)cc(O)c21
REMARK SMILES IDX 3 1 4 2 12 3 13 4 14 5 15 6 17 7 18 8 20 9 2 10 1 11 5 12
REMARK SMILES IDX 6 13 11 14 7 15 10 16 8 17 9 18 19 20 16 22
REMARK H PARENT 9 19 19 21 16 23
REMARK Flexibility Score: inf
ROOT
ATOM      1  C   UNL     1      15.014 -10.321  27.277  1.00  0.00     0.131 C 
ATOM      2  C   UNL     1      14.380  -8.922  27.272  1.00  0.00     0.211 C 
ATOM      3  O   UNL     1      12.964  -9.011  27.457  1.00  0.00    -0.484 OA
ATOM      4  C   UNL     1      12.373  -9.924  28.341  1.00  0.00     0.138 A 
ATOM      5  C   UNL     1      11.026  -9.767  28.675  1.00  0.00     0.093 A 
ATOM      6  C   UNL     1      10.412 -10.650  29.564  1.00  0.00     0.123 A 
ATOM      7  C   UNL     1      11.142 -11.717  30.099  1.00  0.00     0.093 A 
ATOM      8  C   UNL     1      12.483 -11.917  29.746  1.00  0.00     0.133 A 
ATOM      9  C   UNL     1      13.123 -10.991  28.880  1.00  0.00     0.102 A 
ATOM     10  C   UNL     1      14.554 -11.064  28.496  1.00  0.00     0.174 C 
ATOM     11  O   UNL     1      15.398 -11.685  29.195  1.00  0.00    -0.294 OA
ENDROOT
BRANCH   2  12
ATOM     12  C   UNL     1      14.688  -8.201  25.983  1.00  0.00    -0.007 A 
ATOM     13  C   UNL     1      14.610  -8.873  24.750  1.00  0.00     0.011 A 
ATOM     14  C   UNL     1      15.113  -6.861  26.006  1.00  0.00     0.011 A 
ATOM     15  C   UNL     1      14.926  -8.208  23.562  1.00  0.00     0.046 A 
ATOM     16  C   UNL     1      15.429  -6.199  24.816  1.00  0.00     0.046 A 
ATOM     17  C   UNL     1      15.334  -6.872  23.590  1.00  0.00     0.115 A 
BRANCH  17  18
ATOM     18  O   UNL     1      15.646  -6.221  22.398  1.00  0.00    -0.508 OA
ATOM     19  H   UNL     1      14.952  -5.685  21.890  1.00  0.00     0.293 HD
ENDBRANCH  17  18
ENDBRANCH   2  12
BRANCH   8  20
ATOM     20  O   UNL     1      13.116 -13.055  30.249  1.00  0.00    -0.507 OA
ATOM     21  H   UNL     1      14.004 -13.041  30.731  1.00  0.00     0.293 HD
ENDBRANCH   8  20
BRANCH   6  22
ATOM     22  O   UNL     1       9.074 -10.466  29.902  1.00  0.00    -0.508 OA
ATOM     23  H   UNL     1       8.646  -9.548  29.892  1.00  0.00     0.293 HD
ENDBRANCH   6  22
TORSDOF 4
ENDMDL
