MODEL 1
REMARK VINA RESULT:    -6.879      0.000      0.000
REMARK INTER + INTRA:          -7.482
REMARK INTER:                  -7.482
REMARK INTRA:                   0.000
REMARK UNBOUND:                 0.000
REMARK SMILES Cc1cc(O)c2c(c1)C(=O)c1cc(O)cc(O)c1C2=O
REMARK SMILES IDX 1 1 2 2 8 3 7 4 6 5 4 6 3 7 19 8 20 9 18 10 11 11 9 12 10 13
REMARK SMILES IDX 12 14 13 15 15 16 16 17 5 18 17 20 14 22
REMARK H PARENT 5 19 17 21 14 23
REMARK Flexibility Score: inf
ROOT
ATOM      1  C   UNL     1     148.477 144.383 152.215  1.00  0.00     0.044 C 
ATOM      2  C   UNL     1     148.805 145.848 152.205  1.00  0.00    -0.047 A 
ATOM      3  C   UNL     1     148.014 146.741 151.477  1.00  0.00     0.016 A 
ATOM      4  C   UNL     1     148.296 148.117 151.479  1.00  0.00     0.038 A 
ATOM      5  C   UNL     1     149.393 148.610 152.224  1.00  0.00     0.076 A 
ATOM      6  C   UNL     1     150.130 147.709 153.040  1.00  0.00     0.127 A 
ATOM      7  C   UNL     1     149.845 146.341 152.998  1.00  0.00     0.050 A 
ATOM      8  C   UNL     1     149.760 150.046 152.079  1.00  0.00     0.201 C 
ATOM      9  O   UNL     1     150.924 150.434 152.367  1.00  0.00    -0.288 OA
ATOM     10  C   UNL     1     148.796 151.007 151.484  1.00  0.00     0.076 A 
ATOM     11  C   UNL     1     147.666 150.511 150.798  1.00  0.00     0.041 A 
ATOM     12  C   UNL     1     147.439 149.051 150.711  1.00  0.00     0.194 C 
ATOM     13  O   UNL     1     146.502 148.602 149.994  1.00  0.00    -0.289 OA
ATOM     14  C   UNL     1     146.763 151.407 150.199  1.00  0.00     0.059 A 
ATOM     15  C   UNL     1     146.972 152.787 150.283  1.00  0.00     0.120 A 
ATOM     16  C   UNL     1     148.083 153.281 150.967  1.00  0.00     0.093 A 
ATOM     17  C   UNL     1     148.994 152.405 151.569  1.00  0.00     0.131 A 
ENDROOT
BRANCH   6  18
ATOM     18  O   UNL     1     151.121 148.126 153.930  1.00  0.00    -0.507 OA
ATOM     19  H   UNL     1     150.987 148.194 154.929  1.00  0.00     0.293 HD
ENDBRANCH   6  18
BRANCH  17  20
ATOM     20  O   UNL     1     150.090 152.927 152.258  1.00  0.00    -0.507 OA
ATOM     21  H   UNL     1     150.898 153.300 151.772  1.00  0.00     0.293 HD
ENDBRANCH  17  20
BRANCH  15  22
ATOM     22  O   UNL     1     146.079 153.678 149.690  1.00  0.00    -0.508 OA
ATOM     23  H   UNL     1     145.077 153.569 149.789  1.00  0.00     0.293 HD
ENDBRANCH  15  22
TORSDOF 3
ENDMDL
MODEL 2
REMARK VINA RESULT:    -6.856      9.735     12.086
REMARK INTER + INTRA:          -7.458
REMARK INTER:                  -7.458
REMARK INTRA:                   0.000
REMARK UNBOUND:                 0.000
REMARK SMILES Cc1cc(O)c2c(c1)C(=O)c1cc(O)cc(O)c1C2=O
REMARK SMILES IDX 1 1 2 2 8 3 7 4 6 5 4 6 3 7 19 8 20 9 18 10 11 11 9 12 10 13
REMARK SMILES IDX 12 14 13 15 15 16 16 17 5 18 17 20 14 22
REMARK H PARENT 5 19 17 21 14 23
REMARK Flexibility Score: inf
ROOT
ATOM      1  C   UNL     1     148.497 149.587 141.766  1.00  0.00     0.044 C 
ATOM      2  C   UNL     1     148.827 148.123 141.750  1.00  0.00    -0.047 A 
ATOM      3  C   UNL     1     148.044 147.217 142.472  1.00  0.00     0.016 A 
ATOM      4  C   UNL     1     148.328 145.841 142.445  1.00  0.00     0.038 A 
ATOM      5  C   UNL     1     149.417 145.362 141.679  1.00  0.00     0.076 A 
ATOM      6  C   UNL     1     150.144 146.277 140.870  1.00  0.00     0.127 A 
ATOM      7  C   UNL     1     149.858 147.644 140.937  1.00  0.00     0.050 A 
ATOM      8  C   UNL     1     149.787 143.924 141.797  1.00  0.00     0.201 C 
ATOM      9  O   UNL     1     150.948 143.542 141.489  1.00  0.00    -0.288 OA
ATOM     10  C   UNL     1     148.830 142.952 142.387  1.00  0.00     0.076 A 
ATOM     11  C   UNL     1     147.707 143.436 143.093  1.00  0.00     0.041 A 
ATOM     12  C   UNL     1     147.480 144.895 143.206  1.00  0.00     0.194 C 
ATOM     13  O   UNL     1     146.550 145.330 143.941  1.00  0.00    -0.289 OA
ATOM     14  C   UNL     1     146.812 142.529 143.688  1.00  0.00     0.059 A 
ATOM     15  C   UNL     1     147.021 141.151 143.579  1.00  0.00     0.120 A 
ATOM     16  C   UNL     1     148.125 140.669 142.875  1.00  0.00     0.093 A 
ATOM     17  C   UNL     1     149.029 141.556 142.277  1.00  0.00     0.131 A 
ENDROOT
BRANCH   6  18
ATOM     18  O   UNL     1     151.125 145.875 139.962  1.00  0.00    -0.507 OA
ATOM     19  H   UNL     1     151.847 146.486 139.608  1.00  0.00     0.293 HD
ENDBRANCH   6  18
BRANCH  17  20
ATOM     20  O   UNL     1     150.117 141.047 141.567  1.00  0.00    -0.507 OA
ATOM     21  H   UNL     1     150.701 141.640 140.989  1.00  0.00     0.293 HD
ENDBRANCH  17  20
BRANCH  15  22
ATOM     22  O   UNL     1     146.136 140.250 144.168  1.00  0.00    -0.508 OA
ATOM     23  H   UNL     1     145.208 140.532 144.459  1.00  0.00     0.293 HD
ENDBRANCH  15  22
TORSDOF 3
ENDMDL
MODEL 3
REMARK VINA RESULT:    -6.855      4.670      8.614
REMARK INTER + INTRA:          -7.456
REMARK INTER:                  -7.456
REMARK INTRA:                   0.000
REMARK UNBOUND:                 0.000
REMARK SMILES Cc1cc(O)c2c(c1)C(=O)c1cc(O)cc(O)c1C2=O
REMARK SMILES IDX 1 1 2 2 8 3 7 4 6 5 4 6 3 7 19 8 20 9 18 10 11 11 9 12 10 13
REMARK SMILES IDX 12 14 13 15 15 16 16 17 5 18 17 20 14 22
REMARK H PARENT 5 19 17 21 14 23
REMARK Flexibility Score: inf
ROOT
ATOM      1  C   UNL     1     145.412 149.580 152.247  1.00  0.00     0.044 C 
ATOM      2  C   UNL     1     145.068 148.119 152.238  1.00  0.00    -0.047 A 
ATOM      3  C   UNL     1     145.857 147.215 151.520  1.00  0.00     0.016 A 
ATOM      4  C   UNL     1     145.559 145.841 151.524  1.00  0.00     0.038 A 
ATOM      5  C   UNL     1     144.449 145.363 152.260  1.00  0.00     0.076 A 
ATOM      6  C   UNL     1     143.715 146.274 153.066  1.00  0.00     0.127 A 
ATOM      7  C   UNL     1     144.015 147.639 153.023  1.00  0.00     0.050 A 
ATOM      8  C   UNL     1     144.068 143.931 152.115  1.00  0.00     0.201 C 
ATOM      9  O   UNL     1     142.897 143.556 152.394  1.00  0.00    -0.288 OA
ATOM     10  C   UNL     1     145.028 142.957 151.533  1.00  0.00     0.076 A 
ATOM     11  C   UNL     1     146.170 143.439 150.857  1.00  0.00     0.041 A 
ATOM     12  C   UNL     1     146.413 144.896 150.767  1.00  0.00     0.194 C 
ATOM     13  O   UNL     1     147.362 145.332 150.058  1.00  0.00    -0.289 OA
ATOM     14  C   UNL     1     147.068 142.531 150.269  1.00  0.00     0.059 A 
ATOM     15  C   UNL     1     146.844 141.153 150.355  1.00  0.00     0.120 A 
ATOM     16  C   UNL     1     145.721 140.674 151.030  1.00  0.00     0.093 A 
ATOM     17  C   UNL     1     144.813 141.561 151.621  1.00  0.00     0.131 A 
ENDROOT
BRANCH   6  18
ATOM     18  O   UNL     1     142.711 145.871 153.948  1.00  0.00    -0.507 OA
ATOM     19  H   UNL     1     142.762 145.034 154.512  1.00  0.00     0.293 HD
ENDBRANCH   6  18
BRANCH  17  20
ATOM     20  O   UNL     1     143.705 141.054 152.301  1.00  0.00    -0.507 OA
ATOM     21  H   UNL     1     142.989 141.661 152.681  1.00  0.00     0.293 HD
ENDBRANCH  17  20
BRANCH  15  22
ATOM     22  O   UNL     1     147.732 140.251 149.773  1.00  0.00    -0.508 OA
ATOM     23  H   UNL     1     147.413 139.383 149.362  1.00  0.00     0.293 HD
ENDBRANCH  15  22
TORSDOF 3
ENDMDL
MODEL 4
REMARK VINA RESULT:    -6.831      8.580     10.519
REMARK INTER + INTRA:          -7.430
REMARK INTER:                  -7.430
REMARK INTRA:                   0.000
REMARK UNBOUND:                 0.000
REMARK SMILES Cc1cc(O)c2c(c1)C(=O)c1cc(O)cc(O)c1C2=O
REMARK SMILES IDX 1 1 2 2 8 3 7 4 6 5 4 6 3 7 19 8 20 9 18 10 11 11 9 12 10 13
REMARK SMILES IDX 12 14 13 15 15 16 16 17 5 18 17 20 14 22
REMARK H PARENT 5 19 17 21 14 23
REMARK Flexibility Score: inf
ROOT
ATOM      1  C   UNL     1     145.409 144.396 141.787  1.00  0.00     0.044 C 
ATOM      2  C   UNL     1     145.092 145.863 141.747  1.00  0.00    -0.047 A 
ATOM      3  C   UNL     1     145.858 146.769 142.486  1.00  0.00     0.016 A 
ATOM      4  C   UNL     1     145.586 148.147 142.437  1.00  0.00     0.038 A 
ATOM      5  C   UNL     1     144.525 148.628 141.633  1.00  0.00     0.076 A 
ATOM      6  C   UNL     1     143.818 147.711 140.809  1.00  0.00     0.127 A 
ATOM      7  C   UNL     1     144.091 146.342 140.898  1.00  0.00     0.050 A 
ATOM      8  C   UNL     1     144.163 150.069 141.727  1.00  0.00     0.201 C 
ATOM      9  O   UNL     1     143.016 150.457 141.379  1.00  0.00    -0.288 OA
ATOM     10  C   UNL     1     145.109 151.039 142.338  1.00  0.00     0.076 A 
ATOM     11  C   UNL     1     146.205 150.553 143.084  1.00  0.00     0.041 A 
ATOM     12  C   UNL     1     146.417 149.094 143.217  1.00  0.00     0.194 C 
ATOM     13  O   UNL     1     147.319 148.658 143.985  1.00  0.00    -0.289 OA
ATOM     14  C   UNL     1     147.087 151.459 143.699  1.00  0.00     0.059 A 
ATOM     15  C   UNL     1     146.893 152.838 143.571  1.00  0.00     0.120 A 
ATOM     16  C   UNL     1     145.816 153.321 142.828  1.00  0.00     0.093 A 
ATOM     17  C   UNL     1     144.924 152.436 142.209  1.00  0.00     0.131 A 
ENDROOT
BRANCH   6  18
ATOM     18  O   UNL     1     142.869 148.112 139.867  1.00  0.00    -0.507 OA
ATOM     19  H   UNL     1     141.878 147.943 139.962  1.00  0.00     0.293 HD
ENDBRANCH   6  18
BRANCH  17  20
ATOM     20  O   UNL     1     143.863 152.947 141.461  1.00  0.00    -0.507 OA
ATOM     21  H   UNL     1     142.956 152.495 141.444  1.00  0.00     0.293 HD
ENDBRANCH  17  20
BRANCH  15  22
ATOM     22  O   UNL     1     147.765 153.737 144.179  1.00  0.00    -0.508 OA
ATOM     23  H   UNL     1     147.625 154.051 145.132  1.00  0.00     0.293 HD
ENDBRANCH  15  22
TORSDOF 3
ENDMDL
MODEL 5
REMARK VINA RESULT:    -6.471      6.062      9.283
REMARK INTER + INTRA:          -7.039
REMARK INTER:                  -7.039
REMARK INTRA:                   0.000
REMARK UNBOUND:                 0.000
REMARK SMILES Cc1cc(O)c2c(c1)C(=O)c1cc(O)cc(O)c1C2=O
REMARK SMILES IDX 1 1 2 2 8 3 7 4 6 5 4 6 3 7 19 8 20 9 18 10 11 11 9 12 10 13
REMARK SMILES IDX 12 14 13 15 15 16 16 17 5 18 17 20 14 22
REMARK H PARENT 5 19 17 21 14 23
REMARK Flexibility Score: inf
ROOT
ATOM      1  C   UNL     1     144.477 153.345 140.184  1.00  0.00     0.044 C 
ATOM      2  C   UNL     1     144.510 152.737 141.557  1.00  0.00    -0.047 A 
ATOM      3  C   UNL     1     145.613 152.944 142.391  1.00  0.00     0.016 A 
ATOM      4  C   UNL     1     145.645 152.401 143.687  1.00  0.00     0.038 A 
ATOM      5  C   UNL     1     144.551 151.636 144.157  1.00  0.00     0.076 A 
ATOM      6  C   UNL     1     143.394 151.517 143.341  1.00  0.00     0.127 A 
ATOM      7  C   UNL     1     143.399 152.044 142.046  1.00  0.00     0.050 A 
ATOM      8  C   UNL     1     144.684 150.945 145.470  1.00  0.00     0.201 C 
ATOM      9  O   UNL     1     143.953 149.953 145.739  1.00  0.00    -0.288 OA
ATOM     10  C   UNL     1     145.753 151.345 146.421  1.00  0.00     0.076 A 
ATOM     11  C   UNL     1     146.808 152.164 145.963  1.00  0.00     0.041 A 
ATOM     12  C   UNL     1     146.817 152.640 144.561  1.00  0.00     0.194 C 
ATOM     13  O   UNL     1     147.819 153.266 144.117  1.00  0.00    -0.289 OA
ATOM     14  C   UNL     1     147.846 152.521 146.841  1.00  0.00     0.059 A 
ATOM     15  C   UNL     1     147.839 152.077 148.167  1.00  0.00     0.120 A 
ATOM     16  C   UNL     1     146.794 151.275 148.625  1.00  0.00     0.093 A 
ATOM     17  C   UNL     1     145.751 150.907 147.766  1.00  0.00     0.131 A 
ENDROOT
BRANCH   6  18
ATOM     18  O   UNL     1     142.210 150.923 143.782  1.00  0.00    -0.507 OA
ATOM     19  H   UNL     1     141.294 151.322 143.639  1.00  0.00     0.293 HD
ENDBRANCH   6  18
BRANCH  17  20
ATOM     20  O   UNL     1     144.712 150.114 148.254  1.00  0.00    -0.507 OA
ATOM     21  H   UNL     1     144.399 149.284 147.763  1.00  0.00     0.293 HD
ENDBRANCH  17  20
BRANCH  15  22
ATOM     22  O   UNL     1     148.867 152.429 149.039  1.00  0.00    -0.508 OA
ATOM     23  H   UNL     1     149.376 151.732 149.568  1.00  0.00     0.293 HD
ENDBRANCH  15  22
TORSDOF 3
ENDMDL
MODEL 6
REMARK VINA RESULT:    -6.470      8.267     10.689
REMARK INTER + INTRA:          -7.037
REMARK INTER:                  -7.037
REMARK INTRA:                   0.000
REMARK UNBOUND:                 0.000
REMARK SMILES Cc1cc(O)c2c(c1)C(=O)c1cc(O)cc(O)c1C2=O
REMARK SMILES IDX 1 1 2 2 8 3 7 4 6 5 4 6 3 7 19 8 20 9 18 10 11 11 9 12 10 13
REMARK SMILES IDX 12 14 13 15 15 16 16 17 5 18 17 20 14 22
REMARK H PARENT 5 19 17 21 14 23
REMARK Flexibility Score: inf
ROOT
ATOM      1  C   UNL     1     149.250 140.624 140.259  1.00  0.00     0.044 C 
ATOM      2  C   UNL     1     149.251 141.204 141.643  1.00  0.00    -0.047 A 
ATOM      3  C   UNL     1     148.166 140.987 142.498  1.00  0.00     0.016 A 
ATOM      4  C   UNL     1     148.167 141.505 143.805  1.00  0.00     0.038 A 
ATOM      5  C   UNL     1     149.275 142.254 144.265  1.00  0.00     0.076 A 
ATOM      6  C   UNL     1     150.414 142.383 143.425  1.00  0.00     0.127 A 
ATOM      7  C   UNL     1     150.376 141.882 142.120  1.00  0.00     0.050 A 
ATOM      8  C   UNL     1     149.177 142.920 145.594  1.00  0.00     0.201 C 
ATOM      9  O   UNL     1     149.919 143.902 145.866  1.00  0.00    -0.288 OA
ATOM     10  C   UNL     1     148.127 142.507 146.561  1.00  0.00     0.076 A 
ATOM     11  C   UNL     1     147.057 141.702 146.111  1.00  0.00     0.041 A 
ATOM     12  C   UNL     1     147.014 141.255 144.701  1.00  0.00     0.194 C 
ATOM     13  O   UNL     1     145.998 140.643 144.268  1.00  0.00    -0.289 OA
ATOM     14  C   UNL     1     146.037 141.334 147.006  1.00  0.00     0.059 A 
ATOM     15  C   UNL     1     146.077 141.752 148.340  1.00  0.00     0.120 A 
ATOM     16  C   UNL     1     147.137 142.540 148.789  1.00  0.00     0.093 A 
ATOM     17  C   UNL     1     148.162 142.919 147.914  1.00  0.00     0.131 A 
ENDROOT
BRANCH   6  18
ATOM     18  O   UNL     1     151.611 142.962 143.851  1.00  0.00    -0.507 OA
ATOM     19  H   UNL     1     152.524 142.643 143.560  1.00  0.00     0.293 HD
ENDBRANCH   6  18
BRANCH  17  20
ATOM     20  O   UNL     1     149.217 143.697 148.393  1.00  0.00    -0.507 OA
ATOM     21  H   UNL     1     149.235 144.703 148.273  1.00  0.00     0.293 HD
ENDBRANCH  17  20
BRANCH  15  22
ATOM     22  O   UNL     1     145.068 141.388 149.228  1.00  0.00    -0.508 OA
ATOM     23  H   UNL     1     144.334 142.035 149.491  1.00  0.00     0.293 HD
ENDBRANCH  15  22
TORSDOF 3
ENDMDL
MODEL 7
REMARK VINA RESULT:    -6.447      8.654      9.644
REMARK INTER + INTRA:          -7.013
REMARK INTER:                  -7.013
REMARK INTRA:                   0.000
REMARK UNBOUND:                 0.000
REMARK SMILES Cc1cc(O)c2c(c1)C(=O)c1cc(O)cc(O)c1C2=O
REMARK SMILES IDX 1 1 2 2 8 3 7 4 6 5 4 6 3 7 19 8 20 9 18 10 11 11 9 12 10 13
REMARK SMILES IDX 12 14 13 15 15 16 16 17 5 18 17 20 14 22
REMARK H PARENT 5 19 17 21 14 23
REMARK Flexibility Score: inf
ROOT
ATOM      1  C   UNL     1     144.729 140.596 153.824  1.00  0.00     0.044 C 
ATOM      2  C   UNL     1     144.669 141.208 152.454  1.00  0.00    -0.047 A 
ATOM      3  C   UNL     1     145.701 140.985 151.538  1.00  0.00     0.016 A 
ATOM      4  C   UNL     1     145.644 141.532 150.245  1.00  0.00     0.038 A 
ATOM      5  C   UNL     1     144.532 142.317 149.860  1.00  0.00     0.076 A 
ATOM      6  C   UNL     1     143.442 142.453 150.763  1.00  0.00     0.127 A 
ATOM      7  C   UNL     1     143.537 141.922 152.053  1.00  0.00     0.050 A 
ATOM      8  C   UNL     1     144.576 143.010 148.543  1.00  0.00     0.201 C 
ATOM      9  O   UNL     1     143.845 144.015 148.332  1.00  0.00    -0.288 OA
ATOM     10  C   UNL     1     145.563 142.595 147.512  1.00  0.00     0.076 A 
ATOM     11  C   UNL     1     146.635 141.755 147.887  1.00  0.00     0.041 A 
ATOM     12  C   UNL     1     146.742 141.275 149.283  1.00  0.00     0.194 C 
ATOM     13  O   UNL     1     147.764 140.630 149.649  1.00  0.00    -0.289 OA
ATOM     14  C   UNL     1     147.597 141.384 146.932  1.00  0.00     0.059 A 
ATOM     15  C   UNL     1     147.497 141.832 145.611  1.00  0.00     0.120 A 
ATOM     16  C   UNL     1     146.435 142.655 145.236  1.00  0.00     0.093 A 
ATOM     17  C   UNL     1     145.467 143.038 146.173  1.00  0.00     0.131 A 
ENDROOT
BRANCH   6  18
ATOM     18  O   UNL     1     142.239 143.070 150.414  1.00  0.00    -0.507 OA
ATOM     19  H   UNL     1     141.333 142.637 150.525  1.00  0.00     0.293 HD
ENDBRANCH   6  18
BRANCH  17  20
ATOM     20  O   UNL     1     144.407 143.851 145.767  1.00  0.00    -0.507 OA
ATOM     21  H   UNL     1     143.885 143.662 144.919  1.00  0.00     0.293 HD
ENDBRANCH  17  20
BRANCH  15  22
ATOM     22  O   UNL     1     148.449 141.465 144.663  1.00  0.00    -0.508 OA
ATOM     23  H   UNL     1     148.826 140.526 144.625  1.00  0.00     0.293 HD
ENDBRANCH  15  22
TORSDOF 3
ENDMDL
MODEL 8
REMARK VINA RESULT:    -6.434      3.727      5.286
REMARK INTER + INTRA:          -6.999
REMARK INTER:                  -6.999
REMARK INTRA:                   0.000
REMARK UNBOUND:                 0.000
REMARK SMILES Cc1cc(O)c2c(c1)C(=O)c1cc(O)cc(O)c1C2=O
REMARK SMILES IDX 1 1 2 2 8 3 7 4 6 5 4 6 3 7 19 8 20 9 18 10 11 11 9 12 10 13
REMARK SMILES IDX 12 14 13 15 15 16 16 17 5 18 17 20 14 22
REMARK H PARENT 5 19 17 21 14 23
REMARK Flexibility Score: inf
ROOT
ATOM      1  C   UNL     1     149.253 153.364 153.769  1.00  0.00     0.044 C 
ATOM      2  C   UNL     1     149.291 152.734 152.407  1.00  0.00    -0.047 A 
ATOM      3  C   UNL     1     148.265 152.978 151.490  1.00  0.00     0.016 A 
ATOM      4  C   UNL     1     148.302 152.415 150.203  1.00  0.00     0.038 A 
ATOM      5  C   UNL     1     149.389 151.591 149.826  1.00  0.00     0.076 A 
ATOM      6  C   UNL     1     150.475 151.431 150.729  1.00  0.00     0.127 A 
ATOM      7  C   UNL     1     150.400 151.980 152.013  1.00  0.00     0.050 A 
ATOM      8  C   UNL     1     149.321 150.883 148.518  1.00  0.00     0.201 C 
ATOM      9  O   UNL     1     150.019 149.853 148.318  1.00  0.00    -0.288 OA
ATOM     10  C   UNL     1     148.346 151.317 147.483  1.00  0.00     0.076 A 
ATOM     11  C   UNL     1     147.301 152.194 147.850  1.00  0.00     0.041 A 
ATOM     12  C   UNL     1     147.212 152.695 149.240  1.00  0.00     0.194 C 
ATOM     13  O   UNL     1     146.211 153.375 149.599  1.00  0.00    -0.289 OA
ATOM     14  C   UNL     1     146.349 152.585 146.891  1.00  0.00     0.059 A 
ATOM     15  C   UNL     1     146.433 152.118 145.575  1.00  0.00     0.120 A 
ATOM     16  C   UNL     1     147.468 151.258 145.209  1.00  0.00     0.093 A 
ATOM     17  C   UNL     1     148.426 150.855 146.149  1.00  0.00     0.131 A 
ENDROOT
BRANCH   6  18
ATOM     18  O   UNL     1     151.658 150.772 150.386  1.00  0.00    -0.507 OA
ATOM     19  H   UNL     1     151.894 149.842 150.701  1.00  0.00     0.293 HD
ENDBRANCH   6  18
BRANCH  17  20
ATOM     20  O   UNL     1     149.458 150.005 145.751  1.00  0.00    -0.507 OA
ATOM     21  H   UNL     1     149.372 148.997 145.813  1.00  0.00     0.293 HD
ENDBRANCH  17  20
BRANCH  15  22
ATOM     22  O   UNL     1     145.491 152.503 144.624  1.00  0.00    -0.508 OA
ATOM     23  H   UNL     1     145.256 151.908 143.839  1.00  0.00     0.293 HD
ENDBRANCH  15  22
TORSDOF 3
ENDMDL
MODEL 9
REMARK VINA RESULT:    -6.313      9.726     10.789
REMARK INTER + INTRA:          -6.866
REMARK INTER:                  -6.866
REMARK INTRA:                   0.000
REMARK UNBOUND:                 0.000
REMARK SMILES Cc1cc(O)c2c(c1)C(=O)c1cc(O)cc(O)c1C2=O
REMARK SMILES IDX 1 1 2 2 8 3 7 4 6 5 4 6 3 7 19 8 20 9 18 10 11 11 9 12 10 13
REMARK SMILES IDX 12 14 13 15 15 16 16 17 5 18 17 20 14 22
REMARK H PARENT 5 19 17 21 14 23
REMARK Flexibility Score: inf
ROOT
ATOM      1  C   UNL     1     145.923 140.636 144.828  1.00  0.00     0.044 C 
ATOM      2  C   UNL     1     146.805 141.514 143.989  1.00  0.00    -0.047 A 
ATOM      3  C   UNL     1     146.543 142.884 143.888  1.00  0.00     0.016 A 
ATOM      4  C   UNL     1     147.376 143.720 143.126  1.00  0.00     0.038 A 
ATOM      5  C   UNL     1     148.493 143.175 142.450  1.00  0.00     0.076 A 
ATOM      6  C   UNL     1     148.808 141.802 142.639  1.00  0.00     0.127 A 
ATOM      7  C   UNL     1     147.948 140.987 143.381  1.00  0.00     0.050 A 
ATOM      8  C   UNL     1     149.260 144.056 141.525  1.00  0.00     0.201 C 
ATOM      9  O   UNL     1     149.969 143.551 140.613  1.00  0.00    -0.288 OA
ATOM     10  C   UNL     1     149.104 145.532 141.597  1.00  0.00     0.076 A 
ATOM     11  C   UNL     1     148.025 146.073 142.330  1.00  0.00     0.041 A 
ATOM     12  C   UNL     1     147.090 145.172 143.040  1.00  0.00     0.194 C 
ATOM     13  O   UNL     1     146.056 145.645 143.589  1.00  0.00    -0.289 OA
ATOM     14  C   UNL     1     147.843 147.466 142.377  1.00  0.00     0.059 A 
ATOM     15  C   UNL     1     148.726 148.322 141.711  1.00  0.00     0.120 A 
ATOM     16  C   UNL     1     149.798 147.790 140.993  1.00  0.00     0.093 A 
ATOM     17  C   UNL     1     149.996 146.405 140.932  1.00  0.00     0.131 A 
ENDROOT
BRANCH   6  18
ATOM     18  O   UNL     1     149.976 141.216 142.147  1.00  0.00    -0.507 OA
ATOM     19  H   UNL     1     150.668 140.767 142.730  1.00  0.00     0.293 HD
ENDBRANCH   6  18
BRANCH  17  20
ATOM     20  O   UNL     1     151.084 145.901 140.218  1.00  0.00    -0.507 OA
ATOM     21  H   UNL     1     151.977 146.381 140.198  1.00  0.00     0.293 HD
ENDBRANCH  17  20
BRANCH  15  22
ATOM     22  O   UNL     1     148.548 149.702 141.756  1.00  0.00    -0.508 OA
ATOM     23  H   UNL     1     149.028 150.321 141.113  1.00  0.00     0.293 HD
ENDBRANCH  15  22
TORSDOF 3
ENDMDL
