MODEL 1
REMARK VINA RESULT:    76.343      0.000      0.000
REMARK INTER + INTRA:         103.501
REMARK INTER:                 103.121
REMARK INTRA:                   0.379
REMARK UNBOUND:                 0.379
REMARK SMILES O=c1c(-c2ccc(O)cc2)coc2c([C@@H]3O[C@@H](CO)[C@H](O)[C@@H](O)[C@H]3O)c(O)ccc12
REMARK SMILES IDX 3 1 11 2 12 3 13 4 30 5 2 6 1 7 29 8 28 9 26 10 14 11 4 12
REMARK SMILES IDX 5 13 6 14 7 15 10 16 9 17 8 18 15 20 24 21 16 22 22 23 17 24
REMARK SMILES IDX 20 25 25 26 23 28 18 30 19 31 21 33 27 35
REMARK H PARENT 8 19 25 27 23 29 19 32 21 34 27 36
REMARK Flexibility Score: inf
ROOT
ATOM      1  C   UNL     1       2.321  -1.098   0.985  1.00  0.00     0.065 A 
ATOM      2  C   UNL     1       1.597  -0.555   2.052  1.00  0.00     0.208 A 
ATOM      3  O   UNL     1       0.273  -0.486   2.010  1.00  0.00    -0.463 OA
ATOM      4  C   UNL     1      -0.460  -0.911   0.988  1.00  0.00     0.147 A 
ATOM      5  C   UNL     1       0.197  -1.502  -0.122  1.00  0.00     0.066 A 
ATOM      6  C   UNL     1       1.601  -1.589  -0.116  1.00  0.00     0.200 A 
ATOM      7  O   UNL     1       2.211  -2.128  -1.082  1.00  0.00    -0.288 OA
ATOM      8  C   UNL     1      -0.556  -2.002  -1.191  1.00  0.00     0.020 A 
ATOM      9  C   UNL     1      -1.942  -1.961  -1.148  1.00  0.00     0.047 A 
ATOM     10  C   UNL     1      -2.611  -1.399  -0.061  1.00  0.00     0.125 A 
ATOM     11  C   UNL     1      -1.882  -0.791   1.003  1.00  0.00     0.069 A 
ENDROOT
BRANCH   1  12
ATOM     12  C   UNL     1       3.804  -1.151   1.045  1.00  0.00    -0.011 A 
ATOM     13  C   UNL     1       4.574  -0.789  -0.075  1.00  0.00     0.013 A 
ATOM     14  C   UNL     1       5.970  -0.847  -0.023  1.00  0.00     0.047 A 
ATOM     15  C   UNL     1       6.613  -1.274   1.147  1.00  0.00     0.115 A 
ATOM     16  C   UNL     1       4.458  -1.583   2.213  1.00  0.00     0.013 A 
ATOM     17  C   UNL     1       5.853  -1.642   2.261  1.00  0.00     0.047 A 
BRANCH  15  18
ATOM     18  O   UNL     1       8.004  -1.335   1.210  1.00  0.00    -0.508 OA
ATOM     19  H   UNL     1       8.560  -1.577   0.399  1.00  0.00     0.293 HD
ENDBRANCH  15  18
ENDBRANCH   1  12
BRANCH  11  20
ATOM     20  C   UNL     1      -2.688  -0.052   2.099  1.00  0.00     0.188 C 
ATOM     21  C   UNL     1      -2.044   0.282   3.473  1.00  0.00     0.179 C 
ATOM     22  O   UNL     1      -3.310   1.116   1.577  1.00  0.00    -0.362 OA
ATOM     23  C   UNL     1      -1.060   1.466   3.341  1.00  0.00     0.177 C 
ATOM     24  C   UNL     1      -2.370   2.146   1.310  1.00  0.00     0.176 C 
ATOM     25  C   UNL     1      -1.738   2.647   2.629  1.00  0.00     0.177 C 
BRANCH  21  26
ATOM     26  O   UNL     1      -3.077   0.634   4.362  1.00  0.00    -0.387 OA
ATOM     27  H   UNL     1      -3.844   0.949   3.817  1.00  0.00     0.211 HD
ENDBRANCH  21  26
BRANCH  23  28
ATOM     28  O   UNL     1      -0.620   1.856   4.618  1.00  0.00    -0.387 OA
ATOM     29  H   UNL     1      -0.822   2.822   4.713  1.00  0.00     0.211 HD
ENDBRANCH  23  28
BRANCH  24  30
ATOM     30  C   UNL     1      -3.109   3.273   0.575  1.00  0.00     0.191 C 
BRANCH  30  31
ATOM     31  O   UNL     1      -3.077   4.455   1.328  1.00  0.00    -0.394 OA
ATOM     32  H   UNL     1      -3.188   4.180   2.276  1.00  0.00     0.210 HD
ENDBRANCH  30  31
ENDBRANCH  24  30
BRANCH  25  33
ATOM     33  O   UNL     1      -0.770   3.633   2.364  1.00  0.00    -0.388 OA
ATOM     34  H   UNL     1      -1.139   4.499   2.682  1.00  0.00     0.211 HD
ENDBRANCH  25  33
ENDBRANCH  11  20
BRANCH  10  35
ATOM     35  O   UNL     1      -4.007  -1.478  -0.072  1.00  0.00    -0.507 OA
ATOM     36  H   UNL     1      -4.525  -2.347  -0.083  1.00  0.00     0.293 HD
ENDBRANCH  10  35
TORSDOF 9
ENDMDL
MODEL 2
REMARK VINA RESULT:    76.804     11.558     13.750
REMARK INTER + INTRA:         104.123
REMARK INTER:                 102.395
REMARK INTRA:                   1.728
REMARK UNBOUND:                 0.379
REMARK SMILES O=c1c(-c2ccc(O)cc2)coc2c([C@@H]3O[C@@H](CO)[C@H](O)[C@@H](O)[C@H]3O)c(O)ccc12
REMARK SMILES IDX 3 1 11 2 12 3 13 4 30 5 2 6 1 7 29 8 28 9 26 10 14 11 4 12
REMARK SMILES IDX 5 13 6 14 7 15 10 16 9 17 8 18 15 20 24 21 16 22 22 23 17 24
REMARK SMILES IDX 20 25 25 26 23 28 18 30 19 31 21 33 27 35
REMARK H PARENT 8 19 25 27 23 29 19 32 21 34 27 36
REMARK Flexibility Score: inf
ROOT
ATOM      1  C   UNL     1      -0.004  10.857   7.389  1.00  0.00     0.065 A 
ATOM      2  C   UNL     1       0.399  11.206   6.096  1.00  0.00     0.208 A 
ATOM      3  O   UNL     1      -0.341  12.012   5.346  1.00  0.00    -0.463 OA
ATOM      4  C   UNL     1      -1.490  12.545   5.742  1.00  0.00     0.147 A 
ATOM      5  C   UNL     1      -1.956  12.265   7.053  1.00  0.00     0.066 A 
ATOM      6  C   UNL     1      -1.200  11.410   7.876  1.00  0.00     0.200 A 
ATOM      7  O   UNL     1      -1.579  11.158   9.054  1.00  0.00    -0.288 OA
ATOM      8  C   UNL     1      -3.141  12.852   7.512  1.00  0.00     0.020 A 
ATOM      9  C   UNL     1      -3.837  13.740   6.705  1.00  0.00     0.047 A 
ATOM     10  C   UNL     1      -3.392  14.042   5.418  1.00  0.00     0.125 A 
ATOM     11  C   UNL     1      -2.244  13.393   4.876  1.00  0.00     0.069 A 
ENDROOT
BRANCH   1  12
ATOM     12  C   UNL     1       0.831   9.940   8.205  1.00  0.00    -0.011 A 
ATOM     13  C   UNL     1       1.939  10.433   8.917  1.00  0.00     0.013 A 
ATOM     14  C   UNL     1       2.732   9.569   9.679  1.00  0.00     0.047 A 
ATOM     15  C   UNL     1       2.431   8.202   9.733  1.00  0.00     0.115 A 
ATOM     16  C   UNL     1       0.540   8.565   8.261  1.00  0.00     0.013 A 
ATOM     17  C   UNL     1       1.335   7.704   9.022  1.00  0.00     0.047 A 
BRANCH  15  18
ATOM     18  O   UNL     1       3.214   7.332  10.489  1.00  0.00    -0.508 OA
ATOM     19  H   UNL     1       2.823   6.796  11.255  1.00  0.00     0.293 HD
ENDBRANCH  15  18
ENDBRANCH   1  12
BRANCH  11  20
ATOM     20  C   UNL     1      -1.897  13.661   3.392  1.00  0.00     0.188 C 
ATOM     21  C   UNL     1      -1.564  12.490   2.427  1.00  0.00     0.179 C 
ATOM     22  O   UNL     1      -2.867  14.506   2.784  1.00  0.00    -0.362 OA
ATOM     23  C   UNL     1      -2.847  11.726   2.031  1.00  0.00     0.177 C 
ATOM     24  C   UNL     1      -4.099  13.835   2.569  1.00  0.00     0.176 C 
ATOM     25  C   UNL     1      -3.918  12.706   1.528  1.00  0.00     0.177 C 
BRANCH  21  26
ATOM     26  O   UNL     1      -0.972  13.035   1.272  1.00  0.00    -0.387 OA
ATOM     27  H   UNL     1       0.011  12.931   1.364  1.00  0.00     0.211 HD
ENDBRANCH  21  26
BRANCH  23  28
ATOM     28  O   UNL     1      -2.543  10.783   1.033  1.00  0.00    -0.387 OA
ATOM     29  H   UNL     1      -3.401  10.522   0.609  1.00  0.00     0.211 HD
ENDBRANCH  23  28
BRANCH  24  30
ATOM     30  C   UNL     1      -5.124  14.877   2.099  1.00  0.00     0.191 C 
BRANCH  30  31
ATOM     31  O   UNL     1      -4.868  15.255   0.774  1.00  0.00    -0.394 OA
ATOM     32  H   UNL     1      -3.978  15.694   0.779  1.00  0.00     0.210 HD
ENDBRANCH  30  31
ENDBRANCH  24  30
BRANCH  25  33
ATOM     33  O   UNL     1      -5.125  12.007   1.348  1.00  0.00    -0.388 OA
ATOM     34  H   UNL     1      -4.958  11.062   1.604  1.00  0.00     0.211 HD
ENDBRANCH  25  33
ENDBRANCH  11  20
BRANCH  10  35
ATOM     35  O   UNL     1      -4.115  15.010   4.714  1.00  0.00    -0.507 OA
ATOM     36  H   UNL     1      -3.863  15.350   3.795  1.00  0.00     0.293 HD
ENDBRANCH  10  35
TORSDOF 9
ENDMDL
MODEL 3
REMARK VINA RESULT:    76.894      3.037      5.483
REMARK INTER + INTRA:         104.245
REMARK INTER:                 100.927
REMARK INTRA:                   3.317
REMARK UNBOUND:                 0.379
REMARK SMILES O=c1c(-c2ccc(O)cc2)coc2c([C@@H]3O[C@@H](CO)[C@H](O)[C@@H](O)[C@H]3O)c(O)ccc12
REMARK SMILES IDX 3 1 11 2 12 3 13 4 30 5 2 6 1 7 29 8 28 9 26 10 14 11 4 12
REMARK SMILES IDX 5 13 6 14 7 15 10 16 9 17 8 18 15 20 24 21 16 22 22 23 17 24
REMARK SMILES IDX 20 25 25 26 23 28 18 30 19 31 21 33 27 35
REMARK H PARENT 8 19 25 27 23 29 19 32 21 34 27 36
REMARK Flexibility Score: inf
ROOT
ATOM      1  C   UNL     1       5.863  -1.440   2.531  1.00  0.00     0.065 A 
ATOM      2  C   UNL     1       4.498  -1.206   2.727  1.00  0.00     0.208 A 
ATOM      3  O   UNL     1       3.691  -0.980   1.698  1.00  0.00    -0.463 OA
ATOM      4  C   UNL     1       4.093  -0.959   0.433  1.00  0.00     0.147 A 
ATOM      5  C   UNL     1       5.458  -1.217   0.146  1.00  0.00     0.066 A 
ATOM      6  C   UNL     1       6.345  -1.456   1.212  1.00  0.00     0.200 A 
ATOM      7  O   UNL     1       7.562  -1.707   0.986  1.00  0.00    -0.288 OA
ATOM      8  C   UNL     1       5.898  -1.247  -1.183  1.00  0.00     0.020 A 
ATOM      9  C   UNL     1       4.994  -1.070  -2.220  1.00  0.00     0.047 A 
ATOM     10  C   UNL     1       3.644  -0.829  -1.964  1.00  0.00     0.125 A 
ATOM     11  C   UNL     1       3.172  -0.693  -0.626  1.00  0.00     0.069 A 
ENDROOT
BRANCH   1  12
ATOM     12  C   UNL     1       6.750  -1.674   3.698  1.00  0.00    -0.011 A 
ATOM     13  C   UNL     1       7.425  -2.899   3.844  1.00  0.00     0.013 A 
ATOM     14  C   UNL     1       8.254  -3.125   4.946  1.00  0.00     0.047 A 
ATOM     15  C   UNL     1       8.414  -2.131   5.922  1.00  0.00     0.115 A 
ATOM     16  C   UNL     1       6.912  -0.684   4.685  1.00  0.00     0.013 A 
ATOM     17  C   UNL     1       7.740  -0.913   5.787  1.00  0.00     0.047 A 
BRANCH  15  18
ATOM     18  O   UNL     1       9.238  -2.345   7.025  1.00  0.00    -0.508 OA
ATOM     19  H   UNL     1       9.206  -3.210   7.550  1.00  0.00     0.293 HD
ENDBRANCH  15  18
ENDBRANCH   1  12
BRANCH  11  20
ATOM     20  C   UNL     1       1.697  -0.276  -0.420  1.00  0.00     0.188 C 
ATOM     21  C   UNL     1       0.536  -1.222  -0.830  1.00  0.00     0.179 C 
ATOM     22  O   UNL     1       1.477   0.187   0.907  1.00  0.00    -0.362 OA
ATOM     23  C   UNL     1       0.391  -2.380   0.183  1.00  0.00     0.177 C 
ATOM     24  C   UNL     1       1.505  -0.871   1.853  1.00  0.00     0.176 C 
ATOM     25  C   UNL     1       0.315  -1.830   1.616  1.00  0.00     0.177 C 
BRANCH  21  26
ATOM     26  O   UNL     1      -0.653  -0.469  -0.846  1.00  0.00    -0.387 OA
ATOM     27  H   UNL     1      -0.420   0.448  -1.147  1.00  0.00     0.211 HD
ENDBRANCH  21  26
BRANCH  23  28
ATOM     28  O   UNL     1      -0.764  -3.125  -0.115  1.00  0.00    -0.387 OA
ATOM     29  H   UNL     1      -1.004  -2.925  -1.056  1.00  0.00     0.211 HD
ENDBRANCH  23  28
BRANCH  24  30
ATOM     30  C   UNL     1       1.456  -0.248   3.255  1.00  0.00     0.191 C 
BRANCH  30  31
ATOM     31  O   UNL     1       2.441   0.741   3.387  1.00  0.00    -0.394 OA
ATOM     32  H   UNL     1       3.308   0.261   3.440  1.00  0.00     0.210 HD
ENDBRANCH  30  31
ENDBRANCH  24  30
BRANCH  25  33
ATOM     33  O   UNL     1       0.367  -2.907   2.519  1.00  0.00    -0.388 OA
ATOM     34  H   UNL     1       1.281  -3.293   2.464  1.00  0.00     0.211 HD
ENDBRANCH  25  33
ENDBRANCH  11  20
BRANCH  10  35
ATOM     35  O   UNL     1       2.799  -0.746  -3.075  1.00  0.00    -0.507 OA
ATOM     36  H   UNL     1       3.085  -0.400  -3.981  1.00  0.00     0.293 HD
ENDBRANCH  10  35
TORSDOF 9
ENDMDL
MODEL 4
REMARK VINA RESULT:    78.249     10.766     14.502
REMARK INTER + INTRA:         106.075
REMARK INTER:                 102.868
REMARK INTRA:                   3.208
REMARK UNBOUND:                 0.379
REMARK SMILES O=c1c(-c2ccc(O)cc2)coc2c([C@@H]3O[C@@H](CO)[C@H](O)[C@@H](O)[C@H]3O)c(O)ccc12
REMARK SMILES IDX 3 1 11 2 12 3 13 4 30 5 2 6 1 7 29 8 28 9 26 10 14 11 4 12
REMARK SMILES IDX 5 13 6 14 7 15 10 16 9 17 8 18 15 20 24 21 16 22 22 23 17 24
REMARK SMILES IDX 20 25 25 26 23 28 18 30 19 31 21 33 27 35
REMARK H PARENT 8 19 25 27 23 29 19 32 21 34 27 36
REMARK Flexibility Score: inf
ROOT
ATOM      1  C   UNL     1      -2.081  12.425   4.630  1.00  0.00     0.065 A 
ATOM      2  C   UNL     1      -0.945  11.659   4.347  1.00  0.00     0.208 A 
ATOM      3  O   UNL     1      -0.219  11.130   5.323  1.00  0.00    -0.463 OA
ATOM      4  C   UNL     1      -0.497  11.274   6.614  1.00  0.00     0.147 A 
ATOM      5  C   UNL     1      -1.650  12.012   6.985  1.00  0.00     0.066 A 
ATOM      6  C   UNL     1      -2.442  12.591   5.977  1.00  0.00     0.200 A 
ATOM      7  O   UNL     1      -3.485  13.238   6.277  1.00  0.00    -0.288 OA
ATOM      8  C   UNL     1      -1.991  12.138   8.337  1.00  0.00     0.020 A 
ATOM      9  C   UNL     1      -1.230  11.507   9.310  1.00  0.00     0.047 A 
ATOM     10  C   UNL     1      -0.100  10.764   8.969  1.00  0.00     0.125 A 
ATOM     11  C   UNL     1       0.339  10.691   7.614  1.00  0.00     0.069 A 
ENDROOT
BRANCH   1  12
ATOM     12  C   UNL     1      -2.870  13.021   3.522  1.00  0.00    -0.011 A 
ATOM     13  C   UNL     1      -3.852  13.990   3.791  1.00  0.00     0.013 A 
ATOM     14  C   UNL     1      -4.602  14.546   2.750  1.00  0.00     0.047 A 
ATOM     15  C   UNL     1      -4.383  14.134   1.428  1.00  0.00     0.115 A 
ATOM     16  C   UNL     1      -2.661  12.609   2.193  1.00  0.00     0.013 A 
ATOM     17  C   UNL     1      -3.414  13.165   1.155  1.00  0.00     0.047 A 
BRANCH  15  18
ATOM     18  O   UNL     1      -5.125  14.681   0.383  1.00  0.00    -0.508 OA
ATOM     19  H   UNL     1      -5.990  14.258   0.069  1.00  0.00     0.293 HD
ENDBRANCH  15  18
ENDBRANCH   1  12
BRANCH  11  20
ATOM     20  C   UNL     1       1.682   9.978   7.328  1.00  0.00     0.188 C 
ATOM     21  C   UNL     1       2.991  10.433   8.029  1.00  0.00     0.179 C 
ATOM     22  O   UNL     1       1.550   8.567   7.452  1.00  0.00    -0.362 OA
ATOM     23  C   UNL     1       3.012   9.966   9.502  1.00  0.00     0.177 C 
ATOM     24  C   UNL     1       1.409   8.163   8.806  1.00  0.00     0.176 C 
ATOM     25  C   UNL     1       2.708   8.463   9.590  1.00  0.00     0.177 C 
BRANCH  21  26
ATOM     26  O   UNL     1       4.075   9.853   7.343  1.00  0.00    -0.387 OA
ATOM     27  H   UNL     1       4.001   8.868   7.448  1.00  0.00     0.211 HD
ENDBRANCH  21  26
BRANCH  23  28
ATOM     28  O   UNL     1       4.270  10.242  10.065  1.00  0.00    -0.387 OA
ATOM     29  H   UNL     1       4.933  10.208   9.328  1.00  0.00     0.211 HD
ENDBRANCH  23  28
BRANCH  24  30
ATOM     30  C   UNL     1       1.078   6.664   8.814  1.00  0.00     0.191 C 
BRANCH  30  31
ATOM     31  O   UNL     1      -0.232   6.447   8.366  1.00  0.00    -0.394 OA
ATOM     32  H   UNL     1      -0.158   5.845   7.580  1.00  0.00     0.210 HD
ENDBRANCH  30  31
ENDBRANCH  24  30
BRANCH  25  33
ATOM     33  O   UNL     1       2.555   8.109  10.943  1.00  0.00    -0.388 OA
ATOM     34  H   UNL     1       1.967   7.309  10.973  1.00  0.00     0.211 HD
ENDBRANCH  25  33
ENDBRANCH  11  20
BRANCH  10  35
ATOM     35  O   UNL     1       0.553  10.098  10.011  1.00  0.00    -0.507 OA
ATOM     36  H   UNL     1       0.209   9.253  10.448  1.00  0.00     0.293 HD
ENDBRANCH  10  35
TORSDOF 9
ENDMDL
MODEL 5
REMARK VINA RESULT:    78.276      1.460      2.253
REMARK INTER + INTRA:         106.112
REMARK INTER:                 106.562
REMARK INTRA:                  -0.450
REMARK UNBOUND:                 0.379
REMARK SMILES O=c1c(-c2ccc(O)cc2)coc2c([C@@H]3O[C@@H](CO)[C@H](O)[C@@H](O)[C@H]3O)c(O)ccc12
REMARK SMILES IDX 3 1 11 2 12 3 13 4 30 5 2 6 1 7 29 8 28 9 26 10 14 11 4 12
REMARK SMILES IDX 5 13 6 14 7 15 10 16 9 17 8 18 15 20 24 21 16 22 22 23 17 24
REMARK SMILES IDX 20 25 25 26 23 28 18 30 19 31 21 33 27 35
REMARK H PARENT 8 19 25 27 23 29 19 32 21 34 27 36
REMARK Flexibility Score: inf
ROOT
ATOM      1  C   UNL     1       1.666  -0.539   1.272  1.00  0.00     0.065 A 
ATOM      2  C   UNL     1       1.258   0.588   1.993  1.00  0.00     0.208 A 
ATOM      3  O   UNL     1      -0.025   0.917   2.074  1.00  0.00    -0.463 OA
ATOM      4  C   UNL     1      -1.004   0.228   1.498  1.00  0.00     0.147 A 
ATOM      5  C   UNL     1      -0.677  -0.946   0.773  1.00  0.00     0.066 A 
ATOM      6  C   UNL     1       0.674  -1.324   0.662  1.00  0.00     0.200 A 
ATOM      7  O   UNL     1       0.993  -2.376   0.039  1.00  0.00    -0.288 OA
ATOM      8  C   UNL     1      -1.695  -1.716   0.198  1.00  0.00     0.020 A 
ATOM      9  C   UNL     1      -3.023  -1.358   0.372  1.00  0.00     0.047 A 
ATOM     10  C   UNL     1      -3.371  -0.215   1.093  1.00  0.00     0.125 A 
ATOM     11  C   UNL     1      -2.363   0.650   1.613  1.00  0.00     0.069 A 
ENDROOT
BRANCH   1  12
ATOM     12  C   UNL     1       3.108  -0.880   1.182  1.00  0.00    -0.011 A 
ATOM     13  C   UNL     1       3.786  -1.404   2.297  1.00  0.00     0.013 A 
ATOM     14  C   UNL     1       5.146  -1.717   2.216  1.00  0.00     0.047 A 
ATOM     15  C   UNL     1       5.847  -1.504   1.022  1.00  0.00     0.115 A 
ATOM     16  C   UNL     1       3.821  -0.664  -0.012  1.00  0.00     0.013 A 
ATOM     17  C   UNL     1       5.181  -0.977  -0.088  1.00  0.00     0.047 A 
BRANCH  15  18
ATOM     18  O   UNL     1       7.203  -1.812   0.930  1.00  0.00    -0.508 OA
ATOM     19  H   UNL     1       7.519  -2.723   0.618  1.00  0.00     0.293 HD
ENDBRANCH  15  18
ENDBRANCH   1  12
BRANCH  11  20
ATOM     20  C   UNL     1      -2.818   1.976   2.268  1.00  0.00     0.188 C 
ATOM     21  C   UNL     1      -1.801   3.114   2.553  1.00  0.00     0.179 C 
ATOM     22  O   UNL     1      -3.949   2.516   1.596  1.00  0.00    -0.362 OA
ATOM     23  C   UNL     1      -1.417   3.844   1.246  1.00  0.00     0.177 C 
ATOM     24  C   UNL     1      -3.611   3.044   0.322  1.00  0.00     0.176 C 
ATOM     25  C   UNL     1      -2.681   4.269   0.482  1.00  0.00     0.177 C 
BRANCH  21  26
ATOM     26  O   UNL     1      -2.408   4.028   3.435  1.00  0.00    -0.387 OA
ATOM     27  H   UNL     1      -1.724   4.297   4.102  1.00  0.00     0.211 HD
ENDBRANCH  21  26
BRANCH  23  28
ATOM     28  O   UNL     1      -0.630   4.969   1.550  1.00  0.00    -0.387 OA
ATOM     29  H   UNL     1       0.016   5.081   0.805  1.00  0.00     0.211 HD
ENDBRANCH  23  28
BRANCH  24  30
ATOM     30  C   UNL     1      -4.918   3.418  -0.392  1.00  0.00     0.191 C 
BRANCH  30  31
ATOM     31  O   UNL     1      -4.986   4.802  -0.599  1.00  0.00    -0.394 OA
ATOM     32  H   UNL     1      -5.620   4.938  -1.350  1.00  0.00     0.210 HD
ENDBRANCH  30  31
ENDBRANCH  24  30
BRANCH  25  33
ATOM     33  O   UNL     1      -2.303   4.765  -0.779  1.00  0.00    -0.388 OA
ATOM     34  H   UNL     1      -2.768   4.215  -1.462  1.00  0.00     0.211 HD
ENDBRANCH  25  33
ENDBRANCH  11  20
BRANCH  10  35
ATOM     35  O   UNL     1      -4.737   0.017   1.284  1.00  0.00    -0.507 OA
ATOM     36  H   UNL     1      -5.143   0.933   1.420  1.00  0.00     0.293 HD
ENDBRANCH  10  35
TORSDOF 9
ENDMDL
