MODEL 1
REMARK VINA RESULT:    -3.136      0.000      0.000
REMARK INTER + INTRA:          -3.110
REMARK INTER:                  -3.869
REMARK INTRA:                   0.759
REMARK UNBOUND:                 0.759
REMARK SMILES CC1=CC=CC(C)(C)CC1=O
REMARK SMILES IDX 1 1 2 2 3 3 10 4 11 5 9 6 4 8 5 9 6 10 7 11 8 12
REMARK H PARENT
REMARK Flexibility Score: 80.00
ROOT
ATOM      1  C   UNL     1       9.366 -23.000  40.547  1.00  0.00     0.048 C 
ATOM      2  C   UNL     1      10.865 -22.852  40.668  1.00  0.00    -0.008 C 
ATOM      3  C   UNL     1      11.335 -21.895  41.496  1.00  0.00     0.007 C 
ENDROOT
BRANCH   2   4
ATOM      4  C   UNL     1      11.701 -23.726  39.806  1.00  0.00     0.159 C 
ATOM      5  O   UNL     1      11.144 -24.380  38.882  1.00  0.00    -0.295 OA
BRANCH   4   6
ATOM      6  C   UNL     1      13.179 -23.886  39.981  1.00  0.00     0.091 CG0
ATOM      7  G   UNL     1      13.958 -22.561  39.828  1.00  0.00     0.000 G0
ENDBRANCH   4   6
ENDBRANCH   2   4
BRANCH   3   8
ATOM      8  C   UNL     1      12.730 -21.500  41.797  1.00  0.00    -0.003 C 
ATOM      9  C   UNL     1      13.849 -21.755  41.105  1.00  0.00    -0.020 C 
BRANCH   9  10
ATOM     10  C   UNL     1      13.951 -22.556  39.829  1.00  0.00    -0.010 CG0
ATOM     11  C   UNL     1      15.440 -22.894  39.587  1.00  0.00     0.016 C 
ATOM     12  C   UNL     1      13.454 -21.710  38.634  1.00  0.00     0.016 C 
ATOM     13  G   UNL     1      13.175 -23.883  39.984  1.00  0.00     0.000 G0
ENDBRANCH   9  10
ENDBRANCH   3   8
TORSDOF 0
ENDMDL
MODEL 2
REMARK VINA RESULT:    -2.803      2.311      3.993
REMARK INTER + INTRA:          -2.700
REMARK INTER:                  -3.451
REMARK INTRA:                   0.751
REMARK UNBOUND:                 0.759
REMARK SMILES CC1=CC=CC(C)(C)CC1=O
REMARK SMILES IDX 1 1 2 2 3 3 10 4 11 5 9 6 4 8 5 9 6 10 7 11 8 12
REMARK H PARENT
REMARK Flexibility Score: 80.00
ROOT
ATOM      1  C   UNL     1      11.280 -22.143  41.725  1.00  0.00     0.048 C 
ATOM      2  C   UNL     1      11.019 -23.263  40.744  1.00  0.00    -0.008 C 
ATOM      3  C   UNL     1       9.740 -23.481  40.369  1.00  0.00     0.007 C 
ENDROOT
BRANCH   2   4
ATOM      4  C   UNL     1      12.185 -24.083  40.328  1.00  0.00     0.159 C 
ATOM      5  O   UNL     1      13.275 -23.947  40.949  1.00  0.00    -0.295 OA
BRANCH   4   6
ATOM      6  C   UNL     1      12.144 -25.061  39.196  1.00  0.00     0.091 CG0
ATOM      7  G   UNL     1      11.092 -26.175  39.390  1.00  0.00     0.000 G0
ENDBRANCH   4   6
ENDBRANCH   2   4
BRANCH   3   8
ATOM      8  C   UNL     1       9.178 -24.505  39.458  1.00  0.00    -0.003 C 
ATOM      9  C   UNL     1       9.724 -25.654  39.038  1.00  0.00    -0.020 C 
BRANCH   9  10
ATOM     10  C   UNL     1      11.098 -26.174  39.388  1.00  0.00    -0.010 CG0
ATOM     11  C   UNL     1      11.447 -27.317  38.408  1.00  0.00     0.016 C 
ATOM     12  C   UNL     1      11.092 -26.759  40.819  1.00  0.00     0.016 C 
ATOM     13  G   UNL     1      12.141 -25.049  39.208  1.00  0.00     0.000 G0
ENDBRANCH   9  10
ENDBRANCH   3   8
TORSDOF 0
ENDMDL
MODEL 3
REMARK VINA RESULT:    -2.772      1.999      3.146
REMARK INTER + INTRA:          -2.661
REMARK INTER:                  -3.417
REMARK INTRA:                   0.756
REMARK UNBOUND:                 0.759
REMARK SMILES CC1=CC=CC(C)(C)CC1=O
REMARK SMILES IDX 1 1 2 2 3 3 10 4 11 5 9 6 4 8 5 9 6 10 7 11 8 12
REMARK H PARENT
REMARK Flexibility Score: 80.00
ROOT
ATOM      1  C   UNL     1      13.355 -21.862  44.297  1.00  0.00     0.048 C 
ATOM      2  C   UNL     1      13.051 -21.985  42.822  1.00  0.00    -0.008 C 
ATOM      3  C   UNL     1      11.760 -22.144  42.460  1.00  0.00     0.007 C 
ENDROOT
BRANCH   2   4
ATOM      4  C   UNL     1      14.209 -21.995  41.892  1.00  0.00     0.159 C 
ATOM      5  O   UNL     1      15.371 -22.107  42.370  1.00  0.00    -0.295 OA
BRANCH   4   6
ATOM      6  C   UNL     1      14.075 -21.865  40.407  1.00  0.00     0.091 CG0
ATOM      7  G   UNL     1      13.226 -22.988  39.770  1.00  0.00     0.000 G0
ENDBRANCH   4   6
ENDBRANCH   2   4
BRANCH   3   8
ATOM      8  C   UNL     1      11.164 -22.316  41.115  1.00  0.00    -0.003 C 
ATOM      9  C   UNL     1      11.754 -22.683  39.969  1.00  0.00    -0.020 C 
BRANCH   9  10
ATOM     10  C   UNL     1      13.221 -22.988  39.774  1.00  0.00    -0.010 CG0
ATOM     11  C   UNL     1      13.514 -23.004  38.256  1.00  0.00     0.016 C 
ATOM     12  C   UNL     1      13.548 -24.389  40.338  1.00  0.00     0.016 C 
ATOM     13  G   UNL     1      14.074 -21.872  40.417  1.00  0.00     0.000 G0
ENDBRANCH   9  10
ENDBRANCH   3   8
TORSDOF 0
ENDMDL
MODEL 4
REMARK VINA RESULT:    -2.678      9.330     10.262
REMARK INTER + INTRA:          -2.545
REMARK INTER:                  -3.299
REMARK INTRA:                   0.754
REMARK UNBOUND:                 0.759
REMARK SMILES CC1=CC=CC(C)(C)CC1=O
REMARK SMILES IDX 1 1 2 2 3 3 10 4 11 5 9 6 4 8 5 9 6 10 7 11 8 12
REMARK H PARENT
REMARK Flexibility Score: 80.00
ROOT
ATOM      1  C   UNL     1      12.752 -33.030  47.172  1.00  0.00     0.048 C 
ATOM      2  C   UNL     1      13.367 -32.633  45.851  1.00  0.00    -0.008 C 
ATOM      3  C   UNL     1      14.604 -32.092  45.873  1.00  0.00     0.007 C 
ENDROOT
BRANCH   2   4
ATOM      4  C   UNL     1      12.528 -32.802  44.637  1.00  0.00     0.159 C 
ATOM      5  O   UNL     1      11.304 -33.071  44.778  1.00  0.00    -0.295 OA
BRANCH   4   6
ATOM      6  C   UNL     1      13.061 -32.683  43.243  1.00  0.00     0.091 CG0
ATOM      7  G   UNL     1      13.692 -31.304  42.947  1.00  0.00     0.000 G0
ENDBRANCH   4   6
ENDBRANCH   2   4
BRANCH   3   8
ATOM      8  C   UNL     1      15.442 -31.588  44.761  1.00  0.00    -0.003 C 
ATOM      9  C   UNL     1      15.079 -31.242  43.519  1.00  0.00    -0.020 C 
BRANCH   9  10
ATOM     10  C   UNL     1      13.686 -31.314  42.939  1.00  0.00    -0.010 CG0
ATOM     11  C   UNL     1      13.793 -31.177  41.403  1.00  0.00     0.016 C 
ATOM     12  C   UNL     1      12.834 -30.136  43.464  1.00  0.00     0.016 C 
ATOM     13  G   UNL     1      13.061 -32.691  43.257  1.00  0.00     0.000 G0
ENDBRANCH   9  10
ENDBRANCH   3   8
TORSDOF 0
ENDMDL
MODEL 5
REMARK VINA RESULT:    -2.598      3.697      5.050
REMARK INTER + INTRA:          -2.446
REMARK INTER:                  -3.196
REMARK INTRA:                   0.749
REMARK UNBOUND:                 0.759
REMARK SMILES CC1=CC=CC(C)(C)CC1=O
REMARK SMILES IDX 1 1 2 2 3 3 10 4 11 5 9 6 4 8 5 9 6 10 7 11 8 12
REMARK H PARENT
REMARK Flexibility Score: 80.00
ROOT
ATOM      1  C   UNL     1      10.387 -23.551  41.012  1.00  0.00     0.048 C 
ATOM      2  C   UNL     1      10.331 -25.042  40.772  1.00  0.00    -0.008 C 
ATOM      3  C   UNL     1       9.777 -25.811  41.734  1.00  0.00     0.007 C 
ENDROOT
BRANCH   2   4
ATOM      4  C   UNL     1      10.960 -25.549  39.526  1.00  0.00     0.159 C 
ATOM      5  O   UNL     1      11.681 -24.768  38.847  1.00  0.00    -0.295 OA
BRANCH   4   6
ATOM      6  C   UNL     1      10.774 -26.945  39.018  1.00  0.00     0.091 CG0
ATOM      7  G   UNL     1      11.250 -28.025  40.015  1.00  0.00     0.000 G0
ENDBRANCH   4   6
ENDBRANCH   2   4
BRANCH   3   8
ATOM      8  C   UNL     1       9.607 -27.281  41.796  1.00  0.00    -0.003 C 
ATOM      9  C   UNL     1      10.230 -28.234  41.090  1.00  0.00    -0.020 C 
BRANCH   9  10
ATOM     10  C   UNL     1      11.265 -28.019  40.011  1.00  0.00    -0.010 CG0
ATOM     11  C   UNL     1      11.430 -29.342  39.228  1.00  0.00     0.016 C 
ATOM     12  C   UNL     1      12.629 -27.670  40.650  1.00  0.00     0.016 C 
ATOM     13  G   UNL     1      10.774 -26.934  39.027  1.00  0.00     0.000 G0
ENDBRANCH   9  10
ENDBRANCH   3   8
TORSDOF 0
ENDMDL
MODEL 6
REMARK VINA RESULT:    -2.532      8.582      9.818
REMARK INTER + INTRA:          -2.364
REMARK INTER:                  -3.121
REMARK INTRA:                   0.757
REMARK UNBOUND:                 0.759
REMARK SMILES CC1=CC=CC(C)(C)CC1=O
REMARK SMILES IDX 1 1 2 2 3 3 10 4 11 5 9 6 4 8 5 9 6 10 7 11 8 12
REMARK H PARENT
REMARK Flexibility Score: 80.00
ROOT
ATOM      1  C   UNL     1      15.407 -30.359  44.694  1.00  0.00     0.048 C 
ATOM      2  C   UNL     1      14.210 -30.652  43.820  1.00  0.00    -0.008 C 
ATOM      3  C   UNL     1      13.178 -29.782  43.859  1.00  0.00     0.007 C 
ENDROOT
BRANCH   2   4
ATOM      4  C   UNL     1      14.235 -31.917  43.041  1.00  0.00     0.159 C 
ATOM      5  O   UNL     1      15.120 -32.776  43.307  1.00  0.00    -0.295 OA
BRANCH   4   6
ATOM      6  C   UNL     1      13.269 -32.227  41.940  1.00  0.00     0.091 CG0
ATOM      7  G   UNL     1      11.797 -32.245  42.408  1.00  0.00     0.000 G0
ENDBRANCH   4   6
ENDBRANCH   2   4
BRANCH   3   8
ATOM      8  C   UNL     1      11.880 -29.814  43.148  1.00  0.00    -0.003 C 
ATOM      9  C   UNL     1      11.272 -30.844  42.544  1.00  0.00    -0.020 C 
BRANCH   9  10
ATOM     10  C   UNL     1      11.805 -32.253  42.421  1.00  0.00    -0.010 CG0
ATOM     11  C   UNL     1      10.974 -32.993  41.347  1.00  0.00     0.016 C 
ATOM     12  C   UNL     1      11.626 -33.002  43.761  1.00  0.00     0.016 C 
ATOM     13  G   UNL     1      13.276 -32.214  41.951  1.00  0.00     0.000 G0
ENDBRANCH   9  10
ENDBRANCH   3   8
TORSDOF 0
ENDMDL
MODEL 7
REMARK VINA RESULT:    -2.511      4.669      6.359
REMARK INTER + INTRA:          -2.338
REMARK INTER:                  -3.096
REMARK INTRA:                   0.758
REMARK UNBOUND:                 0.759
REMARK SMILES CC1=CC=CC(C)(C)CC1=O
REMARK SMILES IDX 1 1 2 2 3 3 10 4 11 5 9 6 4 8 5 9 6 10 7 11 8 12
REMARK H PARENT
REMARK Flexibility Score: 80.00
ROOT
ATOM      1  C   UNL     1      16.101 -26.602  37.890  1.00  0.00     0.048 C 
ATOM      2  C   UNL     1      14.674 -26.997  38.192  1.00  0.00    -0.008 C 
ATOM      3  C   UNL     1      13.784 -26.007  38.420  1.00  0.00     0.007 C 
ENDROOT
BRANCH   2   4
ATOM      4  C   UNL     1      14.382 -28.450  38.288  1.00  0.00     0.159 C 
ATOM      5  O   UNL     1      15.346 -29.264  38.311  1.00  0.00    -0.295 OA
BRANCH   4   6
ATOM      6  C   UNL     1      12.995 -29.011  38.347  1.00  0.00     0.091 CG0
ATOM      7  G   UNL     1      12.179 -28.493  39.553  1.00  0.00     0.000 G0
ENDBRANCH   4   6
ENDBRANCH   2   4
BRANCH   3   8
ATOM      8  C   UNL     1      12.345 -26.082  38.761  1.00  0.00    -0.003 C 
ATOM      9  C   UNL     1      11.644 -27.116  39.247  1.00  0.00    -0.020 C 
BRANCH   9  10
ATOM     10  C   UNL     1      12.175 -28.499  39.541  1.00  0.00    -0.010 CG0
ATOM     11  C   UNL     1      10.970 -29.450  39.731  1.00  0.00     0.016 C 
ATOM     12  C   UNL     1      12.983 -28.485  40.859  1.00  0.00     0.016 C 
ATOM     13  G   UNL     1      13.003 -29.006  38.339  1.00  0.00     0.000 G0
ENDBRANCH   9  10
ENDBRANCH   3   8
TORSDOF 0
ENDMDL
MODEL 8
REMARK VINA RESULT:    -2.492      7.435      8.725
REMARK INTER + INTRA:          -2.315
REMARK INTER:                  -3.073
REMARK INTRA:                   0.758
REMARK UNBOUND:                 0.759
REMARK SMILES CC1=CC=CC(C)(C)CC1=O
REMARK SMILES IDX 1 1 2 2 3 3 10 4 11 5 9 6 4 8 5 9 6 10 7 11 8 12
REMARK H PARENT
REMARK Flexibility Score: 80.00
ROOT
ATOM      1  C   UNL     1      15.546 -28.117  43.045  1.00  0.00     0.048 C 
ATOM      2  C   UNL     1      14.389 -29.086  43.116  1.00  0.00    -0.008 C 
ATOM      3  C   UNL     1      14.017 -29.529  44.336  1.00  0.00     0.007 C 
ENDROOT
BRANCH   2   4
ATOM      4  C   UNL     1      13.801 -29.532  41.827  1.00  0.00     0.159 C 
ATOM      5  O   UNL     1      14.398 -29.241  40.754  1.00  0.00    -0.295 OA
BRANCH   4   6
ATOM      6  C   UNL     1      12.521 -30.303  41.727  1.00  0.00     0.091 CG0
ATOM      7  G   UNL     1      12.558 -31.647  42.488  1.00  0.00     0.000 G0
ENDBRANCH   4   6
ENDBRANCH   2   4
BRANCH   3   8
ATOM      8  C   UNL     1      12.954 -30.488  44.716  1.00  0.00    -0.003 C 
ATOM      9  C   UNL     1      12.327 -31.398  43.960  1.00  0.00    -0.020 C 
BRANCH   9  10
ATOM     10  C   UNL     1      12.547 -31.644  42.486  1.00  0.00    -0.010 CG0
ATOM     11  C   UNL     1      11.380 -32.511  41.960  1.00  0.00     0.016 C 
ATOM     12  C   UNL     1      13.860 -32.432  42.273  1.00  0.00     0.016 C 
ATOM     13  G   UNL     1      12.529 -30.300  41.725  1.00  0.00     0.000 G0
ENDBRANCH   9  10
ENDBRANCH   3   8
TORSDOF 0
ENDMDL
MODEL 9
REMARK VINA RESULT:    -2.453      6.255      7.778
REMARK INTER + INTRA:          -2.268
REMARK INTER:                  -3.028
REMARK INTRA:                   0.760
REMARK UNBOUND:                 0.759
REMARK SMILES CC1=CC=CC(C)(C)CC1=O
REMARK SMILES IDX 1 1 2 2 3 3 10 4 11 5 9 6 4 8 5 9 6 10 7 11 8 12
REMARK H PARENT
REMARK Flexibility Score: 80.00
ROOT
ATOM      1  C   UNL     1      13.824 -28.481  38.227  1.00  0.00     0.048 C 
ATOM      2  C   UNL     1      13.807 -29.226  39.542  1.00  0.00    -0.008 C 
ATOM      3  C   UNL     1      13.823 -30.575  39.497  1.00  0.00     0.007 C 
ENDROOT
BRANCH   2   4
ATOM      4  C   UNL     1      13.697 -28.411  40.779  1.00  0.00     0.159 C 
ATOM      5  O   UNL     1      13.420 -27.184  40.675  1.00  0.00    -0.295 OA
BRANCH   4   6
ATOM      6  C   UNL     1      13.912 -28.964  42.153  1.00  0.00     0.091 CG0
ATOM      7  G   UNL     1      12.942 -30.113  42.506  1.00  0.00     0.000 G0
ENDBRANCH   4   6
ENDBRANCH   2   4
BRANCH   3   8
ATOM      8  C   UNL     1      13.786 -31.563  40.600  1.00  0.00    -0.003 C 
ATOM      9  C   UNL     1      13.407 -31.395  41.874  1.00  0.00    -0.020 C 
BRANCH   9  10
ATOM     10  C   UNL     1      12.938 -30.106  42.507  1.00  0.00    -0.010 CG0
ATOM     11  C   UNL     1      12.958 -30.285  44.043  1.00  0.00     0.016 C 
ATOM     12  C   UNL     1      11.483 -29.806  42.080  1.00  0.00     0.016 C 
ATOM     13  G   UNL     1      13.913 -28.964  42.143  1.00  0.00     0.000 G0
ENDBRANCH   9  10
ENDBRANCH   3   8
TORSDOF 0
ENDMDL
