MODEL 1
REMARK VINA RESULT:    -4.706      0.000      0.000
REMARK INTER + INTRA:          -8.157
REMARK INTER:                  -6.357
REMARK INTRA:                  -1.800
REMARK UNBOUND:                -1.800
REMARK SMILES C=CC(C)=CCC=C(C)CCC=C(C)C
REMARK SMILES IDX 8 1 7 2 9 3 10 4 11 5 12 6 14 7 13 8 15 9 6 10 5 11 3 12
REMARK SMILES IDX 4 13 2 14 1 15
REMARK H PARENT
REMARK Flexibility Score: inf
ROOT
ATOM      1  C   UNL     1       3.704  -3.176  18.320  1.00  0.00    -0.077 C 
ATOM      2  C   UNL     1       4.149  -2.249  17.441  1.00  0.00    -0.024 C 
ATOM      3  C   UNL     1       4.326  -3.219  19.692  1.00  0.00     0.039 C 
ENDROOT
BRANCH   1   4
ATOM      4  C   UNL     1       2.664  -4.219  17.965  1.00  0.00     0.034 C 
BRANCH   4   5
ATOM      5  C   UNL     1       1.505  -4.191  18.968  1.00  0.00     0.032 C 
BRANCH   5   6
ATOM      6  C   UNL     1       0.546  -3.072  18.646  1.00  0.00    -0.028 C 
ATOM      7  C   UNL     1      -0.953  -1.178  19.093  1.00  0.00     0.039 C 
ATOM      8  C   UNL     1      -0.049  -2.286  19.569  1.00  0.00    -0.080 C 
ATOM      9  C   UNL     1       0.155  -2.496  21.051  1.00  0.00     0.039 C 
ENDBRANCH   5   6
ENDBRANCH   4   5
ENDBRANCH   1   4
BRANCH   2  10
ATOM     10  C   UNL     1       3.638  -2.077  16.033  1.00  0.00     0.055 C 
BRANCH  10  11
ATOM     11  C   UNL     1       2.450  -1.151  15.988  1.00  0.00    -0.020 C 
ATOM     12  C   UNL     1       1.236  -1.472  15.492  1.00  0.00    -0.055 C 
ATOM     13  C   UNL     1       0.930  -2.847  14.943  1.00  0.00     0.044 C 
BRANCH  12  14
ATOM     14  C   UNL     1       0.163  -0.447  15.578  1.00  0.00    -0.005 C 
ATOM     15  C   UNL     1      -1.014  -0.556  14.959  1.00  0.00     0.009 C 
ENDBRANCH  12  14
ENDBRANCH  10  11
ENDBRANCH   2  10
TORSDOF 6
ENDMDL
MODEL 2
REMARK VINA RESULT:    -4.659      2.375      4.466
REMARK INTER + INTRA:          -8.093
REMARK INTER:                  -6.106
REMARK INTRA:                  -1.987
REMARK UNBOUND:                -1.800
REMARK SMILES C=CC(C)=CCC=C(C)CCC=C(C)C
REMARK SMILES IDX 8 1 7 2 9 3 10 4 11 5 12 6 14 7 13 8 15 9 6 10 5 11 3 12
REMARK SMILES IDX 4 13 2 14 1 15
REMARK H PARENT
REMARK Flexibility Score: inf
ROOT
ATOM      1  C   UNL     1       5.796  -2.253  18.031  1.00  0.00    -0.077 C 
ATOM      2  C   UNL     1       4.730  -2.556  17.253  1.00  0.00    -0.024 C 
ATOM      3  C   UNL     1       7.170  -2.624  17.537  1.00  0.00     0.039 C 
ENDROOT
BRANCH   1   4
ATOM      4  C   UNL     1       5.665  -1.626  19.404  1.00  0.00     0.034 C 
BRANCH   4   5
ATOM      5  C   UNL     1       6.036  -2.637  20.496  1.00  0.00     0.032 C 
BRANCH   5   6
ATOM      6  C   UNL     1       4.809  -3.078  21.253  1.00  0.00    -0.028 C 
ATOM      7  C   UNL     1       3.011  -4.596  21.962  1.00  0.00     0.039 C 
ATOM      8  C   UNL     1       4.208  -4.279  21.103  1.00  0.00    -0.080 C 
ATOM      9  C   UNL     1       4.691  -5.295  20.095  1.00  0.00     0.039 C 
ENDBRANCH   5   6
ENDBRANCH   4   5
ENDBRANCH   1   4
BRANCH   2  10
ATOM     10  C   UNL     1       3.293  -2.258  17.602  1.00  0.00     0.055 C 
BRANCH  10  11
ATOM     11  C   UNL     1       2.520  -3.523  17.876  1.00  0.00    -0.020 C 
ATOM     12  C   UNL     1       1.380  -3.594  18.594  1.00  0.00    -0.055 C 
ATOM     13  C   UNL     1       0.727  -2.367  19.188  1.00  0.00     0.044 C 
BRANCH  12  14
ATOM     14  C   UNL     1       0.724  -4.922  18.717  1.00  0.00    -0.005 C 
ATOM     15  C   UNL     1       0.166  -5.369  19.844  1.00  0.00     0.009 C 
ENDBRANCH  12  14
ENDBRANCH  10  11
ENDBRANCH   2  10
TORSDOF 6
ENDMDL
MODEL 3
REMARK VINA RESULT:    -4.616      2.347      4.866
REMARK INTER + INTRA:          -8.035
REMARK INTER:                  -6.576
REMARK INTRA:                  -1.459
REMARK UNBOUND:                -1.800
REMARK SMILES C=CC(C)=CCC=C(C)CCC=C(C)C
REMARK SMILES IDX 8 1 7 2 9 3 10 4 11 5 12 6 14 7 13 8 15 9 6 10 5 11 3 12
REMARK SMILES IDX 4 13 2 14 1 15
REMARK H PARENT
REMARK Flexibility Score: inf
ROOT
ATOM      1  C   UNL     1       4.152  -4.013  19.296  1.00  0.00    -0.077 C 
ATOM      2  C   UNL     1       2.993  -4.102  18.603  1.00  0.00    -0.024 C 
ATOM      3  C   UNL     1       4.646  -5.238  20.022  1.00  0.00     0.039 C 
ENDROOT
BRANCH   1   4
ATOM      4  C   UNL     1       4.934  -2.724  19.436  1.00  0.00     0.034 C 
BRANCH   4   5
ATOM      5  C   UNL     1       6.229  -2.785  18.617  1.00  0.00     0.032 C 
BRANCH   5   6
ATOM      6  C   UNL     1       5.965  -2.437  17.174  1.00  0.00    -0.028 C 
ATOM      7  C   UNL     1       6.507  -1.972  14.824  1.00  0.00     0.039 C 
ATOM      8  C   UNL     1       6.926  -2.279  16.238  1.00  0.00    -0.080 C 
ATOM      9  C   UNL     1       8.395  -2.387  16.573  1.00  0.00     0.039 C 
ENDBRANCH   5   6
ENDBRANCH   4   5
ENDBRANCH   1   4
BRANCH   2  10
ATOM     10  C   UNL     1       2.360  -2.972  17.829  1.00  0.00     0.055 C 
BRANCH  10  11
ATOM     11  C   UNL     1       2.488  -3.184  16.342  1.00  0.00    -0.020 C 
ATOM     12  C   UNL     1       2.651  -2.203  15.431  1.00  0.00    -0.055 C 
ATOM     13  C   UNL     1       2.755  -0.747  15.827  1.00  0.00     0.044 C 
BRANCH  12  14
ATOM     14  C   UNL     1       2.813  -2.602  14.008  1.00  0.00    -0.005 C 
ATOM     15  C   UNL     1       1.973  -3.418  13.369  1.00  0.00     0.009 C 
ENDBRANCH  12  14
ENDBRANCH  10  11
ENDBRANCH   2  10
TORSDOF 6
ENDMDL
MODEL 4
REMARK VINA RESULT:    -4.536      1.982      4.674
REMARK INTER + INTRA:          -7.928
REMARK INTER:                  -6.731
REMARK INTRA:                  -1.197
REMARK UNBOUND:                -1.800
REMARK SMILES C=CC(C)=CCC=C(C)CCC=C(C)C
REMARK SMILES IDX 8 1 7 2 9 3 10 4 11 5 12 6 14 7 13 8 15 9 6 10 5 11 3 12
REMARK SMILES IDX 4 13 2 14 1 15
REMARK H PARENT
REMARK Flexibility Score: inf
ROOT
ATOM      1  C   UNL     1       3.481  -3.601  19.665  1.00  0.00    -0.077 C 
ATOM      2  C   UNL     1       2.147  -3.593  19.438  1.00  0.00    -0.024 C 
ATOM      3  C   UNL     1       3.968  -3.370  21.072  1.00  0.00     0.039 C 
ENDROOT
BRANCH   1   4
ATOM      4  C   UNL     1       4.507  -3.756  18.561  1.00  0.00     0.034 C 
BRANCH   4   5
ATOM      5  C   UNL     1       5.121  -2.398  18.200  1.00  0.00     0.032 C 
BRANCH   5   6
ATOM      6  C   UNL     1       6.607  -2.527  17.974  1.00  0.00    -0.028 C 
ATOM      7  C   UNL     1       8.709  -2.533  16.703  1.00  0.00     0.039 C 
ATOM      8  C   UNL     1       7.208  -2.423  16.768  1.00  0.00    -0.080 C 
ATOM      9  C   UNL     1       6.420  -2.219  15.496  1.00  0.00     0.039 C 
ENDBRANCH   5   6
ENDBRANCH   4   5
ENDBRANCH   1   4
BRANCH   2  10
ATOM     10  C   UNL     1       1.498  -3.801  18.092  1.00  0.00     0.055 C 
BRANCH  10  11
ATOM     11  C   UNL     1       1.107  -2.490  17.460  1.00  0.00    -0.020 C 
ATOM     12  C   UNL     1       1.606  -2.008  16.303  1.00  0.00    -0.055 C 
ATOM     13  C   UNL     1       2.617  -2.777  15.482  1.00  0.00     0.044 C 
BRANCH  12  14
ATOM     14  C   UNL     1       1.064  -0.718  15.802  1.00  0.00    -0.005 C 
ATOM     15  C   UNL     1      -0.240  -0.451  15.706  1.00  0.00     0.009 C 
ENDBRANCH  12  14
ENDBRANCH  10  11
ENDBRANCH   2  10
TORSDOF 6
ENDMDL
MODEL 5
REMARK VINA RESULT:    -4.497      2.048      5.526
REMARK INTER + INTRA:          -7.874
REMARK INTER:                  -6.434
REMARK INTRA:                  -1.441
REMARK UNBOUND:                -1.800
REMARK SMILES C=CC(C)=CCC=C(C)CCC=C(C)C
REMARK SMILES IDX 8 1 7 2 9 3 10 4 11 5 12 6 14 7 13 8 15 9 6 10 5 11 3 12
REMARK SMILES IDX 4 13 2 14 1 15
REMARK H PARENT
REMARK Flexibility Score: inf
ROOT
ATOM      1  C   UNL     1       1.886  -3.653  18.516  1.00  0.00    -0.077 C 
ATOM      2  C   UNL     1       3.153  -3.991  18.850  1.00  0.00    -0.024 C 
ATOM      3  C   UNL     1       0.910  -4.758  18.204  1.00  0.00     0.039 C 
ENDROOT
BRANCH   1   4
ATOM      4  C   UNL     1       1.425  -2.217  18.368  1.00  0.00     0.034 C 
BRANCH   4   5
ATOM      5  C   UNL     1       1.296  -1.841  16.888  1.00  0.00     0.032 C 
BRANCH   5   6
ATOM      6  C   UNL     1       2.648  -1.534  16.295  1.00  0.00    -0.028 C 
ATOM      7  C   UNL     1       4.474  -1.632  14.654  1.00  0.00     0.039 C 
ATOM      8  C   UNL     1       3.117  -2.067  15.145  1.00  0.00    -0.080 C 
ATOM      9  C   UNL     1       2.332  -3.089  14.358  1.00  0.00     0.039 C 
ENDBRANCH   5   6
ENDBRANCH   4   5
ENDBRANCH   1   4
BRANCH   2  10
ATOM     10  C   UNL     1       4.250  -3.010  19.184  1.00  0.00     0.055 C 
BRANCH  10  11
ATOM     11  C   UNL     1       5.353  -3.047  18.159  1.00  0.00    -0.020 C 
ATOM     12  C   UNL     1       6.456  -2.269  18.178  1.00  0.00    -0.055 C 
ATOM     13  C   UNL     1       6.716  -1.272  19.284  1.00  0.00     0.044 C 
BRANCH  12  14
ATOM     14  C   UNL     1       7.468  -2.480  17.110  1.00  0.00    -0.005 C 
ATOM     15  C   UNL     1       8.588  -1.763  17.002  1.00  0.00     0.009 C 
ENDBRANCH  12  14
ENDBRANCH  10  11
ENDBRANCH   2  10
TORSDOF 6
ENDMDL
MODEL 6
REMARK VINA RESULT:    -4.496      1.189      4.312
REMARK INTER + INTRA:          -7.873
REMARK INTER:                  -6.528
REMARK INTRA:                  -1.345
REMARK UNBOUND:                -1.800
REMARK SMILES C=CC(C)=CCC=C(C)CCC=C(C)C
REMARK SMILES IDX 8 1 7 2 9 3 10 4 11 5 12 6 14 7 13 8 15 9 6 10 5 11 3 12
REMARK SMILES IDX 4 13 2 14 1 15
REMARK H PARENT
REMARK Flexibility Score: inf
ROOT
ATOM      1  C   UNL     1       3.195  -2.793  17.248  1.00  0.00    -0.077 C 
ATOM      2  C   UNL     1       2.440  -3.003  18.351  1.00  0.00    -0.024 C 
ATOM      3  C   UNL     1       4.632  -2.379  17.434  1.00  0.00     0.039 C 
ENDROOT
BRANCH   1   4
ATOM      4  C   UNL     1       2.644  -2.882  15.839  1.00  0.00     0.034 C 
BRANCH   4   5
ATOM      5  C   UNL     1       2.563  -1.490  15.203  1.00  0.00     0.032 C 
BRANCH   5   6
ATOM      6  C   UNL     1       1.377  -0.726  15.736  1.00  0.00    -0.028 C 
ATOM      7  C   UNL     1      -0.961   0.015  15.873  1.00  0.00     0.039 C 
ATOM      8  C   UNL     1       0.136  -0.772  15.204  1.00  0.00    -0.080 C 
ATOM      9  C   UNL     1      -0.173  -1.571  13.960  1.00  0.00     0.039 C 
ENDBRANCH   5   6
ENDBRANCH   4   5
ENDBRANCH   1   4
BRANCH   2  10
ATOM     10  C   UNL     1       0.988  -3.414  18.339  1.00  0.00     0.055 C 
BRANCH  10  11
ATOM     11  C   UNL     1       0.096  -2.298  18.819  1.00  0.00    -0.020 C 
ATOM     12  C   UNL     1      -0.311  -2.124  20.093  1.00  0.00    -0.055 C 
ATOM     13  C   UNL     1       0.129  -3.044  21.210  1.00  0.00     0.044 C 
BRANCH  12  14
ATOM     14  C   UNL     1      -1.149  -0.935  20.394  1.00  0.00    -0.005 C 
ATOM     15  C   UNL     1      -1.802  -0.236  19.464  1.00  0.00     0.009 C 
ENDBRANCH  12  14
ENDBRANCH  10  11
ENDBRANCH   2  10
TORSDOF 6
ENDMDL
MODEL 7
REMARK VINA RESULT:    -4.472      2.376      4.032
REMARK INTER + INTRA:          -7.841
REMARK INTER:                  -5.684
REMARK INTRA:                  -2.157
REMARK UNBOUND:                -1.800
REMARK SMILES C=CC(C)=CCC=C(C)CCC=C(C)C
REMARK SMILES IDX 8 1 7 2 9 3 10 4 11 5 12 6 14 7 13 8 15 9 6 10 5 11 3 12
REMARK SMILES IDX 4 13 2 14 1 15
REMARK H PARENT
REMARK Flexibility Score: inf
ROOT
ATOM      1  C   UNL     1       4.728  -3.424  18.745  1.00  0.00    -0.077 C 
ATOM      2  C   UNL     1       3.818  -2.620  18.147  1.00  0.00    -0.024 C 
ATOM      3  C   UNL     1       6.104  -2.872  19.012  1.00  0.00     0.039 C 
ENDROOT
BRANCH   1   4
ATOM      4  C   UNL     1       4.451  -4.873  19.090  1.00  0.00     0.034 C 
BRANCH   4   5
ATOM      5  C   UNL     1       4.781  -5.152  20.560  1.00  0.00     0.032 C 
BRANCH   5   6
ATOM      6  C   UNL     1       3.549  -5.588  21.312  1.00  0.00    -0.028 C 
ATOM      7  C   UNL     1       1.591  -5.353  22.777  1.00  0.00     0.039 C 
ATOM      8  C   UNL     1       2.825  -4.787  22.124  1.00  0.00    -0.080 C 
ATOM      9  C   UNL     1       3.227  -3.358  22.405  1.00  0.00     0.039 C 
ENDBRANCH   5   6
ENDBRANCH   4   5
ENDBRANCH   1   4
BRANCH   2  10
ATOM     10  C   UNL     1       2.404  -3.019  17.807  1.00  0.00     0.055 C 
BRANCH  10  11
ATOM     11  C   UNL     1       1.443  -2.627  18.900  1.00  0.00    -0.020 C 
ATOM     12  C   UNL     1       0.589  -3.469  19.520  1.00  0.00    -0.055 C 
ATOM     13  C   UNL     1       0.532  -4.943  19.189  1.00  0.00     0.044 C 
BRANCH  12  14
ATOM     14  C   UNL     1      -0.250  -2.917  20.615  1.00  0.00    -0.005 C 
ATOM     15  C   UNL     1      -0.649  -1.645  20.672  1.00  0.00     0.009 C 
ENDBRANCH  12  14
ENDBRANCH  10  11
ENDBRANCH   2  10
TORSDOF 6
ENDMDL
MODEL 8
REMARK VINA RESULT:    -4.451      1.176      1.964
REMARK INTER + INTRA:          -7.813
REMARK INTER:                  -6.155
REMARK INTRA:                  -1.657
REMARK UNBOUND:                -1.800
REMARK SMILES C=CC(C)=CCC=C(C)CCC=C(C)C
REMARK SMILES IDX 8 1 7 2 9 3 10 4 11 5 12 6 14 7 13 8 15 9 6 10 5 11 3 12
REMARK SMILES IDX 4 13 2 14 1 15
REMARK H PARENT
REMARK Flexibility Score: inf
ROOT
ATOM      1  C   UNL     1       5.097  -3.062  19.504  1.00  0.00    -0.077 C 
ATOM      2  C   UNL     1       5.013  -2.238  18.434  1.00  0.00    -0.024 C 
ATOM      3  C   UNL     1       5.817  -2.567  20.732  1.00  0.00     0.039 C 
ENDROOT
BRANCH   1   4
ATOM      4  C   UNL     1       4.570  -4.483  19.497  1.00  0.00     0.034 C 
BRANCH   4   5
ATOM      5  C   UNL     1       3.390  -4.625  20.466  1.00  0.00     0.032 C 
BRANCH   5   6
ATOM      6  C   UNL     1       2.408  -3.496  20.281  1.00  0.00    -0.028 C 
ATOM      7  C   UNL     1       0.488  -2.302  19.321  1.00  0.00     0.039 C 
ATOM      8  C   UNL     1       1.421  -3.485  19.359  1.00  0.00    -0.080 C 
ATOM      9  C   UNL     1       1.240  -4.609  18.366  1.00  0.00     0.039 C 
ENDBRANCH   5   6
ENDBRANCH   4   5
ENDBRANCH   1   4
BRANCH   2  10
ATOM     10  C   UNL     1       4.335  -2.581  17.130  1.00  0.00     0.055 C 
BRANCH  10  11
ATOM     11  C   UNL     1       3.267  -1.575  16.784  1.00  0.00    -0.020 C 
ATOM     12  C   UNL     1       2.387  -1.697  15.769  1.00  0.00    -0.055 C 
ATOM     13  C   UNL     1       2.363  -2.910  14.868  1.00  0.00     0.044 C 
BRANCH  12  14
ATOM     14  C   UNL     1       1.367  -0.628  15.608  1.00  0.00    -0.005 C 
ATOM     15  C   UNL     1       0.101  -0.747  16.014  1.00  0.00     0.009 C 
ENDBRANCH  12  14
ENDBRANCH  10  11
ENDBRANCH   2  10
TORSDOF 6
ENDMDL
MODEL 9
REMARK VINA RESULT:    -4.442      1.823      5.090
REMARK INTER + INTRA:          -7.801
REMARK INTER:                  -6.099
REMARK INTRA:                  -1.702
REMARK UNBOUND:                -1.800
REMARK SMILES C=CC(C)=CCC=C(C)CCC=C(C)C
REMARK SMILES IDX 8 1 7 2 9 3 10 4 11 5 12 6 14 7 13 8 15 9 6 10 5 11 3 12
REMARK SMILES IDX 4 13 2 14 1 15
REMARK H PARENT
REMARK Flexibility Score: inf
ROOT
ATOM      1  C   UNL     1       2.702  -2.280  16.820  1.00  0.00    -0.077 C 
ATOM      2  C   UNL     1       1.397  -2.537  17.069  1.00  0.00    -0.024 C 
ATOM      3  C   UNL     1       3.205  -2.435  15.409  1.00  0.00     0.039 C 
ENDROOT
BRANCH   1   4
ATOM      4  C   UNL     1       3.694  -1.918  17.907  1.00  0.00     0.034 C 
BRANCH   4   5
ATOM      5  C   UNL     1       4.761  -3.010  18.049  1.00  0.00     0.032 C 
BRANCH   5   6
ATOM      6  C   UNL     1       4.278  -4.113  18.957  1.00  0.00    -0.028 C 
ATOM      7  C   UNL     1       4.052  -5.389  21.044  1.00  0.00     0.039 C 
ATOM      8  C   UNL     1       4.651  -4.260  20.247  1.00  0.00    -0.080 C 
ATOM      9  C   UNL     1       5.655  -3.339  20.900  1.00  0.00     0.039 C 
ENDBRANCH   5   6
ENDBRANCH   4   5
ENDBRANCH   1   4
BRANCH   2  10
ATOM     10  C   UNL     1       0.737  -2.435  18.422  1.00  0.00     0.055 C 
BRANCH  10  11
ATOM     11  C   UNL     1       0.518  -3.795  19.031  1.00  0.00    -0.020 C 
ATOM     12  C   UNL     1       0.660  -4.091  20.340  1.00  0.00    -0.055 C 
ATOM     13  C   UNL     1       1.035  -3.044  21.364  1.00  0.00     0.044 C 
BRANCH  12  14
ATOM     14  C   UNL     1       0.350  -5.479  20.772  1.00  0.00    -0.005 C 
ATOM     15  C   UNL     1      -0.398  -6.325  20.061  1.00  0.00     0.009 C 
ENDBRANCH  12  14
ENDBRANCH  10  11
ENDBRANCH   2  10
TORSDOF 6
ENDMDL
