MODEL 1
REMARK VINA RESULT:    -5.726      0.000      0.000
REMARK INTER + INTRA:         -17.292
REMARK INTER:                 -14.430
REMARK INTRA:                  -2.862
REMARK UNBOUND:                -2.862
REMARK SMILES CCCCCCCCCCCCCCCCCCCCCCCCCCCC(=O)[O-]
REMARK SMILES IDX 15 1 16 2 17 3 18 4 19 5 20 6 21 7 22 8 23 9 24 10 25 11
REMARK SMILES IDX 26 12 27 13 28 14 29 15 30 16 14 17 13 18 12 19 11 20 10 21
REMARK SMILES IDX 9 22 8 23 7 24 6 25 5 26 4 27 3 28 2 29 1 30
REMARK H PARENT
REMARK Flexibility Score: inf
ROOT
ATOM      1  C   UNL     1      -1.728 -24.126  -1.349  1.00  0.00     0.000 C 
ENDROOT
BRANCH   1   2
ATOM      2  C   UNL     1      -0.973 -25.470  -1.424  1.00  0.00     0.000 C 
BRANCH   2   3
ATOM      3  C   UNL     1      -0.642 -26.108  -0.063  1.00  0.00     0.000 C 
BRANCH   3   4
ATOM      4  C   UNL     1       0.458 -27.186  -0.105  1.00  0.00     0.000 C 
BRANCH   4   5
ATOM      5  C   UNL     1       1.559 -26.910  -1.151  1.00  0.00     0.000 C 
BRANCH   5   6
ATOM      6  C   UNL     1       2.769 -27.843  -0.996  1.00  0.00     0.000 C 
BRANCH   6   7
ATOM      7  C   UNL     1       2.549 -28.844   0.148  1.00  0.00     0.000 C 
BRANCH   7   8
ATOM      8  C   UNL     1       3.740 -28.910   1.116  1.00  0.00     0.000 C 
BRANCH   8   9
ATOM      9  C   UNL     1       3.305 -29.044   2.585  1.00  0.00     0.000 C 
BRANCH   9  10
ATOM     10  C   UNL     1       4.306 -29.874   3.415  1.00  0.00     0.000 C 
BRANCH  10  11
ATOM     11  C   UNL     1       3.658 -31.040   4.182  1.00  0.00     0.000 C 
BRANCH  11  12
ATOM     12  C   UNL     1       4.203 -31.198   5.609  1.00  0.00     0.006 C 
BRANCH  12  13
ATOM     13  C   UNL     1       3.061 -31.299   6.626  1.00  0.00     0.053 C 
BRANCH  13  14
ATOM     14  C   UNL     1       2.156 -30.106   6.565  1.00  0.00     0.041 C 
ATOM     15  O   UNL     1       2.627 -28.938   6.635  1.00  0.00    -0.550 OA
ATOM     16  O   UNL     1       0.792 -30.284   6.364  1.00  0.00    -0.550 OA
ENDBRANCH  13  14
ENDBRANCH  12  13
ENDBRANCH  11  12
ENDBRANCH  10  11
ENDBRANCH   9  10
ENDBRANCH   8   9
ENDBRANCH   7   8
ENDBRANCH   6   7
ENDBRANCH   5   6
ENDBRANCH   4   5
ENDBRANCH   3   4
ENDBRANCH   2   3
ENDBRANCH   1   2
BRANCH   1  17
ATOM     17  C   UNL     1      -1.599 -23.384  -0.005  1.00  0.00     0.000 C 
BRANCH  17  18
ATOM     18  C   UNL     1      -2.934 -23.287   0.753  1.00  0.00     0.000 C 
BRANCH  18  19
ATOM     19  C   UNL     1      -3.993 -24.259   0.206  1.00  0.00     0.000 C 
BRANCH  19  20
ATOM     20  C   UNL     1      -4.298 -25.402   1.190  1.00  0.00     0.000 C 
BRANCH  20  21
ATOM     21  C   UNL     1      -4.227 -26.787   0.529  1.00  0.00     0.000 C 
BRANCH  21  22
ATOM     22  C   UNL     1      -4.409 -26.729  -0.999  1.00  0.00    -0.000 C 
BRANCH  22  23
ATOM     23  C   UNL     1      -5.617 -27.548  -1.482  1.00  0.00    -0.000 C 
BRANCH  23  24
ATOM     24  C   UNL     1      -6.721 -26.669  -2.095  1.00  0.00    -0.000 C 
BRANCH  24  25
ATOM     25  C   UNL     1      -6.201 -25.297  -2.558  1.00  0.00    -0.000 C 
BRANCH  25  26
ATOM     26  C   UNL     1      -6.912 -24.791  -3.824  1.00  0.00    -0.000 C 
BRANCH  26  27
ATOM     27  C   UNL     1      -6.164 -25.160  -5.119  1.00  0.00    -0.000 C 
BRANCH  27  28
ATOM     28  C   UNL     1      -5.351 -24.017  -5.757  1.00  0.00    -0.000 C 
BRANCH  28  29
ATOM     29  C   UNL     1      -5.106 -22.804  -4.843  1.00  0.00    -0.003 C 
ATOM     30  C   UNL     1      -3.731 -22.829  -4.175  1.00  0.00     0.004 C 
ENDBRANCH  28  29
ENDBRANCH  27  28
ENDBRANCH  26  27
ENDBRANCH  25  26
ENDBRANCH  24  25
ENDBRANCH  23  24
ENDBRANCH  22  23
ENDBRANCH  21  22
ENDBRANCH  20  21
ENDBRANCH  19  20
ENDBRANCH  18  19
ENDBRANCH  17  18
ENDBRANCH   1  17
TORSDOF 26
ENDMDL
MODEL 2
REMARK VINA RESULT:    -5.709      2.371      6.653
REMARK INTER + INTRA:         -17.249
REMARK INTER:                 -14.470
REMARK INTRA:                  -2.779
REMARK UNBOUND:                -2.862
REMARK SMILES CCCCCCCCCCCCCCCCCCCCCCCCCCCC(=O)[O-]
REMARK SMILES IDX 15 1 16 2 17 3 18 4 19 5 20 6 21 7 22 8 23 9 24 10 25 11
REMARK SMILES IDX 26 12 27 13 28 14 29 15 30 16 14 17 13 18 12 19 11 20 10 21
REMARK SMILES IDX 9 22 8 23 7 24 6 25 5 26 4 27 3 28 2 29 1 30
REMARK H PARENT
REMARK Flexibility Score: inf
ROOT
ATOM      1  C   UNL     1       5.397 -30.004   2.833  1.00  0.00     0.000 C 
ENDROOT
BRANCH   1   2
ATOM      2  C   UNL     1       6.406 -31.019   2.254  1.00  0.00     0.000 C 
BRANCH   2   3
ATOM      3  C   UNL     1       7.886 -30.689   2.521  1.00  0.00     0.000 C 
BRANCH   3   4
ATOM      4  C   UNL     1       8.152 -29.247   2.995  1.00  0.00     0.000 C 
BRANCH   4   5
ATOM      5  C   UNL     1       9.145 -29.154   4.172  1.00  0.00     0.000 C 
BRANCH   5   6
ATOM      6  C   UNL     1       8.447 -29.204   5.539  1.00  0.00     0.000 C 
BRANCH   6   7
ATOM      7  C   UNL     1       8.984 -30.366   6.387  1.00  0.00     0.000 C 
BRANCH   7   8
ATOM      8  C   UNL     1       7.874 -31.316   6.863  1.00  0.00     0.000 C 
BRANCH   8   9
ATOM      9  C   UNL     1       7.643 -32.491   5.897  1.00  0.00     0.000 C 
BRANCH   9  10
ATOM     10  C   UNL     1       6.149 -32.684   5.564  1.00  0.00     0.000 C 
BRANCH  10  11
ATOM     11  C   UNL     1       5.286 -31.441   5.846  1.00  0.00     0.000 C 
BRANCH  11  12
ATOM     12  C   UNL     1       3.847 -31.789   6.255  1.00  0.00     0.006 C 
BRANCH  12  13
ATOM     13  C   UNL     1       2.832 -31.009   5.410  1.00  0.00     0.053 C 
BRANCH  13  14
ATOM     14  C   UNL     1       2.031 -30.056   6.245  1.00  0.00     0.041 C 
ATOM     15  O   UNL     1       2.549 -28.991   6.680  1.00  0.00    -0.550 OA
ATOM     16  O   UNL     1       0.688 -30.313   6.489  1.00  0.00    -0.550 OA
ENDBRANCH  13  14
ENDBRANCH  12  13
ENDBRANCH  11  12
ENDBRANCH  10  11
ENDBRANCH   9  10
ENDBRANCH   8   9
ENDBRANCH   7   8
ENDBRANCH   6   7
ENDBRANCH   5   6
ENDBRANCH   4   5
ENDBRANCH   3   4
ENDBRANCH   2   3
ENDBRANCH   1   2
BRANCH   1  17
ATOM     17  C   UNL     1       4.437 -29.382   1.803  1.00  0.00     0.000 C 
BRANCH  17  18
ATOM     18  C   UNL     1       3.124 -28.887   2.434  1.00  0.00     0.000 C 
BRANCH  18  19
ATOM     19  C   UNL     1       2.051 -28.561   1.382  1.00  0.00     0.000 C 
BRANCH  19  20
ATOM     20  C   UNL     1       2.665 -28.178   0.024  1.00  0.00     0.000 C 
BRANCH  20  21
ATOM     21  C   UNL     1       1.800 -27.175  -0.755  1.00  0.00     0.000 C 
BRANCH  21  22
ATOM     22  C   UNL     1       0.347 -27.120  -0.248  1.00  0.00    -0.000 C 
BRANCH  22  23
ATOM     23  C   UNL     1      -0.251 -25.706  -0.319  1.00  0.00    -0.000 C 
BRANCH  23  24
ATOM     24  C   UNL     1      -0.993 -25.443  -1.641  1.00  0.00    -0.000 C 
BRANCH  24  25
ATOM     25  C   UNL     1      -2.055 -24.338  -1.518  1.00  0.00    -0.000 C 
BRANCH  25  26
ATOM     26  C   UNL     1      -3.489 -24.879  -1.646  1.00  0.00    -0.000 C 
BRANCH  26  27
ATOM     27  C   UNL     1      -3.976 -25.594  -0.372  1.00  0.00    -0.000 C 
BRANCH  27  28
ATOM     28  C   UNL     1      -4.996 -24.809   0.475  1.00  0.00    -0.000 C 
BRANCH  28  29
ATOM     29  C   UNL     1      -4.381 -23.835   1.496  1.00  0.00    -0.003 C 
ATOM     30  C   UNL     1      -5.427 -23.181   2.400  1.00  0.00     0.004 C 
ENDBRANCH  28  29
ENDBRANCH  27  28
ENDBRANCH  26  27
ENDBRANCH  25  26
ENDBRANCH  24  25
ENDBRANCH  23  24
ENDBRANCH  22  23
ENDBRANCH  21  22
ENDBRANCH  20  21
ENDBRANCH  19  20
ENDBRANCH  18  19
ENDBRANCH  17  18
ENDBRANCH   1  17
TORSDOF 26
ENDMDL
MODEL 3
REMARK VINA RESULT:    -5.570      2.837      6.616
REMARK INTER + INTRA:         -16.899
REMARK INTER:                 -13.619
REMARK INTRA:                  -3.280
REMARK UNBOUND:                -2.862
REMARK SMILES CCCCCCCCCCCCCCCCCCCCCCCCCCCC(=O)[O-]
REMARK SMILES IDX 15 1 16 2 17 3 18 4 19 5 20 6 21 7 22 8 23 9 24 10 25 11
REMARK SMILES IDX 26 12 27 13 28 14 29 15 30 16 14 17 13 18 12 19 11 20 10 21
REMARK SMILES IDX 9 22 8 23 7 24 6 25 5 26 4 27 3 28 2 29 1 30
REMARK H PARENT
REMARK Flexibility Score: inf
ROOT
ATOM      1  C   UNL     1       3.459 -28.902   2.914  1.00  0.00     0.000 C 
ENDROOT
BRANCH   1   2
ATOM      2  C   UNL     1       3.125 -30.111   3.812  1.00  0.00     0.000 C 
BRANCH   2   3
ATOM      3  C   UNL     1       2.814 -29.766   5.280  1.00  0.00     0.000 C 
BRANCH   3   4
ATOM      4  C   UNL     1       2.591 -30.984   6.197  1.00  0.00     0.000 C 
BRANCH   4   5
ATOM      5  C   UNL     1       3.855 -31.841   6.410  1.00  0.00     0.000 C 
BRANCH   5   6
ATOM      6  C   UNL     1       3.794 -33.181   5.662  1.00  0.00     0.000 C 
BRANCH   6   7
ATOM      7  C   UNL     1       5.178 -33.576   5.127  1.00  0.00     0.000 C 
BRANCH   7   8
ATOM      8  C   UNL     1       5.606 -32.737   3.914  1.00  0.00     0.000 C 
BRANCH   8   9
ATOM      9  C   UNL     1       6.938 -32.000   4.142  1.00  0.00     0.000 C 
BRANCH   9  10
ATOM     10  C   UNL     1       6.739 -30.480   4.317  1.00  0.00     0.000 C 
BRANCH  10  11
ATOM     11  C   UNL     1       6.991 -29.984   5.752  1.00  0.00     0.000 C 
BRANCH  11  12
ATOM     12  C   UNL     1       7.593 -31.063   6.664  1.00  0.00     0.006 C 
BRANCH  12  13
ATOM     13  C   UNL     1       9.105 -30.867   6.825  1.00  0.00     0.053 C 
BRANCH  13  14
ATOM     14  C   UNL     1       9.463 -30.419   8.210  1.00  0.00     0.041 C 
ATOM     15  O   UNL     1      10.622 -29.994   8.469  1.00  0.00    -0.550 OA
ATOM     16  O   UNL     1       8.492 -30.409   9.204  1.00  0.00    -0.550 OA
ENDBRANCH  13  14
ENDBRANCH  12  13
ENDBRANCH  11  12
ENDBRANCH  10  11
ENDBRANCH   9  10
ENDBRANCH   8   9
ENDBRANCH   7   8
ENDBRANCH   6   7
ENDBRANCH   5   6
ENDBRANCH   4   5
ENDBRANCH   3   4
ENDBRANCH   2   3
ENDBRANCH   1   2
BRANCH   1  17
ATOM     17  C   UNL     1       4.040 -29.259   1.533  1.00  0.00     0.000 C 
BRANCH  17  18
ATOM     18  C   UNL     1       3.084 -28.917   0.377  1.00  0.00     0.000 C 
BRANCH  18  19
ATOM     19  C   UNL     1       1.771 -28.285   0.867  1.00  0.00     0.000 C 
BRANCH  19  20
ATOM     20  C   UNL     1       1.440 -26.978   0.126  1.00  0.00     0.000 C 
BRANCH  20  21
ATOM     21  C   UNL     1      -0.024 -26.914  -0.337  1.00  0.00     0.000 C 
BRANCH  21  22
ATOM     22  C   UNL     1      -0.607 -25.490  -0.276  1.00  0.00    -0.000 C 
BRANCH  22  23
ATOM     23  C   UNL     1      -1.449 -25.142  -1.513  1.00  0.00    -0.000 C 
BRANCH  23  24
ATOM     24  C   UNL     1      -2.478 -24.032  -1.236  1.00  0.00    -0.000 C 
BRANCH  24  25
ATOM     25  C   UNL     1      -2.242 -23.325   0.109  1.00  0.00    -0.000 C 
BRANCH  25  26
ATOM     26  C   UNL     1      -3.455 -23.423   1.050  1.00  0.00    -0.000 C 
BRANCH  26  27
ATOM     27  C   UNL     1      -4.376 -24.611   0.719  1.00  0.00    -0.000 C 
BRANCH  27  28
ATOM     28  C   UNL     1      -3.919 -25.973   1.277  1.00  0.00    -0.000 C 
BRANCH  28  29
ATOM     29  C   UNL     1      -4.239 -27.183   0.381  1.00  0.00    -0.003 C 
ATOM     30  C   UNL     1      -4.900 -26.788  -0.941  1.00  0.00     0.004 C 
ENDBRANCH  28  29
ENDBRANCH  27  28
ENDBRANCH  26  27
ENDBRANCH  25  26
ENDBRANCH  24  25
ENDBRANCH  23  24
ENDBRANCH  22  23
ENDBRANCH  21  22
ENDBRANCH  20  21
ENDBRANCH  19  20
ENDBRANCH  18  19
ENDBRANCH  17  18
ENDBRANCH   1  17
TORSDOF 26
ENDMDL
MODEL 4
REMARK VINA RESULT:    -5.557      1.925      5.400
REMARK INTER + INTRA:         -16.865
REMARK INTER:                 -13.832
REMARK INTRA:                  -3.033
REMARK UNBOUND:                -2.862
REMARK SMILES CCCCCCCCCCCCCCCCCCCCCCCCCCCC(=O)[O-]
REMARK SMILES IDX 15 1 16 2 17 3 18 4 19 5 20 6 21 7 22 8 23 9 24 10 25 11
REMARK SMILES IDX 26 12 27 13 28 14 29 15 30 16 14 17 13 18 12 19 11 20 10 21
REMARK SMILES IDX 9 22 8 23 7 24 6 25 5 26 4 27 3 28 2 29 1 30
REMARK H PARENT
REMARK Flexibility Score: inf
ROOT
ATOM      1  C   UNL     1       2.773 -28.893   2.130  1.00  0.00     0.000 C 
ENDROOT
BRANCH   1   2
ATOM      2  C   UNL     1       3.939 -29.336   3.039  1.00  0.00     0.000 C 
BRANCH   2   3
ATOM      3  C   UNL     1       4.929 -30.322   2.393  1.00  0.00     0.000 C 
BRANCH   3   4
ATOM      4  C   UNL     1       6.396 -29.851   2.384  1.00  0.00     0.000 C 
BRANCH   4   5
ATOM      5  C   UNL     1       7.367 -30.830   3.077  1.00  0.00     0.000 C 
BRANCH   5   6
ATOM      6  C   UNL     1       7.670 -32.068   2.221  1.00  0.00     0.000 C 
BRANCH   6   7
ATOM      7  C   UNL     1       7.402 -33.359   3.008  1.00  0.00     0.000 C 
BRANCH   7   8
ATOM      8  C   UNL     1       6.145 -34.099   2.523  1.00  0.00     0.000 C 
BRANCH   8   9
ATOM      9  C   UNL     1       4.898 -33.764   3.360  1.00  0.00     0.000 C 
BRANCH   9  10
ATOM     10  C   UNL     1       5.225 -33.630   4.862  1.00  0.00     0.000 C 
BRANCH  10  11
ATOM     11  C   UNL     1       4.838 -32.266   5.461  1.00  0.00     0.000 C 
BRANCH  11  12
ATOM     12  C   UNL     1       3.481 -32.289   6.179  1.00  0.00     0.006 C 
BRANCH  12  13
ATOM     13  C   UNL     1       2.428 -31.502   5.389  1.00  0.00     0.053 C 
BRANCH  13  14
ATOM     14  C   UNL     1       1.974 -30.282   6.133  1.00  0.00     0.041 C 
ATOM     15  O   UNL     1       2.755 -29.306   6.306  1.00  0.00    -0.550 OA
ATOM     16  O   UNL     1       0.661 -30.195   6.580  1.00  0.00    -0.550 OA
ENDBRANCH  13  14
ENDBRANCH  12  13
ENDBRANCH  11  12
ENDBRANCH  10  11
ENDBRANCH   9  10
ENDBRANCH   8   9
ENDBRANCH   7   8
ENDBRANCH   6   7
ENDBRANCH   5   6
ENDBRANCH   4   5
ENDBRANCH   3   4
ENDBRANCH   2   3
ENDBRANCH   1   2
BRANCH   1  17
ATOM     17  C   UNL     1       3.155 -28.640   0.660  1.00  0.00     0.000 C 
BRANCH  17  18
ATOM     18  C   UNL     1       2.022 -27.980  -0.145  1.00  0.00     0.000 C 
BRANCH  18  19
ATOM     19  C   UNL     1       0.882 -27.469   0.752  1.00  0.00     0.000 C 
BRANCH  19  20
ATOM     20  C   UNL     1      -0.345 -27.022  -0.061  1.00  0.00     0.000 C 
BRANCH  20  21
ATOM     21  C   UNL     1      -0.323 -25.522  -0.390  1.00  0.00     0.000 C 
BRANCH  21  22
ATOM     22  C   UNL     1      -1.268 -25.151  -1.548  1.00  0.00    -0.000 C 
BRANCH  22  23
ATOM     23  C   UNL     1      -2.183 -23.964  -1.207  1.00  0.00    -0.000 C 
BRANCH  23  24
ATOM     24  C   UNL     1      -2.292 -23.717   0.308  1.00  0.00    -0.000 C 
BRANCH  24  25
ATOM     25  C   UNL     1      -3.729 -23.408   0.759  1.00  0.00    -0.000 C 
BRANCH  25  26
ATOM     26  C   UNL     1      -4.423 -24.622   1.400  1.00  0.00    -0.000 C 
BRANCH  26  27
ATOM     27  C   UNL     1      -4.365 -25.881   0.515  1.00  0.00    -0.000 C 
BRANCH  27  28
ATOM     28  C   UNL     1      -5.683 -26.246  -0.196  1.00  0.00    -0.000 C 
BRANCH  28  29
ATOM     29  C   UNL     1      -5.865 -25.617  -1.589  1.00  0.00    -0.003 C 
ATOM     30  C   UNL     1      -4.758 -26.007  -2.569  1.00  0.00     0.004 C 
ENDBRANCH  28  29
ENDBRANCH  27  28
ENDBRANCH  26  27
ENDBRANCH  25  26
ENDBRANCH  24  25
ENDBRANCH  23  24
ENDBRANCH  22  23
ENDBRANCH  21  22
ENDBRANCH  20  21
ENDBRANCH  19  20
ENDBRANCH  18  19
ENDBRANCH  17  18
ENDBRANCH   1  17
TORSDOF 26
ENDMDL
MODEL 5
REMARK VINA RESULT:    -5.526      3.296      7.248
REMARK INTER + INTRA:         -16.787
REMARK INTER:                 -13.962
REMARK INTRA:                  -2.824
REMARK UNBOUND:                -2.862
REMARK SMILES CCCCCCCCCCCCCCCCCCCCCCCCCCCC(=O)[O-]
REMARK SMILES IDX 15 1 16 2 17 3 18 4 19 5 20 6 21 7 22 8 23 9 24 10 25 11
REMARK SMILES IDX 26 12 27 13 28 14 29 15 30 16 14 17 13 18 12 19 11 20 10 21
REMARK SMILES IDX 9 22 8 23 7 24 6 25 5 26 4 27 3 28 2 29 1 30
REMARK H PARENT
REMARK Flexibility Score: inf
ROOT
ATOM      1  C   UNL     1       3.147 -29.309   3.631  1.00  0.00     0.000 C 
ENDROOT
BRANCH   1   2
ATOM      2  C   UNL     1       3.426 -29.331   5.148  1.00  0.00     0.000 C 
BRANCH   2   3
ATOM      3  C   UNL     1       2.405 -30.122   5.987  1.00  0.00     0.000 C 
BRANCH   3   4
ATOM      4  C   UNL     1       2.127 -31.552   5.484  1.00  0.00     0.000 C 
BRANCH   4   5
ATOM      5  C   UNL     1       3.187 -32.583   5.927  1.00  0.00     0.000 C 
BRANCH   5   6
ATOM      6  C   UNL     1       4.303 -32.768   4.889  1.00  0.00     0.000 C 
BRANCH   6   7
ATOM      7  C   UNL     1       5.536 -33.429   5.520  1.00  0.00     0.000 C 
BRANCH   7   8
ATOM      8  C   UNL     1       6.756 -32.496   5.557  1.00  0.00     0.000 C 
BRANCH   8   9
ATOM      9  C   UNL     1       6.399 -31.068   6.005  1.00  0.00     0.000 C 
BRANCH   9  10
ATOM     10  C   UNL     1       7.521 -30.059   5.684  1.00  0.00     0.000 C 
BRANCH  10  11
ATOM     11  C   UNL     1       8.385 -30.459   4.475  1.00  0.00     0.000 C 
BRANCH  11  12
ATOM     12  C   UNL     1       8.120 -29.595   3.234  1.00  0.00     0.006 C 
BRANCH  12  13
ATOM     13  C   UNL     1       9.098 -28.416   3.165  1.00  0.00     0.053 C 
BRANCH  13  14
ATOM     14  C   UNL     1       9.453 -28.072   1.750  1.00  0.00     0.041 C 
ATOM     15  O   UNL     1       8.572 -28.072   0.847  1.00  0.00    -0.550 OA
ATOM     16  O   UNL     1      10.751 -27.684   1.439  1.00  0.00    -0.550 OA
ENDBRANCH  13  14
ENDBRANCH  12  13
ENDBRANCH  11  12
ENDBRANCH  10  11
ENDBRANCH   9  10
ENDBRANCH   8   9
ENDBRANCH   7   8
ENDBRANCH   6   7
ENDBRANCH   5   6
ENDBRANCH   4   5
ENDBRANCH   3   4
ENDBRANCH   2   3
ENDBRANCH   1   2
BRANCH   1  17
ATOM     17  C   UNL     1       4.344 -29.702   2.744  1.00  0.00     0.000 C 
BRANCH  17  18
ATOM     18  C   UNL     1       4.206 -29.197   1.298  1.00  0.00     0.000 C 
BRANCH  18  19
ATOM     19  C   UNL     1       2.828 -28.572   1.022  1.00  0.00     0.000 C 
BRANCH  19  20
ATOM     20  C   UNL     1       2.749 -27.927  -0.372  1.00  0.00     0.000 C 
BRANCH  20  21
ATOM     21  C   UNL     1       1.572 -26.948  -0.506  1.00  0.00     0.000 C 
BRANCH  21  22
ATOM     22  C   UNL     1       0.315 -27.420   0.248  1.00  0.00    -0.000 C 
BRANCH  22  23
ATOM     23  C   UNL     1      -0.892 -26.497   0.022  1.00  0.00    -0.000 C 
BRANCH  23  24
ATOM     24  C   UNL     1      -0.781 -25.685  -1.281  1.00  0.00    -0.000 C 
BRANCH  24  25
ATOM     25  C   UNL     1      -1.722 -24.470  -1.307  1.00  0.00    -0.000 C 
BRANCH  25  26
ATOM     26  C   UNL     1      -1.899 -23.827   0.079  1.00  0.00    -0.000 C 
BRANCH  26  27
ATOM     27  C   UNL     1      -3.375 -23.701   0.497  1.00  0.00    -0.000 C 
BRANCH  27  28
ATOM     28  C   UNL     1      -4.015 -24.990   1.049  1.00  0.00    -0.000 C 
BRANCH  28  29
ATOM     29  C   UNL     1      -4.964 -25.713   0.077  1.00  0.00    -0.003 C 
ATOM     30  C   UNL     1      -4.544 -27.157  -0.203  1.00  0.00     0.004 C 
ENDBRANCH  28  29
ENDBRANCH  27  28
ENDBRANCH  26  27
ENDBRANCH  25  26
ENDBRANCH  24  25
ENDBRANCH  23  24
ENDBRANCH  22  23
ENDBRANCH  21  22
ENDBRANCH  20  21
ENDBRANCH  19  20
ENDBRANCH  18  19
ENDBRANCH  17  18
ENDBRANCH   1  17
TORSDOF 26
ENDMDL
MODEL 6
REMARK VINA RESULT:    -5.472      4.074      7.211
REMARK INTER + INTRA:         -16.652
REMARK INTER:                 -13.566
REMARK INTRA:                  -3.086
REMARK UNBOUND:                -2.862
REMARK SMILES CCCCCCCCCCCCCCCCCCCCCCCCCCCC(=O)[O-]
REMARK SMILES IDX 15 1 16 2 17 3 18 4 19 5 20 6 21 7 22 8 23 9 24 10 25 11
REMARK SMILES IDX 26 12 27 13 28 14 29 15 30 16 14 17 13 18 12 19 11 20 10 21
REMARK SMILES IDX 9 22 8 23 7 24 6 25 5 26 4 27 3 28 2 29 1 30
REMARK H PARENT
REMARK Flexibility Score: inf
ROOT
ATOM      1  C   UNL     1       3.443 -29.196   1.624  1.00  0.00     0.000 C 
ENDROOT
BRANCH   1   2
ATOM      2  C   UNL     1       4.751 -29.266   0.809  1.00  0.00     0.000 C 
BRANCH   2   3
ATOM      3  C   UNL     1       6.003 -29.655   1.618  1.00  0.00     0.000 C 
BRANCH   3   4
ATOM      4  C   UNL     1       5.725 -30.078   3.073  1.00  0.00     0.000 C 
BRANCH   4   5
ATOM      5  C   UNL     1       6.921 -30.775   3.756  1.00  0.00     0.000 C 
BRANCH   5   6
ATOM      6  C   UNL     1       7.899 -29.778   4.396  1.00  0.00     0.000 C 
BRANCH   6   7
ATOM      7  C   UNL     1       9.073 -29.478   3.454  1.00  0.00     0.000 C 
BRANCH   7   8
ATOM      8  C   UNL     1       9.113 -28.009   3.006  1.00  0.00     0.000 C 
BRANCH   8   9
ATOM      9  C   UNL     1       9.478 -27.851   1.520  1.00  0.00     0.000 C 
BRANCH   9  10
ATOM     10  C   UNL     1       9.688 -29.212   0.824  1.00  0.00     0.000 C 
BRANCH  10  11
ATOM     11  C   UNL     1       8.819 -29.407  -0.431  1.00  0.00     0.000 C 
BRANCH  11  12
ATOM     12  C   UNL     1       8.678 -28.128  -1.269  1.00  0.00     0.006 C 
BRANCH  12  13
ATOM     13  C   UNL     1       7.205 -27.729  -1.421  1.00  0.00     0.053 C 
BRANCH  13  14
ATOM     14  C   UNL     1       6.765 -27.767  -2.853  1.00  0.00     0.041 C 
ATOM     15  O   UNL     1       5.908 -26.947  -3.284  1.00  0.00    -0.550 OA
ATOM     16  O   UNL     1       7.352 -28.670  -3.731  1.00  0.00    -0.550 OA
ENDBRANCH  13  14
ENDBRANCH  12  13
ENDBRANCH  11  12
ENDBRANCH  10  11
ENDBRANCH   9  10
ENDBRANCH   8   9
ENDBRANCH   7   8
ENDBRANCH   6   7
ENDBRANCH   5   6
ENDBRANCH   4   5
ENDBRANCH   3   4
ENDBRANCH   2   3
ENDBRANCH   1   2
BRANCH   1  17
ATOM     17  C   UNL     1       2.236 -28.611   0.868  1.00  0.00     0.000 C 
BRANCH  17  18
ATOM     18  C   UNL     1       2.611 -28.063  -0.520  1.00  0.00     0.000 C 
BRANCH  18  19
ATOM     19  C   UNL     1       1.601 -27.024  -1.035  1.00  0.00     0.000 C 
BRANCH  19  20
ATOM     20  C   UNL     1       0.773 -26.403   0.104  1.00  0.00     0.000 C 
BRANCH  20  21
ATOM     21  C   UNL     1      -0.715 -26.265  -0.254  1.00  0.00     0.000 C 
BRANCH  21  22
ATOM     22  C   UNL     1      -0.947 -25.436  -1.531  1.00  0.00    -0.000 C 
BRANCH  22  23
ATOM     23  C   UNL     1      -1.925 -24.272  -1.311  1.00  0.00    -0.000 C 
BRANCH  23  24
ATOM     24  C   UNL     1      -1.573 -23.429  -0.073  1.00  0.00    -0.000 C 
BRANCH  24  25
ATOM     25  C   UNL     1      -2.766 -23.245   0.880  1.00  0.00    -0.000 C 
BRANCH  25  26
ATOM     26  C   UNL     1      -3.979 -24.103   0.483  1.00  0.00    -0.000 C 
BRANCH  26  27
ATOM     27  C   UNL     1      -4.004 -25.470   1.191  1.00  0.00    -0.000 C 
BRANCH  27  28
ATOM     28  C   UNL     1      -4.580 -26.632   0.357  1.00  0.00    -0.000 C 
BRANCH  28  29
ATOM     29  C   UNL     1      -5.556 -26.211  -0.756  1.00  0.00    -0.003 C 
ATOM     30  C   UNL     1      -5.042 -26.545  -2.157  1.00  0.00     0.004 C 
ENDBRANCH  28  29
ENDBRANCH  27  28
ENDBRANCH  26  27
ENDBRANCH  25  26
ENDBRANCH  24  25
ENDBRANCH  23  24
ENDBRANCH  22  23
ENDBRANCH  21  22
ENDBRANCH  20  21
ENDBRANCH  19  20
ENDBRANCH  18  19
ENDBRANCH  17  18
ENDBRANCH   1  17
TORSDOF 26
ENDMDL
MODEL 7
REMARK VINA RESULT:    -5.463      4.989     11.290
REMARK INTER + INTRA:         -16.629
REMARK INTER:                 -13.277
REMARK INTRA:                  -3.352
REMARK UNBOUND:                -2.862
REMARK SMILES CCCCCCCCCCCCCCCCCCCCCCCCCCCC(=O)[O-]
REMARK SMILES IDX 15 1 16 2 17 3 18 4 19 5 20 6 21 7 22 8 23 9 24 10 25 11
REMARK SMILES IDX 26 12 27 13 28 14 29 15 30 16 14 17 13 18 12 19 11 20 10 21
REMARK SMILES IDX 9 22 8 23 7 24 6 25 5 26 4 27 3 28 2 29 1 30
REMARK H PARENT
REMARK Flexibility Score: inf
ROOT
ATOM      1  C   UNL     1       8.365 -30.487   1.766  1.00  0.00     0.000 C 
ENDROOT
BRANCH   1   2
ATOM      2  C   UNL     1       7.254 -29.618   2.390  1.00  0.00     0.000 C 
BRANCH   2   3
ATOM      3  C   UNL     1       5.837 -29.887   1.850  1.00  0.00     0.000 C 
BRANCH   3   4
ATOM      4  C   UNL     1       4.718 -29.812   2.906  1.00  0.00     0.000 C 
BRANCH   4   5
ATOM      5  C   UNL     1       3.296 -29.873   2.310  1.00  0.00     0.000 C 
BRANCH   5   6
ATOM      6  C   UNL     1       2.739 -28.483   1.966  1.00  0.00     0.000 C 
BRANCH   6   7
ATOM      7  C   UNL     1       2.732 -28.254   0.448  1.00  0.00     0.000 C 
BRANCH   7   8
ATOM      8  C   UNL     1       1.315 -28.080  -0.119  1.00  0.00     0.000 C 
BRANCH   8   9
ATOM      9  C   UNL     1       0.925 -26.602  -0.300  1.00  0.00     0.000 C 
BRANCH   9  10
ATOM     10  C   UNL     1      -0.604 -26.399  -0.286  1.00  0.00     0.000 C 
BRANCH  10  11
ATOM     11  C   UNL     1      -1.068 -25.141  -1.041  1.00  0.00     0.000 C 
BRANCH  11  12
ATOM     12  C   UNL     1      -2.046 -24.279  -0.230  1.00  0.00     0.006 C 
BRANCH  12  13
ATOM     13  C   UNL     1      -3.030 -25.154   0.555  1.00  0.00     0.053 C 
BRANCH  13  14
ATOM     14  C   UNL     1      -4.359 -24.481   0.725  1.00  0.00     0.041 C 
ATOM     15  O   UNL     1      -4.446 -23.373   1.322  1.00  0.00    -0.550 OA
ATOM     16  O   UNL     1      -5.496 -25.048   0.164  1.00  0.00    -0.550 OA
ENDBRANCH  13  14
ENDBRANCH  12  13
ENDBRANCH  11  12
ENDBRANCH  10  11
ENDBRANCH   9  10
ENDBRANCH   8   9
ENDBRANCH   7   8
ENDBRANCH   6   7
ENDBRANCH   5   6
ENDBRANCH   4   5
ENDBRANCH   3   4
ENDBRANCH   2   3
ENDBRANCH   1   2
BRANCH   1  17
ATOM     17  C   UNL     1       9.787 -29.907   1.885  1.00  0.00     0.000 C 
BRANCH  17  18
ATOM     18  C   UNL     1       9.832 -28.387   1.651  1.00  0.00     0.000 C 
BRANCH  18  19
ATOM     19  C   UNL     1      11.194 -27.914   1.116  1.00  0.00     0.000 C 
BRANCH  19  20
ATOM     20  C   UNL     1      11.441 -28.372  -0.332  1.00  0.00     0.000 C 
BRANCH  20  21
ATOM     21  C   UNL     1      11.143 -27.270  -1.361  1.00  0.00     0.000 C 
BRANCH  21  22
ATOM     22  C   UNL     1       9.960 -27.618  -2.283  1.00  0.00    -0.000 C 
BRANCH  22  23
ATOM     23  C   UNL     1       9.594 -29.110  -2.238  1.00  0.00    -0.000 C 
BRANCH  23  24
ATOM     24  C   UNL     1       8.131 -29.349  -1.826  1.00  0.00    -0.000 C 
BRANCH  24  25
ATOM     25  C   UNL     1       7.492 -28.119  -1.160  1.00  0.00    -0.000 C 
BRANCH  25  26
ATOM     26  C   UNL     1       5.968 -28.061  -1.361  1.00  0.00    -0.000 C 
BRANCH  26  27
ATOM     27  C   UNL     1       5.513 -26.809  -2.133  1.00  0.00    -0.000 C 
BRANCH  27  28
ATOM     28  C   UNL     1       5.609 -26.912  -3.669  1.00  0.00    -0.000 C 
BRANCH  28  29
ATOM     29  C   UNL     1       6.918 -26.374  -4.275  1.00  0.00    -0.003 C 
ATOM     30  C   UNL     1       7.358 -25.046  -3.659  1.00  0.00     0.004 C 
ENDBRANCH  28  29
ENDBRANCH  27  28
ENDBRANCH  26  27
ENDBRANCH  25  26
ENDBRANCH  24  25
ENDBRANCH  23  24
ENDBRANCH  22  23
ENDBRANCH  21  22
ENDBRANCH  20  21
ENDBRANCH  19  20
ENDBRANCH  18  19
ENDBRANCH  17  18
ENDBRANCH   1  17
TORSDOF 26
ENDMDL
MODEL 8
REMARK VINA RESULT:    -5.451      3.550      7.971
REMARK INTER + INTRA:         -16.599
REMARK INTER:                 -13.907
REMARK INTRA:                  -2.693
REMARK UNBOUND:                -2.862
REMARK SMILES CCCCCCCCCCCCCCCCCCCCCCCCCCCC(=O)[O-]
REMARK SMILES IDX 15 1 16 2 17 3 18 4 19 5 20 6 21 7 22 8 23 9 24 10 25 11
REMARK SMILES IDX 26 12 27 13 28 14 29 15 30 16 14 17 13 18 12 19 11 20 10 21
REMARK SMILES IDX 9 22 8 23 7 24 6 25 5 26 4 27 3 28 2 29 1 30
REMARK H PARENT
REMARK Flexibility Score: inf
ROOT
ATOM      1  C   UNL     1       2.445 -29.809   5.451  1.00  0.00     0.000 C 
ENDROOT
BRANCH   1   2
ATOM      2  C   UNL     1       2.263 -31.225   6.038  1.00  0.00     0.000 C 
BRANCH   2   3
ATOM      3  C   UNL     1       3.572 -31.986   6.320  1.00  0.00     0.000 C 
BRANCH   3   4
ATOM      4  C   UNL     1       3.883 -33.124   5.330  1.00  0.00     0.000 C 
BRANCH   4   5
ATOM      5  C   UNL     1       5.255 -32.988   4.637  1.00  0.00     0.000 C 
BRANCH   5   6
ATOM      6  C   UNL     1       6.350 -32.482   5.589  1.00  0.00     0.000 C 
BRANCH   6   7
ATOM      7  C   UNL     1       7.090 -31.280   4.986  1.00  0.00     0.000 C 
BRANCH   7   8
ATOM      8  C   UNL     1       7.434 -30.209   6.033  1.00  0.00     0.000 C 
BRANCH   8   9
ATOM      9  C   UNL     1       8.471 -29.193   5.524  1.00  0.00     0.000 C 
BRANCH   9  10
ATOM     10  C   UNL     1       9.188 -29.683   4.249  1.00  0.00     0.000 C 
BRANCH  10  11
ATOM     11  C   UNL     1       9.234 -28.635   3.123  1.00  0.00     0.000 C 
BRANCH  11  12
ATOM     12  C   UNL     1       8.110 -28.811   2.092  1.00  0.00     0.006 C 
BRANCH  12  13
ATOM     13  C   UNL     1       8.656 -29.370   0.773  1.00  0.00     0.053 C 
BRANCH  13  14
ATOM     14  C   UNL     1       8.541 -28.375  -0.342  1.00  0.00     0.041 C 
ATOM     15  O   UNL     1       9.574 -27.909  -0.897  1.00  0.00    -0.550 OA
ATOM     16  O   UNL     1       7.286 -28.010  -0.814  1.00  0.00    -0.550 OA
ENDBRANCH  13  14
ENDBRANCH  12  13
ENDBRANCH  11  12
ENDBRANCH  10  11
ENDBRANCH   9  10
ENDBRANCH   8   9
ENDBRANCH   7   8
ENDBRANCH   6   7
ENDBRANCH   5   6
ENDBRANCH   4   5
ENDBRANCH   3   4
ENDBRANCH   2   3
ENDBRANCH   1   2
BRANCH   1  17
ATOM     17  C   UNL     1       3.725 -29.611   4.618  1.00  0.00     0.000 C 
BRANCH  17  18
ATOM     18  C   UNL     1       3.432 -29.237   3.155  1.00  0.00     0.000 C 
BRANCH  18  19
ATOM     19  C   UNL     1       4.589 -29.605   2.211  1.00  0.00     0.000 C 
BRANCH  19  20
ATOM     20  C   UNL     1       4.311 -29.184   0.757  1.00  0.00     0.000 C 
BRANCH  20  21
ATOM     21  C   UNL     1       2.918 -28.561   0.577  1.00  0.00     0.000 C 
BRANCH  21  22
ATOM     22  C   UNL     1       2.734 -27.899  -0.802  1.00  0.00    -0.000 C 
BRANCH  22  23
ATOM     23  C   UNL     1       1.602 -26.861  -0.813  1.00  0.00    -0.000 C 
BRANCH  23  24
ATOM     24  C   UNL     1       0.394 -27.293   0.037  1.00  0.00    -0.000 C 
BRANCH  24  25
ATOM     25  C   UNL     1      -0.796 -26.327  -0.086  1.00  0.00    -0.000 C 
BRANCH  25  26
ATOM     26  C   UNL     1      -0.790 -25.544  -1.410  1.00  0.00    -0.000 C 
BRANCH  26  27
ATOM     27  C   UNL     1      -1.912 -24.494  -1.490  1.00  0.00    -0.000 C 
BRANCH  27  28
ATOM     28  C   UNL     1      -3.096 -24.722  -0.529  1.00  0.00    -0.000 C 
BRANCH  28  29
ATOM     29  C   UNL     1      -3.186 -23.725   0.640  1.00  0.00    -0.003 C 
ATOM     30  C   UNL     1      -4.474 -23.872   1.451  1.00  0.00     0.004 C 
ENDBRANCH  28  29
ENDBRANCH  27  28
ENDBRANCH  26  27
ENDBRANCH  25  26
ENDBRANCH  24  25
ENDBRANCH  23  24
ENDBRANCH  22  23
ENDBRANCH  21  22
ENDBRANCH  20  21
ENDBRANCH  19  20
ENDBRANCH  18  19
ENDBRANCH  17  18
ENDBRANCH   1  17
TORSDOF 26
ENDMDL
MODEL 9
REMARK VINA RESULT:    -5.365      3.721     11.104
REMARK INTER + INTRA:         -16.382
REMARK INTER:                 -13.992
REMARK INTRA:                  -2.390
REMARK UNBOUND:                -2.862
REMARK SMILES CCCCCCCCCCCCCCCCCCCCCCCCCCCC(=O)[O-]
REMARK SMILES IDX 15 1 16 2 17 3 18 4 19 5 20 6 21 7 22 8 23 9 24 10 25 11
REMARK SMILES IDX 26 12 27 13 28 14 29 15 30 16 14 17 13 18 12 19 11 20 10 21
REMARK SMILES IDX 9 22 8 23 7 24 6 25 5 26 4 27 3 28 2 29 1 30
REMARK H PARENT
REMARK Flexibility Score: inf
ROOT
ATOM      1  C   UNL     1       3.484 -29.242   3.192  1.00  0.00     0.000 C 
ENDROOT
BRANCH   1   2
ATOM      2  C   UNL     1       3.699 -29.204   1.664  1.00  0.00     0.000 C 
BRANCH   2   3
ATOM      3  C   UNL     1       2.440 -28.879   0.838  1.00  0.00     0.000 C 
BRANCH   3   4
ATOM      4  C   UNL     1       2.704 -28.084  -0.455  1.00  0.00     0.000 C 
BRANCH   4   5
ATOM      5  C   UNL     1       1.612 -27.042  -0.777  1.00  0.00     0.000 C 
BRANCH   5   6
ATOM      6  C   UNL     1       0.568 -26.915   0.342  1.00  0.00     0.000 C 
BRANCH   6   7
ATOM      7  C   UNL     1      -0.796 -26.497  -0.224  1.00  0.00     0.000 C 
BRANCH   7   8
ATOM      8  C   UNL     1      -0.675 -25.506  -1.392  1.00  0.00     0.000 C 
BRANCH   8   9
ATOM      9  C   UNL     1      -1.753 -24.408  -1.354  1.00  0.00     0.000 C 
BRANCH   9  10
ATOM     10  C   UNL     1      -1.886 -23.772   0.045  1.00  0.00     0.000 C 
BRANCH  10  11
ATOM     11  C   UNL     1      -3.342 -23.613   0.517  1.00  0.00     0.000 C 
BRANCH  11  12
ATOM     12  C   UNL     1      -4.334 -24.454  -0.299  1.00  0.00     0.006 C 
BRANCH  12  13
ATOM     13  C   UNL     1      -4.726 -25.729   0.456  1.00  0.00     0.053 C 
BRANCH  13  14
ATOM     14  C   UNL     1      -4.623 -26.945  -0.415  1.00  0.00     0.041 C 
ATOM     15  O   UNL     1      -5.039 -26.919  -1.606  1.00  0.00    -0.550 OA
ATOM     16  O   UNL     1      -4.005 -28.091   0.070  1.00  0.00    -0.550 OA
ENDBRANCH  13  14
ENDBRANCH  12  13
ENDBRANCH  11  12
ENDBRANCH  10  11
ENDBRANCH   9  10
ENDBRANCH   8   9
ENDBRANCH   7   8
ENDBRANCH   6   7
ENDBRANCH   5   6
ENDBRANCH   4   5
ENDBRANCH   3   4
ENDBRANCH   2   3
ENDBRANCH   1   2
BRANCH   1  17
ATOM     17  C   UNL     1       3.480 -30.651   3.813  1.00  0.00     0.000 C 
BRANCH  17  18
ATOM     18  C   UNL     1       4.601 -30.849   4.848  1.00  0.00     0.000 C 
BRANCH  18  19
ATOM     19  C   UNL     1       5.866 -31.472   4.234  1.00  0.00     0.000 C 
BRANCH  19  20
ATOM     20  C   UNL     1       6.911 -30.410   3.850  1.00  0.00     0.000 C 
BRANCH  20  21
ATOM     21  C   UNL     1       7.859 -30.066   5.009  1.00  0.00     0.000 C 
BRANCH  21  22
ATOM     22  C   UNL     1       8.763 -28.858   4.702  1.00  0.00    -0.000 C 
BRANCH  22  23
ATOM     23  C   UNL     1       9.494 -28.993   3.357  1.00  0.00    -0.000 C 
BRANCH  23  24
ATOM     24  C   UNL     1       9.136 -27.865   2.373  1.00  0.00    -0.000 C 
BRANCH  24  25
ATOM     25  C   UNL     1       9.287 -28.287   0.903  1.00  0.00    -0.000 C 
BRANCH  25  26
ATOM     26  C   UNL     1       7.950 -28.700   0.265  1.00  0.00    -0.000 C 
BRANCH  26  27
ATOM     27  C   UNL     1       7.751 -28.111  -1.144  1.00  0.00    -0.000 C 
BRANCH  27  28
ATOM     28  C   UNL     1       6.293 -27.781  -1.519  1.00  0.00    -0.000 C 
BRANCH  28  29
ATOM     29  C   UNL     1       6.107 -26.480  -2.321  1.00  0.00    -0.003 C 
ATOM     30  C   UNL     1       7.349 -26.093  -3.124  1.00  0.00     0.004 C 
ENDBRANCH  28  29
ENDBRANCH  27  28
ENDBRANCH  26  27
ENDBRANCH  25  26
ENDBRANCH  24  25
ENDBRANCH  23  24
ENDBRANCH  22  23
ENDBRANCH  21  22
ENDBRANCH  20  21
ENDBRANCH  19  20
ENDBRANCH  18  19
ENDBRANCH  17  18
ENDBRANCH   1  17
TORSDOF 26
ENDMDL
