MODEL 1
REMARK VINA RESULT:    -5.320      0.000      0.000
REMARK INTER + INTRA:          -6.484
REMARK INTER:                  -6.253
REMARK INTRA:                  -0.231
REMARK UNBOUND:                -0.231
REMARK SMILES O=c1c(O)c(-c2ccc(O)cc2)oc2cc(O)cc(O)c12
REMARK SMILES IDX 5 1 3 2 2 3 1 4 21 5 19 6 18 7 16 8 15 9 14 10 13 11 6 12
REMARK SMILES IDX 7 13 8 14 9 15 12 16 11 17 10 18 4 20 20 22 17 24
REMARK H PARENT 10 19 4 21 20 23 17 25
REMARK Flexibility Score: inf
ROOT
ATOM      1  C   UNL     1     121.187 128.549 130.257  1.00  0.00     0.180 A 
ATOM      2  C   UNL     1     121.899 127.639 131.061  1.00  0.00     0.208 A 
ATOM      3  C   UNL     1     121.254 126.470 131.496  1.00  0.00     0.238 A 
ATOM      4  O   UNL     1     121.878 125.651 132.225  1.00  0.00    -0.285 OA
ATOM      5  C   UNL     1     119.921 126.223 131.107  1.00  0.00     0.111 A 
ATOM      6  C   UNL     1     119.202 125.069 131.498  1.00  0.00     0.134 A 
ATOM      7  C   UNL     1     117.880 124.891 131.061  1.00  0.00     0.093 A 
ATOM      8  C   UNL     1     117.267 125.842 130.242  1.00  0.00     0.123 A 
ATOM      9  C   UNL     1     117.973 126.984 129.852  1.00  0.00     0.094 A 
ATOM     10  C   UNL     1     119.290 127.181 130.279  1.00  0.00     0.146 A 
ATOM     11  O   UNL     1     119.936 128.276 129.898  1.00  0.00    -0.452 OA
ENDROOT
BRANCH   1  12
ATOM     12  C   UNL     1     121.792 129.813 129.776  1.00  0.00     0.021 A 
ATOM     13  C   UNL     1     122.018 130.896 130.644  1.00  0.00     0.016 A 
ATOM     14  C   UNL     1     122.568 132.086 130.160  1.00  0.00     0.047 A 
ATOM     15  C   UNL     1     122.886 132.215 128.801  1.00  0.00     0.115 A 
ATOM     16  C   UNL     1     122.093 129.958 128.411  1.00  0.00     0.016 A 
ATOM     17  C   UNL     1     122.644 131.149 127.930  1.00  0.00     0.047 A 
BRANCH  15  18
ATOM     18  O   UNL     1     123.436 133.396 128.308  1.00  0.00    -0.508 OA
ATOM     19  H   UNL     1     122.901 134.022 127.717  1.00  0.00     0.293 HD
ENDBRANCH  15  18
ENDBRANCH   1  12
BRANCH   2  20
ATOM     20  O   UNL     1     123.234 127.883 131.392  1.00  0.00    -0.502 OA
ATOM     21  H   UNL     1     123.852 127.153 131.730  1.00  0.00     0.293 HD
ENDBRANCH   2  20
BRANCH   6  22
ATOM     22  O   UNL     1     119.786 124.100 132.315  1.00  0.00    -0.507 OA
ATOM     23  H   UNL     1     120.645 123.631 132.055  1.00  0.00     0.293 HD
ENDBRANCH   6  22
BRANCH   8  24
ATOM     24  O   UNL     1     115.954 125.640 129.820  1.00  0.00    -0.508 OA
ATOM     25  H   UNL     1     115.688 124.819 129.290  1.00  0.00     0.293 HD
ENDBRANCH   8  24
TORSDOF 5
ENDMDL
MODEL 2
REMARK VINA RESULT:    -5.234     14.789     17.506
REMARK INTER + INTRA:          -6.383
REMARK INTER:                  -6.089
REMARK INTRA:                  -0.294
REMARK UNBOUND:                -0.231
REMARK SMILES O=c1c(O)c(-c2ccc(O)cc2)oc2cc(O)cc(O)c12
REMARK SMILES IDX 5 1 3 2 2 3 1 4 21 5 19 6 18 7 16 8 15 9 14 10 13 11 6 12
REMARK SMILES IDX 7 13 8 14 9 15 12 16 11 17 10 18 4 20 20 22 17 24
REMARK H PARENT 10 19 4 21 20 23 17 25
REMARK Flexibility Score: inf
ROOT
ATOM      1  C   UNL     1     135.135 133.741 134.622  1.00  0.00     0.180 A 
ATOM      2  C   UNL     1     134.995 134.864 135.460  1.00  0.00     0.208 A 
ATOM      3  C   UNL     1     135.134 136.146 134.905  1.00  0.00     0.238 A 
ATOM      4  O   UNL     1     135.020 137.159 135.647  1.00  0.00    -0.285 OA
ATOM      5  C   UNL     1     135.390 136.284 133.525  1.00  0.00     0.111 A 
ATOM      6  C   UNL     1     135.540 137.539 132.888  1.00  0.00     0.134 A 
ATOM      7  C   UNL     1     135.785 137.593 131.506  1.00  0.00     0.093 A 
ATOM      8  C   UNL     1     135.882 136.421 130.754  1.00  0.00     0.123 A 
ATOM      9  C   UNL     1     135.736 135.178 131.379  1.00  0.00     0.094 A 
ATOM     10  C   UNL     1     135.493 135.102 132.754  1.00  0.00     0.146 A 
ATOM     11  O   UNL     1     135.362 133.910 133.323  1.00  0.00    -0.452 OA
ENDROOT
BRANCH   1  12
ATOM     12  C   UNL     1     135.021 132.357 135.137  1.00  0.00     0.021 A 
ATOM     13  C   UNL     1     136.122 131.695 135.711  1.00  0.00     0.016 A 
ATOM     14  C   UNL     1     135.995 130.380 136.168  1.00  0.00     0.047 A 
ATOM     15  C   UNL     1     134.774 129.704 136.044  1.00  0.00     0.115 A 
ATOM     16  C   UNL     1     133.806 131.665 134.997  1.00  0.00     0.016 A 
ATOM     17  C   UNL     1     133.683 130.350 135.456  1.00  0.00     0.047 A 
BRANCH  15  18
ATOM     18  O   UNL     1     134.635 128.395 136.497  1.00  0.00    -0.508 OA
ATOM     19  H   UNL     1     134.675 127.607 135.859  1.00  0.00     0.293 HD
ENDBRANCH  15  18
ENDBRANCH   1  12
BRANCH   2  20
ATOM     20  O   UNL     1     134.691 134.701 136.814  1.00  0.00    -0.502 OA
ATOM     21  H   UNL     1     134.757 135.462 137.480  1.00  0.00     0.293 HD
ENDBRANCH   2  20
BRANCH   6  22
ATOM     22  O   UNL     1     135.447 138.729 133.611  1.00  0.00    -0.507 OA
ATOM     23  H   UNL     1     136.271 139.228 133.924  1.00  0.00     0.293 HD
ENDBRANCH   6  22
BRANCH   8  24
ATOM     24  O   UNL     1     136.125 136.502 129.384  1.00  0.00    -0.508 OA
ATOM     25  H   UNL     1     136.987 136.893 129.021  1.00  0.00     0.293 HD
ENDBRANCH   8  24
TORSDOF 5
ENDMDL
MODEL 3
REMARK VINA RESULT:    -5.191      1.336      3.061
REMARK INTER + INTRA:          -6.332
REMARK INTER:                  -6.234
REMARK INTRA:                  -0.098
REMARK UNBOUND:                -0.231
REMARK SMILES O=c1c(O)c(-c2ccc(O)cc2)oc2cc(O)cc(O)c12
REMARK SMILES IDX 5 1 3 2 2 3 1 4 21 5 19 6 18 7 16 8 15 9 14 10 13 11 6 12
REMARK SMILES IDX 7 13 8 14 9 15 12 16 11 17 10 18 4 20 20 22 17 24
REMARK H PARENT 10 19 4 21 20 23 17 25
REMARK Flexibility Score: inf
ROOT
ATOM      1  C   UNL     1     120.578 128.537 129.839  1.00  0.00     0.180 A 
ATOM      2  C   UNL     1     119.516 128.018 129.075  1.00  0.00     0.208 A 
ATOM      3  C   UNL     1     118.894 126.832 129.497  1.00  0.00     0.238 A 
ATOM      4  O   UNL     1     117.947 126.351 128.815  1.00  0.00    -0.285 OA
ATOM      5  C   UNL     1     119.329 126.199 130.680  1.00  0.00     0.111 A 
ATOM      6  C   UNL     1     118.753 125.005 131.175  1.00  0.00     0.134 A 
ATOM      7  C   UNL     1     119.236 124.441 132.366  1.00  0.00     0.093 A 
ATOM      8  C   UNL     1     120.280 125.047 133.068  1.00  0.00     0.123 A 
ATOM      9  C   UNL     1     120.853 126.226 132.583  1.00  0.00     0.094 A 
ATOM     10  C   UNL     1     120.387 126.803 131.398  1.00  0.00     0.146 A 
ATOM     11  O   UNL     1     120.952 127.921 130.957  1.00  0.00    -0.452 OA
ENDROOT
BRANCH   1  12
ATOM     12  C   UNL     1     121.297 129.772 129.449  1.00  0.00     0.021 A 
ATOM     13  C   UNL     1     121.954 129.878 128.210  1.00  0.00     0.016 A 
ATOM     14  C   UNL     1     122.647 131.046 127.875  1.00  0.00     0.047 A 
ATOM     15  C   UNL     1     122.703 132.116 128.778  1.00  0.00     0.115 A 
ATOM     16  C   UNL     1     121.377 130.841 130.358  1.00  0.00     0.016 A 
ATOM     17  C   UNL     1     122.069 132.008 130.019  1.00  0.00     0.047 A 
BRANCH  15  18
ATOM     18  O   UNL     1     123.388 133.284 128.455  1.00  0.00    -0.508 OA
ATOM     19  H   UNL     1     122.981 134.198 128.614  1.00  0.00     0.293 HD
ENDBRANCH  15  18
ENDBRANCH   1  12
BRANCH   2  20
ATOM     20  O   UNL     1     119.072 128.691 127.934  1.00  0.00    -0.502 OA
ATOM     21  H   UNL     1     118.208 129.220 127.919  1.00  0.00     0.293 HD
ENDBRANCH   2  20
BRANCH   6  22
ATOM     22  O   UNL     1     117.707 124.375 130.498  1.00  0.00    -0.507 OA
ATOM     23  H   UNL     1     117.777 124.133 129.516  1.00  0.00     0.293 HD
ENDBRANCH   6  22
BRANCH   8  24
ATOM     24  O   UNL     1     120.740 124.467 134.249  1.00  0.00    -0.508 OA
ATOM     25  H   UNL     1     120.207 123.753 134.732  1.00  0.00     0.293 HD
ENDBRANCH   8  24
TORSDOF 5
ENDMDL
MODEL 4
REMARK VINA RESULT:    -5.129      1.932      2.972
REMARK INTER + INTRA:          -6.260
REMARK INTER:                  -6.168
REMARK INTRA:                  -0.092
REMARK UNBOUND:                -0.231
REMARK SMILES O=c1c(O)c(-c2ccc(O)cc2)oc2cc(O)cc(O)c12
REMARK SMILES IDX 5 1 3 2 2 3 1 4 21 5 19 6 18 7 16 8 15 9 14 10 13 11 6 12
REMARK SMILES IDX 7 13 8 14 9 15 12 16 11 17 10 18 4 20 20 22 17 24
REMARK H PARENT 10 19 4 21 20 23 17 25
REMARK Flexibility Score: inf
ROOT
ATOM      1  C   UNL     1     119.800 129.330 130.840  1.00  0.00     0.180 A 
ATOM      2  C   UNL     1     118.574 129.766 131.378  1.00  0.00     0.208 A 
ATOM      3  C   UNL     1     117.660 128.809 131.845  1.00  0.00     0.238 A 
ATOM      4  O   UNL     1     116.554 129.187 132.320  1.00  0.00    -0.285 OA
ATOM      5  C   UNL     1     117.992 127.440 131.785  1.00  0.00     0.111 A 
ATOM      6  C   UNL     1     117.130 126.413 132.238  1.00  0.00     0.134 A 
ATOM      7  C   UNL     1     117.538 125.073 132.153  1.00  0.00     0.093 A 
ATOM      8  C   UNL     1     118.788 124.741 131.626  1.00  0.00     0.123 A 
ATOM      9  C   UNL     1     119.644 125.752 131.176  1.00  0.00     0.094 A 
ATOM     10  C   UNL     1     119.256 127.092 131.251  1.00  0.00     0.146 A 
ATOM     11  O   UNL     1     120.086 128.031 130.813  1.00  0.00    -0.452 OA
ENDROOT
BRANCH   1  12
ATOM     12  C   UNL     1     120.807 130.277 130.309  1.00  0.00     0.021 A 
ATOM     13  C   UNL     1     121.392 131.261 131.127  1.00  0.00     0.016 A 
ATOM     14  C   UNL     1     122.323 132.159 130.595  1.00  0.00     0.047 A 
ATOM     15  C   UNL     1     122.670 132.096 129.239  1.00  0.00     0.115 A 
ATOM     16  C   UNL     1     121.145 130.234 128.945  1.00  0.00     0.016 A 
ATOM     17  C   UNL     1     122.077 131.133 128.418  1.00  0.00     0.047 A 
BRANCH  15  18
ATOM     18  O   UNL     1     123.597 132.984 128.700  1.00  0.00    -0.508 OA
ATOM     19  H   UNL     1     123.634 133.954 128.993  1.00  0.00     0.293 HD
ENDBRANCH  15  18
ENDBRANCH   1  12
BRANCH   2  20
ATOM     20  O   UNL     1     118.289 131.131 131.471  1.00  0.00    -0.502 OA
ATOM     21  H   UNL     1     118.279 131.739 130.661  1.00  0.00     0.293 HD
ENDBRANCH   2  20
BRANCH   6  22
ATOM     22  O   UNL     1     115.875 126.711 132.772  1.00  0.00    -0.507 OA
ATOM     23  H   UNL     1     115.212 127.298 132.279  1.00  0.00     0.293 HD
ENDBRANCH   6  22
BRANCH   8  24
ATOM     24  O   UNL     1     119.169 123.403 131.554  1.00  0.00    -0.508 OA
ATOM     25  H   UNL     1     118.538 122.690 131.209  1.00  0.00     0.293 HD
ENDBRANCH   8  24
TORSDOF 5
ENDMDL
MODEL 5
REMARK VINA RESULT:    -4.911     10.049     14.652
REMARK INTER + INTRA:          -6.003
REMARK INTER:                  -5.705
REMARK INTRA:                  -0.298
REMARK UNBOUND:                -0.231
REMARK SMILES O=c1c(O)c(-c2ccc(O)cc2)oc2cc(O)cc(O)c12
REMARK SMILES IDX 5 1 3 2 2 3 1 4 21 5 19 6 18 7 16 8 15 9 14 10 13 11 6 12
REMARK SMILES IDX 7 13 8 14 9 15 12 16 11 17 10 18 4 20 20 22 17 24
REMARK H PARENT 10 19 4 21 20 23 17 25
REMARK Flexibility Score: inf
ROOT
ATOM      1  C   UNL     1     132.190 133.687 129.477  1.00  0.00     0.180 A 
ATOM      2  C   UNL     1     133.545 133.738 129.857  1.00  0.00     0.208 A 
ATOM      3  C   UNL     1     134.162 134.991 130.001  1.00  0.00     0.238 A 
ATOM      4  O   UNL     1     135.378 135.049 130.332  1.00  0.00    -0.285 OA
ATOM      5  C   UNL     1     133.414 136.166 129.784  1.00  0.00     0.111 A 
ATOM      6  C   UNL     1     133.959 137.465 129.912  1.00  0.00     0.134 A 
ATOM      7  C   UNL     1     133.145 138.587 129.687  1.00  0.00     0.093 A 
ATOM      8  C   UNL     1     131.802 138.434 129.338  1.00  0.00     0.123 A 
ATOM      9  C   UNL     1     131.258 137.152 129.209  1.00  0.00     0.094 A 
ATOM     10  C   UNL     1     132.052 136.022 129.428  1.00  0.00     0.146 A 
ATOM     11  O   UNL     1     131.512 134.817 129.295  1.00  0.00    -0.452 OA
ENDROOT
BRANCH   1  12
ATOM     12  C   UNL     1     131.475 132.405 129.286  1.00  0.00     0.021 A 
ATOM     13  C   UNL     1     131.447 131.759 128.036  1.00  0.00     0.016 A 
ATOM     14  C   UNL     1     130.744 130.561 127.875  1.00  0.00     0.047 A 
ATOM     15  C   UNL     1     130.049 130.000 128.955  1.00  0.00     0.115 A 
ATOM     16  C   UNL     1     130.757 131.847 130.358  1.00  0.00     0.016 A 
ATOM     17  C   UNL     1     130.057 130.648 130.194  1.00  0.00     0.047 A 
BRANCH  15  18
ATOM     18  O   UNL     1     129.348 128.807 128.807  1.00  0.00    -0.508 OA
ATOM     19  H   UNL     1     128.917 128.552 127.925  1.00  0.00     0.293 HD
ENDBRANCH  15  18
ENDBRANCH   1  12
BRANCH   2  20
ATOM     20  O   UNL     1     134.251 132.560 130.115  1.00  0.00    -0.502 OA
ATOM     21  H   UNL     1     134.373 131.837 129.416  1.00  0.00     0.293 HD
ENDBRANCH   2  20
BRANCH   6  22
ATOM     22  O   UNL     1     135.297 137.653 130.260  1.00  0.00    -0.507 OA
ATOM     23  H   UNL     1     135.671 137.318 131.141  1.00  0.00     0.293 HD
ENDBRANCH   6  22
BRANCH   8  24
ATOM     24  O   UNL     1     131.016 139.564 129.122  1.00  0.00    -0.508 OA
ATOM     25  H   UNL     1     130.642 140.105 129.893  1.00  0.00     0.293 HD
ENDBRANCH   8  24
TORSDOF 5
ENDMDL
MODEL 6
REMARK VINA RESULT:    -4.881     11.197     13.376
REMARK INTER + INTRA:          -5.968
REMARK INTER:                  -5.735
REMARK INTRA:                  -0.233
REMARK UNBOUND:                -0.231
REMARK SMILES O=c1c(O)c(-c2ccc(O)cc2)oc2cc(O)cc(O)c12
REMARK SMILES IDX 5 1 3 2 2 3 1 4 21 5 19 6 18 7 16 8 15 9 14 10 13 11 6 12
REMARK SMILES IDX 7 13 8 14 9 15 12 16 11 17 10 18 4 20 20 22 17 24
REMARK H PARENT 10 19 4 21 20 23 17 25
REMARK Flexibility Score: inf
ROOT
ATOM      1  C   UNL     1     123.575 123.045 140.896  1.00  0.00     0.180 A 
ATOM      2  C   UNL     1     124.874 122.504 140.847  1.00  0.00     0.208 A 
ATOM      3  C   UNL     1     125.449 122.013 142.029  1.00  0.00     0.238 A 
ATOM      4  O   UNL     1     126.616 121.535 142.000  1.00  0.00    -0.285 OA
ATOM      5  C   UNL     1     124.713 122.053 143.231  1.00  0.00     0.111 A 
ATOM      6  C   UNL     1     125.218 121.575 144.464  1.00  0.00     0.134 A 
ATOM      7  C   UNL     1     124.418 121.641 145.616  1.00  0.00     0.093 A 
ATOM      8  C   UNL     1     123.129 122.173 145.558  1.00  0.00     0.123 A 
ATOM      9  C   UNL     1     122.625 122.647 144.342  1.00  0.00     0.094 A 
ATOM     10  C   UNL     1     123.405 122.592 143.184  1.00  0.00     0.146 A 
ATOM     11  O   UNL     1     122.905 123.052 142.044  1.00  0.00    -0.452 OA
ENDROOT
BRANCH   1  12
ATOM     12  C   UNL     1     122.908 123.600 139.695  1.00  0.00     0.021 A 
ATOM     13  C   UNL     1     122.378 122.763 138.697  1.00  0.00     0.016 A 
ATOM     14  C   UNL     1     121.775 123.312 137.561  1.00  0.00     0.047 A 
ATOM     15  C   UNL     1     121.707 124.703 137.401  1.00  0.00     0.115 A 
ATOM     16  C   UNL     1     122.855 124.993 139.517  1.00  0.00     0.016 A 
ATOM     17  C   UNL     1     122.250 125.539 138.380  1.00  0.00     0.047 A 
BRANCH  15  18
ATOM     18  O   UNL     1     121.107 125.260 136.275  1.00  0.00    -0.508 OA
ATOM     19  H   UNL     1     120.117 125.145 136.090  1.00  0.00     0.293 HD
ENDBRANCH  15  18
ENDBRANCH   1  12
BRANCH   2  20
ATOM     20  O   UNL     1     125.563 122.431 139.634  1.00  0.00    -0.502 OA
ATOM     21  H   UNL     1     125.203 122.841 138.779  1.00  0.00     0.293 HD
ENDBRANCH   2  20
BRANCH   6  22
ATOM     22  O   UNL     1     126.502 121.037 144.556  1.00  0.00    -0.507 OA
ATOM     23  H   UNL     1     127.220 121.465 145.127  1.00  0.00     0.293 HD
ENDBRANCH   6  22
BRANCH   8  24
ATOM     24  O   UNL     1     122.355 122.226 146.716  1.00  0.00    -0.508 OA
ATOM     25  H   UNL     1     122.383 123.027 147.336  1.00  0.00     0.293 HD
ENDBRANCH   8  24
TORSDOF 5
ENDMDL
MODEL 7
REMARK VINA RESULT:    -4.861     14.913     18.578
REMARK INTER + INTRA:          -5.944
REMARK INTER:                  -5.742
REMARK INTRA:                  -0.202
REMARK UNBOUND:                -0.231
REMARK SMILES O=c1c(O)c(-c2ccc(O)cc2)oc2cc(O)cc(O)c12
REMARK SMILES IDX 5 1 3 2 2 3 1 4 21 5 19 6 18 7 16 8 15 9 14 10 13 11 6 12
REMARK SMILES IDX 7 13 8 14 9 15 12 16 11 17 10 18 4 20 20 22 17 24
REMARK H PARENT 10 19 4 21 20 23 17 25
REMARK Flexibility Score: inf
ROOT
ATOM      1  C   UNL     1     131.190 138.924 138.687  1.00  0.00     0.180 A 
ATOM      2  C   UNL     1     132.327 139.314 137.954  1.00  0.00     0.208 A 
ATOM      3  C   UNL     1     133.588 139.233 138.565  1.00  0.00     0.238 A 
ATOM      4  O   UNL     1     134.613 139.588 137.923  1.00  0.00    -0.285 OA
ATOM      5  C   UNL     1     133.693 138.746 139.885  1.00  0.00     0.111 A 
ATOM      6  C   UNL     1     134.926 138.629 140.571  1.00  0.00     0.134 A 
ATOM      7  C   UNL     1     134.948 138.127 141.882  1.00  0.00     0.093 A 
ATOM      8  C   UNL     1     133.766 137.741 142.516  1.00  0.00     0.123 A 
ATOM      9  C   UNL     1     132.545 137.856 141.843  1.00  0.00     0.094 A 
ATOM     10  C   UNL     1     132.501 138.355 140.538  1.00  0.00     0.146 A 
ATOM     11  O   UNL     1     131.329 138.457 139.924  1.00  0.00    -0.452 OA
ENDROOT
BRANCH   1  12
ATOM     12  C   UNL     1     129.824 139.000 138.118  1.00  0.00     0.021 A 
ATOM     13  C   UNL     1     129.398 138.113 137.113  1.00  0.00     0.016 A 
ATOM     14  C   UNL     1     128.111 138.221 136.576  1.00  0.00     0.047 A 
ATOM     15  C   UNL     1     127.241 139.223 137.025  1.00  0.00     0.115 A 
ATOM     16  C   UNL     1     128.953 140.015 138.548  1.00  0.00     0.016 A 
ATOM     17  C   UNL     1     127.667 140.119 138.009  1.00  0.00     0.047 A 
BRANCH  15  18
ATOM     18  O   UNL     1     125.957 139.339 136.498  1.00  0.00    -0.508 OA
ATOM     19  H   UNL     1     125.232 138.664 136.715  1.00  0.00     0.293 HD
ENDBRANCH  15  18
ENDBRANCH   1  12
BRANCH   2  20
ATOM     20  O   UNL     1     132.201 139.745 136.631  1.00  0.00    -0.502 OA
ATOM     21  H   UNL     1     131.321 139.708 136.130  1.00  0.00     0.293 HD
ENDBRANCH   2  20
BRANCH   6  22
ATOM     22  O   UNL     1     136.125 139.005 139.964  1.00  0.00    -0.507 OA
ATOM     23  H   UNL     1     136.857 138.332 139.769  1.00  0.00     0.293 HD
ENDBRANCH   6  22
BRANCH   8  24
ATOM     24  O   UNL     1     133.815 137.244 143.817  1.00  0.00    -0.508 OA
ATOM     25  H   UNL     1     133.785 136.249 144.006  1.00  0.00     0.293 HD
ENDBRANCH   8  24
TORSDOF 5
ENDMDL
