MODEL 1
REMARK VINA RESULT:     4.365      0.000      0.000
REMARK INTER + INTRA:           5.326
REMARK INTER:                   5.386
REMARK INTRA:                  -0.060
REMARK UNBOUND:                -0.060
REMARK SMILES CCCCCC(=O)[O-]
REMARK SMILES IDX 4 1 5 2 6 3 7 4 8 5 3 6 2 7 1 8
REMARK H PARENT
REMARK Flexibility Score: inf
ROOT
ATOM      1  C   UNL     1      -1.249  -8.519  24.346  1.00  0.00     0.006 C 
ENDROOT
BRANCH   1   2
ATOM      2  C   UNL     1      -0.949  -9.089  25.742  1.00  0.00     0.053 C 
BRANCH   2   3
ATOM      3  C   UNL     1       0.248  -8.441  26.366  1.00  0.00     0.041 C 
ATOM      4  O   UNL     1       1.004  -9.103  27.125  1.00  0.00    -0.550 OA
ATOM      5  O   UNL     1       0.511  -7.097  26.135  1.00  0.00    -0.550 OA
ENDBRANCH   2   3
ENDBRANCH   1   2
BRANCH   1   6
ATOM      6  C   UNL     1      -2.751  -8.386  24.020  1.00  0.00     0.000 C 
BRANCH   6   7
ATOM      7  C   UNL     1      -3.133  -7.126  23.224  1.00  0.00    -0.003 C 
ATOM      8  C   UNL     1      -2.820  -7.244  21.733  1.00  0.00     0.004 C 
ENDBRANCH   6   7
ENDBRANCH   1   6
TORSDOF 4
ENDMDL
MODEL 2
REMARK VINA RESULT:     4.834      2.688      4.515
REMARK INTER + INTRA:           5.905
REMARK INTER:                   5.972
REMARK INTRA:                  -0.067
REMARK UNBOUND:                -0.060
REMARK SMILES CCCCCC(=O)[O-]
REMARK SMILES IDX 4 1 5 2 6 3 7 4 8 5 3 6 2 7 1 8
REMARK H PARENT
REMARK Flexibility Score: inf
ROOT
ATOM      1  C   UNL     1      -1.049  -8.840  24.884  1.00  0.00     0.006 C 
ENDROOT
BRANCH   1   2
ATOM      2  C   UNL     1      -2.511  -8.549  24.508  1.00  0.00     0.053 C 
BRANCH   2   3
ATOM      3  C   UNL     1      -2.613  -7.692  23.284  1.00  0.00     0.041 C 
ATOM      4  O   UNL     1      -3.579  -6.896  23.146  1.00  0.00    -0.550 OA
ATOM      5  O   UNL     1      -1.660  -7.797  22.279  1.00  0.00    -0.550 OA
ENDBRANCH   2   3
ENDBRANCH   1   2
BRANCH   1   6
ATOM      6  C   UNL     1      -0.232  -7.595  25.282  1.00  0.00     0.000 C 
BRANCH   6   7
ATOM      7  C   UNL     1       0.545  -7.724  26.604  1.00  0.00    -0.003 C 
ATOM      8  C   UNL     1       0.603  -9.160  27.125  1.00  0.00     0.004 C 
ENDBRANCH   6   7
ENDBRANCH   1   6
TORSDOF 4
ENDMDL
MODEL 3
REMARK VINA RESULT:     5.514      1.035      1.698
REMARK INTER + INTRA:           6.743
REMARK INTER:                   6.848
REMARK INTRA:                  -0.105
REMARK UNBOUND:                -0.060
REMARK SMILES CCCCCC(=O)[O-]
REMARK SMILES IDX 4 1 5 2 6 3 7 4 8 5 3 6 2 7 1 8
REMARK H PARENT
REMARK Flexibility Score: inf
ROOT
ATOM      1  C   UNL     1      -1.251  -8.299  24.293  1.00  0.00     0.006 C 
ENDROOT
BRANCH   1   2
ATOM      2  C   UNL     1      -0.912  -9.013  25.611  1.00  0.00     0.053 C 
BRANCH   2   3
ATOM      3  C   UNL     1       0.247  -8.373  26.311  1.00  0.00     0.041 C 
ATOM      4  O   UNL     1       0.944  -9.038  27.122  1.00  0.00    -0.550 OA
ATOM      5  O   UNL     1       0.538  -7.032  26.093  1.00  0.00    -0.550 OA
ENDBRANCH   2   3
ENDBRANCH   1   2
BRANCH   1   6
ATOM      6  C   UNL     1      -2.761  -8.174  24.005  1.00  0.00     0.000 C 
BRANCH   6   7
ATOM      7  C   UNL     1      -3.677  -8.861  25.033  1.00  0.00    -0.003 C 
ATOM      8  C   UNL     1      -5.146  -8.872  24.611  1.00  0.00     0.004 C 
ENDBRANCH   6   7
ENDBRANCH   1   6
TORSDOF 4
ENDMDL
MODEL 4
REMARK VINA RESULT:     5.947      2.118      2.961
REMARK INTER + INTRA:           7.277
REMARK INTER:                   7.325
REMARK INTRA:                  -0.048
REMARK UNBOUND:                -0.060
REMARK SMILES CCCCCC(=O)[O-]
REMARK SMILES IDX 4 1 5 2 6 3 7 4 8 5 3 6 2 7 1 8
REMARK H PARENT
REMARK Flexibility Score: inf
ROOT
ATOM      1  C   UNL     1      -2.068  -7.639  22.453  1.00  0.00     0.006 C 
ENDROOT
BRANCH   1   2
ATOM      2  C   UNL     1      -2.492  -8.069  23.866  1.00  0.00     0.053 C 
BRANCH   2   3
ATOM      3  C   UNL     1      -1.546  -9.071  24.454  1.00  0.00     0.041 C 
ATOM      4  O   UNL     1      -0.936  -8.815  25.525  1.00  0.00    -0.550 OA
ATOM      5  O   UNL     1      -1.313 -10.274  23.799  1.00  0.00    -0.550 OA
ENDBRANCH   2   3
ENDBRANCH   1   2
BRANCH   1   6
ATOM      6  C   UNL     1      -3.206  -7.043  21.599  1.00  0.00     0.000 C 
BRANCH   6   7
ATOM      7  C   UNL     1      -2.919  -6.980  20.089  1.00  0.00    -0.003 C 
ATOM      8  C   UNL     1      -4.067  -7.526  19.240  1.00  0.00     0.004 C 
ENDBRANCH   6   7
ENDBRANCH   1   6
TORSDOF 4
ENDMDL
MODEL 5
REMARK VINA RESULT:     6.873      9.571     10.327
REMARK INTER + INTRA:           8.421
REMARK INTER:                   8.545
REMARK INTRA:                  -0.124
REMARK UNBOUND:                -0.060
REMARK SMILES CCCCCC(=O)[O-]
REMARK SMILES IDX 4 1 5 2 6 3 7 4 8 5 3 6 2 7 1 8
REMARK H PARENT
REMARK Flexibility Score: inf
ROOT
ATOM      1  C   UNL     1      -4.597 -17.371  26.155  1.00  0.00     0.006 C 
ENDROOT
BRANCH   1   2
ATOM      2  C   UNL     1      -5.550 -18.389  25.509  1.00  0.00     0.053 C 
BRANCH   2   3
ATOM      3  C   UNL     1      -5.570 -18.269  24.016  1.00  0.00     0.041 C 
ATOM      4  O   UNL     1      -6.501 -18.791  23.350  1.00  0.00    -0.550 OA
ATOM      5  O   UNL     1      -4.541 -17.607  23.358  1.00  0.00    -0.550 OA
ENDBRANCH   2   3
ENDBRANCH   1   2
BRANCH   1   6
ATOM      6  C   UNL     1      -5.281 -16.080  26.649  1.00  0.00     0.000 C 
BRANCH   6   7
ATOM      7  C   UNL     1      -4.701 -14.777  26.071  1.00  0.00    -0.003 C 
ATOM      8  C   UNL     1      -5.774 -13.740  25.740  1.00  0.00     0.004 C 
ENDBRANCH   6   7
ENDBRANCH   1   6
TORSDOF 4
ENDMDL
MODEL 6
REMARK VINA RESULT:     6.890      9.747     10.562
REMARK INTER + INTRA:           8.441
REMARK INTER:                   7.928
REMARK INTRA:                   0.513
REMARK UNBOUND:                -0.060
REMARK SMILES CCCCCC(=O)[O-]
REMARK SMILES IDX 4 1 5 2 6 3 7 4 8 5 3 6 2 7 1 8
REMARK H PARENT
REMARK Flexibility Score: inf
ROOT
ATOM      1  C   UNL     1      -5.491 -18.143  25.977  1.00  0.00     0.006 C 
ENDROOT
BRANCH   1   2
ATOM      2  C   UNL     1      -5.805 -18.843  24.645  1.00  0.00     0.053 C 
BRANCH   2   3
ATOM      3  C   UNL     1      -5.373 -18.024  23.468  1.00  0.00     0.041 C 
ATOM      4  O   UNL     1      -6.214 -17.667  22.601  1.00  0.00    -0.550 OA
ATOM      5  O   UNL     1      -4.036 -17.683  23.311  1.00  0.00    -0.550 OA
ENDBRANCH   2   3
ENDBRANCH   1   2
BRANCH   1   6
ATOM      6  C   UNL     1      -4.666 -16.848  25.840  1.00  0.00     0.000 C 
BRANCH   6   7
ATOM      7  C   UNL     1      -5.151 -15.674  26.708  1.00  0.00    -0.003 C 
ATOM      8  C   UNL     1      -4.872 -14.310  26.078  1.00  0.00     0.004 C 
ENDBRANCH   6   7
ENDBRANCH   1   6
TORSDOF 4
ENDMDL
MODEL 7
REMARK VINA RESULT:     6.927      9.788     10.580
REMARK INTER + INTRA:           8.487
REMARK INTER:                   7.821
REMARK INTRA:                   0.666
REMARK UNBOUND:                -0.060
REMARK SMILES CCCCCC(=O)[O-]
REMARK SMILES IDX 4 1 5 2 6 3 7 4 8 5 3 6 2 7 1 8
REMARK H PARENT
REMARK Flexibility Score: inf
ROOT
ATOM      1  C   UNL     1      -5.413 -18.159  26.003  1.00  0.00     0.006 C 
ENDROOT
BRANCH   1   2
ATOM      2  C   UNL     1      -5.768 -18.885  24.696  1.00  0.00     0.053 C 
BRANCH   2   3
ATOM      3  C   UNL     1      -5.397 -18.079  23.489  1.00  0.00     0.041 C 
ATOM      4  O   UNL     1      -4.217 -17.667  23.340  1.00  0.00    -0.550 OA
ATOM      5  O   UNL     1      -6.364 -17.755  22.545  1.00  0.00    -0.550 OA
ENDBRANCH   2   3
ENDBRANCH   1   2
BRANCH   1   6
ATOM      6  C   UNL     1      -4.638 -16.839  25.811  1.00  0.00     0.000 C 
BRANCH   6   7
ATOM      7  C   UNL     1      -5.095 -15.681  26.713  1.00  0.00    -0.003 C 
ATOM      8  C   UNL     1      -4.896 -14.308  26.071  1.00  0.00     0.004 C 
ENDBRANCH   6   7
ENDBRANCH   1   6
TORSDOF 4
ENDMDL
