MODEL 1
REMARK VINA RESULT:    -6.550      0.000      0.000
REMARK INTER + INTRA:          -6.550
REMARK INTER:                  -6.550
REMARK INTRA:                   0.000
REMARK UNBOUND:                 0.000
REMARK SMILES CC1=CC(=O)[C@H]2C[C@@H]1C2(C)C
REMARK SMILES IDX 1 1 2 2 3 3 4 4 5 5 6 6 7 7 8 8 9 9 10 10 11 11
REMARK H PARENT
REMARK Flexibility Score: inf
ROOT
ATOM      1  C   UNL     1      81.025   6.333  27.339  1.00  0.00     0.040 C 
ATOM      2  C   UNL     1      82.370   5.696  27.187  1.00  0.00    -0.066 C 
ATOM      3  C   UNL     1      82.961   5.571  25.967  1.00  0.00     0.047 C 
ATOM      4  C   UNL     1      84.295   4.887  25.942  1.00  0.00     0.159 C 
ATOM      5  O   UNL     1      84.923   4.677  24.872  1.00  0.00    -0.295 OA
ATOM      6  C   UNL     1      84.837   4.462  27.308  1.00  0.00     0.067 C 
ATOM      7  C   UNL     1      84.600   5.695  28.208  1.00  0.00     0.021 C 
ATOM      8  C   UNL     1      83.161   5.167  28.403  1.00  0.00     0.022 C 
ATOM      9  C   UNL     1      83.702   3.742  28.089  1.00  0.00    -0.019 C 
ATOM     10  C   UNL     1      84.225   3.017  29.355  1.00  0.00     0.012 C 
ATOM     11  C   UNL     1      82.779   2.760  27.312  1.00  0.00     0.012 C 
ENDROOT
TORSDOF 0
ENDMDL
MODEL 2
REMARK VINA RESULT:    -6.507      1.745      3.427
REMARK INTER + INTRA:          -6.507
REMARK INTER:                  -6.507
REMARK INTRA:                   0.000
REMARK UNBOUND:                 0.000
REMARK SMILES CC1=CC(=O)[C@H]2C[C@@H]1C2(C)C
REMARK SMILES IDX 1 1 2 2 3 3 4 4 5 5 6 6 7 7 8 8 9 9 10 10 11 11
REMARK H PARENT
REMARK Flexibility Score: inf
ROOT
ATOM      1  C   UNL     1      82.300   3.317  30.496  1.00  0.00     0.040 C 
ATOM      2  C   UNL     1      83.241   3.329  29.334  1.00  0.00    -0.066 C 
ATOM      3  C   UNL     1      84.547   2.972  29.475  1.00  0.00     0.047 C 
ATOM      4  C   UNL     1      85.396   3.055  28.243  1.00  0.00     0.159 C 
ATOM      5  O   UNL     1      86.626   2.788  28.254  1.00  0.00    -0.295 OA
ATOM      6  C   UNL     1      84.662   3.488  26.972  1.00  0.00     0.067 C 
ATOM      7  C   UNL     1      83.365   2.649  26.981  1.00  0.00     0.021 C 
ATOM      8  C   UNL     1      82.777   3.729  27.917  1.00  0.00     0.022 C 
ATOM      9  C   UNL     1      83.794   4.734  27.302  1.00  0.00    -0.019 C 
ATOM     10  C   UNL     1      83.245   5.425  26.028  1.00  0.00     0.012 C 
ATOM     11  C   UNL     1      84.395   5.829  28.228  1.00  0.00     0.012 C 
ENDROOT
TORSDOF 0
ENDMDL
MODEL 3
REMARK VINA RESULT:    -6.035      2.242      3.905
REMARK INTER + INTRA:          -6.035
REMARK INTER:                  -6.035
REMARK INTRA:                   0.000
REMARK UNBOUND:                 0.000
REMARK SMILES CC1=CC(=O)[C@H]2C[C@@H]1C2(C)C
REMARK SMILES IDX 1 1 2 2 3 3 4 4 5 5 6 6 7 7 8 8 9 9 10 10 11 11
REMARK H PARENT
REMARK Flexibility Score: inf
ROOT
ATOM      1  C   UNL     1      86.467   2.947  28.487  1.00  0.00     0.040 C 
ATOM      2  C   UNL     1      85.106   3.533  28.693  1.00  0.00    -0.066 C 
ATOM      3  C   UNL     1      84.237   3.008  29.600  1.00  0.00     0.047 C 
ATOM      4  C   UNL     1      82.893   3.666  29.691  1.00  0.00     0.159 C 
ATOM      5  O   UNL     1      81.991   3.248  30.463  1.00  0.00    -0.295 OA
ATOM      6  C   UNL     1      82.696   4.878  28.779  1.00  0.00     0.067 C 
ATOM      7  C   UNL     1      83.990   5.701  28.959  1.00  0.00     0.021 C 
ATOM      8  C   UNL     1      84.626   4.770  27.903  1.00  0.00     0.022 C 
ATOM      9  C   UNL     1      83.194   4.510  27.353  1.00  0.00    -0.019 C 
ATOM     10  C   UNL     1      82.770   5.558  26.292  1.00  0.00     0.012 C 
ATOM     11  C   UNL     1      82.865   3.095  26.798  1.00  0.00     0.012 C 
ENDROOT
TORSDOF 0
ENDMDL
MODEL 4
REMARK VINA RESULT:    -6.030      1.618      3.191
REMARK INTER + INTRA:          -6.030
REMARK INTER:                  -6.030
REMARK INTRA:                   0.000
REMARK UNBOUND:                 0.000
REMARK SMILES CC1=CC(=O)[C@H]2C[C@@H]1C2(C)C
REMARK SMILES IDX 1 1 2 2 3 3 4 4 5 5 6 6 7 7 8 8 9 9 10 10 11 11
REMARK H PARENT
REMARK Flexibility Score: inf
ROOT
ATOM      1  C   UNL     1      82.516   1.476  27.124  1.00  0.00     0.040 C 
ATOM      2  C   UNL     1      83.263   2.742  27.403  1.00  0.00    -0.066 C 
ATOM      3  C   UNL     1      84.499   2.725  27.973  1.00  0.00     0.047 C 
ATOM      4  C   UNL     1      85.131   4.060  28.229  1.00  0.00     0.159 C 
ATOM      5  O   UNL     1      86.253   4.177  28.786  1.00  0.00    -0.295 OA
ATOM      6  C   UNL     1      84.315   5.268  27.767  1.00  0.00     0.067 C 
ATOM      7  C   UNL     1      83.836   4.882  26.351  1.00  0.00     0.021 C 
ATOM      8  C   UNL     1      82.680   4.126  27.042  1.00  0.00     0.022 C 
ATOM      9  C   UNL     1      82.848   5.090  28.252  1.00  0.00    -0.019 C 
ATOM     10  C   UNL     1      82.013   6.386  28.094  1.00  0.00     0.012 C 
ATOM     11  C   UNL     1      82.606   4.526  29.681  1.00  0.00     0.012 C 
ENDROOT
TORSDOF 0
ENDMDL
MODEL 5
REMARK VINA RESULT:    -5.940      1.951      3.462
REMARK INTER + INTRA:          -5.940
REMARK INTER:                  -5.940
REMARK INTRA:                   0.000
REMARK UNBOUND:                 0.000
REMARK SMILES CC1=CC(=O)[C@H]2C[C@@H]1C2(C)C
REMARK SMILES IDX 1 1 2 2 3 3 4 4 5 5 6 6 7 7 8 8 9 9 10 10 11 11
REMARK H PARENT
REMARK Flexibility Score: inf
ROOT
ATOM      1  C   UNL     1      86.790   3.375  29.009  1.00  0.00     0.040 C 
ATOM      2  C   UNL     1      85.455   3.741  28.441  1.00  0.00    -0.066 C 
ATOM      3  C   UNL     1      84.853   4.922  28.751  1.00  0.00     0.047 C 
ATOM      4  C   UNL     1      83.503   5.159  28.142  1.00  0.00     0.159 C 
ATOM      5  O   UNL     1      82.830   6.194  28.383  1.00  0.00    -0.295 OA
ATOM      6  C   UNL     1      83.004   4.055  27.210  1.00  0.00     0.067 C 
ATOM      7  C   UNL     1      84.224   3.731  26.319  1.00  0.00     0.021 C 
ATOM      8  C   UNL     1      84.705   2.811  27.463  1.00  0.00     0.022 C 
ATOM      9  C   UNL     1      83.219   2.682  27.908  1.00  0.00    -0.019 C 
ATOM     10  C   UNL     1      82.483   1.529  27.181  1.00  0.00     0.012 C 
ATOM     11  C   UNL     1      82.914   2.572  29.429  1.00  0.00     0.012 C 
ENDROOT
TORSDOF 0
ENDMDL
MODEL 6
REMARK VINA RESULT:    -5.933      2.119      3.621
REMARK INTER + INTRA:          -5.933
REMARK INTER:                  -5.933
REMARK INTRA:                   0.000
REMARK UNBOUND:                 0.000
REMARK SMILES CC1=CC(=O)[C@H]2C[C@@H]1C2(C)C
REMARK SMILES IDX 1 1 2 2 3 3 4 4 5 5 6 6 7 7 8 8 9 9 10 10 11 11
REMARK H PARENT
REMARK Flexibility Score: inf
ROOT
ATOM      1  C   UNL     1      82.531   1.231  27.153  1.00  0.00     0.040 C 
ATOM      2  C   UNL     1      83.058   2.503  27.737  1.00  0.00    -0.066 C 
ATOM      3  C   UNL     1      82.644   2.949  28.955  1.00  0.00     0.047 C 
ATOM      4  C   UNL     1      83.223   4.252  29.417  1.00  0.00     0.159 C 
ATOM      5  O   UNL     1      82.890   4.787  30.506  1.00  0.00    -0.295 OA
ATOM      6  C   UNL     1      84.245   4.885  28.471  1.00  0.00     0.067 C 
ATOM      7  C   UNL     1      85.166   3.712  28.070  1.00  0.00     0.021 C 
ATOM      8  C   UNL     1      84.108   3.362  27.000  1.00  0.00     0.022 C 
ATOM      9  C   UNL     1      83.668   4.855  27.028  1.00  0.00    -0.019 C 
ATOM     10  C   UNL     1      84.488   5.730  26.046  1.00  0.00     0.012 C 
ATOM     11  C   UNL     1      82.161   5.181  26.827  1.00  0.00     0.012 C 
ENDROOT
TORSDOF 0
ENDMDL
MODEL 7
REMARK VINA RESULT:    -5.893      1.378      3.280
REMARK INTER + INTRA:          -5.893
REMARK INTER:                  -5.893
REMARK INTRA:                   0.000
REMARK UNBOUND:                 0.000
REMARK SMILES CC1=CC(=O)[C@H]2C[C@@H]1C2(C)C
REMARK SMILES IDX 1 1 2 2 3 3 4 4 5 5 6 6 7 7 8 8 9 9 10 10 11 11
REMARK H PARENT
REMARK Flexibility Score: inf
ROOT
ATOM      1  C   UNL     1      86.737   2.962  28.987  1.00  0.00     0.040 C 
ATOM      2  C   UNL     1      85.485   3.355  28.268  1.00  0.00    -0.066 C 
ATOM      3  C   UNL     1      85.511   3.756  26.967  1.00  0.00     0.047 C 
ATOM      4  C   UNL     1      84.195   4.152  26.368  1.00  0.00     0.159 C 
ATOM      5  O   UNL     1      84.094   4.577  25.188  1.00  0.00    -0.295 OA
ATOM      6  C   UNL     1      82.985   4.005  27.293  1.00  0.00     0.067 C 
ATOM      7  C   UNL     1      83.170   2.614  27.938  1.00  0.00     0.021 C 
ATOM      8  C   UNL     1      84.104   3.307  28.956  1.00  0.00     0.022 C 
ATOM      9  C   UNL     1      83.337   4.631  28.671  1.00  0.00    -0.019 C 
ATOM     10  C   UNL     1      82.091   4.798  29.578  1.00  0.00     0.012 C 
ATOM     11  C   UNL     1      84.138   5.963  28.695  1.00  0.00     0.012 C 
ENDROOT
TORSDOF 0
ENDMDL
MODEL 8
REMARK VINA RESULT:    -5.854      1.702      2.462
REMARK INTER + INTRA:          -5.854
REMARK INTER:                  -5.854
REMARK INTRA:                   0.000
REMARK UNBOUND:                 0.000
REMARK SMILES CC1=CC(=O)[C@H]2C[C@@H]1C2(C)C
REMARK SMILES IDX 1 1 2 2 3 3 4 4 5 5 6 6 7 7 8 8 9 9 10 10 11 11
REMARK H PARENT
REMARK Flexibility Score: inf
ROOT
ATOM      1  C   UNL     1      82.525   4.776  30.916  1.00  0.00     0.040 C 
ATOM      2  C   UNL     1      82.782   5.019  29.462  1.00  0.00    -0.066 C 
ATOM      3  C   UNL     1      81.811   5.508  28.643  1.00  0.00     0.047 C 
ATOM      4  C   UNL     1      82.183   5.679  27.200  1.00  0.00     0.159 C 
ATOM      5  O   UNL     1      81.362   6.085  26.338  1.00  0.00    -0.295 OA
ATOM      6  C   UNL     1      83.630   5.323  26.852  1.00  0.00     0.067 C 
ATOM      7  C   UNL     1      84.463   5.995  27.966  1.00  0.00     0.021 C 
ATOM      8  C   UNL     1      84.162   4.746  28.825  1.00  0.00     0.022 C 
ATOM      9  C   UNL     1      83.972   3.951  27.500  1.00  0.00    -0.019 C 
ATOM     10  C   UNL     1      85.304   3.364  26.968  1.00  0.00     0.012 C 
ATOM     11  C   UNL     1      82.896   2.829  27.464  1.00  0.00     0.012 C 
ENDROOT
TORSDOF 0
ENDMDL
MODEL 9
REMARK VINA RESULT:    -5.755      2.273      3.243
REMARK INTER + INTRA:          -5.755
REMARK INTER:                  -5.755
REMARK INTRA:                   0.000
REMARK UNBOUND:                 0.000
REMARK SMILES CC1=CC(=O)[C@H]2C[C@@H]1C2(C)C
REMARK SMILES IDX 1 1 2 2 3 3 4 4 5 5 6 6 7 7 8 8 9 9 10 10 11 11
REMARK H PARENT
REMARK Flexibility Score: inf
ROOT
ATOM      1  C   UNL     1      81.939   5.784  26.378  1.00  0.00     0.040 C 
ATOM      2  C   UNL     1      82.479   4.965  27.507  1.00  0.00    -0.066 C 
ATOM      3  C   UNL     1      82.112   5.205  28.796  1.00  0.00     0.047 C 
ATOM      4  C   UNL     1      82.746   4.335  29.840  1.00  0.00     0.159 C 
ATOM      5  O   UNL     1      82.518   4.484  31.068  1.00  0.00    -0.295 OA
ATOM      6  C   UNL     1      83.689   3.256  29.306  1.00  0.00     0.067 C 
ATOM      7  C   UNL     1      82.918   2.631  28.122  1.00  0.00     0.021 C 
ATOM      8  C   UNL     1      83.461   3.798  27.266  1.00  0.00     0.022 C 
ATOM      9  C   UNL     1      84.648   3.905  28.268  1.00  0.00    -0.019 C 
ATOM     10  C   UNL     1      85.826   2.972  27.888  1.00  0.00     0.012 C 
ATOM     11  C   UNL     1      85.224   5.316  28.576  1.00  0.00     0.012 C 
ENDROOT
TORSDOF 0
ENDMDL
