MODEL 1
REMARK VINA RESULT:    -2.196      0.000      0.000
REMARK INTER + INTRA:          -2.816
REMARK INTER:                  -2.709
REMARK INTRA:                  -0.106
REMARK UNBOUND:                -0.106
REMARK SMILES CCCCCC(=O)[O-]
REMARK SMILES IDX 4 1 5 2 6 3 7 4 8 5 3 6 2 7 1 8
REMARK H PARENT
REMARK Flexibility Score: inf
ROOT
ATOM      1  C   UNL     1     176.882 207.863 199.981  1.00  0.00     0.006 C 
ENDROOT
BRANCH   1   2
ATOM      2  C   UNL     1     178.413 207.829 199.944  1.00  0.00     0.053 C 
BRANCH   2   3
ATOM      3  C   UNL     1     178.895 207.343 198.615  1.00  0.00     0.041 C 
ATOM      4  O   UNL     1     178.085 207.194 197.663  1.00  0.00    -0.550 OA
ATOM      5  O   UNL     1     180.231 207.005 198.441  1.00  0.00    -0.550 OA
ENDBRANCH   2   3
ENDBRANCH   1   2
BRANCH   1   6
ATOM      6  C   UNL     1     176.367 207.900 201.424  1.00  0.00     0.000 C 
BRANCH   6   7
ATOM      7  C   UNL     1     175.895 206.513 201.875  1.00  0.00    -0.003 C 
ATOM      8  C   UNL     1     176.910 205.861 202.810  1.00  0.00     0.004 C 
ENDBRANCH   6   7
ENDBRANCH   1   6
TORSDOF 4
ENDMDL
MODEL 2
REMARK VINA RESULT:    -2.149      0.875      1.166
REMARK INTER + INTRA:          -2.757
REMARK INTER:                  -2.628
REMARK INTRA:                  -0.129
REMARK UNBOUND:                -0.106
REMARK SMILES CCCCCC(=O)[O-]
REMARK SMILES IDX 4 1 5 2 6 3 7 4 8 5 3 6 2 7 1 8
REMARK H PARENT
REMARK Flexibility Score: inf
ROOT
ATOM      1  C   UNL     1     177.994 206.925 200.083  1.00  0.00     0.006 C 
ENDROOT
BRANCH   1   2
ATOM      2  C   UNL     1     179.408 207.414 199.753  1.00  0.00     0.053 C 
BRANCH   2   3
ATOM      3  C   UNL     1     179.784 207.027 198.359  1.00  0.00     0.041 C 
ATOM      4  O   UNL     1     178.908 206.601 197.561  1.00  0.00    -0.550 OA
ATOM      5  O   UNL     1     181.111 207.089 197.954  1.00  0.00    -0.550 OA
ENDBRANCH   2   3
ENDBRANCH   1   2
BRANCH   1   6
ATOM      6  C   UNL     1     177.054 208.105 200.353  1.00  0.00     0.000 C 
BRANCH   6   7
ATOM      7  C   UNL     1     176.232 207.874 201.626  1.00  0.00    -0.003 C 
ATOM      8  C   UNL     1     176.570 206.530 202.265  1.00  0.00     0.004 C 
ENDBRANCH   6   7
ENDBRANCH   1   6
TORSDOF 4
ENDMDL
MODEL 3
REMARK VINA RESULT:    -2.132      2.699      4.216
REMARK INTER + INTRA:          -2.737
REMARK INTER:                  -2.548
REMARK INTRA:                  -0.189
REMARK UNBOUND:                -0.106
REMARK SMILES CCCCCC(=O)[O-]
REMARK SMILES IDX 4 1 5 2 6 3 7 4 8 5 3 6 2 7 1 8
REMARK H PARENT
REMARK Flexibility Score: inf
ROOT
ATOM      1  C   UNL     1     176.614 206.725 201.574  1.00  0.00     0.006 C 
ENDROOT
BRANCH   1   2
ATOM      2  C   UNL     1     176.051 208.122 201.297  1.00  0.00     0.053 C 
BRANCH   2   3
ATOM      3  C   UNL     1     174.708 208.026 200.647  1.00  0.00     0.041 C 
ATOM      4  O   UNL     1     174.616 207.902 199.397  1.00  0.00    -0.550 OA
ATOM      5  O   UNL     1     173.554 208.125 201.415  1.00  0.00    -0.550 OA
ENDBRANCH   2   3
ENDBRANCH   1   2
BRANCH   1   6
ATOM      6  C   UNL     1     177.956 206.522 200.862  1.00  0.00     0.000 C 
BRANCH   6   7
ATOM      7  C   UNL     1     178.314 207.740 200.004  1.00  0.00    -0.003 C 
ATOM      8  C   UNL     1     178.382 207.373 198.524  1.00  0.00     0.004 C 
ENDBRANCH   6   7
ENDBRANCH   1   6
TORSDOF 4
ENDMDL
MODEL 4
REMARK VINA RESULT:    -2.112      1.568      2.446
REMARK INTER + INTRA:          -2.712
REMARK INTER:                  -2.501
REMARK INTRA:                  -0.211
REMARK UNBOUND:                -0.106
REMARK SMILES CCCCCC(=O)[O-]
REMARK SMILES IDX 4 1 5 2 6 3 7 4 8 5 3 6 2 7 1 8
REMARK H PARENT
REMARK Flexibility Score: inf
ROOT
ATOM      1  C   UNL     1     175.963 206.515 201.728  1.00  0.00     0.006 C 
ENDROOT
BRANCH   1   2
ATOM      2  C   UNL     1     176.368 207.952 201.386  1.00  0.00     0.053 C 
BRANCH   2   3
ATOM      3  C   UNL     1     177.074 207.997 200.069  1.00  0.00     0.041 C 
ATOM      4  O   UNL     1     176.418 207.953 198.996  1.00  0.00    -0.550 OA
ATOM      5  O   UNL     1     178.462 208.039 200.025  1.00  0.00    -0.550 OA
ENDBRANCH   2   3
ENDBRANCH   1   2
BRANCH   1   6
ATOM      6  C   UNL     1     176.802 205.969 202.890  1.00  0.00     0.000 C 
BRANCH   6   7
ATOM      7  C   UNL     1     177.721 204.836 202.420  1.00  0.00    -0.003 C 
ATOM      8  C   UNL     1     179.173 205.300 202.339  1.00  0.00     0.004 C 
ENDBRANCH   6   7
ENDBRANCH   1   6
TORSDOF 4
ENDMDL
MODEL 5
REMARK VINA RESULT:    -2.108      2.743      4.331
REMARK INTER + INTRA:          -2.708
REMARK INTER:                  -2.614
REMARK INTRA:                  -0.093
REMARK UNBOUND:                -0.106
REMARK SMILES CCCCCC(=O)[O-]
REMARK SMILES IDX 4 1 5 2 6 3 7 4 8 5 3 6 2 7 1 8
REMARK H PARENT
REMARK Flexibility Score: inf
ROOT
ATOM      1  C   UNL     1     178.177 207.498 200.133  1.00  0.00     0.006 C 
ENDROOT
BRANCH   1   2
ATOM      2  C   UNL     1     176.780 208.125 200.072  1.00  0.00     0.053 C 
BRANCH   2   3
ATOM      3  C   UNL     1     175.974 207.723 201.266  1.00  0.00     0.041 C 
ATOM      4  O   UNL     1     176.506 207.066 202.198  1.00  0.00    -0.550 OA
ATOM      5  O   UNL     1     174.621 208.032 201.327  1.00  0.00    -0.550 OA
ENDBRANCH   2   3
ENDBRANCH   1   2
BRANCH   1   6
ATOM      6  C   UNL     1     178.766 207.333 198.728  1.00  0.00     0.000 C 
BRANCH   6   7
ATOM      7  C   UNL     1     180.279 207.094 198.790  1.00  0.00    -0.003 C 
ATOM      8  C   UNL     1     180.788 207.150 200.228  1.00  0.00     0.004 C 
ENDBRANCH   6   7
ENDBRANCH   1   6
TORSDOF 4
ENDMDL
MODEL 6
REMARK VINA RESULT:    -2.055      1.574      2.146
REMARK INTER + INTRA:          -2.642
REMARK INTER:                  -2.397
REMARK INTRA:                  -0.245
REMARK UNBOUND:                -0.106
REMARK SMILES CCCCCC(=O)[O-]
REMARK SMILES IDX 4 1 5 2 6 3 7 4 8 5 3 6 2 7 1 8
REMARK H PARENT
REMARK Flexibility Score: inf
ROOT
ATOM      1  C   UNL     1     177.245 206.067 200.588  1.00  0.00     0.006 C 
ENDROOT
BRANCH   1   2
ATOM      2  C   UNL     1     178.760 205.847 200.627  1.00  0.00     0.053 C 
BRANCH   2   3
ATOM      3  C   UNL     1     179.475 207.017 200.031  1.00  0.00     0.041 C 
ATOM      4  O   UNL     1     178.925 207.706 199.132  1.00  0.00    -0.550 OA
ATOM      5  O   UNL     1     180.771 207.319 200.432  1.00  0.00    -0.550 OA
ENDBRANCH   2   3
ENDBRANCH   1   2
BRANCH   1   6
ATOM      6  C   UNL     1     176.759 206.776 201.857  1.00  0.00     0.000 C 
BRANCH   6   7
ATOM      7  C   UNL     1     176.105 208.120 201.520  1.00  0.00    -0.003 C 
ATOM      8  C   UNL     1     175.553 208.125 200.097  1.00  0.00     0.004 C 
ENDBRANCH   6   7
ENDBRANCH   1   6
TORSDOF 4
ENDMDL
MODEL 7
REMARK VINA RESULT:    -2.035      1.260      2.116
REMARK INTER + INTRA:          -2.616
REMARK INTER:                  -2.483
REMARK INTRA:                  -0.133
REMARK UNBOUND:                -0.106
REMARK SMILES CCCCCC(=O)[O-]
REMARK SMILES IDX 4 1 5 2 6 3 7 4 8 5 3 6 2 7 1 8
REMARK H PARENT
REMARK Flexibility Score: inf
ROOT
ATOM      1  C   UNL     1     177.264 207.077 200.732  1.00  0.00     0.006 C 
ENDROOT
BRANCH   1   2
ATOM      2  C   UNL     1     178.469 207.743 200.062  1.00  0.00     0.053 C 
BRANCH   2   3
ATOM      3  C   UNL     1     178.534 207.374 198.614  1.00  0.00     0.041 C 
ATOM      4  O   UNL     1     179.641 207.105 198.077  1.00  0.00    -0.550 OA
ATOM      5  O   UNL     1     177.378 207.374 197.844  1.00  0.00    -0.550 OA
ENDBRANCH   2   3
ENDBRANCH   1   2
BRANCH   1   6
ATOM      6  C   UNL     1     176.258 208.125 201.221  1.00  0.00     0.000 C 
BRANCH   6   7
ATOM      7  C   UNL     1     174.983 208.103 200.371  1.00  0.00    -0.003 C 
ATOM      8  C   UNL     1     173.735 208.064 201.248  1.00  0.00     0.004 C 
ENDBRANCH   6   7
ENDBRANCH   1   6
TORSDOF 4
ENDMDL
MODEL 8
REMARK VINA RESULT:    -1.931     23.728     24.256
REMARK INTER + INTRA:          -2.489
REMARK INTER:                  -2.285
REMARK INTRA:                  -0.203
REMARK UNBOUND:                -0.106
REMARK SMILES CCCCCC(=O)[O-]
REMARK SMILES IDX 4 1 5 2 6 3 7 4 8 5 3 6 2 7 1 8
REMARK H PARENT
REMARK Flexibility Score: inf
ROOT
ATOM      1  C   UNL     1     162.060 196.892 184.704  1.00  0.00     0.006 C 
ENDROOT
BRANCH   1   2
ATOM      2  C   UNL     1     162.778 197.025 183.357  1.00  0.00     0.053 C 
BRANCH   2   3
ATOM      3  C   UNL     1     164.165 197.550 183.553  1.00  0.00     0.041 C 
ATOM      4  O   UNL     1     164.347 198.752 183.880  1.00  0.00    -0.550 OA
ATOM      5  O   UNL     1     165.260 196.726 183.324  1.00  0.00    -0.550 OA
ENDBRANCH   2   3
ENDBRANCH   1   2
BRANCH   1   6
ATOM      6  C   UNL     1     162.562 195.668 185.477  1.00  0.00     0.000 C 
BRANCH   6   7
ATOM      7  C   UNL     1     162.465 194.399 184.622  1.00  0.00    -0.003 C 
ATOM      8  C   UNL     1     161.022 193.913 184.517  1.00  0.00     0.004 C 
ENDBRANCH   6   7
ENDBRANCH   1   6
TORSDOF 4
ENDMDL
