MODEL 1
REMARK VINA RESULT:    -7.079      0.000      0.000
REMARK INTER + INTRA:          -7.676
REMARK INTER:                  -7.493
REMARK INTRA:                  -0.183
REMARK UNBOUND:                -0.183
REMARK SMILES C=C1CC=C(C(C)C)CC1
REMARK SMILES IDX 5 1 4 2 3 3 2 4 1 5 10 6 9 7 6 8 7 9 8 10
REMARK H PARENT
REMARK Flexibility Score: inf
ROOT
ATOM      1  C   UNL     1       5.360   7.491  13.268  1.00  0.00    -0.071 C 
ATOM      2  C   UNL     1       4.841   8.380  14.144  1.00  0.00    -0.023 C 
ATOM      3  C   UNL     1       3.660   9.241  13.773  1.00  0.00     0.057 C 
ATOM      4  C   UNL     1       3.716   9.641  12.314  1.00  0.00    -0.073 C 
ATOM      5  C   UNL     1       3.124  10.770  11.903  1.00  0.00     0.008 C 
ATOM      6  C   UNL     1       4.413   8.746  11.308  1.00  0.00     0.035 C 
ATOM      7  C   UNL     1       4.721   7.364  11.901  1.00  0.00     0.035 C 
ENDROOT
BRANCH   1   8
ATOM      8  C   UNL     1       6.574   6.647  13.622  1.00  0.00     0.008 C 
ATOM      9  C   UNL     1       7.697   7.506  14.216  1.00  0.00     0.012 C 
ATOM     10  C   UNL     1       7.069   5.851  12.408  1.00  0.00     0.012 C 
ENDBRANCH   1   8
TORSDOF 1
ENDMDL
MODEL 2
REMARK VINA RESULT:    -6.780      1.106      2.075
REMARK INTER + INTRA:          -7.359
REMARK INTER:                  -7.213
REMARK INTRA:                  -0.145
REMARK UNBOUND:                -0.183
REMARK SMILES C=C1CC=C(C(C)C)CC1
REMARK SMILES IDX 5 1 4 2 3 3 2 4 1 5 10 6 9 7 6 8 7 9 8 10
REMARK H PARENT
REMARK Flexibility Score: inf
ROOT
ATOM      1  C   UNL     1       5.472   7.322  13.130  1.00  0.00    -0.071 C 
ATOM      2  C   UNL     1       4.804   7.786  12.050  1.00  0.00    -0.023 C 
ATOM      3  C   UNL     1       4.097   9.118  12.084  1.00  0.00     0.057 C 
ATOM      4  C   UNL     1       3.498   9.380  13.449  1.00  0.00    -0.073 C 
ATOM      5  C   UNL     1       2.431  10.181  13.572  1.00  0.00     0.008 C 
ATOM      6  C   UNL     1       4.125   8.766  14.684  1.00  0.00     0.035 C 
ATOM      7  C   UNL     1       5.510   8.176  14.379  1.00  0.00     0.035 C 
ENDROOT
BRANCH   1   8
ATOM      8  C   UNL     1       6.154   5.964  13.115  1.00  0.00     0.008 C 
ATOM      9  C   UNL     1       7.458   6.002  12.309  1.00  0.00     0.012 C 
ATOM     10  C   UNL     1       5.210   4.875  12.589  1.00  0.00     0.012 C 
ENDBRANCH   1   8
TORSDOF 1
ENDMDL
MODEL 3
REMARK VINA RESULT:    -6.675      0.965      4.358
REMARK INTER + INTRA:          -7.248
REMARK INTER:                  -7.111
REMARK INTRA:                  -0.137
REMARK UNBOUND:                -0.183
REMARK SMILES C=C1CC=C(C(C)C)CC1
REMARK SMILES IDX 5 1 4 2 3 3 2 4 1 5 10 6 9 7 6 8 7 9 8 10
REMARK H PARENT
REMARK Flexibility Score: inf
ROOT
ATOM      1  C   UNL     1       4.447   8.505  13.030  1.00  0.00    -0.071 C 
ATOM      2  C   UNL     1       4.389   7.554  12.072  1.00  0.00    -0.023 C 
ATOM      3  C   UNL     1       5.009   6.196  12.282  1.00  0.00     0.057 C 
ATOM      4  C   UNL     1       6.282   6.300  13.094  1.00  0.00    -0.073 C 
ATOM      5  C   UNL     1       7.242   5.375  12.963  1.00  0.00     0.008 C 
ATOM      6  C   UNL     1       6.460   7.433  14.085  1.00  0.00     0.035 C 
ATOM      7  C   UNL     1       5.139   8.176  14.336  1.00  0.00     0.035 C 
ENDROOT
BRANCH   1   8
ATOM      8  C   UNL     1       3.858   9.889  12.809  1.00  0.00     0.008 C 
ATOM      9  C   UNL     1       2.543  10.066  13.580  1.00  0.00     0.012 C 
ATOM     10  C   UNL     1       3.666  10.178  11.315  1.00  0.00     0.012 C 
ENDBRANCH   1   8
TORSDOF 1
ENDMDL
MODEL 4
REMARK VINA RESULT:    -6.449      1.038      2.157
REMARK INTER + INTRA:          -7.009
REMARK INTER:                  -6.862
REMARK INTRA:                  -0.146
REMARK UNBOUND:                -0.183
REMARK SMILES C=C1CC=C(C(C)C)CC1
REMARK SMILES IDX 5 1 4 2 3 3 2 4 1 5 10 6 9 7 6 8 7 9 8 10
REMARK H PARENT
REMARK Flexibility Score: inf
ROOT
ATOM      1  C   UNL     1       4.692   7.935  12.681  1.00  0.00    -0.071 C 
ATOM      2  C   UNL     1       4.513   8.279  11.386  1.00  0.00    -0.023 C 
ATOM      3  C   UNL     1       3.998   9.644  11.007  1.00  0.00     0.057 C 
ATOM      4  C   UNL     1       2.983  10.141  12.014  1.00  0.00    -0.073 C 
ATOM      5  C   UNL     1       2.041  11.018  11.644  1.00  0.00     0.008 C 
ATOM      6  C   UNL     1       3.052   9.673  13.454  1.00  0.00     0.035 C 
ATOM      7  C   UNL     1       4.377   8.957  13.752  1.00  0.00     0.035 C 
ENDROOT
BRANCH   1   8
ATOM      8  C   UNL     1       5.175   6.547  13.071  1.00  0.00     0.008 C 
ATOM      9  C   UNL     1       6.668   6.369  12.770  1.00  0.00     0.012 C 
ATOM     10  C   UNL     1       4.340   5.457  12.389  1.00  0.00     0.012 C 
ENDBRANCH   1   8
TORSDOF 1
ENDMDL
MODEL 5
REMARK VINA RESULT:    -5.949      1.007      4.209
REMARK INTER + INTRA:          -6.479
REMARK INTER:                  -6.343
REMARK INTRA:                  -0.136
REMARK UNBOUND:                -0.183
REMARK SMILES C=C1CC=C(C(C)C)CC1
REMARK SMILES IDX 5 1 4 2 3 3 2 4 1 5 10 6 9 7 6 8 7 9 8 10
REMARK H PARENT
REMARK Flexibility Score: inf
ROOT
ATOM      1  C   UNL     1       4.375   8.648  12.930  1.00  0.00    -0.071 C 
ATOM      2  C   UNL     1       5.085   8.388  14.050  1.00  0.00    -0.023 C 
ATOM      3  C   UNL     1       6.152   7.323  14.067  1.00  0.00     0.057 C 
ATOM      4  C   UNL     1       5.764   6.151  13.191  1.00  0.00    -0.073 C 
ATOM      5  C   UNL     1       6.250   4.930  13.447  1.00  0.00     0.008 C 
ATOM      6  C   UNL     1       4.851   6.364  12.000  1.00  0.00     0.035 C 
ATOM      7  C   UNL     1       4.682   7.855  11.678  1.00  0.00     0.035 C 
ENDROOT
BRANCH   1   8
ATOM      8  C   UNL     1       3.271   9.694  12.917  1.00  0.00     0.008 C 
ATOM      9  C   UNL     1       3.396  10.623  11.703  1.00  0.00     0.012 C 
ATOM     10  C   UNL     1       3.250  10.494  14.225  1.00  0.00     0.012 C 
ENDBRANCH   1   8
TORSDOF 1
ENDMDL
MODEL 6
REMARK VINA RESULT:    -5.697      1.453      4.702
REMARK INTER + INTRA:          -6.213
REMARK INTER:                  -6.028
REMARK INTRA:                  -0.185
REMARK UNBOUND:                -0.183
REMARK SMILES C=C1CC=C(C(C)C)CC1
REMARK SMILES IDX 5 1 4 2 3 3 2 4 1 5 10 6 9 7 6 8 7 9 8 10
REMARK H PARENT
REMARK Flexibility Score: inf
ROOT
ATOM      1  C   UNL     1       2.825  10.030  12.602  1.00  0.00    -0.071 C 
ATOM      2  C   UNL     1       3.079   9.417  13.780  1.00  0.00    -0.023 C 
ATOM      3  C   UNL     1       4.345   8.626  13.990  1.00  0.00     0.057 C 
ATOM      4  C   UNL     1       4.755   7.910  12.721  1.00  0.00    -0.073 C 
ATOM      5  C   UNL     1       5.483   6.787  12.787  1.00  0.00     0.008 C 
ATOM      6  C   UNL     1       4.371   8.480  11.370  1.00  0.00     0.035 C 
ATOM      7  C   UNL     1       3.849   9.919  11.493  1.00  0.00     0.035 C 
ENDROOT
BRANCH   1   8
ATOM      8  C   UNL     1       1.532  10.797  12.372  1.00  0.00     0.008 C 
ATOM      9  C   UNL     1       0.358  10.150  13.118  1.00  0.00     0.012 C 
ATOM     10  C   UNL     1       1.228  10.933  10.875  1.00  0.00     0.012 C 
ENDBRANCH   1   8
TORSDOF 1
ENDMDL
