MODEL 1
REMARK VINA RESULT:    -3.795      0.000      0.000
REMARK INTER + INTRA:          -4.836
REMARK INTER:                  -4.793
REMARK INTRA:                  -0.043
REMARK UNBOUND:                -0.043
REMARK SMILES CCCCCCO
REMARK SMILES IDX 4 1 3 2 2 3 1 4 5 5 6 6 7 7
REMARK H PARENT 7 8
REMARK Flexibility Score: inf
ROOT
ATOM      1  C   UNL     1      -1.925 -16.541  20.412  1.00  0.00     0.002 C 
ENDROOT
BRANCH   1   2
ATOM      2  C   UNL     1      -3.268 -17.288  20.400  1.00  0.00    -0.000 C 
BRANCH   2   3
ATOM      3  C   UNL     1      -3.328 -18.412  21.445  1.00  0.00    -0.003 C 
ATOM      4  C   UNL     1      -4.461 -19.387  21.138  1.00  0.00     0.004 C 
ENDBRANCH   2   3
ENDBRANCH   1   2
BRANCH   1   5
ATOM      5  C   UNL     1      -2.048 -15.096  19.906  1.00  0.00     0.028 C 
BRANCH   5   6
ATOM      6  C   UNL     1      -0.684 -14.545  19.481  1.00  0.00     0.156 C 
BRANCH   6   7
ATOM      7  O   UNL     1       0.151 -15.589  19.060  1.00  0.00    -0.396 OA
ATOM      8  H   UNL     1       1.010 -15.481  19.549  1.00  0.00     0.210 HD
ENDBRANCH   6   7
ENDBRANCH   5   6
ENDBRANCH   1   5
TORSDOF 5
ENDMDL
MODEL 2
REMARK VINA RESULT:    -3.642     13.142     14.051
REMARK INTER + INTRA:          -4.643
REMARK INTER:                  -4.576
REMARK INTRA:                  -0.067
REMARK UNBOUND:                -0.043
REMARK SMILES CCCCCCO
REMARK SMILES IDX 4 1 3 2 2 3 1 4 5 5 6 6 7 7
REMARK H PARENT 7 8
REMARK Flexibility Score: inf
ROOT
ATOM      1  C   UNL     1      -8.751 -27.580  18.530  1.00  0.00     0.002 C 
ENDROOT
BRANCH   1   2
ATOM      2  C   UNL     1      -8.764 -27.240  17.031  1.00  0.00    -0.000 C 
BRANCH   2   3
ATOM      3  C   UNL     1      -7.366 -27.310  16.398  1.00  0.00    -0.003 C 
ATOM      4  C   UNL     1      -7.082 -28.705  15.847  1.00  0.00     0.004 C 
ENDBRANCH   2   3
ENDBRANCH   1   2
BRANCH   1   5
ATOM      5  C   UNL     1     -10.007 -28.345  18.973  1.00  0.00     0.028 C 
BRANCH   5   6
ATOM      6  C   UNL     1      -9.787 -29.025  20.327  1.00  0.00     0.156 C 
BRANCH   6   7
ATOM      7  O   UNL     1     -10.771 -28.619  21.238  1.00  0.00    -0.396 OA
ATOM      8  H   UNL     1     -11.142 -27.764  20.894  1.00  0.00     0.210 HD
ENDBRANCH   6   7
ENDBRANCH   5   6
ENDBRANCH   1   5
TORSDOF 5
ENDMDL
MODEL 3
REMARK VINA RESULT:    -3.613      2.824      4.810
REMARK INTER + INTRA:          -4.607
REMARK INTER:                  -4.565
REMARK INTRA:                  -0.042
REMARK UNBOUND:                -0.043
REMARK SMILES CCCCCCO
REMARK SMILES IDX 4 1 3 2 2 3 1 4 5 5 6 6 7 7
REMARK H PARENT 7 8
REMARK Flexibility Score: inf
ROOT
ATOM      1  C   UNL     1      -2.750 -17.521  21.189  1.00  0.00     0.002 C 
ENDROOT
BRANCH   1   2
ATOM      2  C   UNL     1      -1.870 -16.790  20.161  1.00  0.00    -0.000 C 
BRANCH   2   3
ATOM      3  C   UNL     1      -2.428 -15.410  19.782  1.00  0.00    -0.003 C 
ATOM      4  C   UNL     1      -1.303 -14.440  19.434  1.00  0.00     0.004 C 
ENDBRANCH   2   3
ENDBRANCH   1   2
BRANCH   1   5
ATOM      5  C   UNL     1      -3.987 -18.170  20.552  1.00  0.00     0.028 C 
BRANCH   5   6
ATOM      6  C   UNL     1      -4.448 -19.385  21.363  1.00  0.00     0.156 C 
BRANCH   6   7
ATOM      7  O   UNL     1      -5.230 -20.231  20.564  1.00  0.00    -0.396 OA
ATOM      8  H   UNL     1      -4.621 -20.624  19.885  1.00  0.00     0.210 HD
ENDBRANCH   6   7
ENDBRANCH   5   6
ENDBRANCH   1   5
TORSDOF 5
ENDMDL
MODEL 4
REMARK VINA RESULT:    -3.498     12.187     13.258
REMARK INTER + INTRA:          -4.461
REMARK INTER:                  -4.369
REMARK INTRA:                  -0.092
REMARK UNBOUND:                -0.043
REMARK SMILES CCCCCCO
REMARK SMILES IDX 4 1 3 2 2 3 1 4 5 5 6 6 7 7
REMARK H PARENT 7 8
REMARK Flexibility Score: inf
ROOT
ATOM      1  C   UNL     1      -8.521 -27.384  18.632  1.00  0.00     0.002 C 
ENDROOT
BRANCH   1   2
ATOM      2  C   UNL     1      -9.967 -27.629  18.171  1.00  0.00    -0.000 C 
BRANCH   2   3
ATOM      3  C   UNL     1     -10.734 -28.573  19.109  1.00  0.00    -0.003 C 
ATOM      4  C   UNL     1      -9.866 -28.998  20.290  1.00  0.00     0.004 C 
ENDBRANCH   2   3
ENDBRANCH   1   2
BRANCH   1   5
ATOM      5  C   UNL     1      -7.648 -26.760  17.534  1.00  0.00     0.028 C 
BRANCH   5   6
ATOM      6  C   UNL     1      -7.428 -27.746  16.382  1.00  0.00     0.156 C 
BRANCH   6   7
ATOM      7  O   UNL     1      -8.142 -27.333  15.249  1.00  0.00    -0.396 OA
ATOM      8  H   UNL     1      -7.488 -26.890  14.646  1.00  0.00     0.210 HD
ENDBRANCH   6   7
ENDBRANCH   5   6
ENDBRANCH   1   5
TORSDOF 5
ENDMDL
MODEL 5
REMARK VINA RESULT:    -3.486      9.568     10.915
REMARK INTER + INTRA:          -4.446
REMARK INTER:                  -4.351
REMARK INTRA:                  -0.095
REMARK UNBOUND:                -0.043
REMARK SMILES CCCCCCO
REMARK SMILES IDX 4 1 3 2 2 3 1 4 5 5 6 6 7 7
REMARK H PARENT 7 8
REMARK Flexibility Score: inf
ROOT
ATOM      1  C   UNL     1       5.912 -11.496  17.149  1.00  0.00     0.002 C 
ENDROOT
BRANCH   1   2
ATOM      2  C   UNL     1       7.335 -11.037  17.505  1.00  0.00    -0.000 C 
BRANCH   2   3
ATOM      3  C   UNL     1       8.129 -12.109  18.266  1.00  0.00    -0.003 C 
ATOM      4  C   UNL     1       8.704 -11.549  19.563  1.00  0.00     0.004 C 
ENDBRANCH   2   3
ENDBRANCH   1   2
BRANCH   1   5
ATOM      5  C   UNL     1       5.811 -13.017  16.965  1.00  0.00     0.028 C 
BRANCH   5   6
ATOM      6  C   UNL     1       5.169 -13.366  15.619  1.00  0.00     0.156 C 
BRANCH   6   7
ATOM      7  O   UNL     1       3.845 -12.910  15.581  1.00  0.00    -0.396 OA
ATOM      8  H   UNL     1       3.877 -11.970  15.259  1.00  0.00     0.210 HD
ENDBRANCH   6   7
ENDBRANCH   5   6
ENDBRANCH   1   5
TORSDOF 5
ENDMDL
MODEL 6
REMARK VINA RESULT:    -3.432      2.425      4.405
REMARK INTER + INTRA:          -4.378
REMARK INTER:                  -4.314
REMARK INTRA:                  -0.064
REMARK UNBOUND:                -0.043
REMARK SMILES CCCCCCO
REMARK SMILES IDX 4 1 3 2 2 3 1 4 5 5 6 6 7 7
REMARK H PARENT 7 8
REMARK Flexibility Score: inf
ROOT
ATOM      1  C   UNL     1      -1.726 -13.807  20.072  1.00  0.00     0.002 C 
ENDROOT
BRANCH   1   2
ATOM      2  C   UNL     1      -2.921 -13.341  20.918  1.00  0.00    -0.000 C 
BRANCH   2   3
ATOM      3  C   UNL     1      -3.156 -11.826  20.825  1.00  0.00    -0.003 C 
ATOM      4  C   UNL     1      -4.427 -11.515  20.039  1.00  0.00     0.004 C 
ENDBRANCH   2   3
ENDBRANCH   1   2
BRANCH   1   5
ATOM      5  C   UNL     1      -2.045 -15.055  19.236  1.00  0.00     0.028 C 
BRANCH   5   6
ATOM      6  C   UNL     1      -1.361 -16.296  19.818  1.00  0.00     0.156 C 
BRANCH   6   7
ATOM      7  O   UNL     1      -0.202 -16.596  19.092  1.00  0.00    -0.396 OA
ATOM      8  H   UNL     1       0.278 -17.302  19.600  1.00  0.00     0.210 HD
ENDBRANCH   6   7
ENDBRANCH   5   6
ENDBRANCH   1   5
TORSDOF 5
ENDMDL
MODEL 7
REMARK VINA RESULT:    -3.323      2.128      4.259
REMARK INTER + INTRA:          -4.240
REMARK INTER:                  -4.025
REMARK INTRA:                  -0.215
REMARK UNBOUND:                -0.043
REMARK SMILES CCCCCCO
REMARK SMILES IDX 4 1 3 2 2 3 1 4 5 5 6 6 7 7
REMARK H PARENT 7 8
REMARK Flexibility Score: inf
ROOT
ATOM      1  C   UNL     1      -1.955 -14.991  19.184  1.00  0.00     0.002 C 
ENDROOT
BRANCH   1   2
ATOM      2  C   UNL     1      -1.095 -13.816  19.678  1.00  0.00    -0.000 C 
BRANCH   2   3
ATOM      3  C   UNL     1      -1.875 -12.856  20.589  1.00  0.00    -0.003 C 
ATOM      4  C   UNL     1      -3.378 -12.971  20.349  1.00  0.00     0.004 C 
ENDBRANCH   2   3
ENDBRANCH   1   2
BRANCH   1   5
ATOM      5  C   UNL     1      -1.465 -16.346  19.715  1.00  0.00     0.028 C 
BRANCH   5   6
ATOM      6  C   UNL     1      -2.553 -17.038  20.541  1.00  0.00     0.156 C 
BRANCH   6   7
ATOM      7  O   UNL     1      -2.835 -16.292  21.693  1.00  0.00    -0.396 OA
ATOM      8  H   UNL     1      -3.520 -16.801  22.201  1.00  0.00     0.210 HD
ENDBRANCH   6   7
ENDBRANCH   5   6
ENDBRANCH   1   5
TORSDOF 5
ENDMDL
MODEL 8
REMARK VINA RESULT:    -3.321      8.847     11.548
REMARK INTER + INTRA:          -4.237
REMARK INTER:                  -4.166
REMARK INTRA:                  -0.071
REMARK UNBOUND:                -0.043
REMARK SMILES CCCCCCO
REMARK SMILES IDX 4 1 3 2 2 3 1 4 5 5 6 6 7 7
REMARK H PARENT 7 8
REMARK Flexibility Score: inf
ROOT
ATOM      1  C   UNL     1       6.820 -12.079  17.441  1.00  0.00     0.002 C 
ENDROOT
BRANCH   1   2
ATOM      2  C   UNL     1       6.840 -10.827  16.550  1.00  0.00    -0.000 C 
BRANCH   2   3
ATOM      3  C   UNL     1       8.132 -10.010  16.709  1.00  0.00    -0.003 C 
ATOM      4  C   UNL     1       8.798  -9.768  15.358  1.00  0.00     0.004 C 
ENDBRANCH   2   3
ENDBRANCH   1   2
BRANCH   1   5
ATOM      5  C   UNL     1       5.806 -13.128  16.962  1.00  0.00     0.028 C 
BRANCH   5   6
ATOM      6  C   UNL     1       4.398 -12.531  16.873  1.00  0.00     0.156 C 
BRANCH   6   7
ATOM      7  O   UNL     1       3.811 -12.858  15.644  1.00  0.00    -0.396 OA
ATOM      8  H   UNL     1       4.369 -12.433  14.939  1.00  0.00     0.210 HD
ENDBRANCH   6   7
ENDBRANCH   5   6
ENDBRANCH   1   5
TORSDOF 5
ENDMDL
MODEL 9
REMARK VINA RESULT:    -3.269      1.924      3.209
REMARK INTER + INTRA:          -4.172
REMARK INTER:                  -4.126
REMARK INTRA:                  -0.045
REMARK UNBOUND:                -0.043
REMARK SMILES CCCCCCO
REMARK SMILES IDX 4 1 3 2 2 3 1 4 5 5 6 6 7 7
REMARK H PARENT 7 8
REMARK Flexibility Score: inf
ROOT
ATOM      1  C   UNL     1      -0.302 -13.987  19.200  1.00  0.00     0.002 C 
ENDROOT
BRANCH   1   2
ATOM      2  C   UNL     1      -1.483 -14.713  19.864  1.00  0.00    -0.000 C 
BRANCH   2   3
ATOM      3  C   UNL     1      -1.357 -16.242  19.785  1.00  0.00    -0.003 C 
ATOM      4  C   UNL     1      -2.496 -16.926  20.536  1.00  0.00     0.004 C 
ENDBRANCH   2   3
ENDBRANCH   1   2
BRANCH   1   5
ATOM      5  C   UNL     1       0.071 -12.683  19.920  1.00  0.00     0.028 C 
BRANCH   5   6
ATOM      6  C   UNL     1       1.499 -12.252  19.572  1.00  0.00     0.156 C 
BRANCH   6   7
ATOM      7  O   UNL     1       2.234 -13.348  19.102  1.00  0.00    -0.396 OA
ATOM      8  H   UNL     1       1.900 -14.146  19.591  1.00  0.00     0.210 HD
ENDBRANCH   6   7
ENDBRANCH   5   6
ENDBRANCH   1   5
TORSDOF 5
ENDMDL
