MODEL 1
REMARK VINA RESULT:    -4.400      0.000      0.000
REMARK INTER + INTRA:          -9.522
REMARK INTER:                  -8.002
REMARK INTRA:                  -1.520
REMARK UNBOUND:                -1.520
REMARK SMILES CCCCCCCCCCCCCC[C@H](C)C(=O)[O-]
REMARK SMILES IDX 9 1 10 2 11 3 12 4 13 5 14 6 15 7 16 8 17 9 18 10 19 11 8 12
REMARK SMILES IDX 7 13 6 14 5 15 4 16 3 17 2 18 1 19
REMARK H PARENT
REMARK Flexibility Score: inf
ROOT
ATOM      1  C   UNL     1      26.745  -0.401  42.666  1.00  0.00     0.000 C 
ENDROOT
BRANCH   1   2
ATOM      2  C   UNL     1      27.740  -1.507  43.059  1.00  0.00     0.000 C 
BRANCH   2   3
ATOM      3  C   UNL     1      28.205  -1.427  44.529  1.00  0.00     0.000 C 
BRANCH   3   4
ATOM      4  C   UNL     1      28.269  -2.815  45.193  1.00  0.00     0.000 C 
BRANCH   4   5
ATOM      5  C   UNL     1      27.983  -3.962  44.210  1.00  0.00     0.001 C 
BRANCH   5   6
ATOM      6  C   UNL     1      27.787  -5.314  44.919  1.00  0.00     0.009 C 
BRANCH   6   7
ATOM      7  C   UNL     1      26.308  -5.763  44.942  1.00  0.00     0.032 C 
ATOM      8  C   UNL     1      25.443  -4.975  43.949  1.00  0.00     0.014 C 
BRANCH   7   9
ATOM      9  C   UNL     1      25.751  -5.602  46.329  1.00  0.00     0.044 C 
ATOM     10  O   UNL     1      24.568  -5.953  46.582  1.00  0.00    -0.550 OA
ATOM     11  O   UNL     1      26.537  -5.066  47.343  1.00  0.00    -0.550 OA
ENDBRANCH   7   9
ENDBRANCH   6   7
ENDBRANCH   5   6
ENDBRANCH   4   5
ENDBRANCH   3   4
ENDBRANCH   2   3
ENDBRANCH   1   2
BRANCH   1  12
ATOM     12  C   UNL     1      26.246   0.408  43.873  1.00  0.00     0.000 C 
BRANCH  12  13
ATOM     13  C   UNL     1      25.490   1.681  43.457  1.00  0.00    -0.000 C 
BRANCH  13  14
ATOM     14  C   UNL     1      26.440   2.832  43.079  1.00  0.00    -0.000 C 
BRANCH  14  15
ATOM     15  C   UNL     1      26.204   3.353  41.649  1.00  0.00    -0.000 C 
BRANCH  15  16
ATOM     16  C   UNL     1      24.993   2.736  40.919  1.00  0.00    -0.000 C 
BRANCH  16  17
ATOM     17  C   UNL     1      25.260   2.288  39.468  1.00  0.00    -0.000 C 
BRANCH  17  18
ATOM     18  C   UNL     1      26.746   2.108  39.112  1.00  0.00    -0.003 C 
ATOM     19  C   UNL     1      27.207   0.654  39.203  1.00  0.00     0.004 C 
ENDBRANCH  17  18
ENDBRANCH  16  17
ENDBRANCH  15  16
ENDBRANCH  14  15
ENDBRANCH  13  14
ENDBRANCH  12  13
ENDBRANCH   1  12
TORSDOF 14
ENDMDL
MODEL 2
REMARK VINA RESULT:    -4.331      3.845      8.230
REMARK INTER + INTRA:          -9.396
REMARK INTER:                  -8.048
REMARK INTRA:                  -1.349
REMARK UNBOUND:                -1.520
REMARK SMILES CCCCCCCCCCCCCC[C@H](C)C(=O)[O-]
REMARK SMILES IDX 9 1 10 2 11 3 12 4 13 5 14 6 15 7 16 8 17 9 18 10 19 11 8 12
REMARK SMILES IDX 7 13 6 14 5 15 4 16 3 17 2 18 1 19
REMARK H PARENT
REMARK Flexibility Score: inf
ROOT
ATOM      1  C   UNL     1      26.671  -0.456  43.038  1.00  0.00     0.000 C 
ENDROOT
BRANCH   1   2
ATOM      2  C   UNL     1      26.893   0.664  44.069  1.00  0.00     0.000 C 
BRANCH   2   3
ATOM      3  C   UNL     1      26.360   2.039  43.613  1.00  0.00     0.000 C 
BRANCH   3   4
ATOM      4  C   UNL     1      25.385   1.919  42.428  1.00  0.00     0.000 C 
BRANCH   4   5
ATOM      5  C   UNL     1      25.527   3.070  41.418  1.00  0.00     0.001 C 
BRANCH   5   6
ATOM      6  C   UNL     1      26.437   2.706  40.231  1.00  0.00     0.009 C 
BRANCH   6   7
ATOM      7  C   UNL     1      26.157   1.290  39.680  1.00  0.00     0.032 C 
ATOM      8  C   UNL     1      27.447   0.503  39.411  1.00  0.00     0.014 C 
BRANCH   7   9
ATOM      9  C   UNL     1      25.356   1.388  38.411  1.00  0.00     0.044 C 
ATOM     10  O   UNL     1      24.714   2.439  38.147  1.00  0.00    -0.550 OA
ATOM     11  O   UNL     1      25.321   0.322  37.520  1.00  0.00    -0.550 OA
ENDBRANCH   7   9
ENDBRANCH   6   7
ENDBRANCH   5   6
ENDBRANCH   4   5
ENDBRANCH   3   4
ENDBRANCH   2   3
ENDBRANCH   1   2
BRANCH   1  12
ATOM     12  C   UNL     1      27.834  -1.460  42.988  1.00  0.00     0.000 C 
BRANCH  12  13
ATOM     13  C   UNL     1      27.857  -2.396  44.208  1.00  0.00    -0.000 C 
BRANCH  13  14
ATOM     14  C   UNL     1      27.533  -3.854  43.837  1.00  0.00    -0.000 C 
BRANCH  14  15
ATOM     15  C   UNL     1      26.026  -4.162  43.893  1.00  0.00    -0.000 C 
BRANCH  15  16
ATOM     16  C   UNL     1      25.635  -5.359  44.784  1.00  0.00    -0.000 C 
BRANCH  16  17
ATOM     17  C   UNL     1      26.651  -5.714  45.888  1.00  0.00    -0.000 C 
BRANCH  17  18
ATOM     18  C   UNL     1      26.400  -5.025  47.241  1.00  0.00    -0.003 C 
ATOM     19  C   UNL     1      25.152  -5.546  47.952  1.00  0.00     0.004 C 
ENDBRANCH  17  18
ENDBRANCH  16  17
ENDBRANCH  15  16
ENDBRANCH  14  15
ENDBRANCH  13  14
ENDBRANCH  12  13
ENDBRANCH   1  12
TORSDOF 14
ENDMDL
MODEL 3
REMARK VINA RESULT:    -4.258      8.198      9.885
REMARK INTER + INTRA:          -9.264
REMARK INTER:                  -7.175
REMARK INTRA:                  -2.088
REMARK UNBOUND:                -1.520
REMARK SMILES CCCCCCCCCCCCCC[C@H](C)C(=O)[O-]
REMARK SMILES IDX 9 1 10 2 11 3 12 4 13 5 14 6 15 7 16 8 17 9 18 10 19 11 8 12
REMARK SMILES IDX 7 13 6 14 5 15 4 16 3 17 2 18 1 19
REMARK H PARENT
REMARK Flexibility Score: inf
ROOT
ATOM      1  C   UNL     1      28.103  -5.243  35.102  1.00  0.00     0.000 C 
ENDROOT
BRANCH   1   2
ATOM      2  C   UNL     1      27.273  -6.528  35.263  1.00  0.00     0.000 C 
BRANCH   2   3
ATOM      3  C   UNL     1      26.468  -6.584  36.579  1.00  0.00     0.000 C 
BRANCH   3   4
ATOM      4  C   UNL     1      24.980  -6.900  36.335  1.00  0.00     0.000 C 
BRANCH   4   5
ATOM      5  C   UNL     1      24.515  -6.527  34.917  1.00  0.00     0.001 C 
BRANCH   5   6
ATOM      6  C   UNL     1      23.027  -6.137  34.867  1.00  0.00     0.009 C 
BRANCH   6   7
ATOM      7  C   UNL     1      22.807  -4.612  34.983  1.00  0.00     0.032 C 
ATOM      8  C   UNL     1      24.077  -3.813  34.662  1.00  0.00     0.014 C 
BRANCH   7   9
ATOM      9  C   UNL     1      22.340  -4.273  36.372  1.00  0.00     0.044 C 
ATOM     10  O   UNL     1      22.495  -3.107  36.825  1.00  0.00    -0.550 OA
ATOM     11  O   UNL     1      21.732  -5.240  37.164  1.00  0.00    -0.550 OA
ENDBRANCH   7   9
ENDBRANCH   6   7
ENDBRANCH   5   6
ENDBRANCH   4   5
ENDBRANCH   3   4
ENDBRANCH   2   3
ENDBRANCH   1   2
BRANCH   1  12
ATOM     12  C   UNL     1      27.579  -4.083  35.963  1.00  0.00     0.000 C 
BRANCH  12  13
ATOM     13  C   UNL     1      28.664  -3.491  36.879  1.00  0.00    -0.000 C 
BRANCH  13  14
ATOM     14  C   UNL     1      29.717  -4.534  37.293  1.00  0.00    -0.000 C 
BRANCH  14  15
ATOM     15  C   UNL     1      31.159  -4.042  37.074  1.00  0.00    -0.000 C 
BRANCH  15  16
ATOM     16  C   UNL     1      31.921  -4.738  35.927  1.00  0.00    -0.000 C 
BRANCH  16  17
ATOM     17  C   UNL     1      31.805  -4.052  34.551  1.00  0.00    -0.000 C 
BRANCH  17  18
ATOM     18  C   UNL     1      31.414  -2.565  34.603  1.00  0.00    -0.003 C 
ATOM     19  C   UNL     1      30.212  -2.234  33.719  1.00  0.00     0.004 C 
ENDBRANCH  17  18
ENDBRANCH  16  17
ENDBRANCH  15  16
ENDBRANCH  14  15
ENDBRANCH  13  14
ENDBRANCH  12  13
ENDBRANCH   1  12
TORSDOF 14
ENDMDL
MODEL 4
REMARK VINA RESULT:    -4.212      4.724      8.764
REMARK INTER + INTRA:          -9.180
REMARK INTER:                  -7.549
REMARK INTRA:                  -1.631
REMARK UNBOUND:                -1.520
REMARK SMILES CCCCCCCCCCCCCC[C@H](C)C(=O)[O-]
REMARK SMILES IDX 9 1 10 2 11 3 12 4 13 5 14 6 15 7 16 8 17 9 18 10 19 11 8 12
REMARK SMILES IDX 7 13 6 14 5 15 4 16 3 17 2 18 1 19
REMARK H PARENT
REMARK Flexibility Score: inf
ROOT
ATOM      1  C   UNL     1      25.395  -5.578  47.077  1.00  0.00     0.000 C 
ENDROOT
BRANCH   1   2
ATOM      2  C   UNL     1      24.942  -6.664  46.085  1.00  0.00     0.000 C 
BRANCH   2   3
ATOM      3  C   UNL     1      25.312  -6.355  44.619  1.00  0.00     0.000 C 
BRANCH   3   4
ATOM      4  C   UNL     1      25.679  -4.874  44.412  1.00  0.00     0.000 C 
BRANCH   4   5
ATOM      5  C   UNL     1      27.059  -4.686  43.760  1.00  0.00     0.001 C 
BRANCH   5   6
ATOM      6  C   UNL     1      28.217  -4.959  44.737  1.00  0.00     0.009 C 
BRANCH   6   7
ATOM      7  C   UNL     1      28.410  -3.820  45.763  1.00  0.00     0.032 C 
ATOM      8  C   UNL     1      28.321  -2.431  45.116  1.00  0.00     0.014 C 
BRANCH   7   9
ATOM      9  C   UNL     1      29.743  -3.971  46.442  1.00  0.00     0.044 C 
ATOM     10  O   UNL     1      30.297  -2.974  46.978  1.00  0.00    -0.550 OA
ATOM     11  O   UNL     1      30.371  -5.210  46.486  1.00  0.00    -0.550 OA
ENDBRANCH   7   9
ENDBRANCH   6   7
ENDBRANCH   5   6
ENDBRANCH   4   5
ENDBRANCH   3   4
ENDBRANCH   2   3
ENDBRANCH   1   2
BRANCH   1  12
ATOM     12  C   UNL     1      25.763  -6.146  48.457  1.00  0.00     0.000 C 
BRANCH  12  13
ATOM     13  C   UNL     1      25.294  -5.242  49.610  1.00  0.00    -0.000 C 
BRANCH  13  14
ATOM     14  C   UNL     1      25.517  -5.887  50.990  1.00  0.00    -0.000 C 
BRANCH  14  15
ATOM     15  C   UNL     1      24.212  -6.040  51.792  1.00  0.00    -0.000 C 
BRANCH  15  16
ATOM     16  C   UNL     1      23.012  -6.589  50.993  1.00  0.00    -0.000 C 
BRANCH  16  17
ATOM     17  C   UNL     1      21.922  -5.554  50.651  1.00  0.00    -0.000 C 
BRANCH  17  18
ATOM     18  C   UNL     1      21.659  -5.367  49.146  1.00  0.00    -0.003 C 
ATOM     19  C   UNL     1      21.973  -6.620  48.328  1.00  0.00     0.004 C 
ENDBRANCH  17  18
ENDBRANCH  16  17
ENDBRANCH  15  16
ENDBRANCH  14  15
ENDBRANCH  13  14
ENDBRANCH  12  13
ENDBRANCH   1  12
TORSDOF 14
ENDMDL
MODEL 5
REMARK VINA RESULT:    -4.205      5.700      8.668
REMARK INTER + INTRA:          -9.167
REMARK INTER:                  -8.007
REMARK INTRA:                  -1.160
REMARK UNBOUND:                -1.520
REMARK SMILES CCCCCCCCCCCCCC[C@H](C)C(=O)[O-]
REMARK SMILES IDX 9 1 10 2 11 3 12 4 13 5 14 6 15 7 16 8 17 9 18 10 19 11 8 12
REMARK SMILES IDX 7 13 6 14 5 15 4 16 3 17 2 18 1 19
REMARK H PARENT
REMARK Flexibility Score: inf
ROOT
ATOM      1  C   UNL     1      25.302  -1.821  36.750  1.00  0.00     0.000 C 
ENDROOT
BRANCH   1   2
ATOM      2  C   UNL     1      24.979  -0.375  37.163  1.00  0.00     0.000 C 
BRANCH   2   3
ATOM      3  C   UNL     1      26.027   0.246  38.111  1.00  0.00     0.000 C 
BRANCH   3   4
ATOM      4  C   UNL     1      26.169   1.765  37.904  1.00  0.00     0.000 C 
BRANCH   4   5
ATOM      5  C   UNL     1      26.414   2.527  39.218  1.00  0.00     0.001 C 
BRANCH   5   6
ATOM      6  C   UNL     1      26.424   1.599  40.446  1.00  0.00     0.009 C 
BRANCH   6   7
ATOM      7  C   UNL     1      25.756   2.243  41.682  1.00  0.00     0.032 C 
ATOM      8  C   UNL     1      26.183   3.703  41.882  1.00  0.00     0.014 C 
BRANCH   7   9
ATOM      9  C   UNL     1      26.096   1.448  42.913  1.00  0.00     0.044 C 
ATOM     10  O   UNL     1      26.093   2.002  44.045  1.00  0.00    -0.550 OA
ATOM     11  O   UNL     1      26.413   0.099  42.812  1.00  0.00    -0.550 OA
ENDBRANCH   7   9
ENDBRANCH   6   7
ENDBRANCH   5   6
ENDBRANCH   4   5
ENDBRANCH   3   4
ENDBRANCH   2   3
ENDBRANCH   1   2
BRANCH   1  12
ATOM     12  C   UNL     1      24.232  -2.431  35.830  1.00  0.00     0.000 C 
BRANCH  12  13
ATOM     13  C   UNL     1      23.042  -3.010  36.613  1.00  0.00    -0.000 C 
BRANCH  13  14
ATOM     14  C   UNL     1      22.233  -4.026  35.787  1.00  0.00    -0.000 C 
BRANCH  14  15
ATOM     15  C   UNL     1      22.422  -5.474  36.274  1.00  0.00    -0.000 C 
BRANCH  15  16
ATOM     16  C   UNL     1      23.328  -6.350  35.385  1.00  0.00    -0.000 C 
BRANCH  16  17
ATOM     17  C   UNL     1      23.864  -5.661  34.114  1.00  0.00    -0.000 C 
BRANCH  17  18
ATOM     18  C   UNL     1      25.398  -5.613  34.006  1.00  0.00    -0.003 C 
ATOM     19  C   UNL     1      26.090  -5.566  35.368  1.00  0.00     0.004 C 
ENDBRANCH  17  18
ENDBRANCH  16  17
ENDBRANCH  15  16
ENDBRANCH  14  15
ENDBRANCH  13  14
ENDBRANCH  12  13
ENDBRANCH   1  12
TORSDOF 14
ENDMDL
MODEL 6
REMARK VINA RESULT:    -4.146      8.494     10.456
REMARK INTER + INTRA:          -9.059
REMARK INTER:                  -7.248
REMARK INTRA:                  -1.810
REMARK UNBOUND:                -1.520
REMARK SMILES CCCCCCCCCCCCCC[C@H](C)C(=O)[O-]
REMARK SMILES IDX 9 1 10 2 11 3 12 4 13 5 14 6 15 7 16 8 17 9 18 10 19 11 8 12
REMARK SMILES IDX 7 13 6 14 5 15 4 16 3 17 2 18 1 19
REMARK H PARENT
REMARK Flexibility Score: inf
ROOT
ATOM      1  C   UNL     1      26.138  -5.800  36.416  1.00  0.00     0.000 C 
ENDROOT
BRANCH   1   2
ATOM      2  C   UNL     1      27.243  -5.983  35.361  1.00  0.00     0.000 C 
BRANCH   2   3
ATOM      3  C   UNL     1      28.671  -5.921  35.943  1.00  0.00     0.000 C 
BRANCH   3   4
ATOM      4  C   UNL     1      28.767  -4.960  37.142  1.00  0.00     0.000 C 
BRANCH   4   5
ATOM      5  C   UNL     1      28.938  -3.492  36.719  1.00  0.00     0.001 C 
BRANCH   5   6
ATOM      6  C   UNL     1      30.415  -3.063  36.654  1.00  0.00     0.009 C 
BRANCH   6   7
ATOM      7  C   UNL     1      30.863  -2.689  35.223  1.00  0.00     0.032 C 
ATOM      8  C   UNL     1      29.729  -2.838  34.199  1.00  0.00     0.014 C 
BRANCH   7   9
ATOM      9  C   UNL     1      32.024  -3.552  34.813  1.00  0.00     0.044 C 
ATOM     10  O   UNL     1      32.946  -3.077  34.098  1.00  0.00    -0.550 OA
ATOM     11  O   UNL     1      32.090  -4.879  35.221  1.00  0.00    -0.550 OA
ENDBRANCH   7   9
ENDBRANCH   6   7
ENDBRANCH   5   6
ENDBRANCH   4   5
ENDBRANCH   3   4
ENDBRANCH   2   3
ENDBRANCH   1   2
BRANCH   1  12
ATOM     12  C   UNL     1      24.963  -6.771  36.223  1.00  0.00     0.000 C 
BRANCH  12  13
ATOM     13  C   UNL     1      24.727  -7.125  34.745  1.00  0.00    -0.000 C 
BRANCH  13  14
ATOM     14  C   UNL     1      23.403  -6.553  34.208  1.00  0.00    -0.000 C 
BRANCH  14  15
ATOM     15  C   UNL     1      22.538  -5.917  35.311  1.00  0.00    -0.000 C 
BRANCH  15  16
ATOM     16  C   UNL     1      22.304  -4.399  35.167  1.00  0.00    -0.000 C 
BRANCH  16  17
ATOM     17  C   UNL     1      22.430  -3.589  36.472  1.00  0.00    -0.000 C 
BRANCH  17  18
ATOM     18  C   UNL     1      23.792  -2.902  36.675  1.00  0.00    -0.003 C 
ATOM     19  C   UNL     1      24.573  -2.731  35.372  1.00  0.00     0.004 C 
ENDBRANCH  17  18
ENDBRANCH  16  17
ENDBRANCH  15  16
ENDBRANCH  14  15
ENDBRANCH  13  14
ENDBRANCH  12  13
ENDBRANCH   1  12
TORSDOF 14
ENDMDL
MODEL 7
REMARK VINA RESULT:    -4.137      1.057      2.020
REMARK INTER + INTRA:          -9.043
REMARK INTER:                  -7.758
REMARK INTRA:                  -1.285
REMARK UNBOUND:                -1.520
REMARK SMILES CCCCCCCCCCCCCC[C@H](C)C(=O)[O-]
REMARK SMILES IDX 9 1 10 2 11 3 12 4 13 5 14 6 15 7 16 8 17 9 18 10 19 11 8 12
REMARK SMILES IDX 7 13 6 14 5 15 4 16 3 17 2 18 1 19
REMARK H PARENT
REMARK Flexibility Score: inf
ROOT
ATOM      1  C   UNL     1      27.814  -1.340  42.870  1.00  0.00     0.000 C 
ENDROOT
BRANCH   1   2
ATOM      2  C   UNL     1      27.558  -2.116  44.174  1.00  0.00     0.000 C 
BRANCH   2   3
ATOM      3  C   UNL     1      27.584  -3.649  43.997  1.00  0.00     0.000 C 
BRANCH   3   4
ATOM      4  C   UNL     1      26.173  -4.235  43.808  1.00  0.00     0.000 C 
BRANCH   4   5
ATOM      5  C   UNL     1      26.059  -5.689  44.293  1.00  0.00     0.001 C 
BRANCH   5   6
ATOM      6  C   UNL     1      25.184  -5.826  45.552  1.00  0.00     0.009 C 
BRANCH   6   7
ATOM      7  C   UNL     1      25.890  -5.310  46.826  1.00  0.00     0.032 C 
ATOM      8  C   UNL     1      27.272  -5.947  47.026  1.00  0.00     0.014 C 
BRANCH   7   9
ATOM      9  C   UNL     1      25.032  -5.587  48.029  1.00  0.00     0.044 C 
ATOM     10  O   UNL     1      23.895  -6.112  47.889  1.00  0.00    -0.550 OA
ATOM     11  O   UNL     1      25.487  -5.269  49.303  1.00  0.00    -0.550 OA
ENDBRANCH   7   9
ENDBRANCH   6   7
ENDBRANCH   5   6
ENDBRANCH   4   5
ENDBRANCH   3   4
ENDBRANCH   2   3
ENDBRANCH   1   2
BRANCH   1  12
ATOM     12  C   UNL     1      26.773  -0.238  42.619  1.00  0.00     0.000 C 
BRANCH  12  13
ATOM     13  C   UNL     1      25.884   0.024  43.846  1.00  0.00    -0.000 C 
BRANCH  13  14
ATOM     14  C   UNL     1      25.473   1.502  43.969  1.00  0.00    -0.000 C 
BRANCH  14  15
ATOM     15  C   UNL     1      26.340   2.435  43.104  1.00  0.00    -0.000 C 
BRANCH  15  16
ATOM     16  C   UNL     1      25.613   3.078  41.905  1.00  0.00    -0.000 C 
BRANCH  16  17
ATOM     17  C   UNL     1      26.394   3.057  40.576  1.00  0.00    -0.000 C 
BRANCH  17  18
ATOM     18  C   UNL     1      25.961   1.958  39.590  1.00  0.00    -0.003 C 
ATOM     19  C   UNL     1      27.137   1.148  39.047  1.00  0.00     0.004 C 
ENDBRANCH  17  18
ENDBRANCH  16  17
ENDBRANCH  15  16
ENDBRANCH  14  15
ENDBRANCH  13  14
ENDBRANCH  12  13
ENDBRANCH   1  12
TORSDOF 14
ENDMDL
MODEL 8
REMARK VINA RESULT:    -4.133      6.672      8.421
REMARK INTER + INTRA:          -9.035
REMARK INTER:                  -7.880
REMARK INTRA:                  -1.155
REMARK UNBOUND:                -1.520
REMARK SMILES CCCCCCCCCCCCCC[C@H](C)C(=O)[O-]
REMARK SMILES IDX 9 1 10 2 11 3 12 4 13 5 14 6 15 7 16 8 17 9 18 10 19 11 8 12
REMARK SMILES IDX 7 13 6 14 5 15 4 16 3 17 2 18 1 19
REMARK H PARENT
REMARK Flexibility Score: inf
ROOT
ATOM      1  C   UNL     1      24.151  -2.880  35.903  1.00  0.00     0.000 C 
ENDROOT
BRANCH   1   2
ATOM      2  C   UNL     1      22.841  -3.106  36.678  1.00  0.00     0.000 C 
BRANCH   2   3
ATOM      3  C   UNL     1      22.197  -4.483  36.415  1.00  0.00     0.000 C 
BRANCH   3   4
ATOM      4  C   UNL     1      22.338  -4.919  34.945  1.00  0.00     0.000 C 
BRANCH   4   5
ATOM      5  C   UNL     1      23.026  -6.285  34.790  1.00  0.00     0.001 C 
BRANCH   5   6
ATOM      6  C   UNL     1      24.482  -6.162  34.305  1.00  0.00     0.009 C 
BRANCH   6   7
ATOM      7  C   UNL     1      25.499  -6.714  35.329  1.00  0.00     0.032 C 
ATOM      8  C   UNL     1      24.833  -7.125  36.649  1.00  0.00     0.014 C 
BRANCH   7   9
ATOM      9  C   UNL     1      26.556  -5.680  35.602  1.00  0.00     0.044 C 
ATOM     10  O   UNL     1      27.052  -5.569  36.755  1.00  0.00    -0.550 OA
ATOM     11  O   UNL     1      26.997  -4.842  34.584  1.00  0.00    -0.550 OA
ENDBRANCH   7   9
ENDBRANCH   6   7
ENDBRANCH   5   6
ENDBRANCH   4   5
ENDBRANCH   3   4
ENDBRANCH   2   3
ENDBRANCH   1   2
BRANCH   1  12
ATOM     12  C   UNL     1      25.228  -2.177  36.745  1.00  0.00     0.000 C 
BRANCH  12  13
ATOM     13  C   UNL     1      24.868  -0.715  37.060  1.00  0.00    -0.000 C 
BRANCH  13  14
ATOM     14  C   UNL     1      26.037   0.054  37.701  1.00  0.00    -0.000 C 
BRANCH  14  15
ATOM     15  C   UNL     1      25.588   1.358  38.384  1.00  0.00    -0.000 C 
BRANCH  15  16
ATOM     16  C   UNL     1      26.031   1.514  39.853  1.00  0.00    -0.000 C 
BRANCH  16  17
ATOM     17  C   UNL     1      26.386   2.951  40.283  1.00  0.00    -0.000 C 
BRANCH  17  18
ATOM     18  C   UNL     1      25.832   3.369  41.657  1.00  0.00    -0.003 C 
ATOM     19  C   UNL     1      25.934   2.258  42.702  1.00  0.00     0.004 C 
ENDBRANCH  17  18
ENDBRANCH  16  17
ENDBRANCH  15  16
ENDBRANCH  14  15
ENDBRANCH  13  14
ENDBRANCH  12  13
ENDBRANCH   1  12
TORSDOF 14
ENDMDL
MODEL 9
REMARK VINA RESULT:    -4.114      7.674      9.822
REMARK INTER + INTRA:          -9.001
REMARK INTER:                  -7.145
REMARK INTRA:                  -1.856
REMARK UNBOUND:                -1.520
REMARK SMILES CCCCCCCCCCCCCC[C@H](C)C(=O)[O-]
REMARK SMILES IDX 9 1 10 2 11 3 12 4 13 5 14 6 15 7 16 8 17 9 18 10 19 11 8 12
REMARK SMILES IDX 7 13 6 14 5 15 4 16 3 17 2 18 1 19
REMARK H PARENT
REMARK Flexibility Score: inf
ROOT
ATOM      1  C   UNL     1      28.433  -4.811  37.108  1.00  0.00     0.000 C 
ENDROOT
BRANCH   1   2
ATOM      2  C   UNL     1      27.077  -4.704  36.389  1.00  0.00     0.000 C 
BRANCH   2   3
ATOM      3  C   UNL     1      26.850  -3.343  35.696  1.00  0.00     0.000 C 
BRANCH   3   4
ATOM      4  C   UNL     1      25.796  -2.490  36.425  1.00  0.00     0.000 C 
BRANCH   4   5
ATOM      5  C   UNL     1      24.382  -3.090  36.346  1.00  0.00     0.001 C 
BRANCH   5   6
ATOM      6  C   UNL     1      24.046  -3.626  34.943  1.00  0.00     0.009 C 
BRANCH   6   7
ATOM      7  C   UNL     1      22.916  -4.681  34.965  1.00  0.00     0.032 C 
ATOM      8  C   UNL     1      22.052  -4.585  36.230  1.00  0.00     0.014 C 
BRANCH   7   9
ATOM      9  C   UNL     1      23.509  -6.060  34.867  1.00  0.00     0.044 C 
ATOM     10  O   UNL     1      24.128  -6.555  35.846  1.00  0.00    -0.550 OA
ATOM     11  O   UNL     1      23.376  -6.799  33.697  1.00  0.00    -0.550 OA
ENDBRANCH   7   9
ENDBRANCH   6   7
ENDBRANCH   5   6
ENDBRANCH   4   5
ENDBRANCH   3   4
ENDBRANCH   2   3
ENDBRANCH   1   2
BRANCH   1  12
ATOM     12  C   UNL     1      28.842  -3.504  37.805  1.00  0.00     0.000 C 
BRANCH  12  13
ATOM     13  C   UNL     1      30.193  -2.966  37.303  1.00  0.00    -0.000 C 
BRANCH  13  14
ATOM     14  C   UNL     1      31.197  -4.091  36.995  1.00  0.00    -0.000 C 
BRANCH  14  15
ATOM     15  C   UNL     1      31.840  -3.951  35.604  1.00  0.00    -0.000 C 
BRANCH  15  16
ATOM     16  C   UNL     1      31.276  -2.808  34.734  1.00  0.00    -0.000 C 
BRANCH  16  17
ATOM     17  C   UNL     1      30.444  -3.259  33.518  1.00  0.00    -0.000 C 
BRANCH  17  18
ATOM     18  C   UNL     1      29.902  -4.696  33.604  1.00  0.00    -0.003 C 
ATOM     19  C   UNL     1      28.596  -4.887  32.832  1.00  0.00     0.004 C 
ENDBRANCH  17  18
ENDBRANCH  16  17
ENDBRANCH  15  16
ENDBRANCH  14  15
ENDBRANCH  13  14
ENDBRANCH  12  13
ENDBRANCH   1  12
TORSDOF 14
ENDMDL
