MODEL 1
REMARK VINA RESULT:    -4.725      0.000      0.000
REMARK INTER + INTRA:          -6.488
REMARK INTER:                  -6.244
REMARK INTRA:                  -0.244
REMARK UNBOUND:                -0.244
REMARK SMILES CCCCC=CC=CCO
REMARK SMILES IDX 5 1 6 2 4 3 3 4 2 5 1 6 7 7 8 8 9 9 10 10
REMARK H PARENT 10 11
REMARK Flexibility Score: inf
ROOT
ATOM      1  C   UNL     1      29.459  16.400  16.990  1.00  0.00    -0.027 C 
ATOM      2  C   UNL     1      29.872  15.277  17.584  1.00  0.00    -0.005 C 
ENDROOT
BRANCH   1   3
ATOM      3  C   UNL     1      29.724  17.750  17.589  1.00  0.00     0.027 C 
BRANCH   3   4
ATOM      4  C   UNL     1      31.012  17.742  18.427  1.00  0.00     0.004 C 
BRANCH   4   5
ATOM      5  C   UNL     1      32.038  18.777  17.941  1.00  0.00    -0.003 C 
ATOM      6  C   UNL     1      33.117  19.075  18.982  1.00  0.00     0.004 C 
ENDBRANCH   4   5
ENDBRANCH   3   4
ENDBRANCH   1   3
BRANCH   2   7
ATOM      7  C   UNL     1      29.613  13.958  16.972  1.00  0.00    -0.002 C 
ATOM      8  C   UNL     1      29.814  12.792  17.601  1.00  0.00     0.001 C 
BRANCH   8   9
ATOM      9  C   UNL     1      30.333  12.669  19.007  1.00  0.00     0.183 C 
BRANCH   9  10
ATOM     10  O   UNL     1      31.582  12.033  19.018  1.00  0.00    -0.392 OA
ATOM     11  H   UNL     1      32.253  12.722  18.769  1.00  0.00     0.210 HD
ENDBRANCH   9  10
ENDBRANCH   8   9
ENDBRANCH   2   7
TORSDOF 6
ENDMDL
MODEL 2
REMARK VINA RESULT:    -4.618      3.802      6.684
REMARK INTER + INTRA:          -6.346
REMARK INTER:                  -6.103
REMARK INTRA:                  -0.243
REMARK UNBOUND:                -0.244
REMARK SMILES CCCCC=CC=CCO
REMARK SMILES IDX 5 1 6 2 4 3 3 4 2 5 1 6 7 7 8 8 9 9 10 10
REMARK H PARENT 10 11
REMARK Flexibility Score: inf
ROOT
ATOM      1  C   UNL     1      34.676  19.873  19.978  1.00  0.00    -0.027 C 
ATOM      2  C   UNL     1      34.615  19.049  21.028  1.00  0.00    -0.005 C 
ENDROOT
BRANCH   1   3
ATOM      3  C   UNL     1      33.811  19.671  18.768  1.00  0.00     0.027 C 
BRANCH   3   4
ATOM      4  C   UNL     1      32.680  18.672  19.055  1.00  0.00     0.004 C 
BRANCH   4   5
ATOM      5  C   UNL     1      31.689  18.551  17.887  1.00  0.00    -0.003 C 
ATOM      6  C   UNL     1      30.541  17.587  18.181  1.00  0.00     0.004 C 
ENDBRANCH   4   5
ENDBRANCH   3   4
ENDBRANCH   1   3
BRANCH   2   7
ATOM      7  C   UNL     1      35.464  19.273  22.215  1.00  0.00    -0.002 C 
ATOM      8  C   UNL     1      35.342  18.586  23.358  1.00  0.00     0.001 C 
BRANCH   8   9
ATOM      9  C   UNL     1      34.325  17.503  23.590  1.00  0.00     0.183 C 
BRANCH   9  10
ATOM     10  O   UNL     1      33.262  17.982  24.368  1.00  0.00    -0.392 OA
ATOM     11  H   UNL     1      32.965  18.832  23.950  1.00  0.00     0.210 HD
ENDBRANCH   9  10
ENDBRANCH   8   9
ENDBRANCH   2   7
TORSDOF 6
ENDMDL
MODEL 3
REMARK VINA RESULT:    -4.555      4.391      6.627
REMARK INTER + INTRA:          -6.264
REMARK INTER:                  -6.068
REMARK INTRA:                  -0.196
REMARK UNBOUND:                -0.244
REMARK SMILES CCCCC=CC=CCO
REMARK SMILES IDX 5 1 6 2 4 3 3 4 2 5 1 6 7 7 8 8 9 9 10 10
REMARK H PARENT 10 11
REMARK Flexibility Score: inf
ROOT
ATOM      1  C   UNL     1      34.245  19.374  20.287  1.00  0.00    -0.027 C 
ATOM      2  C   UNL     1      34.431  18.601  21.361  1.00  0.00    -0.005 C 
ENDROOT
BRANCH   1   3
ATOM      3  C   UNL     1      33.268  19.002  19.210  1.00  0.00     0.027 C 
BRANCH   3   4
ATOM      4  C   UNL     1      33.455  19.881  17.964  1.00  0.00     0.004 C 
BRANCH   4   5
ATOM      5  C   UNL     1      32.411  19.590  16.875  1.00  0.00    -0.003 C 
ATOM      6  C   UNL     1      31.316  18.632  17.345  1.00  0.00     0.004 C 
ENDBRANCH   4   5
ENDBRANCH   3   4
ENDBRANCH   1   3
BRANCH   2   7
ATOM      7  C   UNL     1      35.387  18.992  22.417  1.00  0.00    -0.002 C 
ATOM      8  C   UNL     1      35.523  18.337  23.577  1.00  0.00     0.001 C 
BRANCH   8   9
ATOM      9  C   UNL     1      34.722  17.124  23.963  1.00  0.00     0.183 C 
BRANCH   9  10
ATOM     10  O   UNL     1      33.490  17.502  24.516  1.00  0.00    -0.392 OA
ATOM     11  H   UNL     1      33.002  16.662  24.721  1.00  0.00     0.210 HD
ENDBRANCH   9  10
ENDBRANCH   8   9
ENDBRANCH   2   7
TORSDOF 6
ENDMDL
MODEL 4
REMARK VINA RESULT:    -4.452      3.526      5.606
REMARK INTER + INTRA:          -6.128
REMARK INTER:                  -5.901
REMARK INTRA:                  -0.227
REMARK UNBOUND:                -0.244
REMARK SMILES CCCCC=CC=CCO
REMARK SMILES IDX 5 1 6 2 4 3 3 4 2 5 1 6 7 7 8 8 9 9 10 10
REMARK H PARENT 10 11
REMARK Flexibility Score: inf
ROOT
ATOM      1  C   UNL     1      34.145  20.074  18.653  1.00  0.00    -0.027 C 
ATOM      2  C   UNL     1      33.056  19.317  18.490  1.00  0.00    -0.005 C 
ENDROOT
BRANCH   1   3
ATOM      3  C   UNL     1      34.899  20.098  19.951  1.00  0.00     0.027 C 
BRANCH   3   4
ATOM      4  C   UNL     1      34.407  18.994  20.899  1.00  0.00     0.004 C 
BRANCH   4   5
ATOM      5  C   UNL     1      35.453  18.619  21.960  1.00  0.00    -0.003 C 
ATOM      6  C   UNL     1      34.825  18.136  23.266  1.00  0.00     0.004 C 
ENDBRANCH   4   5
ENDBRANCH   3   4
ENDBRANCH   1   3
BRANCH   2   7
ATOM      7  C   UNL     1      32.336  19.296  17.200  1.00  0.00    -0.002 C 
ATOM      8  C   UNL     1      31.214  18.597  16.985  1.00  0.00     0.001 C 
BRANCH   8   9
ATOM      9  C   UNL     1      30.540  17.740  18.020  1.00  0.00     0.183 C 
BRANCH   9  10
ATOM     10  O   UNL     1      29.180  18.063  18.119  1.00  0.00    -0.392 OA
ATOM     11  H   UNL     1      29.096  19.019  17.862  1.00  0.00     0.210 HD
ENDBRANCH   9  10
ENDBRANCH   8   9
ENDBRANCH   2   7
TORSDOF 6
ENDMDL
MODEL 5
REMARK VINA RESULT:    -4.339      5.305      6.638
REMARK INTER + INTRA:          -5.978
REMARK INTER:                  -5.686
REMARK INTRA:                  -0.292
REMARK UNBOUND:                -0.244
REMARK SMILES CCCCC=CC=CCO
REMARK SMILES IDX 5 1 6 2 4 3 3 4 2 5 1 6 7 7 8 8 9 9 10 10
REMARK H PARENT 10 11
REMARK Flexibility Score: inf
ROOT
ATOM      1  C   UNL     1      34.104  19.349  20.162  1.00  0.00    -0.027 C 
ATOM      2  C   UNL     1      34.300  18.577  21.234  1.00  0.00    -0.005 C 
ENDROOT
BRANCH   1   3
ATOM      3  C   UNL     1      33.099  18.991  19.106  1.00  0.00     0.027 C 
BRANCH   3   4
ATOM      4  C   UNL     1      33.349  19.778  17.811  1.00  0.00     0.004 C 
BRANCH   4   5
ATOM      5  C   UNL     1      34.537  20.745  17.929  1.00  0.00    -0.003 C 
ATOM      6  C   UNL     1      35.676  20.405  16.968  1.00  0.00     0.004 C 
ENDBRANCH   4   5
ENDBRANCH   3   4
ENDBRANCH   1   3
BRANCH   2   7
ATOM      7  C   UNL     1      35.284  18.955  22.269  1.00  0.00    -0.002 C 
ATOM      8  C   UNL     1      35.376  18.356  23.463  1.00  0.00     0.001 C 
BRANCH   8   9
ATOM      9  C   UNL     1      34.491  17.226  23.913  1.00  0.00     0.183 C 
BRANCH   9  10
ATOM     10  O   UNL     1      33.310  17.721  24.483  1.00  0.00    -0.392 OA
ATOM     11  H   UNL     1      33.055  18.523  23.956  1.00  0.00     0.210 HD
ENDBRANCH   9  10
ENDBRANCH   8   9
ENDBRANCH   2   7
TORSDOF 6
ENDMDL
MODEL 6
REMARK VINA RESULT:    -4.335      4.036      6.827
REMARK INTER + INTRA:          -5.973
REMARK INTER:                  -5.716
REMARK INTRA:                  -0.256
REMARK UNBOUND:                -0.244
REMARK SMILES CCCCC=CC=CCO
REMARK SMILES IDX 5 1 6 2 4 3 3 4 2 5 1 6 7 7 8 8 9 9 10 10
REMARK H PARENT 10 11
REMARK Flexibility Score: inf
ROOT
ATOM      1  C   UNL     1      32.854  18.910  18.777  1.00  0.00    -0.027 C 
ATOM      2  C   UNL     1      33.851  19.520  19.424  1.00  0.00    -0.005 C 
ENDROOT
BRANCH   1   3
ATOM      3  C   UNL     1      32.409  19.360  17.416  1.00  0.00     0.027 C 
BRANCH   3   4
ATOM      4  C   UNL     1      31.064  18.722  17.034  1.00  0.00     0.004 C 
BRANCH   4   5
ATOM      5  C   UNL     1      30.569  17.716  18.085  1.00  0.00    -0.003 C 
ATOM      6  C   UNL     1      29.909  16.487  17.461  1.00  0.00     0.004 C 
ENDBRANCH   4   5
ENDBRANCH   3   4
ENDBRANCH   1   3
BRANCH   2   7
ATOM      7  C   UNL     1      34.285  19.054  20.758  1.00  0.00    -0.002 C 
ATOM      8  C   UNL     1      35.428  19.432  21.344  1.00  0.00     0.001 C 
BRANCH   8   9
ATOM      9  C   UNL     1      36.423  20.376  20.726  1.00  0.00     0.183 C 
BRANCH   9  10
ATOM     10  O   UNL     1      36.774  21.386  21.632  1.00  0.00    -0.392 OA
ATOM     11  H   UNL     1      36.191  21.269  22.427  1.00  0.00     0.210 HD
ENDBRANCH   9  10
ENDBRANCH   8   9
ENDBRANCH   2   7
TORSDOF 6
ENDMDL
MODEL 7
REMARK VINA RESULT:    -4.306      4.823      7.674
REMARK INTER + INTRA:          -5.934
REMARK INTER:                  -5.681
REMARK INTRA:                  -0.253
REMARK UNBOUND:                -0.244
REMARK SMILES CCCCC=CC=CCO
REMARK SMILES IDX 5 1 6 2 4 3 3 4 2 5 1 6 7 7 8 8 9 9 10 10
REMARK H PARENT 10 11
REMARK Flexibility Score: inf
ROOT
ATOM      1  C   UNL     1      34.134  19.098  20.384  1.00  0.00    -0.027 C 
ATOM      2  C   UNL     1      35.119  19.336  21.254  1.00  0.00    -0.005 C 
ENDROOT
BRANCH   1   3
ATOM      3  C   UNL     1      34.053  19.819  19.070  1.00  0.00     0.027 C 
BRANCH   3   4
ATOM      4  C   UNL     1      32.852  19.334  18.244  1.00  0.00     0.004 C 
BRANCH   4   5
ATOM      5  C   UNL     1      32.008  18.287  18.988  1.00  0.00    -0.003 C 
ATOM      6  C   UNL     1      30.802  17.814  18.177  1.00  0.00     0.004 C 
ENDBRANCH   4   5
ENDBRANCH   3   4
ENDBRANCH   1   3
BRANCH   2   7
ATOM      7  C   UNL     1      35.189  18.605  22.536  1.00  0.00    -0.002 C 
ATOM      8  C   UNL     1      35.718  19.114  23.656  1.00  0.00     0.001 C 
BRANCH   8   9
ATOM      9  C   UNL     1      36.314  20.492  23.759  1.00  0.00     0.183 C 
BRANCH   9  10
ATOM     10  O   UNL     1      35.851  21.144  24.911  1.00  0.00    -0.392 OA
ATOM     11  H   UNL     1      35.632  22.074  24.641  1.00  0.00     0.210 HD
ENDBRANCH   9  10
ENDBRANCH   8   9
ENDBRANCH   2   7
TORSDOF 6
ENDMDL
MODEL 8
REMARK VINA RESULT:    -4.218      3.050      5.435
REMARK INTER + INTRA:          -5.818
REMARK INTER:                  -5.602
REMARK INTRA:                  -0.215
REMARK UNBOUND:                -0.244
REMARK SMILES CCCCC=CC=CCO
REMARK SMILES IDX 5 1 6 2 4 3 3 4 2 5 1 6 7 7 8 8 9 9 10 10
REMARK H PARENT 10 11
REMARK Flexibility Score: inf
ROOT
ATOM      1  C   UNL     1      33.836  19.507  19.417  1.00  0.00    -0.027 C 
ATOM      2  C   UNL     1      32.806  18.783  18.970  1.00  0.00    -0.005 C 
ENDROOT
BRANCH   1   3
ATOM      3  C   UNL     1      34.471  19.234  20.749  1.00  0.00     0.027 C 
BRANCH   3   4
ATOM      4  C   UNL     1      35.810  19.974  20.888  1.00  0.00     0.004 C 
BRANCH   4   5
ATOM      5  C   UNL     1      35.708  21.456  20.496  1.00  0.00    -0.003 C 
ATOM      6  C   UNL     1      35.959  22.398  21.673  1.00  0.00     0.004 C 
ENDBRANCH   4   5
ENDBRANCH   3   4
ENDBRANCH   1   3
BRANCH   2   7
ATOM      7  C   UNL     1      32.204  19.059  17.650  1.00  0.00    -0.002 C 
ATOM      8  C   UNL     1      31.100  18.454  17.194  1.00  0.00     0.001 C 
BRANCH   8   9
ATOM      9  C   UNL     1      30.329  17.413  17.958  1.00  0.00     0.183 C 
BRANCH   9  10
ATOM     10  O   UNL     1      29.973  16.348  17.120  1.00  0.00    -0.392 OA
ATOM     11  H   UNL     1      29.017  16.150  17.303  1.00  0.00     0.210 HD
ENDBRANCH   9  10
ENDBRANCH   8   9
ENDBRANCH   2   7
TORSDOF 6
ENDMDL
MODEL 9
REMARK VINA RESULT:    -4.174      3.827      5.065
REMARK INTER + INTRA:          -5.760
REMARK INTER:                  -5.548
REMARK INTRA:                  -0.212
REMARK UNBOUND:                -0.244
REMARK SMILES CCCCC=CC=CCO
REMARK SMILES IDX 5 1 6 2 4 3 3 4 2 5 1 6 7 7 8 8 9 9 10 10
REMARK H PARENT 10 11
REMARK Flexibility Score: inf
ROOT
ATOM      1  C   UNL     1      32.707  19.005  18.243  1.00  0.00    -0.027 C 
ATOM      2  C   UNL     1      31.610  18.931  17.484  1.00  0.00    -0.005 C 
ENDROOT
BRANCH   1   3
ATOM      3  C   UNL     1      33.611  20.203  18.205  1.00  0.00     0.027 C 
BRANCH   3   4
ATOM      4  C   UNL     1      34.979  19.886  18.829  1.00  0.00     0.004 C 
BRANCH   4   5
ATOM      5  C   UNL     1      35.038  20.234  20.325  1.00  0.00    -0.003 C 
ATOM      6  C   UNL     1      34.757  19.031  21.224  1.00  0.00     0.004 C 
ENDBRANCH   4   5
ENDBRANCH   3   4
ENDBRANCH   1   3
BRANCH   2   7
ATOM      7  C   UNL     1      30.725  17.750  17.547  1.00  0.00    -0.002 C 
ATOM      8  C   UNL     1      29.388  17.820  17.536  1.00  0.00     0.001 C 
BRANCH   8   9
ATOM      9  C   UNL     1      28.609  19.104  17.462  1.00  0.00     0.183 C 
BRANCH   9  10
ATOM     10  O   UNL     1      27.691  19.186  18.518  1.00  0.00    -0.392 OA
ATOM     11  H   UNL     1      27.360  20.122  18.534  1.00  0.00     0.210 HD
ENDBRANCH   9  10
ENDBRANCH   8   9
ENDBRANCH   2   7
TORSDOF 6
ENDMDL
