MODEL 1
REMARK VINA RESULT:    -4.229      0.000      0.000
REMARK INTER + INTRA:          -5.438
REMARK INTER:                  -5.218
REMARK INTRA:                  -0.220
REMARK UNBOUND:                -0.220
REMARK SMILES CCCCCC(=O)[O-]
REMARK SMILES IDX 4 1 5 2 6 3 7 4 8 5 3 6 2 7 1 8
REMARK H PARENT
REMARK Flexibility Score: inf
ROOT
ATOM      1  C   UNL     1      -2.855  35.294  99.543  1.00  0.00     0.006 C 
ENDROOT
BRANCH   1   2
ATOM      2  C   UNL     1      -2.829  35.457  98.018  1.00  0.00     0.053 C 
BRANCH   2   3
ATOM      3  C   UNL     1      -3.383  36.790  97.626  1.00  0.00     0.041 C 
ATOM      4  O   UNL     1      -3.238  37.784  98.384  1.00  0.00    -0.550 OA
ATOM      5  O   UNL     1      -4.101  36.925  96.445  1.00  0.00    -0.550 OA
ENDBRANCH   2   3
ENDBRANCH   1   2
BRANCH   1   6
ATOM      6  C   UNL     1      -4.072  34.493 100.040  1.00  0.00     0.000 C 
BRANCH   6   7
ATOM      7  C   UNL     1      -5.324  35.338 100.336  1.00  0.00    -0.003 C 
ATOM      8  C   UNL     1      -5.032  36.548 101.224  1.00  0.00     0.004 C 
ENDBRANCH   6   7
ENDBRANCH   1   6
TORSDOF 4
ENDMDL
MODEL 2
REMARK VINA RESULT:    -4.121      1.659      2.381
REMARK INTER + INTRA:          -5.305
REMARK INTER:                  -5.041
REMARK INTRA:                  -0.264
REMARK UNBOUND:                -0.220
REMARK SMILES CCCCCC(=O)[O-]
REMARK SMILES IDX 4 1 5 2 6 3 7 4 8 5 3 6 2 7 1 8
REMARK H PARENT
REMARK Flexibility Score: inf
ROOT
ATOM      1  C   UNL     1      -4.457  34.324  98.626  1.00  0.00     0.006 C 
ENDROOT
BRANCH   1   2
ATOM      2  C   UNL     1      -5.666  35.259  98.770  1.00  0.00     0.053 C 
BRANCH   2   3
ATOM      3  C   UNL     1      -5.417  36.548  98.054  1.00  0.00     0.041 C 
ATOM      4  O   UNL     1      -5.296  36.564  96.801  1.00  0.00    -0.550 OA
ATOM      5  O   UNL     1      -5.270  37.726  98.774  1.00  0.00    -0.550 OA
ENDBRANCH   2   3
ENDBRANCH   1   2
BRANCH   1   6
ATOM      6  C   UNL     1      -3.150  34.952  99.142  1.00  0.00     0.000 C 
BRANCH   6   7
ATOM      7  C   UNL     1      -3.088  35.155 100.666  1.00  0.00    -0.003 C 
ATOM      8  C   UNL     1      -2.733  36.587 101.065  1.00  0.00     0.004 C 
ENDBRANCH   6   7
ENDBRANCH   1   6
TORSDOF 4
ENDMDL
MODEL 3
REMARK VINA RESULT:    -4.096      1.631      2.513
REMARK INTER + INTRA:          -5.274
REMARK INTER:                  -5.061
REMARK INTRA:                  -0.212
REMARK UNBOUND:                -0.220
REMARK SMILES CCCCCC(=O)[O-]
REMARK SMILES IDX 4 1 5 2 6 3 7 4 8 5 3 6 2 7 1 8
REMARK H PARENT
REMARK Flexibility Score: inf
ROOT
ATOM      1  C   UNL     1      -3.251  36.737  97.478  1.00  0.00     0.006 C 
ENDROOT
BRANCH   1   2
ATOM      2  C   UNL     1      -4.649  36.742  96.847  1.00  0.00     0.053 C 
BRANCH   2   3
ATOM      3  C   UNL     1      -5.580  37.598  97.646  1.00  0.00     0.041 C 
ATOM      4  O   UNL     1      -5.292  37.912  98.830  1.00  0.00    -0.550 OA
ATOM      5  O   UNL     1      -6.788  38.009  97.099  1.00  0.00    -0.550 OA
ENDBRANCH   2   3
ENDBRANCH   1   2
BRANCH   1   6
ATOM      6  C   UNL     1      -2.867  35.371  98.076  1.00  0.00     0.000 C 
BRANCH   6   7
ATOM      7  C   UNL     1      -2.853  35.321  99.614  1.00  0.00    -0.003 C 
ATOM      8  C   UNL     1      -4.010  34.510 100.197  1.00  0.00     0.004 C 
ENDBRANCH   6   7
ENDBRANCH   1   6
TORSDOF 4
ENDMDL
MODEL 4
REMARK VINA RESULT:    -4.078      2.085      3.601
REMARK INTER + INTRA:          -5.252
REMARK INTER:                  -5.112
REMARK INTRA:                  -0.140
REMARK UNBOUND:                -0.220
REMARK SMILES CCCCCC(=O)[O-]
REMARK SMILES IDX 4 1 5 2 6 3 7 4 8 5 3 6 2 7 1 8
REMARK H PARENT
REMARK Flexibility Score: inf
ROOT
ATOM      1  C   UNL     1      -2.991  35.120  98.640  1.00  0.00     0.006 C 
ENDROOT
BRANCH   1   2
ATOM      2  C   UNL     1      -3.617  34.777  99.998  1.00  0.00     0.053 C 
BRANCH   2   3
ATOM      3  C   UNL     1      -4.991  35.359 100.101  1.00  0.00     0.041 C 
ATOM      4  O   UNL     1      -5.896  34.992  99.306  1.00  0.00    -0.550 OA
ATOM      5  O   UNL     1      -5.261  36.343 101.043  1.00  0.00    -0.550 OA
ENDBRANCH   2   3
ENDBRANCH   1   2
BRANCH   1   6
ATOM      6  C   UNL     1      -3.229  36.581  98.221  1.00  0.00     0.000 C 
BRANCH   6   7
ATOM      7  C   UNL     1      -3.610  36.775  96.742  1.00  0.00    -0.003 C 
ATOM      8  C   UNL     1      -5.075  37.166  96.548  1.00  0.00     0.004 C 
ENDBRANCH   6   7
ENDBRANCH   1   6
TORSDOF 4
ENDMDL
MODEL 5
REMARK VINA RESULT:    -4.028      1.819      3.490
REMARK INTER + INTRA:          -5.190
REMARK INTER:                  -4.959
REMARK INTRA:                  -0.232
REMARK UNBOUND:                -0.220
REMARK SMILES CCCCCC(=O)[O-]
REMARK SMILES IDX 4 1 5 2 6 3 7 4 8 5 3 6 2 7 1 8
REMARK H PARENT
REMARK Flexibility Score: inf
ROOT
ATOM      1  C   UNL     1      -4.963  35.590  99.951  1.00  0.00     0.006 C 
ENDROOT
BRANCH   1   2
ATOM      2  C   UNL     1      -5.116  36.404 101.243  1.00  0.00     0.053 C 
BRANCH   2   3
ATOM      3  C   UNL     1      -3.906  37.255 101.469  1.00  0.00     0.041 C 
ATOM      4  O   UNL     1      -3.212  37.104 102.508  1.00  0.00    -0.550 OA
ATOM      5  O   UNL     1      -3.573  38.247 100.557  1.00  0.00    -0.550 OA
ENDBRANCH   2   3
ENDBRANCH   1   2
BRANCH   1   6
ATOM      6  C   UNL     1      -3.638  34.810  99.886  1.00  0.00     0.000 C 
BRANCH   6   7
ATOM      7  C   UNL     1      -2.820  35.034  98.601  1.00  0.00    -0.003 C 
ATOM      8  C   UNL     1      -3.277  36.257  97.806  1.00  0.00     0.004 C 
ENDBRANCH   6   7
ENDBRANCH   1   6
TORSDOF 4
ENDMDL
MODEL 6
REMARK VINA RESULT:    -4.016      2.007      2.834
REMARK INTER + INTRA:          -5.175
REMARK INTER:                  -4.926
REMARK INTRA:                  -0.250
REMARK UNBOUND:                -0.220
REMARK SMILES CCCCCC(=O)[O-]
REMARK SMILES IDX 4 1 5 2 6 3 7 4 8 5 3 6 2 7 1 8
REMARK H PARENT
REMARK Flexibility Score: inf
ROOT
ATOM      1  C   UNL     1      -2.893  35.202  99.099  1.00  0.00     0.006 C 
ENDROOT
BRANCH   1   2
ATOM      2  C   UNL     1      -2.620  35.748 100.507  1.00  0.00     0.053 C 
BRANCH   2   3
ATOM      3  C   UNL     1      -3.517  36.908 100.801  1.00  0.00     0.041 C 
ATOM      4  O   UNL     1      -4.509  36.765 101.563  1.00  0.00    -0.550 OA
ATOM      5  O   UNL     1      -3.288  38.136 100.194  1.00  0.00    -0.550 OA
ENDBRANCH   2   3
ENDBRANCH   1   2
BRANCH   1   6
ATOM      6  C   UNL     1      -4.077  34.220  99.057  1.00  0.00     0.000 C 
BRANCH   6   7
ATOM      7  C   UNL     1      -5.359  34.782  98.415  1.00  0.00    -0.003 C 
ATOM      8  C   UNL     1      -5.107  36.029  97.569  1.00  0.00     0.004 C 
ENDBRANCH   6   7
ENDBRANCH   1   6
TORSDOF 4
ENDMDL
MODEL 7
REMARK VINA RESULT:    -3.971      2.401      3.376
REMARK INTER + INTRA:          -5.120
REMARK INTER:                  -4.891
REMARK INTRA:                  -0.229
REMARK UNBOUND:                -0.220
REMARK SMILES CCCCCC(=O)[O-]
REMARK SMILES IDX 4 1 5 2 6 3 7 4 8 5 3 6 2 7 1 8
REMARK H PARENT
REMARK Flexibility Score: inf
ROOT
ATOM      1  C   UNL     1      -4.247  37.282  98.519  1.00  0.00     0.006 C 
ENDROOT
BRANCH   1   2
ATOM      2  C   UNL     1      -3.576  38.481  99.204  1.00  0.00     0.053 C 
BRANCH   2   3
ATOM      3  C   UNL     1      -3.246  38.153 100.625  1.00  0.00     0.041 C 
ATOM      4  O   UNL     1      -2.172  38.564 101.138  1.00  0.00    -0.550 OA
ATOM      5  O   UNL     1      -4.100  37.351 101.371  1.00  0.00    -0.550 OA
ENDBRANCH   2   3
ENDBRANCH   1   2
BRANCH   1   6
ATOM      6  C   UNL     1      -3.245  36.375  97.784  1.00  0.00     0.000 C 
BRANCH   6   7
ATOM      7  C   UNL     1      -2.831  35.110  98.558  1.00  0.00    -0.003 C 
ATOM      8  C   UNL     1      -4.013  34.393  99.209  1.00  0.00     0.004 C 
ENDBRANCH   6   7
ENDBRANCH   1   6
TORSDOF 4
ENDMDL
MODEL 8
REMARK VINA RESULT:    -3.938      1.484      2.285
REMARK INTER + INTRA:          -5.078
REMARK INTER:                  -4.813
REMARK INTRA:                  -0.265
REMARK UNBOUND:                -0.220
REMARK SMILES CCCCCC(=O)[O-]
REMARK SMILES IDX 4 1 5 2 6 3 7 4 8 5 3 6 2 7 1 8
REMARK H PARENT
REMARK Flexibility Score: inf
ROOT
ATOM      1  C   UNL     1      -3.511  37.036 100.862  1.00  0.00     0.006 C 
ENDROOT
BRANCH   1   2
ATOM      2  C   UNL     1      -3.240  38.312 100.055  1.00  0.00     0.053 C 
BRANCH   2   3
ATOM      3  C   UNL     1      -3.708  38.147  98.644  1.00  0.00     0.041 C 
ATOM      4  O   UNL     1      -3.198  37.265  97.906  1.00  0.00    -0.550 OA
ATOM      5  O   UNL     1      -4.675  39.000  98.128  1.00  0.00    -0.550 OA
ENDBRANCH   2   3
ENDBRANCH   1   2
BRANCH   1   6
ATOM      6  C   UNL     1      -4.999  36.640 100.874  1.00  0.00     0.000 C 
BRANCH   6   7
ATOM      7  C   UNL     1      -5.305  35.265 100.253  1.00  0.00    -0.003 C 
ATOM      8  C   UNL     1      -4.048  34.444  99.967  1.00  0.00     0.004 C 
ENDBRANCH   6   7
ENDBRANCH   1   6
TORSDOF 4
ENDMDL
MODEL 9
REMARK VINA RESULT:    -3.862      1.698      2.337
REMARK INTER + INTRA:          -4.985
REMARK INTER:                  -4.757
REMARK INTRA:                  -0.229
REMARK UNBOUND:                -0.220
REMARK SMILES CCCCCC(=O)[O-]
REMARK SMILES IDX 4 1 5 2 6 3 7 4 8 5 3 6 2 7 1 8
REMARK H PARENT
REMARK Flexibility Score: inf
ROOT
ATOM      1  C   UNL     1      -5.063  35.267 100.290  1.00  0.00     0.006 C 
ENDROOT
BRANCH   1   2
ATOM      2  C   UNL     1      -4.916  35.166  98.766  1.00  0.00     0.053 C 
BRANCH   2   3
ATOM      3  C   UNL     1      -3.549  35.605  98.344  1.00  0.00     0.041 C 
ATOM      4  O   UNL     1      -2.540  34.920  98.654  1.00  0.00    -0.550 OA
ATOM      5  O   UNL     1      -3.385  36.796  97.649  1.00  0.00    -0.550 OA
ENDBRANCH   2   3
ENDBRANCH   1   2
BRANCH   1   6
ATOM      6  C   UNL     1      -4.973  36.715 100.807  1.00  0.00     0.000 C 
BRANCH   6   7
ATOM      7  C   UNL     1      -3.765  37.000 101.717  1.00  0.00    -0.003 C 
ATOM      8  C   UNL     1      -2.953  38.216 101.271  1.00  0.00     0.004 C 
ENDBRANCH   6   7
ENDBRANCH   1   6
TORSDOF 4
ENDMDL
