MODEL 1
REMARK VINA RESULT:    -1.711      0.000      0.000
REMARK INTER + INTRA:          -1.945
REMARK INTER:                  -2.611
REMARK INTRA:                   0.666
REMARK UNBOUND:                 0.666
REMARK SMILES CC1=CCC[C@H](C)C(=O)C[C@H](C(C)C)C(=O)C1
REMARK SMILES IDX 8 1 9 2 6 3 7 4 5 5 4 6 3 7 2 8 1 9 10 11 11 12 15 13 16 14
REMARK SMILES IDX 17 15 12 17 13 18 14 19
REMARK H PARENT
REMARK Flexibility Score: 70.00
ROOT
ATOM      1  C   UNL     1       8.599  -2.636  -3.262  1.00  0.00     0.136 C 
ATOM      2  O   UNL     1       9.519  -1.897  -2.942  1.00  0.00    -0.299 OA
ENDROOT
BRANCH   1   3
ATOM      3  C   UNL     1       7.275  -2.548  -2.522  1.00  0.00     0.053 C 
ATOM      4  C   UNL     1       6.102  -2.719  -3.496  1.00  0.00     0.016 C 
BRANCH   3   5
ATOM      5  C   UNL     1       7.219  -3.607  -1.399  1.00  0.00     0.015 C 
BRANCH   5   6
ATOM      6  C   UNL     1       8.521  -3.647  -0.573  1.00  0.00     0.028 C 
BRANCH   6   7
ATOM      7  C   UNL     1       9.010  -5.064  -0.412  1.00  0.00    -0.028 C 
ATOM      8  C   UNL     1      10.038  -5.608  -1.104  1.00  0.00    -0.070 CG0
ATOM      9  C   UNL     1      10.348  -7.067  -0.883  1.00  0.00     0.039 C 
ATOM     10  G   UNL     1      10.898  -4.808  -2.070  1.00  0.00     0.000 G0
ENDBRANCH   6   7
ENDBRANCH   5   6
ENDBRANCH   3   5
ENDBRANCH   1   3
BRANCH   1  11
ATOM     11  C   UNL     1       8.798  -3.626  -4.389  1.00  0.00     0.087 C 
BRANCH  11  12
ATOM     12  C   UNL     1      10.255  -4.165  -4.552  1.00  0.00     0.066 C 
BRANCH  12  13
ATOM     13  C   UNL     1      10.642  -5.221  -3.520  1.00  0.00     0.140 C 
ATOM     14  O   UNL     1      10.815  -6.381  -3.866  1.00  0.00    -0.299 OA
BRANCH  13  15
ATOM     15  C   UNL     1      10.904  -4.837  -2.083  1.00  0.00     0.106 CG0
ATOM     16  G   UNL     1      10.013  -5.591  -1.109  1.00  0.00     0.000 G0
ENDBRANCH  13  15
ENDBRANCH  12  13
BRANCH  12  17
ATOM     17  C   UNL     1      10.638  -4.606  -6.003  1.00  0.00    -0.006 C 
ATOM     18  C   UNL     1      11.025  -3.400  -6.878  1.00  0.00     0.008 C 
ATOM     19  C   UNL     1       9.564  -5.442  -6.718  1.00  0.00     0.008 C 
ENDBRANCH  12  17
ENDBRANCH  11  12
ENDBRANCH   1  11
TORSDOF 1
ENDMDL
MODEL 2
REMARK VINA RESULT:     0.678     16.613     17.806
REMARK INTER + INTRA:           1.701
REMARK INTER:                  -1.210
REMARK INTRA:                   2.911
REMARK UNBOUND:                 0.666
REMARK SMILES CC1=CCC[C@H](C)C(=O)C[C@H](C(C)C)C(=O)C1
REMARK SMILES IDX 8 1 9 2 6 3 7 4 5 5 4 6 3 7 2 8 1 9 10 11 11 12 15 13 16 14
REMARK SMILES IDX 17 15 12 17 13 18 14 19
REMARK H PARENT
REMARK Flexibility Score: 70.00
ROOT
ATOM      1  C   UNL     1      -8.300  -2.882  -4.336  1.00  0.00     0.136 C 
ATOM      2  O   UNL     1      -8.271  -1.951  -5.128  1.00  0.00    -0.299 OA
ENDROOT
BRANCH   1   3
ATOM      3  C   UNL     1      -7.862  -2.657  -2.899  1.00  0.00     0.053 C 
ATOM      4  C   UNL     1      -6.523  -1.910  -2.856  1.00  0.00     0.016 C 
BRANCH   3   5
ATOM      5  C   UNL     1      -8.952  -1.884  -2.124  1.00  0.00     0.015 C 
BRANCH   5   6
ATOM      6  C   UNL     1      -8.853  -2.112  -0.602  1.00  0.00     0.028 C 
BRANCH   6   7
ATOM      7  C   UNL     1      -7.915  -3.251  -0.291  1.00  0.00    -0.028 C 
ATOM      8  C   UNL     1      -8.049  -4.512  -0.766  1.00  0.00    -0.070 CG0
ATOM      9  C   UNL     1      -7.069  -5.555  -0.292  1.00  0.00     0.039 C 
ATOM     10  G   UNL     1      -9.124  -4.906  -1.767  1.00  0.00     0.000 G0
ENDBRANCH   6   7
ENDBRANCH   5   6
ENDBRANCH   3   5
ENDBRANCH   1   3
BRANCH   1  11
ATOM     11  C   UNL     1      -8.770  -4.242  -4.805  1.00  0.00     0.087 C 
BRANCH  11  12
ATOM     12  C   UNL     1      -8.057  -5.461  -4.137  1.00  0.00     0.066 C 
BRANCH  12  13
ATOM     13  C   UNL     1      -8.686  -5.895  -2.815  1.00  0.00     0.140 C 
ATOM     14  O   UNL     1      -8.772  -7.082  -2.539  1.00  0.00    -0.299 OA
BRANCH  13  15
ATOM     15  C   UNL     1      -9.124  -4.870  -1.796  1.00  0.00     0.106 CG0
ATOM     16  G   UNL     1      -8.030  -4.549  -0.789  1.00  0.00     0.000 G0
ENDBRANCH  13  15
ENDBRANCH  12  13
BRANCH  12  17
ATOM     17  C   UNL     1      -7.802  -6.678  -5.084  1.00  0.00    -0.006 C 
ATOM     18  C   UNL     1      -6.341  -6.727  -5.565  1.00  0.00     0.008 C 
ATOM     19  C   UNL     1      -8.749  -6.752  -6.294  1.00  0.00     0.008 C 
ENDBRANCH  12  17
ENDBRANCH  11  12
ENDBRANCH   1  11
TORSDOF 1
ENDMDL
MODEL 3
REMARK VINA RESULT:     1.273      2.101      2.613
REMARK INTER + INTRA:           2.609
REMARK INTER:                   0.320
REMARK INTRA:                   2.289
REMARK UNBOUND:                 0.666
REMARK SMILES CC1=CCC[C@H](C)C(=O)C[C@H](C(C)C)C(=O)C1
REMARK SMILES IDX 8 1 9 2 6 3 7 4 5 5 4 6 3 7 2 8 1 9 10 11 11 12 15 13 16 14
REMARK SMILES IDX 17 15 12 17 13 18 14 19
REMARK H PARENT
REMARK Flexibility Score: 70.00
ROOT
ATOM      1  C   UNL     1       6.617  -3.097  -2.837  1.00  0.00     0.136 C 
ATOM      2  O   UNL     1       6.469  -1.891  -2.974  1.00  0.00    -0.299 OA
ENDROOT
BRANCH   1   3
ATOM      3  C   UNL     1       5.872  -3.822  -1.729  1.00  0.00     0.053 C 
ATOM      4  C   UNL     1       6.658  -5.058  -1.272  1.00  0.00     0.016 C 
BRANCH   3   5
ATOM      5  C   UNL     1       5.612  -2.864  -0.545  1.00  0.00     0.015 C 
BRANCH   5   6
ATOM      6  C   UNL     1       6.775  -1.875  -0.332  1.00  0.00     0.028 C 
BRANCH   6   7
ATOM      7  C   UNL     1       8.021  -2.601   0.109  1.00  0.00    -0.028 C 
ATOM      8  C   UNL     1       9.171  -2.663  -0.603  1.00  0.00    -0.070 CG0
ATOM      9  C   UNL     1      10.299  -3.501  -0.057  1.00  0.00     0.039 C 
ATOM     10  G   UNL     1       9.373  -1.909  -1.908  1.00  0.00     0.000 G0
ENDBRANCH   6   7
ENDBRANCH   5   6
ENDBRANCH   3   5
ENDBRANCH   1   3
BRANCH   1  11
ATOM     11  C   UNL     1       7.543  -3.843  -3.773  1.00  0.00     0.087 C 
BRANCH  11  12
ATOM     12  C   UNL     1       8.822  -3.061  -4.210  1.00  0.00     0.066 C 
BRANCH  12  13
ATOM     13  C   UNL     1       9.775  -2.745  -3.060  1.00  0.00     0.140 C 
ATOM     14  O   UNL     1      10.937  -3.123  -3.106  1.00  0.00    -0.299 OA
BRANCH  13  15
ATOM     15  C   UNL     1       9.326  -1.889  -1.898  1.00  0.00     0.106 CG0
ATOM     16  G   UNL     1       9.186  -2.687  -0.611  1.00  0.00     0.000 G0
ENDBRANCH  13  15
ENDBRANCH  12  13
BRANCH  12  17
ATOM     17  C   UNL     1       9.577  -3.663  -5.439  1.00  0.00    -0.006 C 
ATOM     18  C   UNL     1      10.126  -2.562  -6.363  1.00  0.00     0.008 C 
ATOM     19  C   UNL     1       8.753  -4.667  -6.262  1.00  0.00     0.008 C 
ENDBRANCH  12  17
ENDBRANCH  11  12
ENDBRANCH   1  11
TORSDOF 1
ENDMDL
