MODEL 1
REMARK VINA RESULT:    -2.466      0.000      0.000
REMARK INTER + INTRA:          -3.002
REMARK INTER:                  -2.898
REMARK INTRA:                  -0.104
REMARK UNBOUND:                -0.104
REMARK SMILES O=C([O-])CCC(=O)[O-]
REMARK SMILES IDX 4 1 2 2 1 3 3 4 5 5 6 6 7 7 8 8
REMARK H PARENT
REMARK Flexibility Score: inf
ROOT
ATOM      1  C   UNL     1     -20.029   4.790   1.134  1.00  0.00     0.059 C 
ENDROOT
BRANCH   1   2
ATOM      2  C   UNL     1     -20.470   4.012   2.335  1.00  0.00     0.042 C 
ATOM      3  O   UNL     1     -20.593   4.583   3.450  1.00  0.00    -0.550 OA
ATOM      4  O   UNL     1     -20.706   2.647   2.232  1.00  0.00    -0.550 OA
ENDBRANCH   1   2
BRANCH   1   5
ATOM      5  C   UNL     1     -21.047   4.691  -0.008  1.00  0.00     0.059 C 
BRANCH   5   6
ATOM      6  C   UNL     1     -20.410   4.204  -1.273  1.00  0.00     0.042 C 
ATOM      7  O   UNL     1     -19.650   3.201  -1.257  1.00  0.00    -0.550 OA
ATOM      8  O   UNL     1     -20.687   4.837  -2.479  1.00  0.00    -0.550 OA
ENDBRANCH   5   6
ENDBRANCH   1   5
TORSDOF 3
ENDMDL
MODEL 2
REMARK VINA RESULT:    -2.450      1.224      4.337
REMARK INTER + INTRA:          -2.984
REMARK INTER:                  -2.940
REMARK INTRA:                  -0.044
REMARK UNBOUND:                -0.104
REMARK SMILES O=C([O-])CCC(=O)[O-]
REMARK SMILES IDX 4 1 2 2 1 3 3 4 5 5 6 6 7 7 8 8
REMARK H PARENT
REMARK Flexibility Score: inf
ROOT
ATOM      1  C   UNL     1     -20.036   4.474  -0.880  1.00  0.00     0.059 C 
ENDROOT
BRANCH   1   2
ATOM      2  C   UNL     1     -20.678   4.261  -2.217  1.00  0.00     0.042 C 
ATOM      3  O   UNL     1     -21.125   3.127  -2.531  1.00  0.00    -0.550 OA
ATOM      4  O   UNL     1     -20.745   5.304  -3.131  1.00  0.00    -0.550 OA
ENDBRANCH   1   2
BRANCH   1   5
ATOM      5  C   UNL     1     -20.325   3.313   0.077  1.00  0.00     0.059 C 
BRANCH   5   6
ATOM      6  C   UNL     1     -20.358   3.770   1.503  1.00  0.00     0.042 C 
ATOM      7  O   UNL     1     -20.057   4.957   1.797  1.00  0.00    -0.550 OA
ATOM      8  O   UNL     1     -20.759   2.894   2.505  1.00  0.00    -0.550 OA
ENDBRANCH   5   6
ENDBRANCH   1   5
TORSDOF 3
ENDMDL
MODEL 3
REMARK VINA RESULT:    -2.242      2.009      2.556
REMARK INTER + INTRA:          -2.739
REMARK INTER:                  -2.704
REMARK INTRA:                  -0.035
REMARK UNBOUND:                -0.104
REMARK SMILES O=C([O-])CCC(=O)[O-]
REMARK SMILES IDX 4 1 2 2 1 3 3 4 5 5 6 6 7 7 8 8
REMARK H PARENT
REMARK Flexibility Score: inf
ROOT
ATOM      1  C   UNL     1     -20.355   3.566  -1.542  1.00  0.00     0.059 C 
ENDROOT
BRANCH   1   2
ATOM      2  C   UNL     1     -20.474   3.378  -0.061  1.00  0.00     0.042 C 
ATOM      3  O   UNL     1     -20.000   4.236   0.727  1.00  0.00    -0.550 OA
ATOM      4  O   UNL     1     -21.073   2.232   0.448  1.00  0.00    -0.550 OA
ENDBRANCH   1   2
BRANCH   1   5
ATOM      5  C   UNL     1     -20.700   5.000  -1.958  1.00  0.00     0.059 C 
BRANCH   5   6
ATOM      6  C   UNL     1     -20.814   5.130  -3.446  1.00  0.00     0.042 C 
ATOM      7  O   UNL     1     -21.125   4.133  -4.149  1.00  0.00    -0.550 OA
ATOM      8  O   UNL     1     -20.614   6.364  -4.054  1.00  0.00    -0.550 OA
ENDBRANCH   5   6
ENDBRANCH   1   5
TORSDOF 3
ENDMDL
MODEL 4
REMARK VINA RESULT:    -2.159     17.106     17.980
REMARK INTER + INTRA:          -2.642
REMARK INTER:                  -2.513
REMARK INTRA:                  -0.129
REMARK UNBOUND:                -0.104
REMARK SMILES O=C([O-])CCC(=O)[O-]
REMARK SMILES IDX 4 1 2 2 1 3 3 4 5 5 6 6 7 7 8 8
REMARK H PARENT
REMARK Flexibility Score: inf
ROOT
ATOM      1  C   UNL     1     -20.508 -12.889  -7.334  1.00  0.00     0.059 C 
ENDROOT
BRANCH   1   2
ATOM      2  C   UNL     1     -20.653 -12.156  -6.036  1.00  0.00     0.042 C 
ATOM      3  O   UNL     1     -20.383 -12.731  -4.950  1.00  0.00    -0.550 OA
ATOM      4  O   UNL     1     -21.125 -10.849  -6.024  1.00  0.00    -0.550 OA
ENDBRANCH   1   2
BRANCH   1   5
ATOM      5  C   UNL     1     -19.077 -12.805  -7.874  1.00  0.00     0.059 C 
BRANCH   5   6
ATOM      6  C   UNL     1     -18.892 -11.616  -8.766  1.00  0.00     0.042 C 
ATOM      7  O   UNL     1     -19.136 -11.703  -9.998  1.00  0.00    -0.550 OA
ATOM      8  O   UNL     1     -18.489 -10.399  -8.229  1.00  0.00    -0.550 OA
ENDBRANCH   5   6
ENDBRANCH   1   5
TORSDOF 3
ENDMDL
MODEL 5
REMARK VINA RESULT:    -2.148     17.069     18.319
REMARK INTER + INTRA:          -2.629
REMARK INTER:                  -2.514
REMARK INTRA:                  -0.115
REMARK UNBOUND:                -0.104
REMARK SMILES O=C([O-])CCC(=O)[O-]
REMARK SMILES IDX 4 1 2 2 1 3 3 4 5 5 6 6 7 7 8 8
REMARK H PARENT
REMARK Flexibility Score: inf
ROOT
ATOM      1  C   UNL     1     -19.257 -12.941  -7.826  1.00  0.00     0.059 C 
ENDROOT
BRANCH   1   2
ATOM      2  C   UNL     1     -18.976 -11.759  -8.702  1.00  0.00     0.042 C 
ATOM      3  O   UNL     1     -19.057 -11.864  -9.953  1.00  0.00    -0.550 OA
ATOM      4  O   UNL     1     -18.584 -10.552  -8.136  1.00  0.00    -0.550 OA
ENDBRANCH   1   2
BRANCH   1   5
ATOM      5  C   UNL     1     -20.678 -12.894  -7.253  1.00  0.00     0.059 C 
BRANCH   5   6
ATOM      6  C   UNL     1     -20.719 -12.174  -5.940  1.00  0.00     0.042 C 
ATOM      7  O   UNL     1     -20.363 -12.759  -4.884  1.00  0.00    -0.550 OA
ATOM      8  O   UNL     1     -21.115 -10.843  -5.889  1.00  0.00    -0.550 OA
ENDBRANCH   5   6
ENDBRANCH   1   5
TORSDOF 3
ENDMDL
MODEL 6
REMARK VINA RESULT:    -2.110      1.289      4.279
REMARK INTER + INTRA:          -2.584
REMARK INTER:                  -2.543
REMARK INTRA:                  -0.040
REMARK UNBOUND:                -0.104
REMARK SMILES O=C([O-])CCC(=O)[O-]
REMARK SMILES IDX 4 1 2 2 1 3 3 4 5 5 6 6 7 7 8 8
REMARK H PARENT
REMARK Flexibility Score: inf
ROOT
ATOM      1  C   UNL     1     -19.960   5.012   0.965  1.00  0.00     0.059 C 
ENDROOT
BRANCH   1   2
ATOM      2  C   UNL     1     -20.123   4.249  -0.313  1.00  0.00     0.042 C 
ATOM      3  O   UNL     1     -20.075   4.847  -1.419  1.00  0.00    -0.550 OA
ATOM      4  O   UNL     1     -20.370   2.882  -0.281  1.00  0.00    -0.550 OA
ENDBRANCH   1   2
BRANCH   1   5
ATOM      5  C   UNL     1     -20.455   4.206   2.171  1.00  0.00     0.059 C 
BRANCH   5   6
ATOM      6  C   UNL     1     -20.801   5.097   3.325  1.00  0.00     0.042 C 
ATOM      7  O   UNL     1     -21.026   6.321   3.136  1.00  0.00    -0.550 OA
ATOM      8  O   UNL     1     -20.912   4.566   4.604  1.00  0.00    -0.550 OA
ENDBRANCH   5   6
ENDBRANCH   1   5
TORSDOF 3
ENDMDL
MODEL 7
REMARK VINA RESULT:    -2.109     15.735     17.379
REMARK INTER + INTRA:          -2.583
REMARK INTER:                  -2.549
REMARK INTRA:                  -0.034
REMARK UNBOUND:                -0.104
REMARK SMILES O=C([O-])CCC(=O)[O-]
REMARK SMILES IDX 4 1 2 2 1 3 3 4 5 5 6 6 7 7 8 8
REMARK H PARENT
REMARK Flexibility Score: inf
ROOT
ATOM      1  C   UNL     1     -15.404  -6.104 -12.124  1.00  0.00     0.059 C 
ENDROOT
BRANCH   1   2
ATOM      2  C   UNL     1     -15.799  -4.699 -11.785  1.00  0.00     0.042 C 
ATOM      3  O   UNL     1     -16.991  -4.323 -11.932  1.00  0.00    -0.550 OA
ATOM      4  O   UNL     1     -14.841  -3.795 -11.346  1.00  0.00    -0.550 OA
ENDBRANCH   1   2
BRANCH   1   5
ATOM      5  C   UNL     1     -14.046  -6.471 -11.518  1.00  0.00     0.059 C 
BRANCH   5   6
ATOM      6  C   UNL     1     -13.698  -7.905 -11.772  1.00  0.00     0.042 C 
ATOM      7  O   UNL     1     -12.512  -8.305 -11.634  1.00  0.00    -0.550 OA
ATOM      8  O   UNL     1     -14.693  -8.810 -12.124  1.00  0.00    -0.550 OA
ENDBRANCH   5   6
ENDBRANCH   1   5
TORSDOF 3
ENDMDL
MODEL 8
REMARK VINA RESULT:    -2.083     17.131     17.570
REMARK INTER + INTRA:          -2.552
REMARK INTER:                  -2.519
REMARK INTRA:                  -0.033
REMARK UNBOUND:                -0.104
REMARK SMILES O=C([O-])CCC(=O)[O-]
REMARK SMILES IDX 4 1 2 2 1 3 3 4 5 5 6 6 7 7 8 8
REMARK H PARENT
REMARK Flexibility Score: inf
ROOT
ATOM      1  C   UNL     1      -2.430   5.973   3.061  1.00  0.00     0.059 C 
ENDROOT
BRANCH   1   2
ATOM      2  C   UNL     1      -2.299   5.271   4.377  1.00  0.00     0.042 C 
ATOM      3  O   UNL     1      -1.939   4.066   4.419  1.00  0.00    -0.550 OA
ATOM      4  O   UNL     1      -2.615   5.936   5.555  1.00  0.00    -0.550 OA
ENDBRANCH   1   2
BRANCH   1   5
ATOM      5  C   UNL     1      -3.883   6.364   2.771  1.00  0.00     0.059 C 
BRANCH   5   6
ATOM      6  C   UNL     1      -4.103   6.624   1.312  1.00  0.00     0.042 C 
ATOM      7  O   UNL     1      -3.122   6.726   0.530  1.00  0.00    -0.550 OA
ATOM      8  O   UNL     1      -5.396   6.713   0.810  1.00  0.00    -0.550 OA
ENDBRANCH   5   6
ENDBRANCH   1   5
TORSDOF 3
ENDMDL
MODEL 9
REMARK VINA RESULT:    -2.079     17.074     17.883
REMARK INTER + INTRA:          -2.547
REMARK INTER:                  -2.515
REMARK INTRA:                  -0.033
REMARK UNBOUND:                -0.104
REMARK SMILES O=C([O-])CCC(=O)[O-]
REMARK SMILES IDX 4 1 2 2 1 3 3 4 5 5 6 6 7 7 8 8
REMARK H PARENT
REMARK Flexibility Score: inf
ROOT
ATOM      1  C   UNL     1      -3.972   6.359   2.617  1.00  0.00     0.059 C 
ENDROOT
BRANCH   1   2
ATOM      2  C   UNL     1      -4.158   6.732   1.178  1.00  0.00     0.042 C 
ATOM      3  O   UNL     1      -3.158   6.968   0.450  1.00  0.00    -0.550 OA
ATOM      4  O   UNL     1      -5.437   6.861   0.653  1.00  0.00    -0.550 OA
ENDBRANCH   1   2
BRANCH   1   5
ATOM      5  C   UNL     1      -2.516   5.991   2.921  1.00  0.00     0.059 C 
BRANCH   5   6
ATOM      6  C   UNL     1      -2.376   5.369   4.276  1.00  0.00     0.042 C 
ATOM      7  O   UNL     1      -2.648   6.033   5.311  1.00  0.00    -0.550 OA
ATOM      8  O   UNL     1      -1.982   4.041   4.395  1.00  0.00    -0.550 OA
ENDBRANCH   5   6
ENDBRANCH   1   5
TORSDOF 3
ENDMDL
