MODEL 1
REMARK VINA RESULT:    -3.662      0.000      0.000
REMARK INTER + INTRA:          -4.531
REMARK INTER:                  -4.305
REMARK INTRA:                  -0.226
REMARK UNBOUND:                -0.226
REMARK SMILES [NH3+][C@@H](CO)C(=O)[O-]
REMARK SMILES IDX 3 1 2 2 1 3 5 7 6 8 7 9 4 10
REMARK H PARENT 1 4 1 5 1 6 4 11
REMARK Flexibility Score: inf
ROOT
ATOM      1  C   UNL     1      -6.231   4.087   0.967  1.00  0.00     0.227 C 
ENDROOT
BRANCH   1   2
ATOM      2  C   UNL     1      -6.488   2.964  -0.054  1.00  0.00     0.253 C 
BRANCH   2   3
ATOM      3  N   UNL     1      -5.259   2.201  -0.306  1.00  0.00    -0.348 N 
ATOM      4  H   UNL     1      -4.919   2.389  -1.277  1.00  0.00     0.345 HD
ATOM      5  H   UNL     1      -5.431   1.175  -0.197  1.00  0.00     0.345 HD
ATOM      6  H   UNL     1      -4.513   2.498   0.364  1.00  0.00     0.345 HD
ENDBRANCH   2   3
BRANCH   2   7
ATOM      7  C   UNL     1      -7.028   3.528  -1.341  1.00  0.00     0.102 C 
ATOM      8  O   UNL     1      -6.267   4.122  -2.150  1.00  0.00    -0.544 OA
ATOM      9  O   UNL     1      -8.381   3.407  -1.637  1.00  0.00    -0.544 OA
ENDBRANCH   2   7
ENDBRANCH   1   2
BRANCH   1  10
ATOM     10  O   UNL     1      -5.612   5.187   0.354  1.00  0.00    -0.390 OA
ATOM     11  H   UNL     1      -4.777   5.362   0.860  1.00  0.00     0.210 HD
ENDBRANCH   1  10
TORSDOF 4
ENDMDL
MODEL 2
REMARK VINA RESULT:    -3.569      5.671      6.111
REMARK INTER + INTRA:          -4.421
REMARK INTER:                  -4.177
REMARK INTRA:                  -0.244
REMARK UNBOUND:                -0.226
REMARK SMILES [NH3+][C@@H](CO)C(=O)[O-]
REMARK SMILES IDX 3 1 2 2 1 3 5 7 6 8 7 9 4 10
REMARK H PARENT 1 4 1 5 1 6 4 11
REMARK Flexibility Score: inf
ROOT
ATOM      1  C   UNL     1      -5.333  -0.378  -0.964  1.00  0.00     0.227 C 
ENDROOT
BRANCH   1   2
ATOM      2  C   UNL     1      -5.860  -1.568  -0.140  1.00  0.00     0.253 C 
BRANCH   2   3
ATOM      3  N   UNL     1      -6.877  -1.123   0.820  1.00  0.00    -0.348 N 
ATOM      4  H   UNL     1      -7.629  -0.595   0.319  1.00  0.00     0.345 HD
ATOM      5  H   UNL     1      -6.453  -0.503   1.549  1.00  0.00     0.345 HD
ATOM      6  H   UNL     1      -7.314  -1.952   1.285  1.00  0.00     0.345 HD
ENDBRANCH   2   3
BRANCH   2   7
ATOM      7  C   UNL     1      -4.731  -2.262   0.574  1.00  0.00     0.102 C 
ATOM      8  O   UNL     1      -4.008  -3.098  -0.030  1.00  0.00    -0.544 OA
ATOM      9  O   UNL     1      -4.488  -1.991   1.916  1.00  0.00    -0.544 OA
ENDBRANCH   2   7
ENDBRANCH   1   2
BRANCH   1  10
ATOM     10  O   UNL     1      -4.063  -0.659  -1.488  1.00  0.00    -0.390 OA
ATOM     11  H   UNL     1      -3.584  -1.193  -0.803  1.00  0.00     0.210 HD
ENDBRANCH   1  10
TORSDOF 4
ENDMDL
MODEL 3
REMARK VINA RESULT:    -3.473      2.195      3.020
REMARK INTER + INTRA:          -4.309
REMARK INTER:                  -4.082
REMARK INTRA:                  -0.226
REMARK UNBOUND:                -0.226
REMARK SMILES [NH3+][C@@H](CO)C(=O)[O-]
REMARK SMILES IDX 3 1 2 2 1 3 5 7 6 8 7 9 4 10
REMARK H PARENT 1 4 1 5 1 6 4 11
REMARK Flexibility Score: inf
ROOT
ATOM      1  C   UNL     1      -6.542   2.336  -0.426  1.00  0.00     0.227 C 
ENDROOT
BRANCH   1   2
ATOM      2  C   UNL     1      -6.724   3.864  -0.479  1.00  0.00     0.253 C 
BRANCH   2   3
ATOM      3  N   UNL     1      -5.826   4.459  -1.476  1.00  0.00    -0.348 N 
ATOM      4  H   UNL     1      -5.451   3.711  -2.105  1.00  0.00     0.345 HD
ATOM      5  H   UNL     1      -5.025   4.945  -1.010  1.00  0.00     0.345 HD
ATOM      6  H   UNL     1      -6.352   5.146  -2.063  1.00  0.00     0.345 HD
ENDBRANCH   2   3
BRANCH   2   7
ATOM      7  C   UNL     1      -6.484   4.475   0.876  1.00  0.00     0.102 C 
ATOM      8  O   UNL     1      -7.120   5.501   1.237  1.00  0.00    -0.544 OA
ATOM      9  O   UNL     1      -5.545   3.915   1.733  1.00  0.00    -0.544 OA
ENDBRANCH   2   7
ENDBRANCH   1   2
BRANCH   1  10
ATOM     10  O   UNL     1      -5.182   1.995  -0.475  1.00  0.00    -0.390 OA
ATOM     11  H   UNL     1      -4.694   2.699   0.025  1.00  0.00     0.210 HD
ENDBRANCH   1  10
TORSDOF 4
ENDMDL
MODEL 4
REMARK VINA RESULT:    -3.469      2.025      2.263
REMARK INTER + INTRA:          -4.303
REMARK INTER:                  -4.293
REMARK INTRA:                  -0.010
REMARK UNBOUND:                -0.226
REMARK SMILES [NH3+][C@@H](CO)C(=O)[O-]
REMARK SMILES IDX 3 1 2 2 1 3 5 7 6 8 7 9 4 10
REMARK H PARENT 1 4 1 5 1 6 4 11
REMARK Flexibility Score: inf
ROOT
ATOM      1  C   UNL     1      -6.092   2.396  -0.005  1.00  0.00     0.227 C 
ENDROOT
BRANCH   1   2
ATOM      2  C   UNL     1      -6.411   3.651  -0.837  1.00  0.00     0.253 C 
BRANCH   2   3
ATOM      3  N   UNL     1      -5.944   4.861  -0.150  1.00  0.00    -0.348 N 
ATOM      4  H   UNL     1      -5.194   5.322  -0.716  1.00  0.00     0.345 HD
ATOM      5  H   UNL     1      -5.562   4.627   0.796  1.00  0.00     0.345 HD
ATOM      6  H   UNL     1      -6.734   5.538  -0.044  1.00  0.00     0.345 HD
ENDBRANCH   2   3
BRANCH   2   7
ATOM      7  C   UNL     1      -7.888   3.744  -1.117  1.00  0.00     0.102 C 
ATOM      8  O   UNL     1      -8.639   4.429  -0.375  1.00  0.00    -0.544 OA
ATOM      9  O   UNL     1      -8.433   3.057  -2.196  1.00  0.00    -0.544 OA
ENDBRANCH   2   7
ENDBRANCH   1   2
BRANCH   1  10
ATOM     10  O   UNL     1      -4.982   1.719  -0.531  1.00  0.00    -0.390 OA
ATOM     11  H   UNL     1      -5.304   0.826  -0.819  1.00  0.00     0.210 HD
ENDBRANCH   1  10
TORSDOF 4
ENDMDL
MODEL 5
REMARK VINA RESULT:    -3.454      1.734      2.112
REMARK INTER + INTRA:          -4.286
REMARK INTER:                  -3.947
REMARK INTRA:                  -0.338
REMARK UNBOUND:                -0.226
REMARK SMILES [NH3+][C@@H](CO)C(=O)[O-]
REMARK SMILES IDX 3 1 2 2 1 3 5 7 6 8 7 9 4 10
REMARK H PARENT 1 4 1 5 1 6 4 11
REMARK Flexibility Score: inf
ROOT
ATOM      1  C   UNL     1      -8.252   4.685   0.621  1.00  0.00     0.227 C 
ENDROOT
BRANCH   1   2
ATOM      2  C   UNL     1      -6.864   4.081   0.334  1.00  0.00     0.253 C 
BRANCH   2   3
ATOM      3  N   UNL     1      -5.818   5.103   0.463  1.00  0.00    -0.348 N 
ATOM      4  H   UNL     1      -5.232   5.119  -0.403  1.00  0.00     0.345 HD
ATOM      5  H   UNL     1      -5.204   4.903   1.287  1.00  0.00     0.345 HD
ATOM      6  H   UNL     1      -6.255   6.046   0.580  1.00  0.00     0.345 HD
ENDBRANCH   2   3
BRANCH   2   7
ATOM      7  C   UNL     1      -6.826   3.461  -1.037  1.00  0.00     0.102 C 
ATOM      8  O   UNL     1      -6.219   4.032  -1.981  1.00  0.00    -0.544 OA
ATOM      9  O   UNL     1      -7.477   2.256  -1.271  1.00  0.00    -0.544 OA
ENDBRANCH   2   7
ENDBRANCH   1   2
BRANCH   1  10
ATOM     10  O   UNL     1      -9.106   4.512  -0.477  1.00  0.00    -0.390 OA
ATOM     11  H   UNL     1      -9.256   5.413  -0.866  1.00  0.00     0.210 HD
ENDBRANCH   1  10
TORSDOF 4
ENDMDL
MODEL 6
REMARK VINA RESULT:    -3.346      4.452      4.721
REMARK INTER + INTRA:          -4.159
REMARK INTER:                  -3.930
REMARK INTRA:                  -0.229
REMARK UNBOUND:                -0.226
REMARK SMILES [NH3+][C@@H](CO)C(=O)[O-]
REMARK SMILES IDX 3 1 2 2 1 3 5 7 6 8 7 9 4 10
REMARK H PARENT 1 4 1 5 1 6 4 11
REMARK Flexibility Score: inf
ROOT
ATOM      1  C   UNL     1      -5.822   1.043   0.397  1.00  0.00     0.227 C 
ENDROOT
BRANCH   1   2
ATOM      2  C   UNL     1      -6.145  -0.361  -0.147  1.00  0.00     0.253 C 
BRANCH   2   3
ATOM      3  N   UNL     1      -7.013  -1.091   0.785  1.00  0.00    -0.348 N 
ATOM      4  H   UNL     1      -6.681  -0.943   1.767  1.00  0.00     0.345 HD
ATOM      5  H   UNL     1      -7.005  -2.116   0.575  1.00  0.00     0.345 HD
ATOM      6  H   UNL     1      -7.992  -0.732   0.714  1.00  0.00     0.345 HD
ENDBRANCH   2   3
BRANCH   2   7
ATOM      7  C   UNL     1      -4.881  -1.136  -0.404  1.00  0.00     0.102 C 
ATOM      8  O   UNL     1      -4.130  -0.834  -1.369  1.00  0.00    -0.544 OA
ATOM      9  O   UNL     1      -4.542  -2.204   0.418  1.00  0.00    -0.544 OA
ENDBRANCH   2   7
ENDBRANCH   1   2
BRANCH   1  10
ATOM     10  O   UNL     1      -5.126   1.798  -0.557  1.00  0.00    -0.390 OA
ATOM     11  H   UNL     1      -4.167   1.756  -0.308  1.00  0.00     0.210 HD
ENDBRANCH   1  10
TORSDOF 4
ENDMDL
MODEL 7
REMARK VINA RESULT:    -3.339      2.402      3.580
REMARK INTER + INTRA:          -4.151
REMARK INTER:                  -3.922
REMARK INTRA:                  -0.230
REMARK UNBOUND:                -0.226
REMARK SMILES [NH3+][C@@H](CO)C(=O)[O-]
REMARK SMILES IDX 3 1 2 2 1 3 5 7 6 8 7 9 4 10
REMARK H PARENT 1 4 1 5 1 6 4 11
REMARK Flexibility Score: inf
ROOT
ATOM      1  C   UNL     1      -6.405   2.739  -0.501  1.00  0.00     0.227 C 
ENDROOT
BRANCH   1   2
ATOM      2  C   UNL     1      -6.444   3.751   0.659  1.00  0.00     0.253 C 
BRANCH   2   3
ATOM      3  N   UNL     1      -5.720   4.977   0.301  1.00  0.00    -0.348 N 
ATOM      4  H   UNL     1      -4.712   4.755   0.133  1.00  0.00     0.345 HD
ATOM      5  H   UNL     1      -5.790   5.686   1.068  1.00  0.00     0.345 HD
ATOM      6  H   UNL     1      -6.117   5.380  -0.578  1.00  0.00     0.345 HD
ENDBRANCH   2   3
BRANCH   2   7
ATOM      7  C   UNL     1      -5.868   3.148   1.912  1.00  0.00     0.102 C 
ATOM      8  O   UNL     1      -5.974   1.913   2.136  1.00  0.00    -0.544 OA
ATOM      9  O   UNL     1      -5.225   3.958   2.840  1.00  0.00    -0.544 OA
ENDBRANCH   2   7
ENDBRANCH   1   2
BRANCH   1  10
ATOM     10  O   UNL     1      -5.157   2.102  -0.564  1.00  0.00    -0.390 OA
ATOM     11  H   UNL     1      -4.562   2.694  -1.095  1.00  0.00     0.210 HD
ENDBRANCH   1  10
TORSDOF 4
ENDMDL
MODEL 8
REMARK VINA RESULT:    -3.249      1.791      1.821
REMARK INTER + INTRA:          -4.045
REMARK INTER:                  -3.839
REMARK INTRA:                  -0.206
REMARK UNBOUND:                -0.226
REMARK SMILES [NH3+][C@@H](CO)C(=O)[O-]
REMARK SMILES IDX 3 1 2 2 1 3 5 7 6 8 7 9 4 10
REMARK H PARENT 1 4 1 5 1 6 4 11
REMARK Flexibility Score: inf
ROOT
ATOM      1  C   UNL     1      -6.813   4.665   1.001  1.00  0.00     0.227 C 
ENDROOT
BRANCH   1   2
ATOM      2  C   UNL     1      -7.860   4.298  -0.068  1.00  0.00     0.253 C 
BRANCH   2   3
ATOM      3  N   UNL     1      -8.983   3.571   0.535  1.00  0.00    -0.348 N 
ATOM      4  H   UNL     1      -9.885   4.028   0.266  1.00  0.00     0.345 HD
ATOM      5  H   UNL     1      -8.903   3.564   1.579  1.00  0.00     0.345 HD
ATOM      6  H   UNL     1      -8.998   2.586   0.184  1.00  0.00     0.345 HD
ENDBRANCH   2   3
BRANCH   2   7
ATOM      7  C   UNL     1      -7.234   3.481  -1.167  1.00  0.00     0.102 C 
ATOM      8  O   UNL     1      -6.387   3.995  -1.944  1.00  0.00    -0.544 OA
ATOM      9  O   UNL     1      -7.602   2.151  -1.337  1.00  0.00    -0.544 OA
ENDBRANCH   2   7
ENDBRANCH   1   2
BRANCH   1  10
ATOM     10  O   UNL     1      -5.676   5.234   0.409  1.00  0.00    -0.390 OA
ATOM     11  H   UNL     1      -5.686   4.962  -0.545  1.00  0.00     0.210 HD
ENDBRANCH   1  10
TORSDOF 4
ENDMDL
MODEL 9
REMARK VINA RESULT:    -3.163      1.496      2.215
REMARK INTER + INTRA:          -3.944
REMARK INTER:                  -3.687
REMARK INTRA:                  -0.257
REMARK UNBOUND:                -0.226
REMARK SMILES [NH3+][C@@H](CO)C(=O)[O-]
REMARK SMILES IDX 3 1 2 2 1 3 5 7 6 8 7 9 4 10
REMARK H PARENT 1 4 1 5 1 6 4 11
REMARK Flexibility Score: inf
ROOT
ATOM      1  C   UNL     1      -7.469   1.424   0.654  1.00  0.00     0.227 C 
ENDROOT
BRANCH   1   2
ATOM      2  C   UNL     1      -6.710   1.779  -0.638  1.00  0.00     0.253 C 
BRANCH   2   3
ATOM      3  N   UNL     1      -5.269   1.888  -0.380  1.00  0.00    -0.348 N 
ATOM      4  H   UNL     1      -5.004   2.895  -0.279  1.00  0.00     0.345 HD
ATOM      5  H   UNL     1      -4.718   1.467  -1.164  1.00  0.00     0.345 HD
ATOM      6  H   UNL     1      -5.030   1.397   0.512  1.00  0.00     0.345 HD
ENDBRANCH   2   3
BRANCH   2   7
ATOM      7  C   UNL     1      -7.236   3.059  -1.230  1.00  0.00     0.102 C 
ATOM      8  O   UNL     1      -6.728   4.167  -0.914  1.00  0.00    -0.544 OA
ATOM      9  O   UNL     1      -8.301   3.024  -2.123  1.00  0.00    -0.544 OA
ENDBRANCH   2   7
ENDBRANCH   1   2
BRANCH   1  10
ATOM     10  O   UNL     1      -8.801   1.856   0.584  1.00  0.00    -0.390 OA
ATOM     11  H   UNL     1      -9.110   1.678  -0.342  1.00  0.00     0.210 HD
ENDBRANCH   1  10
TORSDOF 4
ENDMDL
