MODEL 1
REMARK VINA RESULT:    -3.530      0.000      0.000
REMARK INTER + INTRA:          -5.758
REMARK INTER:                  -5.387
REMARK INTRA:                  -0.371
REMARK UNBOUND:                -0.371
REMARK SMILES CC1=CCC[C@@H](C)C(=O)C[C@H](C(C)C)C(=O)C1
REMARK SMILES IDX 8 1 9 2 6 3 7 4 5 5 4 6 3 7 2 8 1 9 10 11 11 12 15 13 16 14
REMARK SMILES IDX 17 15 12 17 13 18 14 19
REMARK H PARENT
REMARK Flexibility Score: 70.00
ROOT
ATOM      1  C   UNL     1      23.556 -14.114  46.831  1.00  0.00     0.136 C 
ATOM      2  O   UNL     1      24.567 -13.568  47.249  1.00  0.00    -0.299 OA
ENDROOT
BRANCH   1   3
ATOM      3  C   UNL     1      23.700 -15.511  46.209  1.00  0.00     0.053 C 
ATOM      4  C   UNL     1      24.526 -16.427  47.113  1.00  0.00     0.016 C 
BRANCH   3   5
ATOM      5  C   UNL     1      24.346 -15.345  44.851  1.00  0.00     0.015 C 
BRANCH   5   6
ATOM      6  C   UNL     1      23.592 -15.329  43.544  1.00  0.00     0.028 C 
BRANCH   6   7
ATOM      7  C   UNL     1      22.437 -16.325  43.632  1.00  0.00    -0.028 C 
ATOM      8  C   UNL     1      21.085 -16.077  43.668  1.00  0.00    -0.070 CG0
ATOM      9  C   UNL     1      20.181 -17.288  43.661  1.00  0.00     0.039 C 
ATOM     10  G   UNL     1      20.401 -14.693  43.722  1.00  0.00     0.000 G0
ENDBRANCH   6   7
ENDBRANCH   5   6
ENDBRANCH   3   5
ENDBRANCH   1   3
BRANCH   1  11
ATOM     11  C   UNL     1      22.226 -13.333  46.896  1.00  0.00     0.087 C 
BRANCH  11  12
ATOM     12  C   UNL     1      21.416 -12.970  45.583  1.00  0.00     0.066 C 
BRANCH  12  13
ATOM     13  C   UNL     1      20.391 -14.033  45.106  1.00  0.00     0.140 C 
ATOM     14  O   UNL     1      19.537 -14.394  45.903  1.00  0.00    -0.299 OA
BRANCH  13  15
ATOM     15  C   UNL     1      20.384 -14.693  43.720  1.00  0.00     0.106 CG0
ATOM     16  G   UNL     1      21.104 -16.059  43.679  1.00  0.00     0.000 G0
ENDBRANCH  13  15
ENDBRANCH  12  13
BRANCH  12  17
ATOM     17  C   UNL     1      21.002 -11.467  45.376  1.00  0.00    -0.006 C 
ATOM     18  C   UNL     1      22.102 -10.505  44.891  1.00  0.00     0.008 C 
ATOM     19  C   UNL     1      19.798 -11.353  44.422  1.00  0.00     0.008 C 
ENDBRANCH  12  17
ENDBRANCH  11  12
ENDBRANCH   1  11
TORSDOF 1
ENDMDL
MODEL 2
REMARK VINA RESULT:    -3.435     15.541     17.684
REMARK INTER + INTRA:          -5.614
REMARK INTER:                  -5.189
REMARK INTRA:                  -0.425
REMARK UNBOUND:                -0.371
REMARK SMILES CC1=CCC[C@@H](C)C(=O)C[C@H](C(C)C)C(=O)C1
REMARK SMILES IDX 8 1 9 2 6 3 7 4 5 5 4 6 3 7 2 8 1 9 10 11 11 12 15 13 16 14
REMARK SMILES IDX 17 15 12 17 13 18 14 19
REMARK H PARENT
REMARK Flexibility Score: 70.00
ROOT
ATOM      1  C   UNL     1       8.366  -1.972  40.411  1.00  0.00     0.136 C 
ATOM      2  O   UNL     1       8.387  -0.821  40.000  1.00  0.00    -0.299 OA
ENDROOT
BRANCH   1   3
ATOM      3  C   UNL     1       8.273  -3.103  39.376  1.00  0.00     0.053 C 
ATOM      4  C   UNL     1       7.092  -2.878  38.430  1.00  0.00     0.016 C 
BRANCH   3   5
ATOM      5  C   UNL     1       8.136  -4.407  40.130  1.00  0.00     0.015 C 
BRANCH   5   6
ATOM      6  C   UNL     1       9.298  -5.251  40.594  1.00  0.00     0.028 C 
BRANCH   6   7
ATOM      7  C   UNL     1      10.571  -4.741  39.921  1.00  0.00    -0.028 C 
ATOM      8  C   UNL     1      11.609  -4.024  40.470  1.00  0.00    -0.070 CG0
ATOM      9  C   UNL     1      12.785  -3.746  39.562  1.00  0.00     0.039 C 
ATOM     10  G   UNL     1      11.689  -3.471  41.910  1.00  0.00     0.000 G0
ENDBRANCH   6   7
ENDBRANCH   5   6
ENDBRANCH   3   5
ENDBRANCH   1   3
BRANCH   1  11
ATOM     11  C   UNL     1       8.365  -2.201  41.938  1.00  0.00     0.087 C 
BRANCH  11  12
ATOM     12  C   UNL     1       9.649  -1.907  42.819  1.00  0.00     0.066 C 
BRANCH  12  13
ATOM     13  C   UNL     1      11.015  -2.111  42.111  1.00  0.00     0.140 C 
ATOM     14  O   UNL     1      11.570  -1.122  41.655  1.00  0.00    -0.299 OA
BRANCH  13  15
ATOM     15  C   UNL     1      11.710  -3.465  41.908  1.00  0.00     0.106 CG0
ATOM     16  G   UNL     1      11.602  -4.008  40.466  1.00  0.00     0.000 G0
ENDBRANCH  13  15
ENDBRANCH  12  13
BRANCH  12  17
ATOM     17  C   UNL     1       9.571  -0.716  43.843  1.00  0.00    -0.006 C 
ATOM     18  C   UNL     1       9.211   0.668  43.271  1.00  0.00     0.008 C 
ATOM     19  C   UNL     1       8.597  -1.038  44.991  1.00  0.00     0.008 C 
ENDBRANCH  12  17
ENDBRANCH  11  12
ENDBRANCH   1  11
TORSDOF 1
ENDMDL
MODEL 3
REMARK VINA RESULT:    -3.403     15.561     17.801
REMARK INTER + INTRA:          -5.565
REMARK INTER:                  -5.117
REMARK INTRA:                  -0.447
REMARK UNBOUND:                -0.371
REMARK SMILES CC1=CCC[C@@H](C)C(=O)C[C@H](C(C)C)C(=O)C1
REMARK SMILES IDX 8 1 9 2 6 3 7 4 5 5 4 6 3 7 2 8 1 9 10 11 11 12 15 13 16 14
REMARK SMILES IDX 17 15 12 17 13 18 14 19
REMARK H PARENT
REMARK Flexibility Score: 70.00
ROOT
ATOM      1  C   UNL     1       9.032  -0.842  43.312  1.00  0.00     0.136 C 
ATOM      2  O   UNL     1       8.845  -0.105  42.355  1.00  0.00    -0.299 OA
ENDROOT
BRANCH   1   3
ATOM      3  C   UNL     1       9.366  -0.193  44.664  1.00  0.00     0.053 C 
ATOM      4  C   UNL     1       8.247   0.752  45.105  1.00  0.00     0.016 C 
BRANCH   3   5
ATOM      5  C   UNL     1      10.680   0.540  44.510  1.00  0.00     0.015 C 
BRANCH   5   6
ATOM      6  C   UNL     1      12.033  -0.128  44.498  1.00  0.00     0.028 C 
BRANCH   6   7
ATOM      7  C   UNL     1      12.497  -0.266  43.048  1.00  0.00    -0.028 C 
ATOM      8  C   UNL     1      12.506  -1.385  42.248  1.00  0.00    -0.070 CG0
ATOM      9  C   UNL     1      12.941  -1.180  40.815  1.00  0.00     0.039 C 
ATOM     10  G   UNL     1      12.128  -2.822  42.667  1.00  0.00     0.000 G0
ENDBRANCH   6   7
ENDBRANCH   5   6
ENDBRANCH   3   5
ENDBRANCH   1   3
BRANCH   1  11
ATOM     11  C   UNL     1       8.988  -2.368  43.078  1.00  0.00     0.087 C 
BRANCH  11  12
ATOM     12  C   UNL     1       9.556  -3.016  41.748  1.00  0.00     0.066 C 
BRANCH  12  13
ATOM     13  C   UNL     1      11.033  -3.491  41.806  1.00  0.00     0.140 C 
ATOM     14  O   UNL     1      11.339  -4.470  41.142  1.00  0.00    -0.299 OA
BRANCH  13  15
ATOM     15  C   UNL     1      12.134  -2.847  42.660  1.00  0.00     0.106 CG0
ATOM     16  G   UNL     1      12.495  -1.409  42.226  1.00  0.00     0.000 G0
ENDBRANCH  13  15
ENDBRANCH  12  13
BRANCH  12  17
ATOM     17  C   UNL     1       8.577  -3.902  40.894  1.00  0.00    -0.006 C 
ATOM     18  C   UNL     1       7.778  -4.979  41.652  1.00  0.00     0.008 C 
ATOM     19  C   UNL     1       7.588  -3.027  40.103  1.00  0.00     0.008 C 
ENDBRANCH  12  17
ENDBRANCH  11  12
ENDBRANCH   1  11
TORSDOF 1
ENDMDL
MODEL 4
REMARK VINA RESULT:    -3.370     16.047     17.760
REMARK INTER + INTRA:          -5.514
REMARK INTER:                  -5.194
REMARK INTRA:                  -0.321
REMARK UNBOUND:                -0.371
REMARK SMILES CC1=CCC[C@@H](C)C(=O)C[C@H](C(C)C)C(=O)C1
REMARK SMILES IDX 8 1 9 2 6 3 7 4 5 5 4 6 3 7 2 8 1 9 10 11 11 12 15 13 16 14
REMARK SMILES IDX 17 15 12 17 13 18 14 19
REMARK H PARENT
REMARK Flexibility Score: 70.00
ROOT
ATOM      1  C   UNL     1      11.034  -2.661  42.026  1.00  0.00     0.136 C 
ATOM      2  O   UNL     1      12.123  -2.566  41.478  1.00  0.00    -0.299 OA
ENDROOT
BRANCH   1   3
ATOM      3  C   UNL     1      10.286  -1.364  42.367  1.00  0.00     0.053 C 
ATOM      4  C   UNL     1       9.347  -1.574  43.556  1.00  0.00     0.016 C 
BRANCH   3   5
ATOM      5  C   UNL     1       9.525  -0.934  41.132  1.00  0.00     0.015 C 
BRANCH   5   6
ATOM      6  C   UNL     1       8.185  -1.490  40.719  1.00  0.00     0.028 C 
BRANCH   6   7
ATOM      7  C   UNL     1       8.249  -1.875  39.242  1.00  0.00    -0.028 C 
ATOM      8  C   UNL     1       8.099  -3.116  38.667  1.00  0.00    -0.070 CG0
ATOM      9  C   UNL     1       8.122  -3.162  37.157  1.00  0.00     0.039 C 
ATOM     10  G   UNL     1       7.919  -4.461  39.406  1.00  0.00     0.000 G0
ENDBRANCH   6   7
ENDBRANCH   5   6
ENDBRANCH   3   5
ENDBRANCH   1   3
BRANCH   1  11
ATOM     11  C   UNL     1      10.526  -4.071  42.399  1.00  0.00     0.087 C 
BRANCH  11  12
ATOM     12  C   UNL     1       9.160  -4.635  41.826  1.00  0.00     0.066 C 
BRANCH  12  13
ATOM     13  C   UNL     1       9.109  -4.846  40.289  1.00  0.00     0.140 C 
ATOM     14  O   UNL     1      10.096  -5.326  39.750  1.00  0.00    -0.299 OA
BRANCH  13  15
ATOM     15  C   UNL     1       7.927  -4.468  39.385  1.00  0.00     0.106 CG0
ATOM     16  G   UNL     1       8.114  -3.125  38.646  1.00  0.00     0.000 G0
ENDBRANCH  13  15
ENDBRANCH  12  13
BRANCH  12  17
ATOM     17  C   UNL     1       8.387  -5.692  42.696  1.00  0.00    -0.006 C 
ATOM     18  C   UNL     1       7.050  -5.239  43.312  1.00  0.00     0.008 C 
ATOM     19  C   UNL     1       8.144  -6.989  41.902  1.00  0.00     0.008 C 
ENDBRANCH  12  17
ENDBRANCH  11  12
ENDBRANCH   1  11
TORSDOF 1
ENDMDL
MODEL 5
REMARK VINA RESULT:    -3.349     15.272     18.096
REMARK INTER + INTRA:          -5.482
REMARK INTER:                  -5.810
REMARK INTRA:                   0.328
REMARK UNBOUND:                -0.371
REMARK SMILES CC1=CCC[C@@H](C)C(=O)C[C@H](C(C)C)C(=O)C1
REMARK SMILES IDX 8 1 9 2 6 3 7 4 5 5 4 6 3 7 2 8 1 9 10 11 11 12 15 13 16 14
REMARK SMILES IDX 17 15 12 17 13 18 14 19
REMARK H PARENT
REMARK Flexibility Score: 70.00
ROOT
ATOM      1  C   UNL     1       8.209  -3.930  39.454  1.00  0.00     0.136 C 
ATOM      2  O   UNL     1       9.063  -4.105  38.597  1.00  0.00    -0.299 OA
ENDROOT
BRANCH   1   3
ATOM      3  C   UNL     1       7.321  -2.682  39.341  1.00  0.00     0.053 C 
ATOM      4  C   UNL     1       6.637  -2.624  37.974  1.00  0.00     0.016 C 
BRANCH   3   5
ATOM      5  C   UNL     1       8.199  -1.471  39.571  1.00  0.00     0.015 C 
BRANCH   5   6
ATOM      6  C   UNL     1       9.654  -1.535  39.965  1.00  0.00     0.028 C 
BRANCH   6   7
ATOM      7  C   UNL     1       9.824  -0.855  41.323  1.00  0.00    -0.028 C 
ATOM      8  C   UNL     1       9.662  -1.388  42.581  1.00  0.00    -0.070 CG0
ATOM      9  C   UNL     1       9.997  -0.480  43.741  1.00  0.00     0.039 C 
ATOM     10  G   UNL     1       9.167  -2.811  42.924  1.00  0.00     0.000 G0
ENDBRANCH   6   7
ENDBRANCH   5   6
ENDBRANCH   3   5
ENDBRANCH   1   3
BRANCH   1  11
ATOM     11  C   UNL     1       8.131  -4.938  40.622  1.00  0.00     0.087 C 
BRANCH  11  12
ATOM     12  C   UNL     1       9.372  -5.196  41.574  1.00  0.00     0.066 C 
BRANCH  12  13
ATOM     13  C   UNL     1       9.980  -3.937  42.248  1.00  0.00     0.140 C 
ATOM     14  O   UNL     1      11.198  -3.838  42.268  1.00  0.00    -0.299 OA
BRANCH  13  15
ATOM     15  C   UNL     1       9.171  -2.820  42.921  1.00  0.00     0.106 CG0
ATOM     16  G   UNL     1       9.658  -1.398  42.565  1.00  0.00     0.000 G0
ENDBRANCH  13  15
ENDBRANCH  12  13
BRANCH  12  17
ATOM     17  C   UNL     1       9.364  -6.508  42.440  1.00  0.00    -0.006 C 
ATOM     18  C   UNL     1       8.224  -6.656  43.465  1.00  0.00     0.008 C 
ATOM     19  C   UNL     1       9.380  -7.761  41.544  1.00  0.00     0.008 C 
ENDBRANCH  12  17
ENDBRANCH  11  12
ENDBRANCH   1  11
TORSDOF 1
ENDMDL
MODEL 6
REMARK VINA RESULT:    -3.322     15.644     17.159
REMARK INTER + INTRA:          -5.440
REMARK INTER:                  -4.973
REMARK INTRA:                  -0.467
REMARK UNBOUND:                -0.371
REMARK SMILES CC1=CCC[C@@H](C)C(=O)C[C@H](C(C)C)C(=O)C1
REMARK SMILES IDX 8 1 9 2 6 3 7 4 5 5 4 6 3 7 2 8 1 9 10 11 11 12 15 13 16 14
REMARK SMILES IDX 17 15 12 17 13 18 14 19
REMARK H PARENT
REMARK Flexibility Score: 70.00
ROOT
ATOM      1  C   UNL     1       9.483  -1.380  43.193  1.00  0.00     0.136 C 
ATOM      2  O   UNL     1       8.667  -1.175  44.080  1.00  0.00    -0.299 OA
ENDROOT
BRANCH   1   3
ATOM      3  C   UNL     1      10.969  -1.173  43.521  1.00  0.00     0.053 C 
ATOM      4  C   UNL     1      11.381   0.281  43.285  1.00  0.00     0.016 C 
BRANCH   3   5
ATOM      5  C   UNL     1      11.768  -2.121  42.654  1.00  0.00     0.015 C 
BRANCH   5   6
ATOM      6  C   UNL     1      12.247  -1.803  41.259  1.00  0.00     0.028 C 
BRANCH   6   7
ATOM      7  C   UNL     1      12.388  -3.110  40.480  1.00  0.00    -0.028 C 
ATOM      8  C   UNL     1      11.512  -3.680  39.586  1.00  0.00    -0.070 CG0
ATOM      9  C   UNL     1      11.981  -4.943  38.901  1.00  0.00     0.039 C 
ATOM     10  G   UNL     1      10.102  -3.166  39.219  1.00  0.00     0.000 G0
ENDBRANCH   6   7
ENDBRANCH   5   6
ENDBRANCH   3   5
ENDBRANCH   1   3
BRANCH   1  11
ATOM     11  C   UNL     1       8.956  -1.761  41.792  1.00  0.00     0.087 C 
BRANCH  11  12
ATOM     12  C   UNL     1       8.526  -3.247  41.447  1.00  0.00     0.066 C 
BRANCH  12  13
ATOM     13  C   UNL     1       8.980  -3.777  40.061  1.00  0.00     0.140 C 
ATOM     14  O   UNL     1       8.414  -4.766  39.619  1.00  0.00    -0.299 OA
BRANCH  13  15
ATOM     15  C   UNL     1      10.110  -3.175  39.214  1.00  0.00     0.106 CG0
ATOM     16  G   UNL     1      11.513  -3.710  39.578  1.00  0.00     0.000 G0
ENDBRANCH  13  15
ENDBRANCH  12  13
BRANCH  12  17
ATOM     17  C   UNL     1       8.520  -4.294  42.620  1.00  0.00    -0.006 C 
ATOM     18  C   UNL     1       7.301  -5.232  42.706  1.00  0.00     0.008 C 
ATOM     19  C   UNL     1       9.797  -5.154  42.599  1.00  0.00     0.008 C 
ENDBRANCH  12  17
ENDBRANCH  11  12
ENDBRANCH   1  11
TORSDOF 1
ENDMDL
MODEL 7
REMARK VINA RESULT:    -3.258      2.013      5.019
REMARK INTER + INTRA:          -5.342
REMARK INTER:                  -4.852
REMARK INTRA:                  -0.491
REMARK UNBOUND:                -0.371
REMARK SMILES CC1=CCC[C@@H](C)C(=O)C[C@H](C(C)C)C(=O)C1
REMARK SMILES IDX 8 1 9 2 6 3 7 4 5 5 4 6 3 7 2 8 1 9 10 11 11 12 15 13 16 14
REMARK SMILES IDX 17 15 12 17 13 18 14 19
REMARK H PARENT
REMARK Flexibility Score: 70.00
ROOT
ATOM      1  C   UNL     1      20.461 -14.766  45.534  1.00  0.00     0.136 C 
ATOM      2  O   UNL     1      19.340 -14.759  46.021  1.00  0.00    -0.299 OA
ENDROOT
BRANCH   1   3
ATOM      3  C   UNL     1      20.579 -14.739  44.002  1.00  0.00     0.053 C 
ATOM      4  C   UNL     1      21.623 -15.747  43.519  1.00  0.00     0.016 C 
BRANCH   3   5
ATOM      5  C   UNL     1      20.942 -13.329  43.594  1.00  0.00     0.015 C 
BRANCH   5   6
ATOM      6  C   UNL     1      20.413 -12.084  44.263  1.00  0.00     0.028 C 
BRANCH   6   7
ATOM      7  C   UNL     1      21.553 -11.075  44.389  1.00  0.00    -0.028 C 
ATOM      8  C   UNL     1      22.413 -10.872  45.444  1.00  0.00    -0.070 CG0
ATOM      9  C   UNL     1      23.508  -9.852  45.229  1.00  0.00     0.039 C 
ATOM     10  G   UNL     1      22.367 -11.572  46.820  1.00  0.00     0.000 G0
ENDBRANCH   6   7
ENDBRANCH   5   6
ENDBRANCH   3   5
ENDBRANCH   1   3
BRANCH   1  11
ATOM     11  C   UNL     1      21.671 -14.873  46.488  1.00  0.00     0.087 C 
BRANCH  11  12
ATOM     12  C   UNL     1      23.046 -14.155  46.162  1.00  0.00     0.066 C 
BRANCH  12  13
ATOM     13  C   UNL     1      23.299 -12.814  46.901  1.00  0.00     0.140 C 
ATOM     14  O   UNL     1      24.281 -12.744  47.626  1.00  0.00    -0.299 OA
BRANCH  13  15
ATOM     15  C   UNL     1      22.393 -11.578  46.820  1.00  0.00     0.106 CG0
ATOM     16  G   UNL     1      22.422 -10.875  45.445  1.00  0.00     0.000 G0
ENDBRANCH  13  15
ENDBRANCH  12  13
BRANCH  12  17
ATOM     17  C   UNL     1      24.306 -15.067  45.931  1.00  0.00    -0.006 C 
ATOM     18  C   UNL     1      24.060 -16.586  45.869  1.00  0.00     0.008 C 
ATOM     19  C   UNL     1      25.069 -14.643  44.663  1.00  0.00     0.008 C 
ENDBRANCH  12  17
ENDBRANCH  11  12
ENDBRANCH   1  11
TORSDOF 1
ENDMDL
MODEL 8
REMARK VINA RESULT:    -3.241      1.868      2.793
REMARK INTER + INTRA:          -5.317
REMARK INTER:                  -4.947
REMARK INTRA:                  -0.370
REMARK UNBOUND:                -0.371
REMARK SMILES CC1=CCC[C@@H](C)C(=O)C[C@H](C(C)C)C(=O)C1
REMARK SMILES IDX 8 1 9 2 6 3 7 4 5 5 4 6 3 7 2 8 1 9 10 11 11 12 15 13 16 14
REMARK SMILES IDX 17 15 12 17 13 18 14 19
REMARK H PARENT
REMARK Flexibility Score: 70.00
ROOT
ATOM      1  C   UNL     1      22.513 -12.384  46.902  1.00  0.00     0.136 C 
ATOM      2  O   UNL     1      22.063 -11.273  47.141  1.00  0.00    -0.299 OA
ENDROOT
BRANCH   1   3
ATOM      3  C   UNL     1      23.964 -12.674  47.315  1.00  0.00     0.053 C 
ATOM      4  C   UNL     1      24.920 -11.654  46.694  1.00  0.00     0.016 C 
BRANCH   3   5
ATOM      5  C   UNL     1      24.296 -14.082  46.872  1.00  0.00     0.015 C 
BRANCH   5   6
ATOM      6  C   UNL     1      25.006 -14.427  45.586  1.00  0.00     0.028 C 
BRANCH   6   7
ATOM      7  C   UNL     1      24.751 -15.899  45.265  1.00  0.00    -0.028 C 
ATOM      8  C   UNL     1      23.928 -16.444  44.306  1.00  0.00    -0.070 CG0
ATOM      9  C   UNL     1      23.962 -17.948  44.171  1.00  0.00     0.039 C 
ATOM     10  G   UNL     1      22.974 -15.676  43.364  1.00  0.00     0.000 G0
ENDBRANCH   6   7
ENDBRANCH   5   6
ENDBRANCH   3   5
ENDBRANCH   1   3
BRANCH   1  11
ATOM     11  C   UNL     1      21.618 -13.387  46.143  1.00  0.00     0.087 C 
BRANCH  11  12
ATOM     12  C   UNL     1      21.720 -13.562  44.571  1.00  0.00     0.066 C 
BRANCH  12  13
ATOM     13  C   UNL     1      21.763 -15.025  44.056  1.00  0.00     0.140 C 
ATOM     14  O   UNL     1      20.776 -15.722  44.248  1.00  0.00    -0.299 OA
BRANCH  13  15
ATOM     15  C   UNL     1      22.960 -15.679  43.354  1.00  0.00     0.106 CG0
ATOM     16  G   UNL     1      23.916 -16.420  44.314  1.00  0.00     0.000 G0
ENDBRANCH  13  15
ENDBRANCH  12  13
BRANCH  12  17
ATOM     17  C   UNL     1      20.941 -12.534  43.673  1.00  0.00    -0.006 C 
ATOM     18  C   UNL     1      20.957 -12.790  42.154  1.00  0.00     0.008 C 
ATOM     19  C   UNL     1      19.476 -12.401  44.129  1.00  0.00     0.008 C 
ENDBRANCH  12  17
ENDBRANCH  11  12
ENDBRANCH   1  11
TORSDOF 1
ENDMDL
MODEL 9
REMARK VINA RESULT:    -3.070      2.256      3.048
REMARK INTER + INTRA:          -5.056
REMARK INTER:                  -4.226
REMARK INTRA:                  -0.829
REMARK UNBOUND:                -0.371
REMARK SMILES CC1=CCC[C@@H](C)C(=O)C[C@H](C(C)C)C(=O)C1
REMARK SMILES IDX 8 1 9 2 6 3 7 4 5 5 4 6 3 7 2 8 1 9 10 11 11 12 15 13 16 14
REMARK SMILES IDX 17 15 12 17 13 18 14 19
REMARK H PARENT
REMARK Flexibility Score: 70.00
ROOT
ATOM      1  C   UNL     1      22.621 -12.366  44.762  1.00  0.00     0.136 C 
ATOM      2  O   UNL     1      23.604 -13.043  44.501  1.00  0.00    -0.299 OA
ENDROOT
BRANCH   1   3
ATOM      3  C   UNL     1      21.989 -12.522  46.153  1.00  0.00     0.053 C 
ATOM      4  C   UNL     1      23.036 -12.327  47.251  1.00  0.00     0.016 C 
BRANCH   3   5
ATOM      5  C   UNL     1      21.365 -13.899  46.223  1.00  0.00     0.015 C 
BRANCH   5   6
ATOM      6  C   UNL     1      20.127 -14.313  45.466  1.00  0.00     0.028 C 
BRANCH   6   7
ATOM      7  C   UNL     1      20.465 -15.527  44.603  1.00  0.00    -0.028 C 
ATOM      8  C   UNL     1      20.495 -15.629  43.231  1.00  0.00    -0.070 CG0
ATOM      9  C   UNL     1      20.963 -16.951  42.668  1.00  0.00     0.039 C 
ATOM     10  G   UNL     1      20.094 -14.536  42.215  1.00  0.00     0.000 G0
ENDBRANCH   6   7
ENDBRANCH   5   6
ENDBRANCH   3   5
ENDBRANCH   1   3
BRANCH   1  11
ATOM     11  C   UNL     1      22.046 -11.458  43.653  1.00  0.00     0.087 C 
BRANCH  11  12
ATOM     12  C   UNL     1      20.903 -11.965  42.679  1.00  0.00     0.066 C 
BRANCH  12  13
ATOM     13  C   UNL     1      21.102 -13.386  42.088  1.00  0.00     0.140 C 
ATOM     14  O   UNL     1      22.129 -13.600  41.460  1.00  0.00    -0.299 OA
BRANCH  13  15
ATOM     15  C   UNL     1      20.093 -14.538  42.200  1.00  0.00     0.106 CG0
ATOM     16  G   UNL     1      20.503 -15.626  43.217  1.00  0.00     0.000 G0
ENDBRANCH  13  15
ENDBRANCH  12  13
BRANCH  12  17
ATOM     17  C   UNL     1      19.423 -11.557  43.019  1.00  0.00    -0.006 C 
ATOM     18  C   UNL     1      19.177 -10.934  44.405  1.00  0.00     0.008 C 
ATOM     19  C   UNL     1      18.852 -10.609  41.949  1.00  0.00     0.008 C 
ENDBRANCH  12  17
ENDBRANCH  11  12
ENDBRANCH   1  11
TORSDOF 1
ENDMDL
