MODEL 1
REMARK VINA RESULT:    -4.585      0.000      0.000
REMARK INTER + INTRA:          -5.080
REMARK INTER:                  -4.987
REMARK INTRA:                  -0.093
REMARK UNBOUND:                -0.093
REMARK SMILES C=C(C)[C@H]1CC=C(C)[C@H](O)C1
REMARK SMILES IDX 8 1 7 2 6 3 5 4 4 5 11 6 9 7 10 8 2 10 1 11 3 12
REMARK H PARENT 10 9
REMARK Flexibility Score: inf
ROOT
ATOM      1  C   UNL     1     150.034 137.111 137.900  1.00  0.00     0.042 C 
ATOM      2  C   UNL     1     149.688 138.242 138.831  1.00  0.00    -0.049 C 
ATOM      3  C   UNL     1     149.994 138.123 140.142  1.00  0.00    -0.025 C 
ATOM      4  C   UNL     1     149.611 139.153 141.176  1.00  0.00     0.035 C 
ATOM      5  C   UNL     1     149.347 140.536 140.555  1.00  0.00     0.021 C 
ATOM      6  C   UNL     1     148.433 140.393 139.327  1.00  0.00     0.044 C 
ATOM      7  C   UNL     1     149.105 139.524 138.254  1.00  0.00     0.140 C 
ENDROOT
BRANCH   7   8
ATOM      8  O   UNL     1     150.125 140.262 137.633  1.00  0.00    -0.389 OA
ATOM      9  H   UNL     1     150.919 140.219 138.227  1.00  0.00     0.211 HD
ENDBRANCH   7   8
BRANCH   5  10
ATOM     10  C   UNL     1     148.777 141.509 141.575  1.00  0.00    -0.077 C 
ATOM     11  C   UNL     1     147.831 141.133 142.454  1.00  0.00     0.008 C 
ATOM     12  C   UNL     1     149.283 142.928 141.577  1.00  0.00     0.039 C 
ENDBRANCH   5  10
TORSDOF 2
ENDMDL
MODEL 2
REMARK VINA RESULT:    -4.582     13.542     14.776
REMARK INTER + INTRA:          -5.077
REMARK INTER:                  -4.986
REMARK INTRA:                  -0.091
REMARK UNBOUND:                -0.093
REMARK SMILES C=C(C)[C@H]1CC=C(C)[C@H](O)C1
REMARK SMILES IDX 8 1 7 2 6 3 5 4 4 5 11 6 9 7 10 8 2 10 1 11 3 12
REMARK H PARENT 10 9
REMARK Flexibility Score: inf
ROOT
ATOM      1  C   UNL     1     132.386 137.785 140.199  1.00  0.00     0.042 C 
ATOM      2  C   UNL     1     133.575 137.888 141.117  1.00  0.00    -0.049 C 
ATOM      3  C   UNL     1     133.616 138.894 142.018  1.00  0.00    -0.025 C 
ATOM      4  C   UNL     1     134.798 139.145 142.922  1.00  0.00     0.035 C 
ATOM      5  C   UNL     1     135.670 137.891 143.105  1.00  0.00     0.021 C 
ATOM      6  C   UNL     1     135.950 137.242 141.740  1.00  0.00     0.044 C 
ATOM      7  C   UNL     1     134.637 136.800 141.077  1.00  0.00     0.140 C 
ENDROOT
BRANCH   7   8
ATOM      8  O   UNL     1     134.155 135.652 141.725  1.00  0.00    -0.389 OA
ATOM      9  H   UNL     1     133.600 135.960 142.489  1.00  0.00     0.211 HD
ENDBRANCH   7   8
BRANCH   5  10
ATOM     10  C   UNL     1     136.956 138.206 143.855  1.00  0.00    -0.077 C 
ATOM     11  C   UNL     1     136.951 138.506 145.166  1.00  0.00     0.008 C 
ATOM     12  C   UNL     1     138.255 138.193 143.093  1.00  0.00     0.039 C 
ENDBRANCH   5  10
TORSDOF 2
ENDMDL
MODEL 3
REMARK VINA RESULT:    -4.532     14.037     15.472
REMARK INTER + INTRA:          -5.022
REMARK INTER:                  -4.930
REMARK INTRA:                  -0.093
REMARK UNBOUND:                -0.093
REMARK SMILES C=C(C)[C@H]1CC=C(C)[C@H](O)C1
REMARK SMILES IDX 8 1 7 2 6 3 5 4 4 5 11 6 9 7 10 8 2 10 1 11 3 12
REMARK H PARENT 10 9
REMARK Flexibility Score: inf
ROOT
ATOM      1  C   UNL     1     137.093 138.499 145.283  1.00  0.00     0.042 C 
ATOM      2  C   UNL     1     136.138 138.362 144.128  1.00  0.00    -0.049 C 
ATOM      3  C   UNL     1     136.409 137.454 143.164  1.00  0.00    -0.025 C 
ATOM      4  C   UNL     1     135.571 137.298 141.920  1.00  0.00     0.035 C 
ATOM      5  C   UNL     1     134.145 137.848 142.101  1.00  0.00     0.021 C 
ATOM      6  C   UNL     1     134.200 139.243 142.745  1.00  0.00     0.044 C 
ATOM      7  C   UNL     1     134.848 139.168 144.135  1.00  0.00     0.140 C 
ENDROOT
BRANCH   7   8
ATOM      8  O   UNL     1     133.941 138.590 145.037  1.00  0.00    -0.389 OA
ATOM      9  H   UNL     1     134.453 138.353 145.854  1.00  0.00     0.211 HD
ENDBRANCH   7   8
BRANCH   5  10
ATOM     10  C   UNL     1     133.378 137.862 140.787  1.00  0.00    -0.077 C 
ATOM     11  C   UNL     1     133.129 139.009 140.129  1.00  0.00     0.008 C 
ATOM     12  C   UNL     1     132.878 136.554 140.232  1.00  0.00     0.039 C 
ENDBRANCH   5  10
TORSDOF 2
ENDMDL
MODEL 4
REMARK VINA RESULT:    -4.380      1.620      2.671
REMARK INTER + INTRA:          -4.857
REMARK INTER:                  -4.762
REMARK INTRA:                  -0.095
REMARK UNBOUND:                -0.093
REMARK SMILES C=C(C)[C@H]1CC=C(C)[C@H](O)C1
REMARK SMILES IDX 8 1 7 2 6 3 5 4 4 5 11 6 9 7 10 8 2 10 1 11 3 12
REMARK H PARENT 10 9
REMARK Flexibility Score: inf
ROOT
ATOM      1  C   UNL     1     147.930 140.704 135.862  1.00  0.00     0.042 C 
ATOM      2  C   UNL     1     148.256 140.553 137.324  1.00  0.00    -0.049 C 
ATOM      3  C   UNL     1     147.333 140.925 138.239  1.00  0.00    -0.025 C 
ATOM      4  C   UNL     1     147.589 140.901 139.725  1.00  0.00     0.035 C 
ATOM      5  C   UNL     1     148.730 139.943 140.107  1.00  0.00     0.021 C 
ATOM      6  C   UNL     1     149.939 140.173 139.186  1.00  0.00     0.044 C 
ATOM      7  C   UNL     1     149.563 139.886 137.724  1.00  0.00     0.140 C 
ENDROOT
BRANCH   7   8
ATOM      8  O   UNL     1     149.458 138.499 137.538  1.00  0.00    -0.389 OA
ATOM      9  H   UNL     1     149.095 138.119 138.380  1.00  0.00     0.211 HD
ENDBRANCH   7   8
BRANCH   5  10
ATOM     10  C   UNL     1     149.106 140.074 141.576  1.00  0.00    -0.077 C 
ATOM     11  C   UNL     1     149.467 139.005 142.308  1.00  0.00     0.008 C 
ATOM     12  C   UNL     1     149.053 141.438 142.213  1.00  0.00     0.039 C 
ENDBRANCH   5  10
TORSDOF 2
ENDMDL
MODEL 5
REMARK VINA RESULT:    -4.369      1.981      3.977
REMARK INTER + INTRA:          -4.845
REMARK INTER:                  -4.750
REMARK INTRA:                  -0.095
REMARK UNBOUND:                -0.093
REMARK SMILES C=C(C)[C@H]1CC=C(C)[C@H](O)C1
REMARK SMILES IDX 8 1 7 2 6 3 5 4 4 5 11 6 9 7 10 8 2 10 1 11 3 12
REMARK H PARENT 10 9
REMARK Flexibility Score: inf
ROOT
ATOM      1  C   UNL     1     150.060 143.739 140.506  1.00  0.00     0.042 C 
ATOM      2  C   UNL     1     149.360 142.447 140.834  1.00  0.00    -0.049 C 
ATOM      3  C   UNL     1     148.372 142.458 141.756  1.00  0.00    -0.025 C 
ATOM      4  C   UNL     1     147.668 141.210 142.225  1.00  0.00     0.035 C 
ATOM      5  C   UNL     1     147.785 140.056 141.214  1.00  0.00     0.021 C 
ATOM      6  C   UNL     1     149.243 139.913 140.748  1.00  0.00     0.044 C 
ATOM      7  C   UNL     1     149.711 141.195 140.044  1.00  0.00     0.140 C 
ENDROOT
BRANCH   7   8
ATOM      8  O   UNL     1     149.122 141.265 138.772  1.00  0.00    -0.389 OA
ATOM      9  H   UNL     1     149.844 141.494 138.129  1.00  0.00     0.211 HD
ENDBRANCH   7   8
BRANCH   5  10
ATOM     10  C   UNL     1     147.242 138.753 141.782  1.00  0.00    -0.077 C 
ATOM     11  C   UNL     1     147.918 137.597 141.660  1.00  0.00     0.008 C 
ATOM     12  C   UNL     1     145.909 138.774 142.484  1.00  0.00     0.039 C 
ENDBRANCH   5  10
TORSDOF 2
ENDMDL
MODEL 6
REMARK VINA RESULT:    -4.252     12.511     13.870
REMARK INTER + INTRA:          -4.718
REMARK INTER:                  -4.620
REMARK INTRA:                  -0.098
REMARK UNBOUND:                -0.093
REMARK SMILES C=C(C)[C@H]1CC=C(C)[C@H](O)C1
REMARK SMILES IDX 8 1 7 2 6 3 5 4 4 5 11 6 9 7 10 8 2 10 1 11 3 12
REMARK H PARENT 10 9
REMARK Flexibility Score: inf
ROOT
ATOM      1  C   UNL     1     139.687 147.895 130.615  1.00  0.00     0.042 C 
ATOM      2  C   UNL     1     141.184 147.744 130.639  1.00  0.00    -0.049 C 
ATOM      3  C   UNL     1     141.884 148.350 131.625  1.00  0.00    -0.025 C 
ATOM      4  C   UNL     1     143.390 148.340 131.693  1.00  0.00     0.035 C 
ATOM      5  C   UNL     1     144.005 147.176 130.897  1.00  0.00     0.021 C 
ATOM      6  C   UNL     1     143.361 147.096 129.504  1.00  0.00     0.044 C 
ATOM      7  C   UNL     1     141.853 146.830 129.623  1.00  0.00     0.140 C 
ENDROOT
BRANCH   7   8
ATOM      8  O   UNL     1     141.647 145.491 129.993  1.00  0.00    -0.389 OA
ATOM      9  H   UNL     1     140.782 145.209 129.596  1.00  0.00     0.211 HD
ENDBRANCH   7   8
BRANCH   5  10
ATOM     10  C   UNL     1     145.520 147.291 130.813  1.00  0.00    -0.077 C 
ATOM     11  C   UNL     1     146.208 146.778 129.777  1.00  0.00     0.008 C 
ATOM     12  C   UNL     1     146.252 147.986 131.931  1.00  0.00     0.039 C 
ENDBRANCH   5  10
TORSDOF 2
ENDMDL
MODEL 7
REMARK VINA RESULT:    -4.163      2.700      4.566
REMARK INTER + INTRA:          -4.621
REMARK INTER:                  -4.530
REMARK INTRA:                  -0.091
REMARK UNBOUND:                -0.093
REMARK SMILES C=C(C)[C@H]1CC=C(C)[C@H](O)C1
REMARK SMILES IDX 8 1 7 2 6 3 5 4 4 5 11 6 9 7 10 8 2 10 1 11 3 12
REMARK H PARENT 10 9
REMARK Flexibility Score: inf
ROOT
ATOM      1  C   UNL     1     148.999 141.121 142.858  1.00  0.00     0.042 C 
ATOM      2  C   UNL     1     148.428 141.158 141.467  1.00  0.00    -0.049 C 
ATOM      3  C   UNL     1     147.901 140.027 140.948  1.00  0.00    -0.025 C 
ATOM      4  C   UNL     1     147.385 139.929 139.534  1.00  0.00     0.035 C 
ATOM      5  C   UNL     1     147.021 141.304 138.947  1.00  0.00     0.021 C 
ATOM      6  C   UNL     1     148.154 142.307 139.219  1.00  0.00     0.044 C 
ATOM      7  C   UNL     1     148.361 142.488 140.730  1.00  0.00     0.140 C 
ENDROOT
BRANCH   7   8
ATOM      8  O   UNL     1     147.311 143.260 141.251  1.00  0.00    -0.389 OA
ATOM      9  H   UNL     1     147.106 142.900 142.154  1.00  0.00     0.211 HD
ENDBRANCH   7   8
BRANCH   5  10
ATOM     10  C   UNL     1     146.690 141.213 137.465  1.00  0.00    -0.077 C 
ATOM     11  C   UNL     1     147.653 141.067 136.537  1.00  0.00     0.008 C 
ATOM     12  C   UNL     1     145.247 141.304 137.043  1.00  0.00     0.039 C 
ENDBRANCH   5  10
TORSDOF 2
ENDMDL
MODEL 8
REMARK VINA RESULT:    -4.141     12.251     13.805
REMARK INTER + INTRA:          -4.598
REMARK INTER:                  -4.498
REMARK INTRA:                  -0.099
REMARK UNBOUND:                -0.093
REMARK SMILES C=C(C)[C@H]1CC=C(C)[C@H](O)C1
REMARK SMILES IDX 8 1 7 2 6 3 5 4 4 5 11 6 9 7 10 8 2 10 1 11 3 12
REMARK H PARENT 10 9
REMARK Flexibility Score: inf
ROOT
ATOM      1  C   UNL     1     133.431 137.637 144.741  1.00  0.00     0.042 C 
ATOM      2  C   UNL     1     134.811 137.724 144.147  1.00  0.00    -0.049 C 
ATOM      3  C   UNL     1     135.104 136.966 143.067  1.00  0.00    -0.025 C 
ATOM      4  C   UNL     1     136.479 136.906 142.449  1.00  0.00     0.035 C 
ATOM      5  C   UNL     1     137.330 138.141 142.794  1.00  0.00     0.021 C 
ATOM      6  C   UNL     1     137.245 138.432 144.301  1.00  0.00     0.044 C 
ATOM      7  C   UNL     1     135.796 138.739 144.709  1.00  0.00     0.140 C 
ENDROOT
BRANCH   7   8
ATOM      8  O   UNL     1     135.452 140.023 144.259  1.00  0.00    -0.389 OA
ATOM      9  H   UNL     1     134.509 139.981 143.950  1.00  0.00     0.211 HD
ENDBRANCH   7   8
BRANCH   5  10
ATOM     10  C   UNL     1     138.769 137.978 142.330  1.00  0.00    -0.077 C 
ATOM     11  C   UNL     1     139.687 138.941 142.533  1.00  0.00     0.008 C 
ATOM     12  C   UNL     1     139.156 136.710 141.616  1.00  0.00     0.039 C 
ENDBRANCH   5  10
TORSDOF 2
ENDMDL
MODEL 9
REMARK VINA RESULT:    -4.087      2.159      2.357
REMARK INTER + INTRA:          -4.539
REMARK INTER:                  -4.443
REMARK INTRA:                  -0.096
REMARK UNBOUND:                -0.093
REMARK SMILES C=C(C)[C@H]1CC=C(C)[C@H](O)C1
REMARK SMILES IDX 8 1 7 2 6 3 5 4 4 5 11 6 9 7 10 8 2 10 1 11 3 12
REMARK H PARENT 10 9
REMARK Flexibility Score: inf
ROOT
ATOM      1  C   UNL     1     146.052 138.962 137.003  1.00  0.00     0.042 C 
ATOM      2  C   UNL     1     146.770 139.691 138.107  1.00  0.00    -0.049 C 
ATOM      3  C   UNL     1     146.853 139.111 139.325  1.00  0.00    -0.025 C 
ATOM      4  C   UNL     1     147.468 139.790 140.523  1.00  0.00     0.035 C 
ATOM      5  C   UNL     1     148.438 140.916 140.124  1.00  0.00     0.021 C 
ATOM      6  C   UNL     1     147.788 141.813 139.058  1.00  0.00     0.044 C 
ATOM      7  C   UNL     1     147.473 141.003 137.792  1.00  0.00     0.140 C 
ENDROOT
BRANCH   7   8
ATOM      8  O   UNL     1     148.666 140.741 137.102  1.00  0.00    -0.389 OA
ATOM      9  H   UNL     1     149.387 141.242 137.566  1.00  0.00     0.211 HD
ENDBRANCH   7   8
BRANCH   5  10
ATOM     10  C   UNL     1     148.898 141.715 141.333  1.00  0.00    -0.077 C 
ATOM     11  C   UNL     1     148.922 141.176 142.566  1.00  0.00     0.008 C 
ATOM     12  C   UNL     1     149.319 143.147 141.131  1.00  0.00     0.039 C 
ENDBRANCH   5  10
TORSDOF 2
ENDMDL
