MODEL 1
REMARK VINA RESULT:    -6.072      0.000      0.000
REMARK INTER + INTRA:          -9.967
REMARK INTER:                  -8.202
REMARK INTRA:                  -1.765
REMARK UNBOUND:                -1.765
REMARK SMILES CC[C@@H](CC[C@H](C)[C@H]1CC[C@@H]2[C@H]3CC(=O)C4=CC(=O)CC[C@@]4(C)[C@H]3CC[C@]21C)C(C)C
REMARK SMILES IDX 4 1 3 2 2 3 1 4 29 5 30 6 31 7 5 8 6 9 7 10 8 11 9 12 27 13
REMARK SMILES IDX 10 14 11 15 26 16 28 17 12 18 25 19 24 20 13 21 22 22 14 23
REMARK SMILES IDX 16 24 21 25 23 26 15 27 17 28 20 29 18 30 19 31
REMARK H PARENT
REMARK Flexibility Score: inf
ROOT
ATOM      1  C   UNL     1      -5.509  37.115  43.849  1.00  0.00     0.004 C 
ENDROOT
BRANCH   1   2
ATOM      2  C   UNL     1      -4.926  36.691  42.450  1.00  0.00    -0.009 C 
BRANCH   2   3
ATOM      3  C   UNL     1      -4.021  35.422  42.483  1.00  0.00     0.000 C 
ATOM      4  C   UNL     1      -4.525  34.256  41.624  1.00  0.00     0.004 C 
ENDBRANCH   2   3
BRANCH   2   5
ATOM      5  C   UNL     1      -4.220  37.899  41.731  1.00  0.00    -0.014 C 
ATOM      6  C   UNL     1      -3.159  38.562  42.625  1.00  0.00     0.007 C 
ATOM      7  C   UNL     1      -3.629  37.553  40.348  1.00  0.00     0.007 C 
ENDBRANCH   2   5
ENDBRANCH   1   2
BRANCH   1   8
ATOM      8  C   UNL     1      -7.044  37.342  43.979  1.00  0.00     0.004 C 
BRANCH   8   9
ATOM      9  C   UNL     1      -7.721  36.363  44.993  1.00  0.00    -0.011 C 
ATOM     10  C   UNL     1      -8.172  37.173  46.230  1.00  0.00     0.008 C 
BRANCH   9  11
ATOM     11  C   UNL     1      -6.748  35.162  45.331  1.00  0.00    -0.002 C 
ATOM     12  C   UNL     1      -6.618  34.850  46.848  1.00  0.00     0.005 C 
ATOM     13  C   UNL     1      -7.162  33.760  44.755  1.00  0.00    -0.026 C 
ATOM     14  C   UNL     1      -7.641  33.755  47.159  1.00  0.00     0.005 C 
ATOM     15  C   UNL     1      -8.179  33.277  45.806  1.00  0.00    -0.001 C 
ATOM     16  C   UNL     1      -7.868  33.701  43.375  1.00  0.00     0.007 C 
ATOM     17  C   UNL     1      -5.865  32.878  44.699  1.00  0.00     0.012 C 
ATOM     18  C   UNL     1      -8.529  31.769  45.697  1.00  0.00     0.004 C 
ATOM     19  C   UNL     1      -8.804  32.466  43.186  1.00  0.00     0.005 C 
ATOM     20  C   UNL     1      -8.620  31.274  44.187  1.00  0.00     0.003 C 
ATOM     21  C   UNL     1      -9.788  31.467  46.565  1.00  0.00     0.085 C 
ATOM     22  C   UNL     1      -9.659  30.095  43.965  1.00  0.00    -0.000 C 
ATOM     23  C   UNL     1     -11.034  31.343  45.748  1.00  0.00     0.159 C 
ATOM     24  C   UNL     1     -11.010  30.482  44.551  1.00  0.00     0.005 C 
ATOM     25  C   UNL     1      -9.838  29.755  42.445  1.00  0.00     0.020 C 
ATOM     26  C   UNL     1      -9.135  28.814  44.681  1.00  0.00     0.017 C 
ATOM     27  O   UNL     1     -12.091  31.934  46.111  1.00  0.00    -0.295 OA
ATOM     28  C   UNL     1     -12.156  29.961  44.074  1.00  0.00     0.055 C 
ATOM     29  C   UNL     1     -10.900  28.672  42.211  1.00  0.00     0.081 C 
ATOM     30  C   UNL     1     -12.172  29.029  42.928  1.00  0.00     0.156 C 
ATOM     31  O   UNL     1     -13.256  28.504  42.566  1.00  0.00    -0.295 OA
ENDBRANCH   9  11
ENDBRANCH   8   9
ENDBRANCH   1   8
TORSDOF 6
ENDMDL
MODEL 2
REMARK VINA RESULT:    -5.733     11.553     14.728
REMARK INTER + INTRA:          -9.509
REMARK INTER:                  -8.156
REMARK INTRA:                  -1.353
REMARK UNBOUND:                -1.765
REMARK SMILES CC[C@@H](CC[C@H](C)[C@H]1CC[C@@H]2[C@H]3CC(=O)C4=CC(=O)CC[C@@]4(C)[C@H]3CC[C@]21C)C(C)C
REMARK SMILES IDX 4 1 3 2 2 3 1 4 29 5 30 6 31 7 5 8 6 9 7 10 8 11 9 12 27 13
REMARK SMILES IDX 10 14 11 15 26 16 28 17 12 18 25 19 24 20 13 21 22 22 14 23
REMARK SMILES IDX 16 24 21 25 23 26 15 27 17 28 20 29 18 30 19 31
REMARK H PARENT
REMARK Flexibility Score: inf
ROOT
ATOM      1  C   UNL     1       3.157  28.168  54.236  1.00  0.00     0.004 C 
ENDROOT
BRANCH   1   2
ATOM      2  C   UNL     1       2.887  28.761  55.670  1.00  0.00    -0.009 C 
BRANCH   2   3
ATOM      3  C   UNL     1       3.757  28.139  56.803  1.00  0.00     0.000 C 
ATOM      4  C   UNL     1       4.996  28.958  57.179  1.00  0.00     0.004 C 
ENDBRANCH   2   3
BRANCH   2   5
ATOM      5  C   UNL     1       1.354  28.736  56.022  1.00  0.00    -0.014 C 
ATOM      6  C   UNL     1       1.083  29.222  57.456  1.00  0.00     0.007 C 
ATOM      7  C   UNL     1       0.461  29.488  55.013  1.00  0.00     0.007 C 
ENDBRANCH   2   5
ENDBRANCH   1   2
BRANCH   1   8
ATOM      8  C   UNL     1       4.489  28.533  53.518  1.00  0.00     0.004 C 
BRANCH   8   9
ATOM      9  C   UNL     1       4.293  28.867  52.004  1.00  0.00    -0.011 C 
ATOM     10  C   UNL     1       4.822  27.680  51.167  1.00  0.00     0.008 C 
BRANCH   9  11
ATOM     11  C   UNL     1       4.970  30.253  51.653  1.00  0.00    -0.002 C 
ATOM     12  C   UNL     1       5.458  30.375  50.183  1.00  0.00     0.005 C 
ATOM     13  C   UNL     1       4.051  31.520  51.786  1.00  0.00    -0.026 C 
ATOM     14  C   UNL     1       4.323  31.037  49.398  1.00  0.00     0.005 C 
ATOM     15  C   UNL     1       3.303  31.507  50.440  1.00  0.00    -0.001 C 
ATOM     16  C   UNL     1       2.977  31.547  52.905  1.00  0.00     0.007 C 
ATOM     17  C   UNL     1       4.992  32.764  51.957  1.00  0.00     0.012 C 
ATOM     18  C   UNL     1       2.552  32.828  50.123  1.00  0.00     0.004 C 
ATOM     19  C   UNL     1       1.737  32.439  52.583  1.00  0.00     0.005 C 
ATOM     20  C   UNL     1       1.890  33.476  51.418  1.00  0.00     0.003 C 
ATOM     21  C   UNL     1       1.575  32.595  48.932  1.00  0.00     0.085 C 
ATOM     22  C   UNL     1       0.560  34.288  51.114  1.00  0.00    -0.000 C 
ATOM     23  C   UNL     1       0.156  32.434  49.374  1.00  0.00     0.159 C 
ATOM     24  C   UNL     1      -0.404  33.418  50.319  1.00  0.00     0.005 C 
ATOM     25  C   UNL     1      -0.145  34.764  52.431  1.00  0.00     0.020 C 
ATOM     26  C   UNL     1       0.917  35.555  50.281  1.00  0.00     0.017 C 
ATOM     27  O   UNL     1      -0.552  31.497  48.907  1.00  0.00    -0.295 OA
ATOM     28  C   UNL     1      -1.735  33.614  50.377  1.00  0.00     0.055 C 
ATOM     29  C   UNL     1      -1.474  35.480  52.155  1.00  0.00     0.081 C 
ATOM     30  C   UNL     1      -2.334  34.645  51.249  1.00  0.00     0.156 C 
ATOM     31  O   UNL     1      -3.576  34.848  51.211  1.00  0.00    -0.295 OA
ENDBRANCH   9  11
ENDBRANCH   8   9
ENDBRANCH   1   8
TORSDOF 6
ENDMDL
MODEL 3
REMARK VINA RESULT:    -5.686      4.933      7.885
REMARK INTER + INTRA:          -9.445
REMARK INTER:                  -7.581
REMARK INTRA:                  -1.864
REMARK UNBOUND:                -1.765
REMARK SMILES CC[C@@H](CC[C@H](C)[C@H]1CC[C@@H]2[C@H]3CC(=O)C4=CC(=O)CC[C@@]4(C)[C@H]3CC[C@]21C)C(C)C
REMARK SMILES IDX 4 1 3 2 2 3 1 4 29 5 30 6 31 7 5 8 6 9 7 10 8 11 9 12 27 13
REMARK SMILES IDX 10 14 11 15 26 16 28 17 12 18 25 19 24 20 13 21 22 22 14 23
REMARK SMILES IDX 16 24 21 25 23 26 15 27 17 28 20 29 18 30 19 31
REMARK H PARENT
REMARK Flexibility Score: inf
ROOT
ATOM      1  C   UNL     1      -6.375  37.878  43.683  1.00  0.00     0.004 C 
ENDROOT
BRANCH   1   2
ATOM      2  C   UNL     1      -7.602  37.192  44.394  1.00  0.00    -0.009 C 
BRANCH   2   3
ATOM      3  C   UNL     1      -8.454  38.150  45.282  1.00  0.00     0.000 C 
ATOM      4  C   UNL     1      -7.842  39.539  45.491  1.00  0.00     0.004 C 
ENDBRANCH   2   3
BRANCH   2   5
ATOM      5  C   UNL     1      -7.164  35.899  45.175  1.00  0.00    -0.014 C 
ATOM      6  C   UNL     1      -7.378  36.040  46.691  1.00  0.00     0.007 C 
ATOM      7  C   UNL     1      -7.808  34.597  44.652  1.00  0.00     0.007 C 
ENDBRANCH   2   5
ENDBRANCH   1   2
BRANCH   1   8
ATOM      8  C   UNL     1      -4.976  37.784  44.359  1.00  0.00     0.004 C 
BRANCH   8   9
ATOM      9  C   UNL     1      -3.876  37.213  43.405  1.00  0.00    -0.011 C 
ATOM     10  C   UNL     1      -3.190  38.396  42.685  1.00  0.00     0.008 C 
BRANCH   9  11
ATOM     11  C   UNL     1      -4.501  36.140  42.425  1.00  0.00    -0.002 C 
ATOM     12  C   UNL     1      -3.965  36.212  40.968  1.00  0.00     0.005 C 
ATOM     13  C   UNL     1      -4.226  34.635  42.787  1.00  0.00    -0.026 C 
ATOM     14  C   UNL     1      -2.802  35.221  40.879  1.00  0.00     0.005 C 
ATOM     15  C   UNL     1      -2.825  34.420  42.185  1.00  0.00    -0.001 C 
ATOM     16  C   UNL     1      -4.147  34.233  44.283  1.00  0.00     0.007 C 
ATOM     17  C   UNL     1      -5.338  33.777  42.089  1.00  0.00     0.012 C 
ATOM     18  C   UNL     1      -2.404  32.929  42.087  1.00  0.00     0.004 C 
ATOM     19  C   UNL     1      -3.255  32.983  44.565  1.00  0.00     0.005 C 
ATOM     20  C   UNL     1      -2.894  32.075  43.338  1.00  0.00     0.003 C 
ATOM     21  C   UNL     1      -0.877  32.842  41.788  1.00  0.00     0.085 C 
ATOM     22  C   UNL     1      -1.928  30.871  43.704  1.00  0.00    -0.000 C 
ATOM     23  C   UNL     1      -0.072  32.511  43.003  1.00  0.00     0.159 C 
ATOM     24  C   UNL     1      -0.501  31.381  43.849  1.00  0.00     0.005 C 
ATOM     25  C   UNL     1      -2.357  30.165  45.037  1.00  0.00     0.020 C 
ATOM     26  C   UNL     1      -1.983  29.811  42.564  1.00  0.00     0.017 C 
ATOM     27  O   UNL     1       0.978  33.165  43.266  1.00  0.00    -0.295 OA
ATOM     28  C   UNL     1       0.393  30.750  44.633  1.00  0.00     0.055 C 
ATOM     29  C   UNL     1      -1.385  29.050  45.446  1.00  0.00     0.081 C 
ATOM     30  C   UNL     1       0.027  29.564  45.435  1.00  0.00     0.156 C 
ATOM     31  O   UNL     1       0.913  28.958  46.091  1.00  0.00    -0.295 OA
ENDBRANCH   9  11
ENDBRANCH   8   9
ENDBRANCH   1   8
TORSDOF 6
ENDMDL
MODEL 4
REMARK VINA RESULT:    -5.492      5.191      7.689
REMARK INTER + INTRA:          -9.183
REMARK INTER:                  -7.426
REMARK INTRA:                  -1.757
REMARK UNBOUND:                -1.765
REMARK SMILES CC[C@@H](CC[C@H](C)[C@H]1CC[C@@H]2[C@H]3CC(=O)C4=CC(=O)CC[C@@]4(C)[C@H]3CC[C@]21C)C(C)C
REMARK SMILES IDX 4 1 3 2 2 3 1 4 29 5 30 6 31 7 5 8 6 9 7 10 8 11 9 12 27 13
REMARK SMILES IDX 10 14 11 15 26 16 28 17 12 18 25 19 24 20 13 21 22 22 14 23
REMARK SMILES IDX 16 24 21 25 23 26 15 27 17 28 20 29 18 30 19 31
REMARK H PARENT
REMARK Flexibility Score: inf
ROOT
ATOM      1  C   UNL     1      -6.075  35.733  43.643  1.00  0.00     0.004 C 
ENDROOT
BRANCH   1   2
ATOM      2  C   UNL     1      -7.065  36.904  44.002  1.00  0.00    -0.009 C 
BRANCH   2   3
ATOM      3  C   UNL     1      -6.538  38.328  43.651  1.00  0.00     0.000 C 
ATOM      4  C   UNL     1      -5.083  38.370  43.170  1.00  0.00     0.004 C 
ENDBRANCH   2   3
BRANCH   2   5
ATOM      5  C   UNL     1      -7.552  36.807  45.495  1.00  0.00    -0.014 C 
ATOM      6  C   UNL     1      -6.375  36.754  46.484  1.00  0.00     0.007 C 
ATOM      7  C   UNL     1      -8.558  37.903  45.903  1.00  0.00     0.007 C 
ENDBRANCH   2   5
ENDBRANCH   1   2
BRANCH   1   8
ATOM      8  C   UNL     1      -6.632  34.281  43.573  1.00  0.00     0.004 C 
BRANCH   8   9
ATOM      9  C   UNL     1      -5.881  33.294  44.525  1.00  0.00    -0.011 C 
ATOM     10  C   UNL     1      -6.842  32.886  45.665  1.00  0.00     0.008 C 
BRANCH   9  11
ATOM     11  C   UNL     1      -4.526  33.937  45.027  1.00  0.00    -0.002 C 
ATOM     12  C   UNL     1      -4.206  33.672  46.525  1.00  0.00     0.005 C 
ATOM     13  C   UNL     1      -3.218  33.416  44.329  1.00  0.00    -0.026 C 
ATOM     14  C   UNL     1      -3.319  32.427  46.570  1.00  0.00     0.005 C 
ATOM     15  C   UNL     1      -2.937  32.123  45.117  1.00  0.00    -0.001 C 
ATOM     16  C   UNL     1      -3.279  33.031  42.828  1.00  0.00     0.007 C 
ATOM     17  C   UNL     1      -2.114  34.513  44.527  1.00  0.00     0.012 C 
ATOM     18  C   UNL     1      -1.517  31.540  44.885  1.00  0.00     0.004 C 
ATOM     19  C   UNL     1      -2.234  31.953  42.399  1.00  0.00     0.005 C 
ATOM     20  C   UNL     1      -1.035  31.696  43.376  1.00  0.00     0.003 C 
ATOM     21  C   UNL     1      -1.455  30.089  45.448  1.00  0.00     0.085 C 
ATOM     22  C   UNL     1      -0.063  30.537  42.895  1.00  0.00    -0.000 C 
ATOM     23  C   UNL     1      -1.554  29.051  44.377  1.00  0.00     0.159 C 
ATOM     24  C   UNL     1      -0.695  29.183  43.186  1.00  0.00     0.005 C 
ATOM     25  C   UNL     1       0.250  30.639  41.362  1.00  0.00     0.020 C 
ATOM     26  C   UNL     1       1.286  30.653  43.665  1.00  0.00     0.017 C 
ATOM     27  O   UNL     1      -2.330  28.063  44.520  1.00  0.00    -0.295 OA
ATOM     28  C   UNL     1      -0.388  28.095  42.454  1.00  0.00     0.055 C 
ATOM     29  C   UNL     1       1.122  29.478  40.867  1.00  0.00     0.081 C 
ATOM     30  C   UNL     1       0.535  28.165  41.301  1.00  0.00     0.156 C 
ATOM     31  O   UNL     1       0.856  27.110  40.696  1.00  0.00    -0.295 OA
ENDBRANCH   9  11
ENDBRANCH   8   9
ENDBRANCH   1   8
TORSDOF 6
ENDMDL
MODEL 5
REMARK VINA RESULT:    -5.141      4.297      8.098
REMARK INTER + INTRA:          -8.710
REMARK INTER:                  -6.596
REMARK INTRA:                  -2.114
REMARK UNBOUND:                -1.765
REMARK SMILES CC[C@@H](CC[C@H](C)[C@H]1CC[C@@H]2[C@H]3CC(=O)C4=CC(=O)CC[C@@]4(C)[C@H]3CC[C@]21C)C(C)C
REMARK SMILES IDX 4 1 3 2 2 3 1 4 29 5 30 6 31 7 5 8 6 9 7 10 8 11 9 12 27 13
REMARK SMILES IDX 10 14 11 15 26 16 28 17 12 18 25 19 24 20 13 21 22 22 14 23
REMARK SMILES IDX 16 24 21 25 23 26 15 27 17 28 20 29 18 30 19 31
REMARK H PARENT
REMARK Flexibility Score: inf
ROOT
ATOM      1  C   UNL     1      -4.920  34.230  41.721  1.00  0.00     0.004 C 
ENDROOT
BRANCH   1   2
ATOM      2  C   UNL     1      -3.393  34.040  41.388  1.00  0.00    -0.009 C 
BRANCH   2   3
ATOM      3  C   UNL     1      -2.543  33.455  42.557  1.00  0.00     0.000 C 
ATOM      4  C   UNL     1      -2.141  31.987  42.382  1.00  0.00     0.004 C 
ENDBRANCH   2   3
BRANCH   2   5
ATOM      5  C   UNL     1      -2.763  35.358  40.804  1.00  0.00    -0.014 C 
ATOM      6  C   UNL     1      -3.838  36.368  40.370  1.00  0.00     0.007 C 
ATOM      7  C   UNL     1      -1.727  36.028  41.732  1.00  0.00     0.007 C 
ENDBRANCH   2   5
ENDBRANCH   1   2
BRANCH   1   8
ATOM      8  C   UNL     1      -5.545  33.378  42.864  1.00  0.00     0.004 C 
BRANCH   8   9
ATOM      9  C   UNL     1      -6.232  34.249  43.966  1.00  0.00    -0.011 C 
ATOM     10  C   UNL     1      -7.762  34.057  43.858  1.00  0.00     0.008 C 
BRANCH   9  11
ATOM     11  C   UNL     1      -5.763  35.755  43.850  1.00  0.00    -0.002 C 
ATOM     12  C   UNL     1      -6.905  36.796  44.012  1.00  0.00     0.005 C 
ATOM     13  C   UNL     1      -4.737  36.241  44.937  1.00  0.00    -0.026 C 
ATOM     14  C   UNL     1      -6.926  37.198  45.489  1.00  0.00     0.005 C 
ATOM     15  C   UNL     1      -5.668  36.585  46.114  1.00  0.00    -0.001 C 
ATOM     16  C   UNL     1      -3.683  35.235  45.467  1.00  0.00     0.007 C 
ATOM     17  C   UNL     1      -3.994  37.492  44.349  1.00  0.00     0.012 C 
ATOM     18  C   UNL     1      -4.984  37.411  47.237  1.00  0.00     0.004 C 
ATOM     19  C   UNL     1      -3.187  35.530  46.918  1.00  0.00     0.005 C 
ATOM     20  C   UNL     1      -3.478  36.959  47.492  1.00  0.00     0.003 C 
ATOM     21  C   UNL     1      -5.893  37.414  48.502  1.00  0.00     0.085 C 
ATOM     22  C   UNL     1      -3.004  37.147  48.995  1.00  0.00    -0.000 C 
ATOM     23  C   UNL     1      -5.422  36.460  49.552  1.00  0.00     0.159 C 
ATOM     24  C   UNL     1      -3.998  36.479  49.936  1.00  0.00     0.005 C 
ATOM     25  C   UNL     1      -1.580  36.536  49.236  1.00  0.00     0.020 C 
ATOM     26  C   UNL     1      -2.931  38.669  49.319  1.00  0.00     0.017 C 
ATOM     27  O   UNL     1      -6.245  35.688  50.123  1.00  0.00    -0.295 OA
ATOM     28  C   UNL     1      -3.620  36.023  51.145  1.00  0.00     0.055 C 
ATOM     29  C   UNL     1      -1.143  36.638  50.704  1.00  0.00     0.081 C 
ATOM     30  C   UNL     1      -2.218  36.098  51.604  1.00  0.00     0.156 C 
ATOM     31  O   UNL     1      -1.925  35.733  52.772  1.00  0.00    -0.295 OA
ENDBRANCH   9  11
ENDBRANCH   8   9
ENDBRANCH   1   8
TORSDOF 6
ENDMDL
MODEL 6
REMARK VINA RESULT:    -5.086      3.593      5.754
REMARK INTER + INTRA:          -8.635
REMARK INTER:                  -7.249
REMARK INTRA:                  -1.386
REMARK UNBOUND:                -1.765
REMARK SMILES CC[C@@H](CC[C@H](C)[C@H]1CC[C@@H]2[C@H]3CC(=O)C4=CC(=O)CC[C@@]4(C)[C@H]3CC[C@]21C)C(C)C
REMARK SMILES IDX 4 1 3 2 2 3 1 4 29 5 30 6 31 7 5 8 6 9 7 10 8 11 9 12 27 13
REMARK SMILES IDX 10 14 11 15 26 16 28 17 12 18 25 19 24 20 13 21 22 22 14 23
REMARK SMILES IDX 16 24 21 25 23 26 15 27 17 28 20 29 18 30 19 31
REMARK H PARENT
REMARK Flexibility Score: inf
ROOT
ATOM      1  C   UNL     1      -0.450  31.806  42.767  1.00  0.00     0.004 C 
ENDROOT
BRANCH   1   2
ATOM      2  C   UNL     1      -0.630  30.303  42.333  1.00  0.00    -0.009 C 
BRANCH   2   3
ATOM      3  C   UNL     1      -0.574  29.278  43.506  1.00  0.00     0.000 C 
ATOM      4  C   UNL     1      -1.943  28.806  44.007  1.00  0.00     0.004 C 
ENDBRANCH   2   3
BRANCH   2   5
ATOM      5  C   UNL     1       0.356  29.919  41.168  1.00  0.00    -0.014 C 
ATOM      6  C   UNL     1       1.810  29.809  41.656  1.00  0.00     0.007 C 
ATOM      7  C   UNL     1      -0.055  28.655  40.385  1.00  0.00     0.007 C 
ENDBRANCH   2   5
ENDBRANCH   1   2
BRANCH   1   8
ATOM      8  C   UNL     1      -0.733  32.923  41.720  1.00  0.00     0.004 C 
BRANCH   8   9
ATOM      9  C   UNL     1      -2.189  33.485  41.810  1.00  0.00    -0.011 C 
ATOM     10  C   UNL     1      -2.418  34.443  40.618  1.00  0.00     0.008 C 
BRANCH   9  11
ATOM     11  C   UNL     1      -2.438  34.149  43.224  1.00  0.00    -0.002 C 
ATOM     12  C   UNL     1      -2.886  35.635  43.165  1.00  0.00     0.005 C 
ATOM     13  C   UNL     1      -3.581  33.508  44.092  1.00  0.00    -0.026 C 
ATOM     14  C   UNL     1      -4.416  35.633  43.198  1.00  0.00     0.005 C 
ATOM     15  C   UNL     1      -4.833  34.193  43.513  1.00  0.00    -0.001 C 
ATOM     16  C   UNL     1      -3.815  31.978  44.003  1.00  0.00     0.007 C 
ATOM     17  C   UNL     1      -3.303  33.893  45.587  1.00  0.00     0.012 C 
ATOM     18  C   UNL     1      -6.106  34.019  44.384  1.00  0.00     0.004 C 
ATOM     19  C   UNL     1      -5.279  31.533  44.313  1.00  0.00     0.005 C 
ATOM     20  C   UNL     1      -6.198  32.572  45.043  1.00  0.00     0.003 C 
ATOM     21  C   UNL     1      -7.359  34.448  43.561  1.00  0.00     0.085 C 
ATOM     22  C   UNL     1      -7.686  32.063  45.254  1.00  0.00    -0.000 C 
ATOM     23  C   UNL     1      -8.124  33.280  43.028  1.00  0.00     0.159 C 
ATOM     24  C   UNL     1      -8.460  32.176  43.947  1.00  0.00     0.005 C 
ATOM     25  C   UNL     1      -7.728  30.575  45.747  1.00  0.00     0.020 C 
ATOM     26  C   UNL     1      -8.376  32.943  46.339  1.00  0.00     0.017 C 
ATOM     27  O   UNL     1      -8.508  33.269  41.824  1.00  0.00    -0.295 OA
ATOM     28  C   UNL     1      -9.506  31.373  43.681  1.00  0.00     0.055 C 
ATOM     29  C   UNL     1      -9.161  30.043  45.877  1.00  0.00     0.081 C 
ATOM     30  C   UNL     1      -9.929  30.307  44.613  1.00  0.00     0.156 C 
ATOM     31  O   UNL     1     -10.961  29.633  44.361  1.00  0.00    -0.295 OA
ENDBRANCH   9  11
ENDBRANCH   8   9
ENDBRANCH   1   8
TORSDOF 6
ENDMDL
MODEL 7
REMARK VINA RESULT:    -5.072      5.088      7.299
REMARK INTER + INTRA:          -8.616
REMARK INTER:                  -7.078
REMARK INTRA:                  -1.538
REMARK UNBOUND:                -1.765
REMARK SMILES CC[C@@H](CC[C@H](C)[C@H]1CC[C@@H]2[C@H]3CC(=O)C4=CC(=O)CC[C@@]4(C)[C@H]3CC[C@]21C)C(C)C
REMARK SMILES IDX 4 1 3 2 2 3 1 4 29 5 30 6 31 7 5 8 6 9 7 10 8 11 9 12 27 13
REMARK SMILES IDX 10 14 11 15 26 16 28 17 12 18 25 19 24 20 13 21 22 22 14 23
REMARK SMILES IDX 16 24 21 25 23 26 15 27 17 28 20 29 18 30 19 31
REMARK H PARENT
REMARK Flexibility Score: inf
ROOT
ATOM      1  C   UNL     1      -2.514  33.742  40.987  1.00  0.00     0.004 C 
ENDROOT
BRANCH   1   2
ATOM      2  C   UNL     1      -3.487  34.980  41.035  1.00  0.00    -0.009 C 
BRANCH   2   3
ATOM      3  C   UNL     1      -2.784  36.363  40.886  1.00  0.00     0.000 C 
ATOM      4  C   UNL     1      -3.683  37.481  40.349  1.00  0.00     0.004 C 
ENDBRANCH   2   3
BRANCH   2   5
ATOM      5  C   UNL     1      -4.421  34.927  42.299  1.00  0.00    -0.014 C 
ATOM      6  C   UNL     1      -5.342  33.696  42.286  1.00  0.00     0.007 C 
ATOM      7  C   UNL     1      -3.671  35.033  43.644  1.00  0.00     0.007 C 
ENDBRANCH   2   5
ENDBRANCH   1   2
BRANCH   1   8
ATOM      8  C   UNL     1      -1.029  33.946  41.407  1.00  0.00     0.004 C 
BRANCH   8   9
ATOM      9  C   UNL     1      -0.620  33.074  42.639  1.00  0.00    -0.011 C 
ATOM     10  C   UNL     1       0.570  33.758  43.350  1.00  0.00     0.008 C 
BRANCH   9  11
ATOM     11  C   UNL     1      -0.329  31.586  42.188  1.00  0.00    -0.002 C 
ATOM     12  C   UNL     1       1.039  31.026  42.667  1.00  0.00     0.005 C 
ATOM     13  C   UNL     1      -1.323  30.496  42.732  1.00  0.00    -0.026 C 
ATOM     14  C   UNL     1       0.776  30.291  43.983  1.00  0.00     0.005 C 
ATOM     15  C   UNL     1      -0.748  30.220  44.134  1.00  0.00    -0.001 C 
ATOM     16  C   UNL     1      -2.815  30.876  42.918  1.00  0.00     0.007 C 
ATOM     17  C   UNL     1      -1.230  29.259  41.772  1.00  0.00     0.012 C 
ATOM     18  C   UNL     1      -1.315  28.942  44.807  1.00  0.00     0.004 C 
ATOM     19  C   UNL     1      -3.554  30.056  44.022  1.00  0.00     0.005 C 
ATOM     20  C   UNL     1      -2.865  28.734  44.506  1.00  0.00     0.003 C 
ATOM     21  C   UNL     1      -0.933  28.941  46.318  1.00  0.00     0.085 C 
ATOM     22  C   UNL     1      -3.648  28.004  45.677  1.00  0.00    -0.000 C 
ATOM     23  C   UNL     1      -2.069  29.352  47.199  1.00  0.00     0.159 C 
ATOM     24  C   UNL     1      -3.385  28.718  46.996  1.00  0.00     0.005 C 
ATOM     25  C   UNL     1      -5.193  27.971  45.412  1.00  0.00     0.020 C 
ATOM     26  C   UNL     1      -3.151  26.531  45.781  1.00  0.00     0.017 C 
ATOM     27  O   UNL     1      -1.882  30.193  48.124  1.00  0.00    -0.295 OA
ATOM     28  C   UNL     1      -4.274  28.676  48.006  1.00  0.00     0.055 C 
ATOM     29  C   UNL     1      -5.971  27.340  46.575  1.00  0.00     0.081 C 
ATOM     30  C   UNL     1      -5.571  27.981  47.874  1.00  0.00     0.156 C 
ATOM     31  O   UNL     1      -6.337  27.897  48.869  1.00  0.00    -0.295 OA
ENDBRANCH   9  11
ENDBRANCH   8   9
ENDBRANCH   1   8
TORSDOF 6
ENDMDL
MODEL 8
REMARK VINA RESULT:    -5.053      3.282      5.668
REMARK INTER + INTRA:          -8.591
REMARK INTER:                  -6.539
REMARK INTRA:                  -2.052
REMARK UNBOUND:                -1.765
REMARK SMILES CC[C@@H](CC[C@H](C)[C@H]1CC[C@@H]2[C@H]3CC(=O)C4=CC(=O)CC[C@@]4(C)[C@H]3CC[C@]21C)C(C)C
REMARK SMILES IDX 4 1 3 2 2 3 1 4 29 5 30 6 31 7 5 8 6 9 7 10 8 11 9 12 27 13
REMARK SMILES IDX 10 14 11 15 26 16 28 17 12 18 25 19 24 20 13 21 22 22 14 23
REMARK SMILES IDX 16 24 21 25 23 26 15 27 17 28 20 29 18 30 19 31
REMARK H PARENT
REMARK Flexibility Score: inf
ROOT
ATOM      1  C   UNL     1      -5.038  38.159  49.269  1.00  0.00     0.004 C 
ENDROOT
BRANCH   1   2
ATOM      2  C   UNL     1      -3.963  37.097  48.822  1.00  0.00    -0.009 C 
BRANCH   2   3
ATOM      3  C   UNL     1      -4.499  35.637  48.721  1.00  0.00     0.000 C 
ATOM      4  C   UNL     1      -4.112  34.904  47.432  1.00  0.00     0.004 C 
ENDBRANCH   2   3
BRANCH   2   5
ATOM      5  C   UNL     1      -2.665  37.188  49.705  1.00  0.00    -0.014 C 
ATOM      6  C   UNL     1      -2.018  38.582  49.640  1.00  0.00     0.007 C 
ATOM      7  C   UNL     1      -2.865  36.748  51.171  1.00  0.00     0.007 C 
ENDBRANCH   2   5
ENDBRANCH   1   2
BRANCH   1   8
ATOM      8  C   UNL     1      -5.770  38.985  48.170  1.00  0.00     0.004 C 
BRANCH   8   9
ATOM      9  C   UNL     1      -5.163  38.774  46.745  1.00  0.00    -0.011 C 
ATOM     10  C   UNL     1      -4.040  39.815  46.532  1.00  0.00     0.008 C 
BRANCH   9  11
ATOM     11  C   UNL     1      -6.302  38.825  45.649  1.00  0.00    -0.002 C 
ATOM     12  C   UNL     1      -5.793  39.101  44.207  1.00  0.00     0.005 C 
ATOM     13  C   UNL     1      -7.119  37.498  45.445  1.00  0.00    -0.026 C 
ATOM     14  C   UNL     1      -5.589  37.737  43.544  1.00  0.00     0.005 C 
ATOM     15  C   UNL     1      -6.198  36.705  44.500  1.00  0.00    -0.001 C 
ATOM     16  C   UNL     1      -7.395  36.597  46.677  1.00  0.00     0.007 C 
ATOM     17  C   UNL     1      -8.489  37.890  44.788  1.00  0.00     0.012 C 
ATOM     18  C   UNL     1      -6.878  35.474  43.843  1.00  0.00     0.004 C 
ATOM     19  C   UNL     1      -7.581  35.085  46.337  1.00  0.00     0.005 C 
ATOM     20  C   UNL     1      -7.867  34.722  44.839  1.00  0.00     0.003 C 
ATOM     21  C   UNL     1      -5.791  34.570  43.189  1.00  0.00     0.085 C 
ATOM     22  C   UNL     1      -7.971  33.161  44.574  1.00  0.00    -0.000 C 
ATOM     23  C   UNL     1      -5.467  33.369  44.017  1.00  0.00     0.159 C 
ATOM     24  C   UNL     1      -6.577  32.551  44.539  1.00  0.00     0.005 C 
ATOM     25  C   UNL     1      -8.819  32.439  45.677  1.00  0.00     0.020 C 
ATOM     26  C   UNL     1      -8.672  32.924  43.203  1.00  0.00     0.017 C 
ATOM     27  O   UNL     1      -4.261  33.047  44.223  1.00  0.00    -0.295 OA
ATOM     28  C   UNL     1      -6.369  31.259  44.857  1.00  0.00     0.055 C 
ATOM     29  C   UNL     1      -8.861  30.918  45.479  1.00  0.00     0.081 C 
ATOM     30  C   UNL     1      -7.469  30.380  45.305  1.00  0.00     0.156 C 
ATOM     31  O   UNL     1      -7.245  29.159  45.514  1.00  0.00    -0.295 OA
ENDBRANCH   9  11
ENDBRANCH   8   9
ENDBRANCH   1   8
TORSDOF 6
ENDMDL
MODEL 9
REMARK VINA RESULT:    -5.002      5.513      8.008
REMARK INTER + INTRA:          -8.522
REMARK INTER:                  -6.902
REMARK INTRA:                  -1.620
REMARK UNBOUND:                -1.765
REMARK SMILES CC[C@@H](CC[C@H](C)[C@H]1CC[C@@H]2[C@H]3CC(=O)C4=CC(=O)CC[C@@]4(C)[C@H]3CC[C@]21C)C(C)C
REMARK SMILES IDX 4 1 3 2 2 3 1 4 29 5 30 6 31 7 5 8 6 9 7 10 8 11 9 12 27 13
REMARK SMILES IDX 10 14 11 15 26 16 28 17 12 18 25 19 24 20 13 21 22 22 14 23
REMARK SMILES IDX 16 24 21 25 23 26 15 27 17 28 20 29 18 30 19 31
REMARK H PARENT
REMARK Flexibility Score: inf
ROOT
ATOM      1  C   UNL     1      -6.602  34.255  45.008  1.00  0.00     0.004 C 
ENDROOT
BRANCH   1   2
ATOM      2  C   UNL     1      -6.762  33.279  43.783  1.00  0.00    -0.009 C 
BRANCH   2   3
ATOM      3  C   UNL     1      -6.037  33.745  42.484  1.00  0.00     0.000 C 
ATOM      4  C   UNL     1      -5.122  34.961  42.665  1.00  0.00     0.004 C 
ENDBRANCH   2   3
BRANCH   2   5
ATOM      5  C   UNL     1      -8.274  32.930  43.521  1.00  0.00    -0.014 C 
ATOM      6  C   UNL     1      -8.633  33.006  42.027  1.00  0.00     0.007 C 
ATOM      7  C   UNL     1      -8.724  31.582  44.122  1.00  0.00     0.007 C 
ENDBRANCH   2   5
ENDBRANCH   1   2
BRANCH   1   8
ATOM      8  C   UNL     1      -6.418  33.644  46.428  1.00  0.00     0.004 C 
BRANCH   8   9
ATOM      9  C   UNL     1      -5.388  32.468  46.456  1.00  0.00    -0.011 C 
ATOM     10  C   UNL     1      -5.912  31.381  47.422  1.00  0.00     0.008 C 
BRANCH   9  11
ATOM     11  C   UNL     1      -3.946  33.008  46.819  1.00  0.00    -0.002 C 
ATOM     12  C   UNL     1      -3.369  32.452  48.150  1.00  0.00     0.005 C 
ATOM     13  C   UNL     1      -2.802  32.647  45.804  1.00  0.00    -0.026 C 
ATOM     14  C   UNL     1      -2.524  31.229  47.785  1.00  0.00     0.005 C 
ATOM     15  C   UNL     1      -2.420  31.225  46.256  1.00  0.00    -0.001 C 
ATOM     16  C   UNL     1      -3.144  32.570  44.293  1.00  0.00     0.007 C 
ATOM     17  C   UNL     1      -1.649  33.691  46.010  1.00  0.00     0.012 C 
ATOM     18  C   UNL     1      -1.084  30.711  45.657  1.00  0.00     0.004 C 
ATOM     19  C   UNL     1      -2.226  31.607  43.476  1.00  0.00     0.005 C 
ATOM     20  C   UNL     1      -0.878  31.169  44.146  1.00  0.00     0.003 C 
ATOM     21  C   UNL     1      -0.964  29.176  45.901  1.00  0.00     0.085 C 
ATOM     22  C   UNL     1      -0.044  30.137  43.276  1.00  0.00    -0.000 C 
ATOM     23  C   UNL     1      -1.285  28.373  44.682  1.00  0.00     0.159 C 
ATOM     24  C   UNL     1      -0.652  28.747  43.404  1.00  0.00     0.005 C 
ATOM     25  C   UNL     1      -0.010  30.545  41.763  1.00  0.00     0.020 C 
ATOM     26  C   UNL     1       1.425  30.107  43.794  1.00  0.00     0.017 C 
ATOM     27  O   UNL     1      -2.051  27.371  44.766  1.00  0.00    -0.295 OA
ATOM     28  C   UNL     1      -0.514  27.830  42.428  1.00  0.00     0.055 C 
ATOM     29  C   UNL     1       0.724  29.513  40.897  1.00  0.00     0.081 C 
ATOM     30  C   UNL     1       0.186  28.136  41.163  1.00  0.00     0.156 C 
ATOM     31  O   UNL     1       0.362  27.225  40.312  1.00  0.00    -0.295 OA
ENDBRANCH   9  11
ENDBRANCH   8   9
ENDBRANCH   1   8
TORSDOF 6
ENDMDL
