MODEL 1
REMARK VINA RESULT:    14.217      0.000      0.000
REMARK INTER + INTRA:          21.343
REMARK INTER:                  20.035
REMARK INTRA:                   1.308
REMARK UNBOUND:                 1.308
REMARK SMILES CC1=CCC(=C(C)C)C(=O)CC(C)=CCC1
REMARK SMILES IDX 12 1 14 2 13 3 15 4 16 5 2 6 1 7 3 8 11 10 9 11 10 12 5 13
REMARK SMILES IDX 6 14 7 15 8 16 4 17
REMARK H PARENT
REMARK Flexibility Score: 60.00
ROOT
ATOM      1  C   UNL     1     145.298  55.453  14.498  1.00  0.00    -0.070 C 
ATOM      2  C   UNL     1     146.019  54.319  14.702  1.00  0.00    -0.027 C 
ATOM      3  C   UNL     1     145.491  56.209  13.206  1.00  0.00     0.039 C 
ENDROOT
BRANCH   2   4
ATOM      4  C   UNL     1     145.890  53.388  15.884  1.00  0.00     0.032 C 
BRANCH   4   5
ATOM      5  C   UNL     1     146.782  53.783  17.068  1.00  0.00     0.034 C 
BRANCH   5   6
ATOM      6  C   UNL     1     145.931  54.246  18.235  1.00  0.00    -0.077 C 
ATOM      7  C   UNL     1     144.986  53.257  18.866  1.00  0.00     0.039 C 
ATOM      8  C   UNL     1     145.916  55.522  18.688  1.00  0.00    -0.023 CG0
ATOM      9  G   UNL     1     146.797  56.645  18.193  1.00  0.00     0.000 G0
ENDBRANCH   5   6
ENDBRANCH   4   5
ENDBRANCH   2   4
BRANCH   1  10
ATOM     10  C   UNL     1     144.407  56.105  15.548  1.00  0.00     0.111 C 
BRANCH  10  11
ATOM     11  C   UNL     1     145.084  57.205  16.327  1.00  0.00     0.163 C 
ATOM     12  O   UNL     1     144.417  58.250  16.563  1.00  0.00    -0.294 OA
BRANCH  11  13
ATOM     13  C   UNL     1     146.516  57.123  16.769  1.00  0.00    -0.002 C 
ATOM     14  C   UNL     1     147.530  57.510  15.932  1.00  0.00    -0.069 C 
ATOM     15  C   UNL     1     148.973  57.530  16.388  1.00  0.00     0.039 C 
ATOM     16  C   UNL     1     147.272  57.890  14.491  1.00  0.00     0.039 C 
BRANCH  13  17
ATOM     17  C   UNL     1     146.820  56.655  18.190  1.00  0.00     0.066 CG0
ATOM     18  G   UNL     1     145.892  55.550  18.637  1.00  0.00     0.000 G0
ENDBRANCH  13  17
ENDBRANCH  11  13
ENDBRANCH  10  11
ENDBRANCH   1  10
TORSDOF 0
ENDMDL
MODEL 2
REMARK VINA RESULT:    15.002      1.606      4.024
REMARK INTER + INTRA:          22.449
REMARK INTER:                  19.094
REMARK INTRA:                   3.355
REMARK UNBOUND:                 1.308
REMARK SMILES CC1=CCC(=C(C)C)C(=O)CC(C)=CCC1
REMARK SMILES IDX 12 1 14 2 13 3 15 4 16 5 2 6 1 7 3 8 11 10 9 11 10 12 5 13
REMARK SMILES IDX 6 14 7 15 8 16 4 17
REMARK H PARENT
REMARK Flexibility Score: 60.00
ROOT
ATOM      1  C   UNL     1     144.434  56.629  14.873  1.00  0.00    -0.070 C 
ATOM      2  C   UNL     1     144.447  57.856  15.459  1.00  0.00    -0.027 C 
ATOM      3  C   UNL     1     143.108  56.042  14.456  1.00  0.00     0.039 C 
ENDROOT
BRANCH   2   4
ATOM      4  C   UNL     1     145.679  58.636  15.853  1.00  0.00     0.032 C 
BRANCH   4   5
ATOM      5  C   UNL     1     146.957  58.140  15.163  1.00  0.00     0.034 C 
BRANCH   5   6
ATOM      6  C   UNL     1     147.962  57.669  16.197  1.00  0.00    -0.077 C 
ATOM      7  C   UNL     1     149.416  57.996  15.980  1.00  0.00     0.039 C 
ATOM      8  C   UNL     1     147.631  56.902  17.263  1.00  0.00    -0.023 CG0
ATOM      9  G   UNL     1     146.232  56.484  17.651  1.00  0.00     0.000 G0
ENDBRANCH   5   6
ENDBRANCH   4   5
ENDBRANCH   2   4
BRANCH   1  10
ATOM     10  C   UNL     1     145.656  55.730  14.735  1.00  0.00     0.111 C 
BRANCH  10  11
ATOM     11  C   UNL     1     145.773  54.686  15.817  1.00  0.00     0.163 C 
ATOM     12  O   UNL     1     145.672  53.476  15.475  1.00  0.00    -0.294 OA
BRANCH  11  13
ATOM     13  C   UNL     1     145.941  55.036  17.266  1.00  0.00    -0.002 C 
ATOM     14  C   UNL     1     145.895  54.064  18.232  1.00  0.00    -0.069 C 
ATOM     15  C   UNL     1     146.160  54.376  19.688  1.00  0.00     0.039 C 
ATOM     16  C   UNL     1     145.527  52.634  17.903  1.00  0.00     0.039 C 
BRANCH  13  17
ATOM     17  C   UNL     1     146.224  56.489  17.643  1.00  0.00     0.066 CG0
ATOM     18  G   UNL     1     147.624  56.913  17.268  1.00  0.00     0.000 G0
ENDBRANCH  13  17
ENDBRANCH  11  13
ENDBRANCH  10  11
ENDBRANCH   1  10
TORSDOF 0
ENDMDL
MODEL 3
REMARK VINA RESULT:    15.226      1.902      4.398
REMARK INTER + INTRA:          22.765
REMARK INTER:                  18.667
REMARK INTRA:                   4.099
REMARK UNBOUND:                 1.308
REMARK SMILES CC1=CCC(=C(C)C)C(=O)CC(C)=CCC1
REMARK SMILES IDX 12 1 14 2 13 3 15 4 16 5 2 6 1 7 3 8 11 10 9 11 10 12 5 13
REMARK SMILES IDX 6 14 7 15 8 16 4 17
REMARK H PARENT
REMARK Flexibility Score: 60.00
ROOT
ATOM      1  C   UNL     1     147.401  57.639  16.336  1.00  0.00    -0.070 C 
ATOM      2  C   UNL     1     146.807  58.224  15.262  1.00  0.00    -0.027 C 
ATOM      3  C   UNL     1     148.823  57.155  16.200  1.00  0.00     0.039 C 
ENDROOT
BRANCH   2   4
ATOM      4  C   UNL     1     145.433  58.850  15.241  1.00  0.00     0.032 C 
BRANCH   4   5
ATOM      5  C   UNL     1     144.355  57.968  15.885  1.00  0.00     0.034 C 
BRANCH   5   6
ATOM      6  C   UNL     1     143.945  56.861  14.933  1.00  0.00    -0.077 C 
ATOM      7  C   UNL     1     142.565  56.914  14.329  1.00  0.00     0.039 C 
ATOM      8  C   UNL     1     144.722  55.787  14.658  1.00  0.00    -0.023 CG0
ATOM      9  G   UNL     1     146.131  55.566  15.156  1.00  0.00     0.000 G0
ENDBRANCH   5   6
ENDBRANCH   4   5
ENDBRANCH   2   4
BRANCH   1  10
ATOM     10  C   UNL     1     146.682  57.302  17.636  1.00  0.00     0.111 C 
BRANCH  10  11
ATOM     11  C   UNL     1     146.217  55.870  17.724  1.00  0.00     0.163 C 
ATOM     12  O   UNL     1     145.879  55.434  18.859  1.00  0.00    -0.294 OA
BRANCH  11  13
ATOM     13  C   UNL     1     146.200  54.949  16.540  1.00  0.00    -0.002 C 
ATOM     14  C   UNL     1     146.188  53.589  16.711  1.00  0.00    -0.069 C 
ATOM     15  C   UNL     1     146.072  52.641  15.537  1.00  0.00     0.039 C 
ATOM     16  C   UNL     1     146.344  52.957  18.077  1.00  0.00     0.039 C 
BRANCH  13  17
ATOM     17  C   UNL     1     146.135  55.555  15.139  1.00  0.00     0.066 CG0
ATOM     18  G   UNL     1     144.714  55.772  14.678  1.00  0.00     0.000 G0
ENDBRANCH  13  17
ENDBRANCH  11  13
ENDBRANCH  10  11
ENDBRANCH   1  10
TORSDOF 0
ENDMDL
MODEL 4
REMARK VINA RESULT:    15.325      1.300      2.086
REMARK INTER + INTRA:          22.905
REMARK INTER:                  21.800
REMARK INTRA:                   1.105
REMARK UNBOUND:                 1.308
REMARK SMILES CC1=CCC(=C(C)C)C(=O)CC(C)=CCC1
REMARK SMILES IDX 12 1 14 2 13 3 15 4 16 5 2 6 1 7 3 8 11 10 9 11 10 12 5 13
REMARK SMILES IDX 6 14 7 15 8 16 4 17
REMARK H PARENT
REMARK Flexibility Score: 60.00
ROOT
ATOM      1  C   UNL     1     145.348  55.226  14.826  1.00  0.00    -0.070 C 
ATOM      2  C   UNL     1     145.398  53.946  15.280  1.00  0.00    -0.027 C 
ATOM      3  C   UNL     1     144.018  55.783  14.382  1.00  0.00     0.039 C 
ENDROOT
BRANCH   2   4
ATOM      4  C   UNL     1     146.614  53.256  15.851  1.00  0.00     0.032 C 
BRANCH   4   5
ATOM      5  C   UNL     1     147.083  53.856  17.183  1.00  0.00     0.034 C 
BRANCH   5   6
ATOM      6  C   UNL     1     145.893  54.125  18.085  1.00  0.00    -0.077 C 
ATOM      7  C   UNL     1     145.038  52.958  18.506  1.00  0.00     0.039 C 
ATOM      8  C   UNL     1     145.512  55.367  18.467  1.00  0.00    -0.023 CG0
ATOM      9  G   UNL     1     146.246  56.650  18.156  1.00  0.00     0.000 G0
ENDBRANCH   5   6
ENDBRANCH   4   5
ENDBRANCH   2   4
BRANCH   1  10
ATOM     10  C   UNL     1     146.571  56.103  14.594  1.00  0.00     0.111 C 
BRANCH  10  11
ATOM     11  C   UNL     1     146.820  57.108  15.691  1.00  0.00     0.163 C 
ATOM     12  O   UNL     1     147.891  57.774  15.642  1.00  0.00    -0.294 OA
BRANCH  11  13
ATOM     13  C   UNL     1     145.883  57.295  16.847  1.00  0.00    -0.002 C 
ATOM     14  C   UNL     1     144.695  57.959  16.686  1.00  0.00    -0.069 C 
ATOM     15  C   UNL     1     143.689  58.075  17.811  1.00  0.00     0.039 C 
ATOM     16  C   UNL     1     144.344  58.659  15.391  1.00  0.00     0.039 C 
BRANCH  13  17
ATOM     17  C   UNL     1     146.249  56.679  18.196  1.00  0.00     0.066 CG0
ATOM     18  G   UNL     1     145.515  55.383  18.449  1.00  0.00     0.000 G0
ENDBRANCH  13  17
ENDBRANCH  11  13
ENDBRANCH  10  11
ENDBRANCH   1  10
TORSDOF 0
ENDMDL
MODEL 5
REMARK VINA RESULT:    15.604      1.756      3.441
REMARK INTER + INTRA:          23.297
REMARK INTER:                  20.039
REMARK INTRA:                   3.258
REMARK UNBOUND:                 1.308
REMARK SMILES CC1=CCC(=C(C)C)C(=O)CC(C)=CCC1
REMARK SMILES IDX 12 1 14 2 13 3 15 4 16 5 2 6 1 7 3 8 11 10 9 11 10 12 5 13
REMARK SMILES IDX 6 14 7 15 8 16 4 17
REMARK H PARENT
REMARK Flexibility Score: 60.00
ROOT
ATOM      1  C   UNL     1     146.196  54.107  17.163  1.00  0.00    -0.070 C 
ATOM      2  C   UNL     1     146.077  53.670  15.881  1.00  0.00    -0.027 C 
ATOM      3  C   UNL     1     147.003  53.283  18.135  1.00  0.00     0.039 C 
ENDROOT
BRANCH   2   4
ATOM      4  C   UNL     1     145.393  54.406  14.754  1.00  0.00     0.032 C 
BRANCH   4   5
ATOM      5  C   UNL     1     145.615  55.924  14.798  1.00  0.00     0.034 C 
BRANCH   5   6
ATOM      6  C   UNL     1     144.286  56.651  14.721  1.00  0.00    -0.077 C 
ATOM      7  C   UNL     1     143.263  56.167  13.727  1.00  0.00     0.039 C 
ATOM      8  C   UNL     1     144.001  57.761  15.442  1.00  0.00    -0.023 CG0
ATOM      9  G   UNL     1     144.890  58.385  16.492  1.00  0.00     0.000 G0
ENDBRANCH   5   6
ENDBRANCH   4   5
ENDBRANCH   2   4
BRANCH   1  10
ATOM     10  C   UNL     1     145.450  55.306  17.734  1.00  0.00     0.111 C 
BRANCH  10  11
ATOM     11  C   UNL     1     146.268  56.573  17.775  1.00  0.00     0.163 C 
ATOM     12  O   UNL     1     146.995  56.767  18.788  1.00  0.00    -0.294 OA
BRANCH  11  13
ATOM     13  C   UNL     1     146.200  57.617  16.700  1.00  0.00    -0.002 C 
ATOM     14  C   UNL     1     147.272  57.845  15.876  1.00  0.00    -0.069 C 
ATOM     15  C   UNL     1     147.195  58.821  14.723  1.00  0.00     0.039 C 
ATOM     16  C   UNL     1     148.608  57.172  16.105  1.00  0.00     0.039 C 
BRANCH  13  17
ATOM     17  C   UNL     1     144.893  58.381  16.500  1.00  0.00     0.066 CG0
ATOM     18  G   UNL     1     144.022  57.753  15.439  1.00  0.00     0.000 G0
ENDBRANCH  13  17
ENDBRANCH  11  13
ENDBRANCH  10  11
ENDBRANCH   1  10
TORSDOF 0
ENDMDL
MODEL 6
REMARK VINA RESULT:    16.077      1.864      3.669
REMARK INTER + INTRA:          23.965
REMARK INTER:                  20.600
REMARK INTRA:                   3.365
REMARK UNBOUND:                 1.308
REMARK SMILES CC1=CCC(=C(C)C)C(=O)CC(C)=CCC1
REMARK SMILES IDX 12 1 14 2 13 3 15 4 16 5 2 6 1 7 3 8 11 10 9 11 10 12 5 13
REMARK SMILES IDX 6 14 7 15 8 16 4 17
REMARK H PARENT
REMARK Flexibility Score: 60.00
ROOT
ATOM      1  C   UNL     1     148.144  57.449  16.286  1.00  0.00    -0.070 C 
ATOM      2  C   UNL     1     147.569  56.878  17.378  1.00  0.00    -0.027 C 
ATOM      3  C   UNL     1     149.644  57.608  16.261  1.00  0.00     0.039 C 
ENDROOT
BRANCH   2   4
ATOM      4  C   UNL     1     146.103  56.553  17.538  1.00  0.00     0.032 C 
BRANCH   4   5
ATOM      5  C   UNL     1     145.842  55.082  17.885  1.00  0.00     0.034 C 
BRANCH   5   6
ATOM      6  C   UNL     1     146.305  54.185  16.753  1.00  0.00    -0.077 C 
ATOM      7  C   UNL     1     147.393  53.182  17.035  1.00  0.00     0.039 C 
ATOM      8  C   UNL     1     145.849  54.294  15.482  1.00  0.00    -0.023 CG0
ATOM      9  G   UNL     1     144.758  55.226  15.012  1.00  0.00     0.000 G0
ENDBRANCH   5   6
ENDBRANCH   4   5
ENDBRANCH   2   4
BRANCH   1  10
ATOM     10  C   UNL     1     147.367  58.076  15.135  1.00  0.00     0.111 C 
BRANCH  10  11
ATOM     11  C   UNL     1     146.415  57.127  14.451  1.00  0.00     0.163 C 
ATOM     12  O   UNL     1     146.708  56.745  13.284  1.00  0.00    -0.294 OA
BRANCH  11  13
ATOM     13  C   UNL     1     145.128  56.679  15.077  1.00  0.00    -0.002 C 
ATOM     14  C   UNL     1     144.280  57.585  15.660  1.00  0.00    -0.069 C 
ATOM     15  C   UNL     1     142.932  57.173  16.210  1.00  0.00     0.039 C 
ATOM     16  C   UNL     1     144.665  59.038  15.833  1.00  0.00     0.039 C 
BRANCH  13  17
ATOM     17  C   UNL     1     144.749  55.201  15.002  1.00  0.00     0.066 CG0
ATOM     18  G   UNL     1     145.870  54.302  15.468  1.00  0.00     0.000 G0
ENDBRANCH  13  17
ENDBRANCH  11  13
ENDBRANCH  10  11
ENDBRANCH   1  10
TORSDOF 0
ENDMDL
MODEL 7
REMARK VINA RESULT:    16.156      1.747      3.912
REMARK INTER + INTRA:          24.075
REMARK INTER:                  21.677
REMARK INTRA:                   2.398
REMARK UNBOUND:                 1.308
REMARK SMILES CC1=CCC(=C(C)C)C(=O)CC(C)=CCC1
REMARK SMILES IDX 12 1 14 2 13 3 15 4 16 5 2 6 1 7 3 8 11 10 9 11 10 12 5 13
REMARK SMILES IDX 6 14 7 15 8 16 4 17
REMARK H PARENT
REMARK Flexibility Score: 60.00
ROOT
ATOM      1  C   UNL     1     146.132  54.019  18.249  1.00  0.00    -0.070 C 
ATOM      2  C   UNL     1     146.657  53.385  17.167  1.00  0.00    -0.027 C 
ATOM      3  C   UNL     1     146.278  53.373  19.605  1.00  0.00     0.039 C 
ENDROOT
BRANCH   2   4
ATOM      4  C   UNL     1     146.690  53.923  15.756  1.00  0.00     0.032 C 
BRANCH   4   5
ATOM      5  C   UNL     1     145.504  54.839  15.428  1.00  0.00     0.034 C 
BRANCH   5   6
ATOM      6  C   UNL     1     145.854  55.757  14.272  1.00  0.00    -0.077 C 
ATOM      7  C   UNL     1     145.503  55.313  12.876  1.00  0.00     0.039 C 
ATOM      8  C   UNL     1     146.538  56.917  14.421  1.00  0.00    -0.023 CG0
ATOM      9  G   UNL     1     146.963  57.528  15.735  1.00  0.00     0.000 G0
ENDBRANCH   5   6
ENDBRANCH   4   5
ENDBRANCH   2   4
BRANCH   1  10
ATOM     10  C   UNL     1     145.274  55.276  18.176  1.00  0.00     0.111 C 
BRANCH  10  11
ATOM     11  C   UNL     1     146.062  56.542  17.948  1.00  0.00     0.163 C 
ATOM     12  O   UNL     1     146.902  56.875  18.829  1.00  0.00    -0.294 OA
BRANCH  11  13
ATOM     13  C   UNL     1     145.841  57.432  16.761  1.00  0.00    -0.002 C 
ATOM     14  C   UNL     1     144.689  58.165  16.640  1.00  0.00    -0.069 C 
ATOM     15  C   UNL     1     144.484  59.143  15.504  1.00  0.00     0.039 C 
ATOM     16  C   UNL     1     143.536  58.001  17.607  1.00  0.00     0.039 C 
BRANCH  13  17
ATOM     17  C   UNL     1     146.948  57.551  15.716  1.00  0.00     0.066 CG0
ATOM     18  G   UNL     1     146.558  56.926  14.398  1.00  0.00     0.000 G0
ENDBRANCH  13  17
ENDBRANCH  11  13
ENDBRANCH  10  11
ENDBRANCH   1  10
TORSDOF 0
ENDMDL
MODEL 8
REMARK VINA RESULT:    16.266      1.797      4.208
REMARK INTER + INTRA:          24.231
REMARK INTER:                  21.948
REMARK INTRA:                   2.283
REMARK UNBOUND:                 1.308
REMARK SMILES CC1=CCC(=C(C)C)C(=O)CC(C)=CCC1
REMARK SMILES IDX 12 1 14 2 13 3 15 4 16 5 2 6 1 7 3 8 11 10 9 11 10 12 5 13
REMARK SMILES IDX 6 14 7 15 8 16 4 17
REMARK H PARENT
REMARK Flexibility Score: 60.00
ROOT
ATOM      1  C   UNL     1     144.930  58.322  16.119  1.00  0.00    -0.070 C 
ATOM      2  C   UNL     1     145.950  58.424  15.226  1.00  0.00    -0.027 C 
ATOM      3  C   UNL     1     143.983  59.487  16.270  1.00  0.00     0.039 C 
ENDROOT
BRANCH   2   4
ATOM      4  C   UNL     1     146.932  57.332  14.875  1.00  0.00     0.032 C 
BRANCH   4   5
ATOM      5  C   UNL     1     146.524  56.526  13.633  1.00  0.00     0.034 C 
BRANCH   5   6
ATOM      6  C   UNL     1     145.273  55.719  13.920  1.00  0.00    -0.077 C 
ATOM      7  C   UNL     1     144.032  56.015  13.118  1.00  0.00     0.039 C 
ATOM      8  C   UNL     1     145.188  54.800  14.912  1.00  0.00    -0.023 CG0
ATOM      9  G   UNL     1     146.322  54.361  15.807  1.00  0.00     0.000 G0
ENDBRANCH   5   6
ENDBRANCH   4   5
ENDBRANCH   2   4
BRANCH   1  10
ATOM     10  C   UNL     1     144.754  57.164  17.093  1.00  0.00     0.111 C 
BRANCH  10  11
ATOM     11  C   UNL     1     146.029  56.416  17.391  1.00  0.00     0.163 C 
ATOM     12  O   UNL     1     147.037  57.092  17.738  1.00  0.00    -0.294 OA
BRANCH  11  13
ATOM     13  C   UNL     1     146.153  54.929  17.232  1.00  0.00    -0.002 C 
ATOM     14  C   UNL     1     146.087  54.101  18.322  1.00  0.00    -0.069 C 
ATOM     15  C   UNL     1     146.110  52.594  18.179  1.00  0.00     0.039 C 
ATOM     16  C   UNL     1     146.038  54.644  19.733  1.00  0.00     0.039 C 
BRANCH  13  17
ATOM     17  C   UNL     1     146.296  54.350  15.826  1.00  0.00     0.066 CG0
ATOM     18  G   UNL     1     145.196  54.816  14.903  1.00  0.00     0.000 G0
ENDBRANCH  13  17
ENDBRANCH  11  13
ENDBRANCH  10  11
ENDBRANCH   1  10
TORSDOF 0
ENDMDL
MODEL 9
REMARK VINA RESULT:    16.538      1.952      4.650
REMARK INTER + INTRA:          24.614
REMARK INTER:                  23.230
REMARK INTRA:                   1.384
REMARK UNBOUND:                 1.308
REMARK SMILES CC1=CCC(=C(C)C)C(=O)CC(C)=CCC1
REMARK SMILES IDX 12 1 14 2 13 3 15 4 16 5 2 6 1 7 3 8 11 10 9 11 10 12 5 13
REMARK SMILES IDX 6 14 7 15 8 16 4 17
REMARK H PARENT
REMARK Flexibility Score: 60.00
ROOT
ATOM      1  C   UNL     1     147.219  57.402  16.288  1.00  0.00    -0.070 C 
ATOM      2  C   UNL     1     146.192  57.875  15.534  1.00  0.00    -0.027 C 
ATOM      3  C   UNL     1     148.630  57.770  15.899  1.00  0.00     0.039 C 
ENDROOT
BRANCH   2   4
ATOM      4  C   UNL     1     144.722  57.690  15.824  1.00  0.00     0.032 C 
BRANCH   4   5
ATOM      5  C   UNL     1     144.087  56.539  15.033  1.00  0.00     0.034 C 
BRANCH   5   6
ATOM      6  C   UNL     1     145.161  55.731  14.329  1.00  0.00    -0.077 C 
ATOM      7  C   UNL     1     145.759  56.288  13.063  1.00  0.00     0.039 C 
ATOM      8  C   UNL     1     145.553  54.500  14.734  1.00  0.00    -0.023 CG0
ATOM      9  G   UNL     1     145.079  53.786  15.978  1.00  0.00     0.000 G0
ENDBRANCH   5   6
ENDBRANCH   4   5
ENDBRANCH   2   4
BRANCH   1  10
ATOM     10  C   UNL     1     147.061  56.400  17.424  1.00  0.00     0.111 C 
BRANCH  10  11
ATOM     11  C   UNL     1     147.194  54.961  16.993  1.00  0.00     0.163 C 
ATOM     12  O   UNL     1     148.273  54.614  16.439  1.00  0.00    -0.294 OA
BRANCH  11  13
ATOM     13  C   UNL     1     146.084  53.963  17.145  1.00  0.00    -0.002 C 
ATOM     14  C   UNL     1     145.920  53.271  18.316  1.00  0.00    -0.069 C 
ATOM     15  C   UNL     1     144.751  52.333  18.529  1.00  0.00     0.039 C 
ATOM     16  C   UNL     1     146.925  53.364  19.444  1.00  0.00     0.039 C 
BRANCH  13  17
ATOM     17  C   UNL     1     145.102  53.775  15.990  1.00  0.00     0.066 CG0
ATOM     18  G   UNL     1     145.559  54.479  14.734  1.00  0.00     0.000 G0
ENDBRANCH  13  17
ENDBRANCH  11  13
ENDBRANCH  10  11
ENDBRANCH   1  10
TORSDOF 0
ENDMDL
