MODEL 1
REMARK VINA RESULT:    -7.698      0.000      0.000
REMARK INTER + INTRA:          -9.501
REMARK INTER:                  -9.273
REMARK INTRA:                  -0.228
REMARK UNBOUND:                -0.228
REMARK SMILES O=c1c(O)c(-c2ccc(O)c(O)c2)oc2cc(O)cc(O)c12
REMARK SMILES IDX 5 1 3 2 2 3 1 4 22 5 20 6 19 7 17 8 16 9 15 10 14 11 6 12
REMARK SMILES IDX 7 13 8 14 9 15 13 16 11 17 10 18 12 20 4 22 21 24 18 26
REMARK H PARENT 10 19 12 21 4 23 21 25 18 27
REMARK Flexibility Score: inf
ROOT
ATOM      1  C   UNL     1     -15.056   8.745 -12.350  1.00  0.00     0.180 A 
ATOM      2  C   UNL     1     -16.227   8.711 -11.573  1.00  0.00     0.208 A 
ATOM      3  C   UNL     1     -17.428   8.297 -12.169  1.00  0.00     0.238 A 
ATOM      4  O   UNL     1     -18.486   8.340 -11.488  1.00  0.00    -0.285 OA
ATOM      5  C   UNL     1     -17.434   7.867 -13.518  1.00  0.00     0.111 A 
ATOM      6  C   UNL     1     -18.586   7.384 -14.212  1.00  0.00     0.134 A 
ATOM      7  C   UNL     1     -18.495   7.088 -15.578  1.00  0.00     0.093 A 
ATOM      8  C   UNL     1     -17.284   7.195 -16.260  1.00  0.00     0.123 A 
ATOM      9  C   UNL     1     -16.140   7.614 -15.579  1.00  0.00     0.094 A 
ATOM     10  C   UNL     1     -16.206   7.953 -14.226  1.00  0.00     0.146 A 
ATOM     11  O   UNL     1     -15.099   8.367 -13.622  1.00  0.00    -0.452 OA
ENDROOT
BRANCH   1  12
ATOM     12  C   UNL     1     -13.754   9.184 -11.797  1.00  0.00     0.025 A 
ATOM     13  C   UNL     1     -13.053   8.400 -10.864  1.00  0.00     0.016 A 
ATOM     14  C   UNL     1     -11.837   8.847 -10.338  1.00  0.00     0.051 A 
ATOM     15  C   UNL     1     -11.314  10.087 -10.726  1.00  0.00     0.157 A 
ATOM     16  C   UNL     1     -13.234  10.435 -12.166  1.00  0.00     0.062 A 
ATOM     17  C   UNL     1     -12.014  10.883 -11.639  1.00  0.00     0.158 A 
BRANCH  15  18
ATOM     18  O   UNL     1     -10.101  10.535 -10.204  1.00  0.00    -0.504 OA
ATOM     19  H   UNL     1      -9.460   9.905  -9.736  1.00  0.00     0.293 HD
ENDBRANCH  15  18
BRANCH  17  20
ATOM     20  O   UNL     1     -11.494  12.120 -12.018  1.00  0.00    -0.504 OA
ATOM     21  H   UNL     1     -10.686  12.520 -11.555  1.00  0.00     0.293 HD
ENDBRANCH  17  20
ENDBRANCH   1  12
BRANCH   2  22
ATOM     22  O   UNL     1     -16.184   9.066 -10.221  1.00  0.00    -0.502 OA
ATOM     23  H   UNL     1     -16.775   9.790  -9.831  1.00  0.00     0.293 HD
ENDBRANCH   2  22
BRANCH   6  24
ATOM     24  O   UNL     1     -19.825   7.155 -13.607  1.00  0.00    -0.507 OA
ATOM     25  H   UNL     1     -20.355   6.300 -13.681  1.00  0.00     0.293 HD
ENDBRANCH   6  24
BRANCH   8  26
ATOM     26  O   UNL     1     -17.227   6.875 -17.615  1.00  0.00    -0.508 OA
ATOM     27  H   UNL     1     -16.741   6.049 -17.944  1.00  0.00     0.293 HD
ENDBRANCH   8  26
TORSDOF 6
ENDMDL
MODEL 2
REMARK VINA RESULT:    -7.167      0.632      1.467
REMARK INTER + INTRA:          -8.862
REMARK INTER:                  -8.666
REMARK INTRA:                  -0.196
REMARK UNBOUND:                -0.228
REMARK SMILES O=c1c(O)c(-c2ccc(O)c(O)c2)oc2cc(O)cc(O)c12
REMARK SMILES IDX 5 1 3 2 2 3 1 4 22 5 20 6 19 7 17 8 16 9 15 10 14 11 6 12
REMARK SMILES IDX 7 13 8 14 9 15 13 16 11 17 10 18 12 20 4 22 21 24 18 26
REMARK H PARENT 10 19 12 21 4 23 21 25 18 27
REMARK Flexibility Score: inf
ROOT
ATOM      1  C   UNL     1     -15.008   8.831 -12.220  1.00  0.00     0.180 A 
ATOM      2  C   UNL     1     -16.174   8.776 -11.436  1.00  0.00     0.208 A 
ATOM      3  C   UNL     1     -17.369   8.332 -12.024  1.00  0.00     0.238 A 
ATOM      4  O   UNL     1     -18.424   8.356 -11.337  1.00  0.00    -0.285 OA
ATOM      5  C   UNL     1     -17.373   7.892 -13.369  1.00  0.00     0.111 A 
ATOM      6  C   UNL     1     -18.517   7.379 -14.054  1.00  0.00     0.134 A 
ATOM      7  C   UNL     1     -18.426   7.075 -15.418  1.00  0.00     0.093 A 
ATOM      8  C   UNL     1     -17.221   7.204 -16.107  1.00  0.00     0.123 A 
ATOM      9  C   UNL     1     -16.084   7.652 -15.435  1.00  0.00     0.094 A 
ATOM     10  C   UNL     1     -16.151   8.000 -14.084  1.00  0.00     0.146 A 
ATOM     11  O   UNL     1     -15.050   8.443 -13.489  1.00  0.00    -0.452 OA
ENDROOT
BRANCH   1  12
ATOM     12  C   UNL     1     -13.714   9.302 -11.677  1.00  0.00     0.025 A 
ATOM     13  C   UNL     1     -13.119  10.492 -12.132  1.00  0.00     0.016 A 
ATOM     14  C   UNL     1     -11.884  10.905 -11.622  1.00  0.00     0.051 A 
ATOM     15  C   UNL     1     -11.223  10.128 -10.661  1.00  0.00     0.157 A 
ATOM     16  C   UNL     1     -13.035   8.518 -10.729  1.00  0.00     0.062 A 
ATOM     17  C   UNL     1     -11.798   8.932 -10.217  1.00  0.00     0.158 A 
BRANCH  15  18
ATOM     18  O   UNL     1      -9.993  10.538 -10.149  1.00  0.00    -0.504 OA
ATOM     19  H   UNL     1      -9.887  10.813  -9.180  1.00  0.00     0.293 HD
ENDBRANCH  15  18
BRANCH  17  20
ATOM     20  O   UNL     1     -11.134   8.158  -9.266  1.00  0.00    -0.504 OA
ATOM     21  H   UNL     1     -10.301   8.494  -8.797  1.00  0.00     0.293 HD
ENDBRANCH  17  20
ENDBRANCH   1  12
BRANCH   2  22
ATOM     22  O   UNL     1     -16.132   9.142 -10.088  1.00  0.00    -0.502 OA
ATOM     23  H   UNL     1     -15.302   9.027  -9.519  1.00  0.00     0.293 HD
ENDBRANCH   2  22
BRANCH   6  24
ATOM     24  O   UNL     1     -19.747   7.126 -13.441  1.00  0.00    -0.507 OA
ATOM     25  H   UNL     1     -20.606   6.925 -13.928  1.00  0.00     0.293 HD
ENDBRANCH   6  24
BRANCH   8  26
ATOM     26  O   UNL     1     -17.165   6.875 -17.460  1.00  0.00    -0.508 OA
ATOM     27  H   UNL     1     -16.522   7.339 -18.091  1.00  0.00     0.293 HD
ENDBRANCH   8  26
TORSDOF 6
ENDMDL
MODEL 3
REMARK VINA RESULT:    -6.770      1.425      2.099
REMARK INTER + INTRA:          -8.383
REMARK INTER:                  -8.086
REMARK INTRA:                  -0.297
REMARK UNBOUND:                -0.228
REMARK SMILES O=c1c(O)c(-c2ccc(O)c(O)c2)oc2cc(O)cc(O)c12
REMARK SMILES IDX 5 1 3 2 2 3 1 4 22 5 20 6 19 7 17 8 16 9 15 10 14 11 6 12
REMARK SMILES IDX 7 13 8 14 9 15 13 16 11 17 10 18 12 20 4 22 21 24 18 26
REMARK H PARENT 10 19 12 21 4 23 21 25 18 27
REMARK Flexibility Score: inf
ROOT
ATOM      1  C   UNL     1     -16.630   8.093 -13.397  1.00  0.00     0.180 A 
ATOM      2  C   UNL     1     -17.888   8.264 -12.793  1.00  0.00     0.208 A 
ATOM      3  C   UNL     1     -19.045   8.117 -13.575  1.00  0.00     0.238 A 
ATOM      4  O   UNL     1     -20.164   8.345 -13.045  1.00  0.00    -0.285 OA
ATOM      5  C   UNL     1     -18.934   7.745 -14.936  1.00  0.00     0.111 A 
ATOM      6  C   UNL     1     -20.041   7.524 -15.811  1.00  0.00     0.134 A 
ATOM      7  C   UNL     1     -19.807   7.263 -17.167  1.00  0.00     0.093 A 
ATOM      8  C   UNL     1     -18.511   7.153 -17.667  1.00  0.00     0.123 A 
ATOM      9  C   UNL     1     -17.422   7.313 -16.810  1.00  0.00     0.094 A 
ATOM     10  C   UNL     1     -17.621   7.611 -15.460  1.00  0.00     0.146 A 
ATOM     11  O   UNL     1     -16.557   7.777 -14.685  1.00  0.00    -0.452 OA
ENDROOT
BRANCH   1  12
ATOM     12  C   UNL     1     -15.366   8.247 -12.644  1.00  0.00     0.025 A 
ATOM     13  C   UNL     1     -14.877   7.220 -11.816  1.00  0.00     0.016 A 
ATOM     14  C   UNL     1     -13.693   7.398 -11.095  1.00  0.00     0.051 A 
ATOM     15  C   UNL     1     -12.989   8.606 -11.181  1.00  0.00     0.157 A 
ATOM     16  C   UNL     1     -14.665   9.463 -12.709  1.00  0.00     0.062 A 
ATOM     17  C   UNL     1     -13.477   9.641 -11.987  1.00  0.00     0.158 A 
BRANCH  15  18
ATOM     18  O   UNL     1     -11.806   8.786 -10.464  1.00  0.00    -0.504 OA
ATOM     19  H   UNL     1     -11.739   8.544  -9.483  1.00  0.00     0.293 HD
ENDBRANCH  15  18
BRANCH  17  20
ATOM     20  O   UNL     1     -12.778  10.844 -12.064  1.00  0.00    -0.504 OA
ATOM     21  H   UNL     1     -11.863  10.955 -11.644  1.00  0.00     0.293 HD
ENDBRANCH  17  20
ENDBRANCH   1  12
BRANCH   2  22
ATOM     22  O   UNL     1     -17.979   8.556 -11.429  1.00  0.00    -0.502 OA
ATOM     23  H   UNL     1     -17.448   9.303 -10.997  1.00  0.00     0.293 HD
ENDBRANCH   2  22
BRANCH   6  24
ATOM     24  O   UNL     1     -21.376   7.522 -15.399  1.00  0.00    -0.507 OA
ATOM     25  H   UNL     1     -22.165   7.729 -15.992  1.00  0.00     0.293 HD
ENDBRANCH   6  24
BRANCH   8  26
ATOM     26  O   UNL     1     -18.317   6.875 -19.019  1.00  0.00    -0.508 OA
ATOM     27  H   UNL     1     -19.095   6.821 -19.666  1.00  0.00     0.293 HD
ENDBRANCH   8  26
TORSDOF 6
ENDMDL
MODEL 4
REMARK VINA RESULT:    -6.645      1.724      3.525
REMARK INTER + INTRA:          -8.233
REMARK INTER:                  -7.950
REMARK INTRA:                  -0.283
REMARK UNBOUND:                -0.228
REMARK SMILES O=c1c(O)c(-c2ccc(O)c(O)c2)oc2cc(O)cc(O)c12
REMARK SMILES IDX 5 1 3 2 2 3 1 4 22 5 20 6 19 7 17 8 16 9 15 10 14 11 6 12
REMARK SMILES IDX 7 13 8 14 9 15 13 16 11 17 10 18 12 20 4 22 21 24 18 26
REMARK H PARENT 10 19 12 21 4 23 21 25 18 27
REMARK Flexibility Score: inf
ROOT
ATOM      1  C   UNL     1     -15.878   8.552 -11.912  1.00  0.00     0.180 A 
ATOM      2  C   UNL     1     -16.277   8.068 -13.171  1.00  0.00     0.208 A 
ATOM      3  C   UNL     1     -17.630   7.761 -13.385  1.00  0.00     0.238 A 
ATOM      4  O   UNL     1     -17.967   7.258 -14.489  1.00  0.00    -0.285 OA
ATOM      5  C   UNL     1     -18.578   7.996 -12.360  1.00  0.00     0.111 A 
ATOM      6  C   UNL     1     -19.982   7.765 -12.482  1.00  0.00     0.134 A 
ATOM      7  C   UNL     1     -20.809   7.933 -11.364  1.00  0.00     0.093 A 
ATOM      8  C   UNL     1     -20.296   8.384 -10.149  1.00  0.00     0.123 A 
ATOM      9  C   UNL     1     -18.935   8.666 -10.034  1.00  0.00     0.094 A 
ATOM     10  C   UNL     1     -18.077   8.472 -11.119  1.00  0.00     0.146 A 
ATOM     11  O   UNL     1     -16.785   8.731 -10.959  1.00  0.00    -0.452 OA
ENDROOT
BRANCH   1  12
ATOM     12  C   UNL     1     -14.469   8.883 -11.605  1.00  0.00     0.025 A 
ATOM     13  C   UNL     1     -13.669   8.028 -10.826  1.00  0.00     0.016 A 
ATOM     14  C   UNL     1     -12.347   8.374 -10.528  1.00  0.00     0.051 A 
ATOM     15  C   UNL     1     -11.812   9.582 -10.993  1.00  0.00     0.157 A 
ATOM     16  C   UNL     1     -13.932  10.103 -12.050  1.00  0.00     0.062 A 
ATOM     17  C   UNL     1     -12.607  10.449 -11.753  1.00  0.00     0.158 A 
BRANCH  15  18
ATOM     18  O   UNL     1     -10.494   9.929 -10.700  1.00  0.00    -0.504 OA
ATOM     19  H   UNL     1     -10.270  10.776 -10.190  1.00  0.00     0.293 HD
ENDBRANCH  15  18
BRANCH  17  20
ATOM     20  O   UNL     1     -12.074  11.654 -12.208  1.00  0.00    -0.504 OA
ATOM     21  H   UNL     1     -11.322  12.121 -11.715  1.00  0.00     0.293 HD
ENDBRANCH  17  20
ENDBRANCH   1  12
BRANCH   2  22
ATOM     22  O   UNL     1     -15.338   7.915 -14.194  1.00  0.00    -0.502 OA
ATOM     23  H   UNL     1     -14.490   8.468 -14.241  1.00  0.00     0.293 HD
ENDBRANCH   2  22
BRANCH   6  24
ATOM     24  O   UNL     1     -20.614   7.398 -13.674  1.00  0.00    -0.507 OA
ATOM     25  H   UNL     1     -21.483   6.891 -13.735  1.00  0.00     0.293 HD
ENDBRANCH   6  24
BRANCH   8  26
ATOM     26  O   UNL     1     -21.153   8.557  -9.063  1.00  0.00    -0.508 OA
ATOM     27  H   UNL     1     -21.107   9.384  -8.479  1.00  0.00     0.293 HD
ENDBRANCH   8  26
TORSDOF 6
ENDMDL
MODEL 5
REMARK VINA RESULT:    -6.620      1.567      7.023
REMARK INTER + INTRA:          -8.203
REMARK INTER:                  -8.057
REMARK INTRA:                  -0.146
REMARK UNBOUND:                -0.228
REMARK SMILES O=c1c(O)c(-c2ccc(O)c(O)c2)oc2cc(O)cc(O)c12
REMARK SMILES IDX 5 1 3 2 2 3 1 4 22 5 20 6 19 7 17 8 16 9 15 10 14 11 6 12
REMARK SMILES IDX 7 13 8 14 9 15 13 16 11 17 10 18 12 20 4 22 21 24 18 26
REMARK H PARENT 10 19 12 21 4 23 21 25 18 27
REMARK Flexibility Score: inf
ROOT
ATOM      1  C   UNL     1     -14.471   8.715 -11.929  1.00  0.00     0.180 A 
ATOM      2  C   UNL     1     -14.132   7.996 -10.769  1.00  0.00     0.208 A 
ATOM      3  C   UNL     1     -13.049   8.432  -9.989  1.00  0.00     0.238 A 
ATOM      4  O   UNL     1     -12.706   7.741  -8.995  1.00  0.00    -0.285 OA
ATOM      5  C   UNL     1     -12.355   9.613 -10.345  1.00  0.00     0.111 A 
ATOM      6  C   UNL     1     -11.271  10.173  -9.602  1.00  0.00     0.134 A 
ATOM      7  C   UNL     1     -10.590  11.287 -10.109  1.00  0.00     0.093 A 
ATOM      8  C   UNL     1     -10.991  11.899 -11.295  1.00  0.00     0.123 A 
ATOM      9  C   UNL     1     -12.083  11.394 -12.001  1.00  0.00     0.094 A 
ATOM     10  C   UNL     1     -12.759  10.261 -11.542  1.00  0.00     0.146 A 
ATOM     11  O   UNL     1     -13.779   9.801 -12.256  1.00  0.00    -0.452 OA
ENDROOT
BRANCH   1  12
ATOM     12  C   UNL     1     -15.588   8.309 -12.811  1.00  0.00     0.025 A 
ATOM     13  C   UNL     1     -15.370   7.946 -14.152  1.00  0.00     0.016 A 
ATOM     14  C   UNL     1     -16.444   7.590 -14.972  1.00  0.00     0.051 A 
ATOM     15  C   UNL     1     -17.751   7.604 -14.468  1.00  0.00     0.157 A 
ATOM     16  C   UNL     1     -16.904   8.341 -12.318  1.00  0.00     0.062 A 
ATOM     17  C   UNL     1     -17.981   7.983 -13.140  1.00  0.00     0.158 A 
BRANCH  15  18
ATOM     18  O   UNL     1     -18.825   7.248 -15.283  1.00  0.00    -0.504 OA
ATOM     19  H   UNL     1     -18.692   6.992 -16.254  1.00  0.00     0.293 HD
ENDBRANCH  15  18
BRANCH  17  20
ATOM     20  O   UNL     1     -19.284   8.003 -12.644  1.00  0.00    -0.504 OA
ATOM     21  H   UNL     1     -19.865   7.174 -12.645  1.00  0.00     0.293 HD
ENDBRANCH  17  20
ENDBRANCH   1  12
BRANCH   2  22
ATOM     22  O   UNL     1     -14.879   6.876 -10.394  1.00  0.00    -0.502 OA
ATOM     23  H   UNL     1     -15.111   6.135 -11.044  1.00  0.00     0.293 HD
ENDBRANCH   2  22
BRANCH   6  24
ATOM     24  O   UNL     1     -10.843   9.695  -8.361  1.00  0.00    -0.507 OA
ATOM     25  H   UNL     1     -11.263   9.928  -7.475  1.00  0.00     0.293 HD
ENDBRANCH   6  24
BRANCH   8  26
ATOM     26  O   UNL     1     -10.300  13.017 -11.760  1.00  0.00    -0.508 OA
ATOM     27  H   UNL     1      -9.806  13.005 -12.645  1.00  0.00     0.293 HD
ENDBRANCH   8  26
TORSDOF 6
ENDMDL
MODEL 6
REMARK VINA RESULT:    -6.284      2.924      5.086
REMARK INTER + INTRA:          -7.798
REMARK INTER:                  -7.538
REMARK INTRA:                  -0.260
REMARK UNBOUND:                -0.228
REMARK SMILES O=c1c(O)c(-c2ccc(O)c(O)c2)oc2cc(O)cc(O)c12
REMARK SMILES IDX 5 1 3 2 2 3 1 4 22 5 20 6 19 7 17 8 16 9 15 10 14 11 6 12
REMARK SMILES IDX 7 13 8 14 9 15 13 16 11 17 10 18 12 20 4 22 21 24 18 26
REMARK H PARENT 10 19 12 21 4 23 21 25 18 27
REMARK Flexibility Score: inf
ROOT
ATOM      1  C   UNL     1     -12.167   9.733 -10.232  1.00  0.00     0.180 A 
ATOM      2  C   UNL     1     -12.616   9.909 -11.553  1.00  0.00     0.208 A 
ATOM      3  C   UNL     1     -13.887   9.430 -11.910  1.00  0.00     0.238 A 
ATOM      4  O   UNL     1     -14.251   9.525 -13.111  1.00  0.00    -0.285 OA
ATOM      5  C   UNL     1     -14.716   8.833 -10.930  1.00  0.00     0.111 A 
ATOM      6  C   UNL     1     -16.040   8.353 -11.169  1.00  0.00     0.134 A 
ATOM      7  C   UNL     1     -16.726   7.683 -10.149  1.00  0.00     0.093 A 
ATOM      8  C   UNL     1     -16.165   7.532  -8.882  1.00  0.00     0.123 A 
ATOM      9  C   UNL     1     -14.894   8.045  -8.621  1.00  0.00     0.094 A 
ATOM     10  C   UNL     1     -14.169   8.685  -9.629  1.00  0.00     0.146 A 
ATOM     11  O   UNL     1     -12.955   9.139  -9.343  1.00  0.00    -0.452 OA
ENDROOT
BRANCH   1  12
ATOM     12  C   UNL     1     -10.835  10.196  -9.784  1.00  0.00     0.025 A 
ATOM     13  C   UNL     1     -10.567  11.560  -9.568  1.00  0.00     0.016 A 
ATOM     14  C   UNL     1      -9.294  11.976  -9.168  1.00  0.00     0.051 A 
ATOM     15  C   UNL     1      -8.269  11.038  -8.991  1.00  0.00     0.157 A 
ATOM     16  C   UNL     1      -9.796   9.263  -9.624  1.00  0.00     0.062 A 
ATOM     17  C   UNL     1      -8.520   9.680  -9.222  1.00  0.00     0.158 A 
BRANCH  15  18
ATOM     18  O   UNL     1      -6.998  11.449  -8.590  1.00  0.00    -0.504 OA
ATOM     19  H   UNL     1      -6.161  11.089  -9.033  1.00  0.00     0.293 HD
ENDBRANCH  15  18
BRANCH  17  20
ATOM     20  O   UNL     1      -7.495   8.750  -9.051  1.00  0.00    -0.504 OA
ATOM     21  H   UNL     1      -7.410   7.939  -9.652  1.00  0.00     0.293 HD
ENDBRANCH  17  20
ENDBRANCH   1  12
BRANCH   2  22
ATOM     22  O   UNL     1     -11.812  10.570 -12.486  1.00  0.00    -0.502 OA
ATOM     23  H   UNL     1     -11.868  10.383 -13.480  1.00  0.00     0.293 HD
ENDBRANCH   2  22
BRANCH   6  24
ATOM     24  O   UNL     1     -16.731   8.529 -12.372  1.00  0.00    -0.507 OA
ATOM     25  H   UNL     1     -16.844   7.823 -13.083  1.00  0.00     0.293 HD
ENDBRANCH   6  24
BRANCH   8  26
ATOM     26  O   UNL     1     -16.885   6.875  -7.885  1.00  0.00    -0.508 OA
ATOM     27  H   UNL     1     -16.441   6.566  -7.028  1.00  0.00     0.293 HD
ENDBRANCH   8  26
TORSDOF 6
ENDMDL
MODEL 7
REMARK VINA RESULT:    -6.239      1.396      6.671
REMARK INTER + INTRA:          -7.744
REMARK INTER:                  -7.807
REMARK INTRA:                   0.063
REMARK UNBOUND:                -0.228
REMARK SMILES O=c1c(O)c(-c2ccc(O)c(O)c2)oc2cc(O)cc(O)c12
REMARK SMILES IDX 5 1 3 2 2 3 1 4 22 5 20 6 19 7 17 8 16 9 15 10 14 11 6 12
REMARK SMILES IDX 7 13 8 14 9 15 13 16 11 17 10 18 12 20 4 22 21 24 18 26
REMARK H PARENT 10 19 12 21 4 23 21 25 18 27
REMARK Flexibility Score: inf
ROOT
ATOM      1  C   UNL     1     -16.039   8.128 -12.599  1.00  0.00     0.180 A 
ATOM      2  C   UNL     1     -16.359   7.592 -11.339  1.00  0.00     0.208 A 
ATOM      3  C   UNL     1     -15.480   7.806 -10.265  1.00  0.00     0.238 A 
ATOM      4  O   UNL     1     -15.736   7.260  -9.160  1.00  0.00    -0.285 OA
ATOM      5  C   UNL     1     -14.323   8.600 -10.448  1.00  0.00     0.111 A 
ATOM      6  C   UNL     1     -13.386   8.920  -9.418  1.00  0.00     0.134 A 
ATOM      7  C   UNL     1     -12.220   9.626  -9.741  1.00  0.00     0.093 A 
ATOM      8  C   UNL     1     -11.987  10.078 -11.039  1.00  0.00     0.123 A 
ATOM      9  C   UNL     1     -12.922   9.819 -12.041  1.00  0.00     0.094 A 
ATOM     10  C   UNL     1     -14.076   9.084 -11.760  1.00  0.00     0.146 A 
ATOM     11  O   UNL     1     -14.929   8.842 -12.748  1.00  0.00    -0.452 OA
ENDROOT
BRANCH   1  12
ATOM     12  C   UNL     1     -16.906   7.934 -13.783  1.00  0.00     0.025 A 
ATOM     13  C   UNL     1     -18.299   8.108 -13.707  1.00  0.00     0.016 A 
ATOM     14  C   UNL     1     -19.100   7.895 -14.832  1.00  0.00     0.051 A 
ATOM     15  C   UNL     1     -18.523   7.492 -16.044  1.00  0.00     0.157 A 
ATOM     16  C   UNL     1     -16.336   7.510 -14.995  1.00  0.00     0.062 A 
ATOM     17  C   UNL     1     -17.139   7.297 -16.124  1.00  0.00     0.158 A 
BRANCH  15  18
ATOM     18  O   UNL     1     -19.319   7.280 -17.168  1.00  0.00    -0.504 OA
ATOM     19  H   UNL     1     -19.979   6.513 -17.214  1.00  0.00     0.293 HD
ENDBRANCH  15  18
BRANCH  17  20
ATOM     20  O   UNL     1     -16.568   6.890 -17.329  1.00  0.00    -0.504 OA
ATOM     21  H   UNL     1     -16.677   5.943 -17.674  1.00  0.00     0.293 HD
ENDBRANCH  17  20
ENDBRANCH   1  12
BRANCH   2  22
ATOM     22  O   UNL     1     -17.545   6.875 -11.162  1.00  0.00    -0.502 OA
ATOM     23  H   UNL     1     -18.043   6.448 -11.934  1.00  0.00     0.293 HD
ENDBRANCH   2  22
BRANCH   6  24
ATOM     24  O   UNL     1     -13.562   8.594  -8.071  1.00  0.00    -0.507 OA
ATOM     25  H   UNL     1     -13.461   7.670  -7.681  1.00  0.00     0.293 HD
ENDBRANCH   6  24
BRANCH   8  26
ATOM     26  O   UNL     1     -10.824  10.793 -11.319  1.00  0.00    -0.508 OA
ATOM     27  H   UNL     1     -10.036  10.360 -11.787  1.00  0.00     0.293 HD
ENDBRANCH   8  26
TORSDOF 6
ENDMDL
MODEL 8
REMARK VINA RESULT:    -5.853      2.176      3.655
REMARK INTER + INTRA:          -7.278
REMARK INTER:                  -6.989
REMARK INTRA:                  -0.289
REMARK UNBOUND:                -0.228
REMARK SMILES O=c1c(O)c(-c2ccc(O)c(O)c2)oc2cc(O)cc(O)c12
REMARK SMILES IDX 5 1 3 2 2 3 1 4 22 5 20 6 19 7 17 8 16 9 15 10 14 11 6 12
REMARK SMILES IDX 7 13 8 14 9 15 13 16 11 17 10 18 12 20 4 22 21 24 18 26
REMARK H PARENT 10 19 12 21 4 23 21 25 18 27
REMARK Flexibility Score: inf
ROOT
ATOM      1  C   UNL     1     -12.663   9.421 -10.272  1.00  0.00     0.180 A 
ATOM      2  C   UNL     1     -13.498   9.108  -9.185  1.00  0.00     0.208 A 
ATOM      3  C   UNL     1     -14.781   8.596  -9.437  1.00  0.00     0.238 A 
ATOM      4  O   UNL     1     -15.549   8.389  -8.461  1.00  0.00    -0.285 OA
ATOM      5  C   UNL     1     -15.192   8.348 -10.768  1.00  0.00     0.111 A 
ATOM      6  C   UNL     1     -16.453   7.788 -11.138  1.00  0.00     0.134 A 
ATOM      7  C   UNL     1     -16.792   7.687 -12.494  1.00  0.00     0.093 A 
ATOM      8  C   UNL     1     -15.895   8.065 -13.491  1.00  0.00     0.123 A 
ATOM      9  C   UNL     1     -14.639   8.562 -13.142  1.00  0.00     0.094 A 
ATOM     10  C   UNL     1     -14.286   8.711 -11.799  1.00  0.00     0.146 A 
ATOM     11  O   UNL     1     -13.089   9.208 -11.511  1.00  0.00    -0.452 OA
ENDROOT
BRANCH   1  12
ATOM     12  C   UNL     1     -11.304   9.978 -10.088  1.00  0.00     0.025 A 
ATOM     13  C   UNL     1     -11.040  11.345 -10.288  1.00  0.00     0.016 A 
ATOM     14  C   UNL     1      -9.743  11.844 -10.132  1.00  0.00     0.051 A 
ATOM     15  C   UNL     1      -8.693  10.984  -9.787  1.00  0.00     0.157 A 
ATOM     16  C   UNL     1     -10.242   9.118  -9.761  1.00  0.00     0.062 A 
ATOM     17  C   UNL     1      -8.943   9.619  -9.604  1.00  0.00     0.158 A 
BRANCH  15  18
ATOM     18  O   UNL     1      -7.399  11.479  -9.628  1.00  0.00    -0.504 OA
ATOM     19  H   UNL     1      -7.069  12.279 -10.155  1.00  0.00     0.293 HD
ENDBRANCH  15  18
BRANCH  17  20
ATOM     20  O   UNL     1      -7.894   8.764  -9.267  1.00  0.00    -0.504 OA
ATOM     21  H   UNL     1      -7.695   8.523  -8.303  1.00  0.00     0.293 HD
ENDBRANCH  17  20
ENDBRANCH   1  12
BRANCH   2  22
ATOM     22  O   UNL     1     -13.044   9.289  -7.875  1.00  0.00    -0.502 OA
ATOM     23  H   UNL     1     -12.278   8.752  -7.487  1.00  0.00     0.293 HD
ENDBRANCH   2  22
BRANCH   6  24
ATOM     24  O   UNL     1     -17.389   7.296 -10.225  1.00  0.00    -0.507 OA
ATOM     25  H   UNL     1     -18.389   7.381 -10.319  1.00  0.00     0.293 HD
ENDBRANCH   6  24
BRANCH   8  26
ATOM     26  O   UNL     1     -16.261   7.934 -14.830  1.00  0.00    -0.508 OA
ATOM     27  H   UNL     1     -15.777   7.296 -15.451  1.00  0.00     0.293 HD
ENDBRANCH   8  26
TORSDOF 6
ENDMDL
