MODEL 1
REMARK VINA RESULT:    -3.986      0.000      0.000
REMARK INTER + INTRA:          -6.849
REMARK INTER:                  -6.083
REMARK INTRA:                  -0.766
REMARK UNBOUND:                -0.766
REMARK SMILES CCCCCCCCCCC(=O)[O-]
REMARK SMILES IDX 7 1 8 2 9 3 10 4 11 5 12 6 13 7 6 8 5 9 4 10 3 11 2 12 1 13
REMARK H PARENT
REMARK Flexibility Score: inf
ROOT
ATOM      1  C   UNL     1      12.411 -11.982 -43.104  1.00  0.00     0.000 C 
ENDROOT
BRANCH   1   2
ATOM      2  C   UNL     1      12.838 -13.400 -43.521  1.00  0.00     0.000 C 
BRANCH   2   3
ATOM      3  C   UNL     1      14.304 -13.464 -43.979  1.00  0.00     0.006 C 
BRANCH   3   4
ATOM      4  C   UNL     1      14.861 -12.087 -44.363  1.00  0.00     0.053 C 
BRANCH   4   5
ATOM      5  C   UNL     1      16.145 -11.823 -43.642  1.00  0.00     0.041 C 
ATOM      6  O   UNL     1      16.134 -11.536 -42.416  1.00  0.00    -0.550 OA
ATOM      7  O   UNL     1      17.349 -11.845 -44.333  1.00  0.00    -0.550 OA
ENDBRANCH   4   5
ENDBRANCH   3   4
ENDBRANCH   2   3
ENDBRANCH   1   2
BRANCH   1   8
ATOM      8  C   UNL     1      10.892 -11.766 -43.205  1.00  0.00     0.000 C 
BRANCH   8   9
ATOM      9  C   UNL     1      10.512 -10.753 -44.299  1.00  0.00    -0.000 C 
BRANCH   9  10
ATOM     10  C   UNL     1      11.675  -9.816 -44.665  1.00  0.00    -0.000 C 
BRANCH  10  11
ATOM     11  C   UNL     1      11.353  -8.338 -44.395  1.00  0.00    -0.000 C 
BRANCH  11  12
ATOM     12  C   UNL     1       9.899  -8.169 -43.943  1.00  0.00    -0.003 C 
ATOM     13  C   UNL     1       9.819  -7.468 -42.590  1.00  0.00     0.004 C 
ENDBRANCH  11  12
ENDBRANCH  10  11
ENDBRANCH   9  10
ENDBRANCH   8   9
ENDBRANCH   1   8
TORSDOF 9
ENDMDL
MODEL 2
REMARK VINA RESULT:    -3.826      3.327      4.734
REMARK INTER + INTRA:          -6.605
REMARK INTER:                  -5.560
REMARK INTRA:                  -1.046
REMARK UNBOUND:                -0.766
REMARK SMILES CCCCCCCCCCC(=O)[O-]
REMARK SMILES IDX 7 1 8 2 9 3 10 4 11 5 12 6 13 7 6 8 5 9 4 10 3 11 2 12 1 13
REMARK H PARENT
REMARK Flexibility Score: inf
ROOT
ATOM      1  C   UNL     1      12.295 -13.092 -43.660  1.00  0.00     0.000 C 
ENDROOT
BRANCH   1   2
ATOM      2  C   UNL     1      12.708 -11.701 -43.149  1.00  0.00     0.000 C 
BRANCH   2   3
ATOM      3  C   UNL     1      12.152 -10.563 -44.020  1.00  0.00     0.006 C 
BRANCH   3   4
ATOM      4  C   UNL     1      11.083  -9.736 -43.295  1.00  0.00     0.053 C 
BRANCH   4   5
ATOM      5  C   UNL     1      10.801  -8.473 -44.047  1.00  0.00     0.041 C 
ATOM      6  O   UNL     1      11.499  -8.163 -45.047  1.00  0.00    -0.550 OA
ATOM      7  O   UNL     1       9.799  -7.614 -43.612  1.00  0.00    -0.550 OA
ENDBRANCH   4   5
ENDBRANCH   3   4
ENDBRANCH   2   3
ENDBRANCH   1   2
BRANCH   1   8
ATOM      8  C   UNL     1      10.949 -13.559 -43.084  1.00  0.00     0.000 C 
BRANCH   8   9
ATOM      9  C   UNL     1       9.806 -13.476 -44.112  1.00  0.00    -0.000 C 
BRANCH   9  10
ATOM     10  C   UNL     1      10.314 -13.510 -45.563  1.00  0.00    -0.000 C 
BRANCH  10  11
ATOM     11  C   UNL     1       9.534 -12.563 -46.487  1.00  0.00    -0.000 C 
BRANCH  11  12
ATOM     12  C   UNL     1       8.993 -11.360 -45.707  1.00  0.00    -0.003 C 
ATOM     13  C   UNL     1       7.490 -11.198 -45.915  1.00  0.00     0.004 C 
ENDBRANCH  11  12
ENDBRANCH  10  11
ENDBRANCH   9  10
ENDBRANCH   8   9
ENDBRANCH   1   8
TORSDOF 9
ENDMDL
MODEL 3
REMARK VINA RESULT:    -3.800      1.731      2.515
REMARK INTER + INTRA:          -6.565
REMARK INTER:                  -6.012
REMARK INTRA:                  -0.553
REMARK UNBOUND:                -0.766
REMARK SMILES CCCCCCCCCCC(=O)[O-]
REMARK SMILES IDX 7 1 8 2 9 3 10 4 11 5 12 6 13 7 6 8 5 9 4 10 3 11 2 12 1 13
REMARK H PARENT
REMARK Flexibility Score: inf
ROOT
ATOM      1  C   UNL     1      10.860 -11.611 -43.906  1.00  0.00     0.000 C 
ENDROOT
BRANCH   1   2
ATOM      2  C   UNL     1      12.292 -11.996 -44.314  1.00  0.00     0.000 C 
BRANCH   2   3
ATOM      3  C   UNL     1      13.297 -11.836 -43.161  1.00  0.00     0.006 C 
BRANCH   3   4
ATOM      4  C   UNL     1      14.742 -12.106 -43.599  1.00  0.00     0.053 C 
BRANCH   4   5
ATOM      5  C   UNL     1      14.807 -13.329 -44.459  1.00  0.00     0.041 C 
ATOM      6  O   UNL     1      15.152 -13.236 -45.666  1.00  0.00    -0.550 OA
ATOM      7  O   UNL     1      14.439 -14.565 -43.942  1.00  0.00    -0.550 OA
ENDBRANCH   4   5
ENDBRANCH   3   4
ENDBRANCH   2   3
ENDBRANCH   1   2
BRANCH   1   8
ATOM      8  C   UNL     1      10.366 -10.335 -44.606  1.00  0.00     0.000 C 
BRANCH   8   9
ATOM      9  C   UNL     1      11.071  -9.068 -44.090  1.00  0.00    -0.000 C 
BRANCH   9  10
ATOM     10  C   UNL     1      10.094  -7.903 -43.857  1.00  0.00    -0.000 C 
BRANCH  10  11
ATOM     11  C   UNL     1       9.820  -7.647 -42.367  1.00  0.00    -0.000 C 
BRANCH  11  12
ATOM     12  C   UNL     1      10.808  -8.421 -41.488  1.00  0.00    -0.003 C 
ATOM     13  C   UNL     1      10.161  -8.848 -40.174  1.00  0.00     0.004 C 
ENDBRANCH  11  12
ENDBRANCH  10  11
ENDBRANCH   9  10
ENDBRANCH   8   9
ENDBRANCH   1   8
TORSDOF 9
ENDMDL
MODEL 4
REMARK VINA RESULT:    -3.786      4.121      5.214
REMARK INTER + INTRA:          -6.544
REMARK INTER:                  -5.607
REMARK INTRA:                  -0.937
REMARK UNBOUND:                -0.766
REMARK SMILES CCCCCCCCCCC(=O)[O-]
REMARK SMILES IDX 7 1 8 2 9 3 10 4 11 5 12 6 13 7 6 8 5 9 4 10 3 11 2 12 1 13
REMARK H PARENT
REMARK Flexibility Score: inf
ROOT
ATOM      1  C   UNL     1      10.922 -13.978 -43.693  1.00  0.00     0.000 C 
ENDROOT
BRANCH   1   2
ATOM      2  C   UNL     1       9.506 -13.876 -44.287  1.00  0.00     0.000 C 
BRANCH   2   3
ATOM      3  C   UNL     1       9.520 -13.565 -45.793  1.00  0.00     0.006 C 
BRANCH   3   4
ATOM      4  C   UNL     1       9.491 -12.059 -46.083  1.00  0.00     0.053 C 
BRANCH   4   5
ATOM      5  C   UNL     1       8.097 -11.529 -45.957  1.00  0.00     0.041 C 
ATOM      6  O   UNL     1       7.903 -10.335 -45.611  1.00  0.00    -0.550 OA
ATOM      7  O   UNL     1       7.012 -12.369 -46.173  1.00  0.00    -0.550 OA
ENDBRANCH   4   5
ENDBRANCH   3   4
ENDBRANCH   2   3
ENDBRANCH   1   2
BRANCH   1   8
ATOM      8  C   UNL     1      11.285 -12.771 -42.814  1.00  0.00     0.000 C 
BRANCH   8   9
ATOM      9  C   UNL     1      12.598 -12.097 -43.251  1.00  0.00    -0.000 C 
BRANCH   9  10
ATOM     10  C   UNL     1      12.367 -10.727 -43.910  1.00  0.00    -0.000 C 
BRANCH  10  11
ATOM     11  C   UNL     1      11.025 -10.094 -43.509  1.00  0.00    -0.000 C 
BRANCH  11  12
ATOM     12  C   UNL     1      10.723  -8.862 -44.369  1.00  0.00    -0.003 C 
ATOM     13  C   UNL     1      10.000  -7.789 -43.560  1.00  0.00     0.004 C 
ENDBRANCH  11  12
ENDBRANCH  10  11
ENDBRANCH   9  10
ENDBRANCH   8   9
ENDBRANCH   1   8
TORSDOF 9
ENDMDL
MODEL 5
REMARK VINA RESULT:    -3.742      5.475      6.868
REMARK INTER + INTRA:          -6.477
REMARK INTER:                  -5.815
REMARK INTRA:                  -0.662
REMARK UNBOUND:                -0.766
REMARK SMILES CCCCCCCCCCC(=O)[O-]
REMARK SMILES IDX 7 1 8 2 9 3 10 4 11 5 12 6 13 7 6 8 5 9 4 10 3 11 2 12 1 13
REMARK H PARENT
REMARK Flexibility Score: inf
ROOT
ATOM      1  C   UNL     1       7.468 -11.383 -45.841  1.00  0.00     0.000 C 
ENDROOT
BRANCH   1   2
ATOM      2  C   UNL     1       7.767 -12.409 -46.949  1.00  0.00     0.000 C 
BRANCH   2   3
ATOM      3  C   UNL     1       7.213 -13.806 -46.624  1.00  0.00     0.006 C 
BRANCH   3   4
ATOM      4  C   UNL     1       7.217 -14.105 -45.120  1.00  0.00     0.053 C 
BRANCH   4   5
ATOM      5  C   UNL     1       5.893 -14.658 -44.695  1.00  0.00     0.041 C 
ATOM      6  O   UNL     1       4.861 -14.422 -45.375  1.00  0.00    -0.550 OA
ATOM      7  O   UNL     1       5.791 -15.393 -43.520  1.00  0.00    -0.550 OA
ENDBRANCH   4   5
ENDBRANCH   3   4
ENDBRANCH   2   3
ENDBRANCH   1   2
BRANCH   1   8
ATOM      8  C   UNL     1       8.700 -10.550 -45.455  1.00  0.00     0.000 C 
BRANCH   8   9
ATOM      9  C   UNL     1       9.946 -11.419 -45.209  1.00  0.00    -0.000 C 
BRANCH   9  10
ATOM     10  C   UNL     1      11.045 -10.670 -44.438  1.00  0.00    -0.000 C 
BRANCH  10  11
ATOM     11  C   UNL     1      10.932  -9.144 -44.576  1.00  0.00    -0.000 C 
BRANCH  11  12
ATOM     12  C   UNL     1      10.752  -8.483 -43.205  1.00  0.00    -0.003 C 
ATOM     13  C   UNL     1       9.656  -7.422 -43.243  1.00  0.00     0.004 C 
ENDBRANCH  11  12
ENDBRANCH  10  11
ENDBRANCH   9  10
ENDBRANCH   8   9
ENDBRANCH   1   8
TORSDOF 9
ENDMDL
MODEL 6
REMARK VINA RESULT:    -3.741      3.030      6.077
REMARK INTER + INTRA:          -6.475
REMARK INTER:                  -5.998
REMARK INTRA:                  -0.476
REMARK UNBOUND:                -0.766
REMARK SMILES CCCCCCCCCCC(=O)[O-]
REMARK SMILES IDX 7 1 8 2 9 3 10 4 11 5 12 6 13 7 6 8 5 9 4 10 3 11 2 12 1 13
REMARK H PARENT
REMARK Flexibility Score: inf
ROOT
ATOM      1  C   UNL     1      11.932 -12.099 -43.509  1.00  0.00     0.000 C 
ENDROOT
BRANCH   1   2
ATOM      2  C   UNL     1      11.297 -11.008 -44.388  1.00  0.00     0.000 C 
BRANCH   2   3
ATOM      3  C   UNL     1      11.992  -9.646 -44.232  1.00  0.00     0.006 C 
BRANCH   3   4
ATOM      4  C   UNL     1      11.073  -8.472 -44.592  1.00  0.00     0.053 C 
BRANCH   4   5
ATOM      5  C   UNL     1      10.359  -7.975 -43.374  1.00  0.00     0.041 C 
ATOM      6  O   UNL     1      10.633  -8.452 -42.242  1.00  0.00    -0.550 OA
ATOM      7  O   UNL     1       9.357  -7.020 -43.495  1.00  0.00    -0.550 OA
ENDBRANCH   4   5
ENDBRANCH   3   4
ENDBRANCH   2   3
ENDBRANCH   1   2
BRANCH   1   8
ATOM      8  C   UNL     1      13.461 -11.969 -43.414  1.00  0.00     0.000 C 
BRANCH   8   9
ATOM      9  C   UNL     1      14.195 -13.172 -44.032  1.00  0.00    -0.000 C 
BRANCH   9  10
ATOM     10  C   UNL     1      15.584 -12.800 -44.577  1.00  0.00    -0.000 C 
BRANCH  10  11
ATOM     11  C   UNL     1      16.143 -11.514 -43.948  1.00  0.00    -0.000 C 
BRANCH  11  12
ATOM     12  C   UNL     1      17.074 -11.840 -42.775  1.00  0.00    -0.003 C 
ATOM     13  C   UNL     1      18.486 -12.150 -43.261  1.00  0.00     0.004 C 
ENDBRANCH  11  12
ENDBRANCH  10  11
ENDBRANCH   9  10
ENDBRANCH   8   9
ENDBRANCH   1   8
TORSDOF 9
ENDMDL
MODEL 7
REMARK VINA RESULT:    -3.724      4.035      5.804
REMARK INTER + INTRA:          -6.450
REMARK INTER:                  -5.739
REMARK INTRA:                  -0.711
REMARK UNBOUND:                -0.766
REMARK SMILES CCCCCCCCCCC(=O)[O-]
REMARK SMILES IDX 7 1 8 2 9 3 10 4 11 5 12 6 13 7 6 8 5 9 4 10 3 11 2 12 1 13
REMARK H PARENT
REMARK Flexibility Score: inf
ROOT
ATOM      1  C   UNL     1      11.006 -12.157 -45.089  1.00  0.00     0.000 C 
ENDROOT
BRANCH   1   2
ATOM      2  C   UNL     1      10.665 -11.104 -44.021  1.00  0.00     0.000 C 
BRANCH   2   3
ATOM      3  C   UNL     1      11.722  -9.991 -43.930  1.00  0.00     0.006 C 
BRANCH   3   4
ATOM      4  C   UNL     1      11.168  -8.620 -44.337  1.00  0.00     0.053 C 
BRANCH   4   5
ATOM      5  C   UNL     1      10.349  -8.038 -43.228  1.00  0.00     0.041 C 
ATOM      6  O   UNL     1       9.433  -7.213 -43.484  1.00  0.00    -0.550 OA
ATOM      7  O   UNL     1      10.629  -8.368 -41.908  1.00  0.00    -0.550 OA
ENDBRANCH   4   5
ENDBRANCH   3   4
ENDBRANCH   2   3
ENDBRANCH   1   2
BRANCH   1   8
ATOM      8  C   UNL     1       9.970 -12.208 -46.224  1.00  0.00     0.000 C 
BRANCH   8   9
ATOM      9  C   UNL     1       8.946 -11.062 -46.139  1.00  0.00    -0.000 C 
BRANCH   9  10
ATOM     10  C   UNL     1       7.494 -11.569 -46.124  1.00  0.00    -0.000 C 
BRANCH  10  11
ATOM     11  C   UNL     1       7.377 -13.048 -46.522  1.00  0.00    -0.000 C 
BRANCH  11  12
ATOM     12  C   UNL     1       6.568 -13.832 -45.483  1.00  0.00    -0.003 C 
ATOM     13  C   UNL     1       7.149 -15.226 -45.269  1.00  0.00     0.004 C 
ENDBRANCH  11  12
ENDBRANCH  10  11
ENDBRANCH   9  10
ENDBRANCH   8   9
ENDBRANCH   1   8
TORSDOF 9
ENDMDL
MODEL 8
REMARK VINA RESULT:    -3.710      4.816      6.077
REMARK INTER + INTRA:          -6.429
REMARK INTER:                  -5.701
REMARK INTRA:                  -0.727
REMARK UNBOUND:                -0.766
REMARK SMILES CCCCCCCCCCC(=O)[O-]
REMARK SMILES IDX 7 1 8 2 9 3 10 4 11 5 12 6 13 7 6 8 5 9 4 10 3 11 2 12 1 13
REMARK H PARENT
REMARK Flexibility Score: inf
ROOT
ATOM      1  C   UNL     1       9.985 -11.825 -45.872  1.00  0.00     0.000 C 
ENDROOT
BRANCH   1   2
ATOM      2  C   UNL     1       8.544 -11.331 -45.661  1.00  0.00     0.000 C 
BRANCH   2   3
ATOM      3  C   UNL     1       7.496 -12.392 -46.034  1.00  0.00     0.006 C 
BRANCH   3   4
ATOM      4  C   UNL     1       7.460 -12.679 -47.540  1.00  0.00     0.053 C 
BRANCH   4   5
ATOM      5  C   UNL     1       7.791 -14.114 -47.807  1.00  0.00     0.041 C 
ATOM      6  O   UNL     1       8.889 -14.422 -48.340  1.00  0.00    -0.550 OA
ATOM      7  O   UNL     1       6.866 -15.108 -47.512  1.00  0.00    -0.550 OA
ENDBRANCH   4   5
ENDBRANCH   3   4
ENDBRANCH   2   3
ENDBRANCH   1   2
BRANCH   1   8
ATOM      8  C   UNL     1      10.683 -12.200 -44.554  1.00  0.00     0.000 C 
BRANCH   8   9
ATOM      9  C   UNL     1      10.932 -10.979 -43.651  1.00  0.00    -0.000 C 
BRANCH   9  10
ATOM     10  C   UNL     1      12.021 -10.046 -44.207  1.00  0.00    -0.000 C 
BRANCH  10  11
ATOM     11  C   UNL     1      11.525  -8.605 -44.401  1.00  0.00    -0.000 C 
BRANCH  11  12
ATOM     12  C   UNL     1      10.043  -8.482 -44.031  1.00  0.00    -0.003 C 
ATOM     13  C   UNL     1       9.838  -7.482 -42.896  1.00  0.00     0.004 C 
ENDBRANCH  11  12
ENDBRANCH  10  11
ENDBRANCH   9  10
ENDBRANCH   8   9
ENDBRANCH   1   8
TORSDOF 9
ENDMDL
MODEL 9
REMARK VINA RESULT:    -3.683      3.998      6.063
REMARK INTER + INTRA:          -6.387
REMARK INTER:                  -5.541
REMARK INTRA:                  -0.846
REMARK UNBOUND:                -0.766
REMARK SMILES CCCCCCCCCCC(=O)[O-]
REMARK SMILES IDX 7 1 8 2 9 3 10 4 11 5 12 6 13 7 6 8 5 9 4 10 3 11 2 12 1 13
REMARK H PARENT
REMARK Flexibility Score: inf
ROOT
ATOM      1  C   UNL     1       8.952 -10.397 -45.341  1.00  0.00     0.000 C 
ENDROOT
BRANCH   1   2
ATOM      2  C   UNL     1      10.292 -11.068 -44.997  1.00  0.00     0.000 C 
BRANCH   2   3
ATOM      3  C   UNL     1      11.105 -10.268 -43.966  1.00  0.00     0.006 C 
BRANCH   3   4
ATOM      4  C   UNL     1      11.101  -8.761 -44.254  1.00  0.00     0.053 C 
BRANCH   4   5
ATOM      5  C   UNL     1      10.353  -8.027 -43.186  1.00  0.00     0.041 C 
ATOM      6  O   UNL     1       9.450  -7.206 -43.495  1.00  0.00    -0.550 OA
ATOM      7  O   UNL     1      10.687  -8.212 -41.850  1.00  0.00    -0.550 OA
ENDBRANCH   4   5
ENDBRANCH   3   4
ENDBRANCH   2   3
ENDBRANCH   1   2
BRANCH   1   8
ATOM      8  C   UNL     1       8.225 -11.087 -46.506  1.00  0.00     0.000 C 
BRANCH   8   9
ATOM      9  C   UNL     1       7.125 -12.052 -46.027  1.00  0.00    -0.000 C 
BRANCH   9  10
ATOM     10  C   UNL     1       7.524 -13.528 -46.190  1.00  0.00    -0.000 C 
BRANCH  10  11
ATOM     11  C   UNL     1       8.069 -14.143 -44.891  1.00  0.00    -0.000 C 
BRANCH  11  12
ATOM     12  C   UNL     1       9.450 -14.767 -45.119  1.00  0.00    -0.003 C 
ATOM     13  C   UNL     1       9.969 -14.462 -46.522  1.00  0.00     0.004 C 
ENDBRANCH  11  12
ENDBRANCH  10  11
ENDBRANCH   9  10
ENDBRANCH   8   9
ENDBRANCH   1   8
TORSDOF 9
ENDMDL
