MODEL 1
REMARK VINA RESULT:    -3.541      0.000      0.000
REMARK INTER + INTRA:          -4.192
REMARK INTER:                  -4.162
REMARK INTRA:                  -0.030
REMARK UNBOUND:                -0.030
REMARK SMILES O=C([O-])CCC(=O)[O-]
REMARK SMILES IDX 4 1 2 2 1 3 3 4 5 5 6 6 7 7 8 8
REMARK H PARENT
REMARK Flexibility Score: inf
ROOT
ATOM      1  C   UNL     1      13.125   3.996  -4.856  1.00  0.00     0.059 C 
ENDROOT
BRANCH   1   2
ATOM      2  C   UNL     1      12.718   4.169  -3.424  1.00  0.00     0.042 C 
ATOM      3  O   UNL     1      12.043   5.172  -3.073  1.00  0.00    -0.550 OA
ATOM      4  O   UNL     1      13.120   3.242  -2.470  1.00  0.00    -0.550 OA
ENDBRANCH   1   2
BRANCH   1   5
ATOM      5  C   UNL     1      11.907   3.898  -5.781  1.00  0.00     0.059 C 
BRANCH   5   6
ATOM      6  C   UNL     1      12.284   4.113  -7.214  1.00  0.00     0.042 C 
ATOM      7  O   UNL     1      12.829   3.188  -7.872  1.00  0.00    -0.550 OA
ATOM      8  O   UNL     1      11.997   5.322  -7.836  1.00  0.00    -0.550 OA
ENDBRANCH   5   6
ENDBRANCH   1   5
TORSDOF 3
ENDMDL
MODEL 2
REMARK VINA RESULT:    -3.538      0.064      4.438
REMARK INTER + INTRA:          -4.188
REMARK INTER:                  -4.157
REMARK INTRA:                  -0.031
REMARK UNBOUND:                -0.030
REMARK SMILES O=C([O-])CCC(=O)[O-]
REMARK SMILES IDX 4 1 2 2 1 3 3 4 5 5 6 6 7 7 8 8
REMARK H PARENT
REMARK Flexibility Score: inf
ROOT
ATOM      1  C   UNL     1      11.899   4.000  -5.796  1.00  0.00     0.059 C 
ENDROOT
BRANCH   1   2
ATOM      2  C   UNL     1      12.289   4.168  -7.233  1.00  0.00     0.042 C 
ATOM      3  O   UNL     1      12.907   3.251  -7.835  1.00  0.00    -0.550 OA
ATOM      4  O   UNL     1      12.003   5.355  -7.897  1.00  0.00    -0.550 OA
ENDBRANCH   1   2
BRANCH   1   5
ATOM      5  C   UNL     1      13.125   3.991  -4.877  1.00  0.00     0.059 C 
BRANCH   5   6
ATOM      6  C   UNL     1      12.741   4.187  -3.443  1.00  0.00     0.042 C 
ATOM      7  O   UNL     1      12.041   5.177  -3.104  1.00  0.00    -0.550 OA
ATOM      8  O   UNL     1      13.121   3.254  -2.486  1.00  0.00    -0.550 OA
ENDBRANCH   5   6
ENDBRANCH   1   5
TORSDOF 3
ENDMDL
MODEL 3
REMARK VINA RESULT:    -3.521     15.097     16.598
REMARK INTER + INTRA:          -4.169
REMARK INTER:                  -4.094
REMARK INTRA:                  -0.074
REMARK UNBOUND:                -0.030
REMARK SMILES O=C([O-])CCC(=O)[O-]
REMARK SMILES IDX 4 1 2 2 1 3 3 4 5 5 6 6 7 7 8 8
REMARK H PARENT
REMARK Flexibility Score: inf
ROOT
ATOM      1  C   UNL     1       3.888   3.359   8.965  1.00  0.00     0.059 C 
ENDROOT
BRANCH   1   2
ATOM      2  C   UNL     1       2.539   3.935   9.270  1.00  0.00     0.042 C 
ATOM      3  O   UNL     1       1.495   3.294   8.978  1.00  0.00    -0.550 OA
ATOM      4  O   UNL     1       2.435   5.197   9.842  1.00  0.00    -0.550 OA
ENDBRANCH   1   2
BRANCH   1   5
ATOM      5  C   UNL     1       3.812   1.853   8.697  1.00  0.00     0.059 C 
BRANCH   5   6
ATOM      6  C   UNL     1       4.461   1.490   7.397  1.00  0.00     0.042 C 
ATOM      7  O   UNL     1       3.771   1.393   6.349  1.00  0.00    -0.550 OA
ATOM      8  O   UNL     1       5.837   1.297   7.336  1.00  0.00    -0.550 OA
ENDBRANCH   5   6
ENDBRANCH   1   5
TORSDOF 3
ENDMDL
MODEL 4
REMARK VINA RESULT:    -3.511     15.070     16.725
REMARK INTER + INTRA:          -4.157
REMARK INTER:                  -4.072
REMARK INTRA:                  -0.084
REMARK UNBOUND:                -0.030
REMARK SMILES O=C([O-])CCC(=O)[O-]
REMARK SMILES IDX 4 1 2 2 1 3 3 4 5 5 6 6 7 7 8 8
REMARK H PARENT
REMARK Flexibility Score: inf
ROOT
ATOM      1  C   UNL     1       3.840   1.779   8.691  1.00  0.00     0.059 C 
ENDROOT
BRANCH   1   2
ATOM      2  C   UNL     1       4.469   1.459   7.368  1.00  0.00     0.042 C 
ATOM      3  O   UNL     1       3.756   1.354   6.336  1.00  0.00    -0.550 OA
ATOM      4  O   UNL     1       5.838   1.237   7.285  1.00  0.00    -0.550 OA
ENDBRANCH   1   2
BRANCH   1   5
ATOM      5  C   UNL     1       4.029   3.253   9.063  1.00  0.00     0.059 C 
BRANCH   5   6
ATOM      6  C   UNL     1       2.716   3.956   9.219  1.00  0.00     0.042 C 
ATOM      7  O   UNL     1       1.648   3.386   8.876  1.00  0.00    -0.550 OA
ATOM      8  O   UNL     1       2.668   5.226   9.782  1.00  0.00    -0.550 OA
ENDBRANCH   5   6
ENDBRANCH   1   5
TORSDOF 3
ENDMDL
MODEL 5
REMARK VINA RESULT:    -3.478     15.118     16.956
REMARK INTER + INTRA:          -4.118
REMARK INTER:                  -3.987
REMARK INTRA:                  -0.130
REMARK UNBOUND:                -0.030
REMARK SMILES O=C([O-])CCC(=O)[O-]
REMARK SMILES IDX 4 1 2 2 1 3 3 4 5 5 6 6 7 7 8 8
REMARK H PARENT
REMARK Flexibility Score: inf
ROOT
ATOM      1  C   UNL     1       4.355   2.893   8.220  1.00  0.00     0.059 C 
ENDROOT
BRANCH   1   2
ATOM      2  C   UNL     1       4.623   1.690   7.369  1.00  0.00     0.042 C 
ATOM      3  O   UNL     1       5.661   1.001   7.553  1.00  0.00    -0.550 OA
ATOM      4  O   UNL     1       3.745   1.352   6.346  1.00  0.00    -0.550 OA
ENDBRANCH   1   2
BRANCH   1   5
ATOM      5  C   UNL     1       3.729   2.506   9.564  1.00  0.00     0.059 C 
BRANCH   5   6
ATOM      6  C   UNL     1       2.256   2.265   9.438  1.00  0.00     0.042 C 
ATOM      7  O   UNL     1       1.774   1.134   9.711  1.00  0.00    -0.550 OA
ATOM      8  O   UNL     1       1.410   3.300   9.057  1.00  0.00    -0.550 OA
ENDBRANCH   5   6
ENDBRANCH   1   5
TORSDOF 3
ENDMDL
MODEL 6
REMARK VINA RESULT:    -3.418     14.861     15.543
REMARK INTER + INTRA:          -4.047
REMARK INTER:                  -3.960
REMARK INTRA:                  -0.088
REMARK UNBOUND:                -0.030
REMARK SMILES O=C([O-])CCC(=O)[O-]
REMARK SMILES IDX 4 1 2 2 1 3 3 4 5 5 6 6 7 7 8 8
REMARK H PARENT
REMARK Flexibility Score: inf
ROOT
ATOM      1  C   UNL     1       5.633   2.953   9.094  1.00  0.00     0.059 C 
ENDROOT
BRANCH   1   2
ATOM      2  C   UNL     1       7.062   2.758   9.499  1.00  0.00     0.042 C 
ATOM      3  O   UNL     1       7.774   3.748   9.813  1.00  0.00    -0.550 OA
ATOM      4  O   UNL     1       7.620   1.485   9.491  1.00  0.00    -0.550 OA
ENDBRANCH   1   2
BRANCH   1   5
ATOM      5  C   UNL     1       4.947   1.619   8.784  1.00  0.00     0.059 C 
BRANCH   5   6
ATOM      6  C   UNL     1       4.590   1.504   7.335  1.00  0.00     0.042 C 
ATOM      7  O   UNL     1       3.613   2.149   6.870  1.00  0.00    -0.550 OA
ATOM      8  O   UNL     1       5.360   0.717   6.487  1.00  0.00    -0.550 OA
ENDBRANCH   5   6
ENDBRANCH   1   5
TORSDOF 3
ENDMDL
MODEL 7
REMARK VINA RESULT:    -3.295     15.062     15.993
REMARK INTER + INTRA:          -3.903
REMARK INTER:                  -3.865
REMARK INTRA:                  -0.038
REMARK UNBOUND:                -0.030
REMARK SMILES O=C([O-])CCC(=O)[O-]
REMARK SMILES IDX 4 1 2 2 1 3 3 4 5 5 6 6 7 7 8 8
REMARK H PARENT
REMARK Flexibility Score: inf
ROOT
ATOM      1  C   UNL     1       5.800   2.504   8.394  1.00  0.00     0.059 C 
ENDROOT
BRANCH   1   2
ATOM      2  C   UNL     1       4.866   1.624   7.622  1.00  0.00     0.042 C 
ATOM      3  O   UNL     1       5.319   0.726   6.865  1.00  0.00    -0.550 OA
ATOM      4  O   UNL     1       3.492   1.822   7.709  1.00  0.00    -0.550 OA
ENDBRANCH   1   2
BRANCH   1   5
ATOM      5  C   UNL     1       6.392   1.774   9.604  1.00  0.00     0.059 C 
BRANCH   5   6
ATOM      6  C   UNL     1       7.844   2.096   9.787  1.00  0.00     0.042 C 
ATOM      7  O   UNL     1       8.198   3.259  10.115  1.00  0.00    -0.550 OA
ATOM      8  O   UNL     1       8.803   1.102   9.635  1.00  0.00    -0.550 OA
ENDBRANCH   5   6
ENDBRANCH   1   5
TORSDOF 3
ENDMDL
MODEL 8
REMARK VINA RESULT:    -3.016     17.997     19.424
REMARK INTER + INTRA:          -3.575
REMARK INTER:                  -3.525
REMARK INTRA:                  -0.050
REMARK UNBOUND:                -0.030
REMARK SMILES O=C([O-])CCC(=O)[O-]
REMARK SMILES IDX 4 1 2 2 1 3 3 4 5 5 6 6 7 7 8 8
REMARK H PARENT
REMARK Flexibility Score: inf
ROOT
ATOM      1  C   UNL     1       0.131   3.503   9.588  1.00  0.00     0.059 C 
ENDROOT
BRANCH   1   2
ATOM      2  C   UNL     1       1.556   3.898   9.349  1.00  0.00     0.042 C 
ATOM      3  O   UNL     1       2.347   3.106   8.774  1.00  0.00    -0.550 OA
ATOM      4  O   UNL     1       2.021   5.129   9.799  1.00  0.00    -0.550 OA
ENDBRANCH   1   2
BRANCH   1   5
ATOM      5  C   UNL     1      -0.750   4.720   9.889  1.00  0.00     0.059 C 
BRANCH   5   6
ATOM      6  C   UNL     1      -1.861   4.856   8.894  1.00  0.00     0.042 C 
ATOM      7  O   UNL     1      -2.543   3.850   8.564  1.00  0.00    -0.550 OA
ATOM      8  O   UNL     1      -2.170   6.101   8.360  1.00  0.00    -0.550 OA
ENDBRANCH   5   6
ENDBRANCH   1   5
TORSDOF 3
ENDMDL
MODEL 9
REMARK VINA RESULT:    -2.962     18.157     19.471
REMARK INTER + INTRA:          -3.512
REMARK INTER:                  -3.460
REMARK INTRA:                  -0.052
REMARK UNBOUND:                -0.030
REMARK SMILES O=C([O-])CCC(=O)[O-]
REMARK SMILES IDX 4 1 2 2 1 3 3 4 5 5 6 6 7 7 8 8
REMARK H PARENT
REMARK Flexibility Score: inf
ROOT
ATOM      1  C   UNL     1      -0.435   4.729   9.712  1.00  0.00     0.059 C 
ENDROOT
BRANCH   1   2
ATOM      2  C   UNL     1      -1.694   4.759   8.899  1.00  0.00     0.042 C 
ATOM      3  O   UNL     1      -2.320   3.693   8.661  1.00  0.00    -0.550 OA
ATOM      4  O   UNL     1      -2.153   5.960   8.372  1.00  0.00    -0.550 OA
ENDBRANCH   1   2
BRANCH   1   5
ATOM      5  C   UNL     1       0.175   3.325   9.756  1.00  0.00     0.059 C 
BRANCH   5   6
ATOM      6  C   UNL     1       1.631   3.344   9.403  1.00  0.00     0.042 C 
ATOM      7  O   UNL     1       2.293   4.410   9.502  1.00  0.00    -0.550 OA
ATOM      8  O   UNL     1       2.266   2.174   9.003  1.00  0.00    -0.550 OA
ENDBRANCH   5   6
ENDBRANCH   1   5
TORSDOF 3
ENDMDL
