MODEL 1
REMARK VINA RESULT:    -4.079      0.000      0.000
REMARK INTER + INTRA:          -7.844
REMARK INTER:                  -7.060
REMARK INTRA:                  -0.785
REMARK UNBOUND:                -0.785
REMARK SMILES CCCCCCCCCCCCCCO
REMARK SMILES IDX 8 1 7 2 6 3 5 4 4 5 3 6 2 7 1 8 9 9 10 10 11 11 12 12 13 13
REMARK SMILES IDX 14 14 15 15
REMARK H PARENT 15 16
REMARK Flexibility Score: inf
ROOT
ATOM      1  C   UNL     1     -30.995 -21.019 -33.691  1.00  0.00     0.000 C 
ENDROOT
BRANCH   1   2
ATOM      2  C   UNL     1     -31.171 -21.883 -34.949  1.00  0.00    -0.000 C 
BRANCH   2   3
ATOM      3  C   UNL     1     -32.616 -22.380 -35.137  1.00  0.00    -0.000 C 
BRANCH   3   4
ATOM      4  C   UNL     1     -33.210 -22.139 -36.538  1.00  0.00    -0.000 C 
BRANCH   4   5
ATOM      5  C   UNL     1     -32.174 -22.019 -37.673  1.00  0.00    -0.000 C 
BRANCH   5   6
ATOM      6  C   UNL     1     -32.149 -23.235 -38.623  1.00  0.00    -0.000 C 
BRANCH   6   7
ATOM      7  C   UNL     1     -31.550 -24.485 -37.963  1.00  0.00    -0.003 C 
ATOM      8  C   UNL     1     -32.312 -25.743 -38.370  1.00  0.00     0.004 C 
ENDBRANCH   6   7
ENDBRANCH   5   6
ENDBRANCH   4   5
ENDBRANCH   3   4
ENDBRANCH   2   3
ENDBRANCH   1   2
BRANCH   1   9
ATOM      9  C   UNL     1     -29.673 -20.243 -33.738  1.00  0.00     0.000 C 
BRANCH   9  10
ATOM     10  C   UNL     1     -29.716 -19.026 -32.803  1.00  0.00     0.000 C 
BRANCH  10  11
ATOM     11  C   UNL     1     -28.868 -19.221 -31.537  1.00  0.00     0.000 C 
BRANCH  11  12
ATOM     12  C   UNL     1     -29.643 -18.903 -30.250  1.00  0.00     0.002 C 
BRANCH  12  13
ATOM     13  C   UNL     1     -30.971 -19.668 -30.206  1.00  0.00     0.028 C 
BRANCH  13  14
ATOM     14  C   UNL     1     -30.737 -21.174 -30.057  1.00  0.00     0.156 C 
BRANCH  14  15
ATOM     15  O   UNL     1     -30.155 -21.453 -28.813  1.00  0.00    -0.396 OA
ATOM     16  H   UNL     1     -30.565 -22.299 -28.492  1.00  0.00     0.210 HD
ENDBRANCH  14  15
ENDBRANCH  13  14
ENDBRANCH  12  13
ENDBRANCH  11  12
ENDBRANCH  10  11
ENDBRANCH   9  10
ENDBRANCH   1   9
TORSDOF 13
ENDMDL
MODEL 2
REMARK VINA RESULT:    -3.994      0.713      1.178
REMARK INTER + INTRA:          -7.696
REMARK INTER:                  -6.909
REMARK INTRA:                  -0.787
REMARK UNBOUND:                -0.785
REMARK SMILES CCCCCCCCCCCCCCO
REMARK SMILES IDX 8 1 7 2 6 3 5 4 4 5 3 6 2 7 1 8 9 9 10 10 11 11 12 12 13 13
REMARK SMILES IDX 14 14 15 15
REMARK H PARENT 15 16
REMARK Flexibility Score: inf
ROOT
ATOM      1  C   UNL     1     -31.203 -21.837 -34.911  1.00  0.00     0.000 C 
ENDROOT
BRANCH   1   2
ATOM      2  C   UNL     1     -32.619 -22.401 -35.098  1.00  0.00    -0.000 C 
BRANCH   2   3
ATOM      3  C   UNL     1     -33.495 -21.529 -36.017  1.00  0.00    -0.000 C 
BRANCH   3   4
ATOM      4  C   UNL     1     -33.656 -22.057 -37.455  1.00  0.00    -0.000 C 
BRANCH   4   5
ATOM      5  C   UNL     1     -32.385 -21.981 -38.323  1.00  0.00    -0.000 C 
BRANCH   5   6
ATOM      6  C   UNL     1     -32.006 -23.320 -38.989  1.00  0.00    -0.000 C 
BRANCH   6   7
ATOM      7  C   UNL     1     -31.607 -24.394 -37.966  1.00  0.00    -0.003 C 
ATOM      8  C   UNL     1     -32.207 -25.749 -38.328  1.00  0.00     0.004 C 
ENDBRANCH   6   7
ENDBRANCH   5   6
ENDBRANCH   4   5
ENDBRANCH   3   4
ENDBRANCH   2   3
ENDBRANCH   1   2
BRANCH   1   9
ATOM      9  C   UNL     1     -31.077 -21.100 -33.572  1.00  0.00     0.000 C 
BRANCH   9  10
ATOM     10  C   UNL     1     -29.640 -20.606 -33.349  1.00  0.00     0.000 C 
BRANCH  10  11
ATOM     11  C   UNL     1     -29.548 -19.525 -32.261  1.00  0.00     0.000 C 
BRANCH  11  12
ATOM     12  C   UNL     1     -30.925 -19.085 -31.744  1.00  0.00     0.002 C 
BRANCH  12  13
ATOM     13  C   UNL     1     -31.048 -19.328 -30.234  1.00  0.00     0.028 C 
BRANCH  13  14
ATOM     14  C   UNL     1     -30.746 -20.787 -29.883  1.00  0.00     0.156 C 
BRANCH  14  15
ATOM     15  O   UNL     1     -31.277 -21.101 -28.624  1.00  0.00    -0.396 OA
ATOM     16  H   UNL     1     -31.629 -22.028 -28.689  1.00  0.00     0.210 HD
ENDBRANCH  14  15
ENDBRANCH  13  14
ENDBRANCH  12  13
ENDBRANCH  11  12
ENDBRANCH  10  11
ENDBRANCH   9  10
ENDBRANCH   1   9
TORSDOF 13
ENDMDL
MODEL 3
REMARK VINA RESULT:    -3.880      2.948      7.517
REMARK INTER + INTRA:          -7.499
REMARK INTER:                  -6.492
REMARK INTRA:                  -1.008
REMARK UNBOUND:                -0.785
REMARK SMILES CCCCCCCCCCCCCCO
REMARK SMILES IDX 8 1 7 2 6 3 5 4 4 5 3 6 2 7 1 8 9 9 10 10 11 11 12 12 13 13
REMARK SMILES IDX 14 14 15 15
REMARK H PARENT 15 16
REMARK Flexibility Score: inf
ROOT
ATOM      1  C   UNL     1     -31.187 -21.147 -33.444  1.00  0.00     0.000 C 
ENDROOT
BRANCH   1   2
ATOM      2  C   UNL     1     -29.731 -20.726 -33.686  1.00  0.00    -0.000 C 
BRANCH   2   3
ATOM      3  C   UNL     1     -29.497 -19.220 -33.464  1.00  0.00    -0.000 C 
BRANCH   3   4
ATOM      4  C   UNL     1     -28.494 -18.875 -32.346  1.00  0.00    -0.000 C 
BRANCH   4   5
ATOM      5  C   UNL     1     -28.748 -19.582 -31.001  1.00  0.00    -0.000 C 
BRANCH   5   6
ATOM      6  C   UNL     1     -29.811 -18.888 -30.124  1.00  0.00    -0.000 C 
BRANCH   6   7
ATOM      7  C   UNL     1     -31.141 -19.656 -30.093  1.00  0.00    -0.003 C 
ATOM      8  C   UNL     1     -32.245 -18.875 -30.798  1.00  0.00     0.004 C 
ENDBRANCH   6   7
ENDBRANCH   5   6
ENDBRANCH   4   5
ENDBRANCH   3   4
ENDBRANCH   2   3
ENDBRANCH   1   2
BRANCH   1   9
ATOM      9  C   UNL     1     -31.943 -21.299 -34.770  1.00  0.00     0.000 C 
BRANCH   9  10
ATOM     10  C   UNL     1     -32.297 -22.769 -35.036  1.00  0.00     0.000 C 
BRANCH  10  11
ATOM     11  C   UNL     1     -32.877 -22.993 -36.441  1.00  0.00     0.000 C 
BRANCH  11  12
ATOM     12  C   UNL     1     -33.754 -21.824 -36.914  1.00  0.00     0.002 C 
BRANCH  12  13
ATOM     13  C   UNL     1     -33.517 -21.527 -38.400  1.00  0.00     0.028 C 
BRANCH  13  14
ATOM     14  C   UNL     1     -32.295 -22.284 -38.927  1.00  0.00     0.156 C 
BRANCH  14  15
ATOM     15  O   UNL     1     -31.180 -21.437 -38.966  1.00  0.00    -0.396 OA
ATOM     16  H   UNL     1     -30.669 -21.603 -38.130  1.00  0.00     0.210 HD
ENDBRANCH  14  15
ENDBRANCH  13  14
ENDBRANCH  12  13
ENDBRANCH  11  12
ENDBRANCH  10  11
ENDBRANCH   9  10
ENDBRANCH   1   9
TORSDOF 13
ENDMDL
MODEL 4
REMARK VINA RESULT:    -3.865      2.564      7.270
REMARK INTER + INTRA:          -7.473
REMARK INTER:                  -6.429
REMARK INTRA:                  -1.044
REMARK UNBOUND:                -0.785
REMARK SMILES CCCCCCCCCCCCCCO
REMARK SMILES IDX 8 1 7 2 6 3 5 4 4 5 3 6 2 7 1 8 9 9 10 10 11 11 12 12 13 13
REMARK SMILES IDX 14 14 15 15
REMARK H PARENT 15 16
REMARK Flexibility Score: inf
ROOT
ATOM      1  C   UNL     1     -31.368 -21.436 -33.956  1.00  0.00     0.000 C 
ENDROOT
BRANCH   1   2
ATOM      2  C   UNL     1     -29.999 -20.759 -33.801  1.00  0.00    -0.000 C 
BRANCH   2   3
ATOM      3  C   UNL     1     -30.076 -19.413 -33.058  1.00  0.00    -0.000 C 
BRANCH   3   4
ATOM      4  C   UNL     1     -31.498 -18.961 -32.674  1.00  0.00    -0.000 C 
BRANCH   4   5
ATOM      5  C   UNL     1     -31.881 -19.199 -31.201  1.00  0.00    -0.000 C 
BRANCH   5   6
ATOM      6  C   UNL     1     -30.676 -19.493 -30.283  1.00  0.00    -0.000 C 
BRANCH   6   7
ATOM      7  C   UNL     1     -30.823 -20.820 -29.525  1.00  0.00    -0.003 C 
ATOM      8  C   UNL     1     -30.804 -22.007 -30.482  1.00  0.00     0.004 C 
ENDBRANCH   6   7
ENDBRANCH   5   6
ENDBRANCH   4   5
ENDBRANCH   3   4
ENDBRANCH   2   3
ENDBRANCH   1   2
BRANCH   1   9
ATOM      9  C   UNL     1     -31.631 -21.817 -35.419  1.00  0.00     0.000 C 
BRANCH   9  10
ATOM     10  C   UNL     1     -33.130 -21.750 -35.745  1.00  0.00     0.000 C 
BRANCH  10  11
ATOM     11  C   UNL     1     -33.430 -22.056 -37.220  1.00  0.00     0.000 C 
BRANCH  11  12
ATOM     12  C   UNL     1     -32.161 -22.107 -38.084  1.00  0.00     0.002 C 
BRANCH  12  13
ATOM     13  C   UNL     1     -32.250 -23.230 -39.125  1.00  0.00     0.028 C 
BRANCH  13  14
ATOM     14  C   UNL     1     -31.860 -24.579 -38.516  1.00  0.00     0.156 C 
BRANCH  14  15
ATOM     15  O   UNL     1     -30.766 -24.424 -37.654  1.00  0.00    -0.396 OA
ATOM     16  H   UNL     1     -31.113 -23.989 -36.831  1.00  0.00     0.210 HD
ENDBRANCH  14  15
ENDBRANCH  13  14
ENDBRANCH  12  13
ENDBRANCH  11  12
ENDBRANCH  10  11
ENDBRANCH   9  10
ENDBRANCH   1   9
TORSDOF 13
ENDMDL
MODEL 5
REMARK VINA RESULT:    -3.818      3.349      8.076
REMARK INTER + INTRA:          -7.393
REMARK INTER:                  -6.682
REMARK INTRA:                  -0.711
REMARK UNBOUND:                -0.785
REMARK SMILES CCCCCCCCCCCCCCO
REMARK SMILES IDX 8 1 7 2 6 3 5 4 4 5 3 6 2 7 1 8 9 9 10 10 11 11 12 12 13 13
REMARK SMILES IDX 14 14 15 15
REMARK H PARENT 15 16
REMARK Flexibility Score: inf
ROOT
ATOM      1  C   UNL     1     -32.248 -22.175 -34.914  1.00  0.00     0.000 C 
ENDROOT
BRANCH   1   2
ATOM      2  C   UNL     1     -31.547 -21.499 -33.728  1.00  0.00    -0.000 C 
BRANCH   2   3
ATOM      3  C   UNL     1     -30.140 -20.981 -34.079  1.00  0.00    -0.000 C 
BRANCH   3   4
ATOM      4  C   UNL     1     -29.784 -19.606 -33.481  1.00  0.00    -0.000 C 
BRANCH   4   5
ATOM      5  C   UNL     1     -28.759 -19.640 -32.332  1.00  0.00    -0.000 C 
BRANCH   5   6
ATOM      6  C   UNL     1     -29.272 -19.006 -31.022  1.00  0.00    -0.000 C 
BRANCH   6   7
ATOM      7  C   UNL     1     -30.727 -19.389 -30.713  1.00  0.00    -0.003 C 
ATOM      8  C   UNL     1     -30.806 -20.750 -30.028  1.00  0.00     0.004 C 
ENDBRANCH   6   7
ENDBRANCH   5   6
ENDBRANCH   4   5
ENDBRANCH   3   4
ENDBRANCH   2   3
ENDBRANCH   1   2
BRANCH   1   9
ATOM      9  C   UNL     1     -31.328 -22.227 -36.140  1.00  0.00     0.000 C 
BRANCH   9  10
ATOM     10  C   UNL     1     -32.005 -22.965 -37.305  1.00  0.00     0.000 C 
BRANCH  10  11
ATOM     11  C   UNL     1     -31.355 -24.325 -37.601  1.00  0.00     0.000 C 
BRANCH  11  12
ATOM     12  C   UNL     1     -32.122 -25.129 -38.662  1.00  0.00     0.002 C 
BRANCH  12  13
ATOM     13  C   UNL     1     -32.815 -26.345 -38.033  1.00  0.00     0.028 C 
BRANCH  13  14
ATOM     14  C   UNL     1     -33.043 -27.448 -39.070  1.00  0.00     0.156 C 
BRANCH  14  15
ATOM     15  O   UNL     1     -33.701 -28.537 -38.483  1.00  0.00    -0.396 OA
ATOM     16  H   UNL     1     -33.946 -28.256 -37.561  1.00  0.00     0.210 HD
ENDBRANCH  14  15
ENDBRANCH  13  14
ENDBRANCH  12  13
ENDBRANCH  11  12
ENDBRANCH  10  11
ENDBRANCH   9  10
ENDBRANCH   1   9
TORSDOF 13
ENDMDL
MODEL 6
REMARK VINA RESULT:    -3.708      1.169      1.925
REMARK INTER + INTRA:          -7.201
REMARK INTER:                  -6.553
REMARK INTRA:                  -0.648
REMARK UNBOUND:                -0.785
REMARK SMILES CCCCCCCCCCCCCCO
REMARK SMILES IDX 8 1 7 2 6 3 5 4 4 5 3 6 2 7 1 8 9 9 10 10 11 11 12 12 13 13
REMARK SMILES IDX 14 14 15 15
REMARK H PARENT 15 16
REMARK Flexibility Score: inf
ROOT
ATOM      1  C   UNL     1     -32.033 -21.539 -34.300  1.00  0.00     0.000 C 
ENDROOT
BRANCH   1   2
ATOM      2  C   UNL     1     -32.284 -22.736 -35.229  1.00  0.00    -0.000 C 
BRANCH   2   3
ATOM      3  C   UNL     1     -32.818 -22.321 -36.612  1.00  0.00    -0.000 C 
BRANCH   3   4
ATOM      4  C   UNL     1     -31.777 -22.346 -37.747  1.00  0.00    -0.000 C 
BRANCH   4   5
ATOM      5  C   UNL     1     -31.969 -23.470 -38.783  1.00  0.00    -0.000 C 
BRANCH   5   6
ATOM      6  C   UNL     1     -31.790 -24.889 -38.203  1.00  0.00    -0.000 C 
BRANCH   6   7
ATOM      7  C   UNL     1     -32.432 -25.970 -39.085  1.00  0.00    -0.003 C 
ATOM      8  C   UNL     1     -33.027 -27.090 -38.237  1.00  0.00     0.004 C 
ENDBRANCH   6   7
ENDBRANCH   5   6
ENDBRANCH   4   5
ENDBRANCH   3   4
ENDBRANCH   2   3
ENDBRANCH   1   2
BRANCH   1   9
ATOM      9  C   UNL     1     -30.546 -21.165 -34.276  1.00  0.00     0.000 C 
BRANCH   9  10
ATOM     10  C   UNL     1     -30.319 -19.866 -33.487  1.00  0.00     0.000 C 
BRANCH  10  11
ATOM     11  C   UNL     1     -31.530 -19.476 -32.626  1.00  0.00     0.000 C 
BRANCH  11  12
ATOM     12  C   UNL     1     -31.161 -19.248 -31.153  1.00  0.00     0.002 C 
BRANCH  12  13
ATOM     13  C   UNL     1     -29.802 -19.878 -30.824  1.00  0.00     0.028 C 
BRANCH  13  14
ATOM     14  C   UNL     1     -28.883 -18.875 -30.122  1.00  0.00     0.156 C 
BRANCH  14  15
ATOM     15  O   UNL     1     -28.279 -19.470 -29.006  1.00  0.00    -0.396 OA
ATOM     16  H   UNL     1     -28.703 -19.063 -28.204  1.00  0.00     0.210 HD
ENDBRANCH  14  15
ENDBRANCH  13  14
ENDBRANCH  12  13
ENDBRANCH  11  12
ENDBRANCH  10  11
ENDBRANCH   9  10
ENDBRANCH   1   9
TORSDOF 13
ENDMDL
MODEL 7
REMARK VINA RESULT:    -3.386      2.678      7.373
REMARK INTER + INTRA:          -6.645
REMARK INTER:                  -5.623
REMARK INTRA:                  -1.021
REMARK UNBOUND:                -0.785
REMARK SMILES CCCCCCCCCCCCCCO
REMARK SMILES IDX 8 1 7 2 6 3 5 4 4 5 3 6 2 7 1 8 9 9 10 10 11 11 12 12 13 13
REMARK SMILES IDX 14 14 15 15
REMARK H PARENT 15 16
REMARK Flexibility Score: inf
ROOT
ATOM      1  C   UNL     1     -31.537 -21.885 -35.380  1.00  0.00     0.000 C 
ENDROOT
BRANCH   1   2
ATOM      2  C   UNL     1     -30.992 -21.129 -34.160  1.00  0.00    -0.000 C 
BRANCH   2   3
ATOM      3  C   UNL     1     -31.231 -21.877 -32.835  1.00  0.00    -0.000 C 
BRANCH   3   4
ATOM      4  C   UNL     1     -30.838 -21.097 -31.567  1.00  0.00    -0.000 C 
BRANCH   4   5
ATOM      5  C   UNL     1     -30.555 -19.598 -31.785  1.00  0.00    -0.000 C 
BRANCH   5   6
ATOM      6  C   UNL     1     -29.457 -19.031 -30.862  1.00  0.00    -0.000 C 
BRANCH   6   7
ATOM      7  C   UNL     1     -28.105 -18.886 -31.576  1.00  0.00    -0.003 C 
ATOM      8  C   UNL     1     -28.280 -18.875 -33.091  1.00  0.00     0.004 C 
ENDBRANCH   6   7
ENDBRANCH   5   6
ENDBRANCH   4   5
ENDBRANCH   3   4
ENDBRANCH   2   3
ENDBRANCH   1   2
BRANCH   1   9
ATOM      9  C   UNL     1     -33.071 -21.898 -35.379  1.00  0.00     0.000 C 
BRANCH   9  10
ATOM     10  C   UNL     1     -33.628 -21.246 -36.652  1.00  0.00     0.000 C 
BRANCH  10  11
ATOM     11  C   UNL     1     -32.681 -21.387 -37.854  1.00  0.00     0.000 C 
BRANCH  11  12
ATOM     12  C   UNL     1     -33.027 -22.591 -38.742  1.00  0.00     0.002 C 
BRANCH  12  13
ATOM     13  C   UNL     1     -31.775 -23.421 -39.054  1.00  0.00     0.028 C 
BRANCH  13  14
ATOM     14  C   UNL     1     -31.559 -24.512 -38.002  1.00  0.00     0.156 C 
BRANCH  14  15
ATOM     15  O   UNL     1     -32.771 -24.822 -37.371  1.00  0.00    -0.396 OA
ATOM     16  H   UNL     1     -32.791 -24.301 -36.525  1.00  0.00     0.210 HD
ENDBRANCH  14  15
ENDBRANCH  13  14
ENDBRANCH  12  13
ENDBRANCH  11  12
ENDBRANCH  10  11
ENDBRANCH   9  10
ENDBRANCH   1   9
TORSDOF 13
ENDMDL
MODEL 8
REMARK VINA RESULT:    -2.877      1.553      2.666
REMARK INTER + INTRA:          -5.764
REMARK INTER:                  -5.495
REMARK INTRA:                  -0.269
REMARK UNBOUND:                -0.785
REMARK SMILES CCCCCCCCCCCCCCO
REMARK SMILES IDX 8 1 7 2 6 3 5 4 4 5 3 6 2 7 1 8 9 9 10 10 11 11 12 12 13 13
REMARK SMILES IDX 14 14 15 15
REMARK H PARENT 15 16
REMARK Flexibility Score: inf
ROOT
ATOM      1  C   UNL     1     -31.909 -22.292 -34.804  1.00  0.00     0.000 C 
ENDROOT
BRANCH   1   2
ATOM      2  C   UNL     1     -31.372 -22.475 -36.231  1.00  0.00    -0.000 C 
BRANCH   2   3
ATOM      3  C   UNL     1     -32.233 -23.431 -37.077  1.00  0.00    -0.000 C 
BRANCH   3   4
ATOM      4  C   UNL     1     -31.525 -24.026 -38.310  1.00  0.00    -0.000 C 
BRANCH   4   5
ATOM      5  C   UNL     1     -32.323 -25.109 -39.061  1.00  0.00    -0.000 C 
BRANCH   5   6
ATOM      6  C   UNL     1     -32.298 -26.490 -38.372  1.00  0.00    -0.000 C 
BRANCH   6   7
ATOM      7  C   UNL     1     -33.672 -27.175 -38.376  1.00  0.00    -0.003 C 
ATOM      8  C   UNL     1     -33.624 -28.503 -39.124  1.00  0.00     0.004 C 
ENDBRANCH   6   7
ENDBRANCH   5   6
ENDBRANCH   4   5
ENDBRANCH   3   4
ENDBRANCH   2   3
ENDBRANCH   1   2
BRANCH   1   9
ATOM      9  C   UNL     1     -32.551 -20.909 -34.632  1.00  0.00     0.000 C 
BRANCH   9  10
ATOM     10  C   UNL     1     -31.819 -20.093 -33.556  1.00  0.00     0.000 C 
BRANCH  10  11
ATOM     11  C   UNL     1     -30.509 -20.753 -33.100  1.00  0.00     0.000 C 
BRANCH  11  12
ATOM     12  C   UNL     1     -30.464 -20.998 -31.585  1.00  0.00     0.002 C 
BRANCH  12  13
ATOM     13  C   UNL     1     -30.470 -19.672 -30.815  1.00  0.00     0.028 C 
BRANCH  13  14
ATOM     14  C   UNL     1     -31.878 -19.326 -30.322  1.00  0.00     0.156 C 
BRANCH  14  15
ATOM     15  O   UNL     1     -31.977 -19.552 -28.942  1.00  0.00    -0.396 OA
ATOM     16  H   UNL     1     -32.945 -19.652 -28.740  1.00  0.00     0.210 HD
ENDBRANCH  14  15
ENDBRANCH  13  14
ENDBRANCH  12  13
ENDBRANCH  11  12
ENDBRANCH  10  11
ENDBRANCH   9  10
ENDBRANCH   1   9
TORSDOF 13
ENDMDL
