MODEL 1
REMARK VINA RESULT:    -3.604      0.000      0.000
REMARK INTER + INTRA:          -4.279
REMARK INTER:                  -4.236
REMARK INTRA:                  -0.044
REMARK UNBOUND:                -0.044
REMARK SMILES CCCCC(=O)[O-]
REMARK SMILES IDX 4 1 5 2 6 3 7 4 3 5 2 6 1 7
REMARK H PARENT
REMARK Flexibility Score: inf
ROOT
ATOM      1  C   UNL     1      20.656  54.533  14.885  1.00  0.00     0.053 C 
ENDROOT
BRANCH   1   2
ATOM      2  C   UNL     1      20.954  53.385  15.797  1.00  0.00     0.041 C 
ATOM      3  O   UNL     1      20.192  52.383  15.825  1.00  0.00    -0.550 OA
ATOM      4  O   UNL     1      22.101  53.400  16.581  1.00  0.00    -0.550 OA
ENDBRANCH   1   2
BRANCH   1   5
ATOM      5  C   UNL     1      19.564  54.150  13.882  1.00  0.00     0.006 C 
BRANCH   5   6
ATOM      6  C   UNL     1      18.397  55.144  13.935  1.00  0.00    -0.003 C 
ATOM      7  C   UNL     1      17.479  54.980  12.726  1.00  0.00     0.004 C 
ENDBRANCH   5   6
ENDBRANCH   1   5
TORSDOF 3
ENDMDL
MODEL 2
REMARK VINA RESULT:    -3.532      1.022      1.343
REMARK INTER + INTRA:          -4.195
REMARK INTER:                  -4.149
REMARK INTRA:                  -0.046
REMARK UNBOUND:                -0.044
REMARK SMILES CCCCC(=O)[O-]
REMARK SMILES IDX 4 1 5 2 6 3 7 4 3 5 2 6 1 7
REMARK H PARENT
REMARK Flexibility Score: inf
ROOT
ATOM      1  C   UNL     1      19.996  53.587  15.340  1.00  0.00     0.053 C 
ENDROOT
BRANCH   1   2
ATOM      2  C   UNL     1      21.295  54.126  15.851  1.00  0.00     0.041 C 
ATOM      3  O   UNL     1      22.134  53.354  16.387  1.00  0.00    -0.550 OA
ATOM      4  O   UNL     1      21.601  55.471  15.691  1.00  0.00    -0.550 OA
ENDBRANCH   1   2
BRANCH   1   5
ATOM      5  C   UNL     1      19.694  54.148  13.947  1.00  0.00     0.006 C 
BRANCH   5   6
ATOM      6  C   UNL     1      18.504  55.114  13.991  1.00  0.00    -0.003 C 
ATOM      7  C   UNL     1      17.577  54.900  12.796  1.00  0.00     0.004 C 
ENDBRANCH   5   6
ENDBRANCH   1   5
TORSDOF 3
ENDMDL
MODEL 3
REMARK VINA RESULT:    -3.365     13.869     14.228
REMARK INTER + INTRA:          -3.999
REMARK INTER:                  -3.887
REMARK INTRA:                  -0.112
REMARK UNBOUND:                -0.044
REMARK SMILES CCCCC(=O)[O-]
REMARK SMILES IDX 4 1 5 2 6 3 7 4 3 5 2 6 1 7
REMARK H PARENT
REMARK Flexibility Score: inf
ROOT
ATOM      1  C   UNL     1      24.242  64.043   7.617  1.00  0.00     0.053 C 
ENDROOT
BRANCH   1   2
ATOM      2  C   UNL     1      23.012  63.683   6.845  1.00  0.00     0.041 C 
ATOM      3  O   UNL     1      22.416  64.555   6.159  1.00  0.00    -0.550 OA
ATOM      4  O   UNL     1      22.551  62.373   6.844  1.00  0.00    -0.550 OA
ENDBRANCH   1   2
BRANCH   1   5
ATOM      5  C   UNL     1      25.469  64.039   6.701  1.00  0.00     0.006 C 
BRANCH   5   6
ATOM      6  C   UNL     1      25.993  65.464   6.480  1.00  0.00    -0.003 C 
ATOM      7  C   UNL     1      25.536  66.015   5.131  1.00  0.00     0.004 C 
ENDBRANCH   5   6
ENDBRANCH   1   5
TORSDOF 3
ENDMDL
MODEL 4
REMARK VINA RESULT:    -3.287      3.298      3.860
REMARK INTER + INTRA:          -3.906
REMARK INTER:                  -3.872
REMARK INTRA:                  -0.034
REMARK UNBOUND:                -0.044
REMARK SMILES CCCCC(=O)[O-]
REMARK SMILES IDX 4 1 5 2 6 3 7 4 3 5 2 6 1 7
REMARK H PARENT
REMARK Flexibility Score: inf
ROOT
ATOM      1  C   UNL     1      18.637  56.114  15.204  1.00  0.00     0.053 C 
ENDROOT
BRANCH   1   2
ATOM      2  C   UNL     1      17.946  56.864  16.300  1.00  0.00     0.041 C 
ATOM      3  O   UNL     1      16.882  57.495  16.062  1.00  0.00    -0.550 OA
ATOM      4  O   UNL     1      18.449  56.825  17.594  1.00  0.00    -0.550 OA
ENDBRANCH   1   2
BRANCH   1   5
ATOM      5  C   UNL     1      17.612  55.473  14.265  1.00  0.00     0.006 C 
BRANCH   5   6
ATOM      6  C   UNL     1      18.306  54.616  13.199  1.00  0.00    -0.003 C 
ATOM      7  C   UNL     1      19.536  53.916  13.771  1.00  0.00     0.004 C 
ENDBRANCH   5   6
ENDBRANCH   1   5
TORSDOF 3
ENDMDL
MODEL 5
REMARK VINA RESULT:    -3.260     12.895     13.438
REMARK INTER + INTRA:          -3.875
REMARK INTER:                  -3.825
REMARK INTRA:                  -0.050
REMARK UNBOUND:                -0.044
REMARK SMILES CCCCC(=O)[O-]
REMARK SMILES IDX 4 1 5 2 6 3 7 4 3 5 2 6 1 7
REMARK H PARENT
REMARK Flexibility Score: inf
ROOT
ATOM      1  C   UNL     1      23.912  64.045   8.012  1.00  0.00     0.053 C 
ENDROOT
BRANCH   1   2
ATOM      2  C   UNL     1      22.948  63.638   6.943  1.00  0.00     0.041 C 
ATOM      3  O   UNL     1      22.525  64.488   6.114  1.00  0.00    -0.550 OA
ATOM      4  O   UNL     1      22.554  62.311   6.830  1.00  0.00    -0.550 OA
ENDBRANCH   1   2
BRANCH   1   5
ATOM      5  C   UNL     1      25.299  64.297   7.415  1.00  0.00     0.006 C 
BRANCH   5   6
ATOM      6  C   UNL     1      26.239  63.118   7.694  1.00  0.00    -0.003 C 
ATOM      7  C   UNL     1      26.747  63.147   9.134  1.00  0.00     0.004 C 
ENDBRANCH   5   6
ENDBRANCH   1   5
TORSDOF 3
ENDMDL
MODEL 6
REMARK VINA RESULT:    -3.239      3.018      4.083
REMARK INTER + INTRA:          -3.851
REMARK INTER:                  -3.774
REMARK INTRA:                  -0.077
REMARK UNBOUND:                -0.044
REMARK SMILES CCCCC(=O)[O-]
REMARK SMILES IDX 4 1 5 2 6 3 7 4 3 5 2 6 1 7
REMARK H PARENT
REMARK Flexibility Score: inf
ROOT
ATOM      1  C   UNL     1      18.479  55.994  14.630  1.00  0.00     0.053 C 
ENDROOT
BRANCH   1   2
ATOM      2  C   UNL     1      17.252  56.100  15.479  1.00  0.00     0.041 C 
ATOM      3  O   UNL     1      17.030  57.147  16.143  1.00  0.00    -0.550 OA
ATOM      4  O   UNL     1      16.327  55.064  15.497  1.00  0.00    -0.550 OA
ENDBRANCH   1   2
BRANCH   1   5
ATOM      5  C   UNL     1      18.314  54.886  13.586  1.00  0.00     0.006 C 
BRANCH   5   6
ATOM      6  C   UNL     1      19.445  53.856  13.696  1.00  0.00    -0.003 C 
ATOM      7  C   UNL     1      20.528  54.328  14.664  1.00  0.00     0.004 C 
ENDBRANCH   5   6
ENDBRANCH   1   5
TORSDOF 3
ENDMDL
MODEL 7
REMARK VINA RESULT:    -3.212      3.118      3.500
REMARK INTER + INTRA:          -3.818
REMARK INTER:                  -3.792
REMARK INTRA:                  -0.027
REMARK UNBOUND:                -0.044
REMARK SMILES CCCCC(=O)[O-]
REMARK SMILES IDX 4 1 5 2 6 3 7 4 3 5 2 6 1 7
REMARK H PARENT
REMARK Flexibility Score: inf
ROOT
ATOM      1  C   UNL     1      19.658  56.131  16.033  1.00  0.00     0.053 C 
ENDROOT
BRANCH   1   2
ATOM      2  C   UNL     1      19.158  56.659  17.341  1.00  0.00     0.041 C 
ATOM      3  O   UNL     1      19.857  57.468  18.007  1.00  0.00    -0.550 OA
ATOM      4  O   UNL     1      17.898  56.297  17.801  1.00  0.00    -0.550 OA
ENDBRANCH   1   2
BRANCH   1   5
ATOM      5  C   UNL     1      18.517  56.056  15.015  1.00  0.00     0.006 C 
BRANCH   5   6
ATOM      6  C   UNL     1      18.732  54.895  14.036  1.00  0.00    -0.003 C 
ATOM      7  C   UNL     1      17.739  54.960  12.878  1.00  0.00     0.004 C 
ENDBRANCH   5   6
ENDBRANCH   1   5
TORSDOF 3
ENDMDL
MODEL 8
REMARK VINA RESULT:    -3.211      1.630      2.310
REMARK INTER + INTRA:          -3.817
REMARK INTER:                  -3.693
REMARK INTRA:                  -0.124
REMARK UNBOUND:                -0.044
REMARK SMILES CCCCC(=O)[O-]
REMARK SMILES IDX 4 1 5 2 6 3 7 4 3 5 2 6 1 7
REMARK H PARENT
REMARK Flexibility Score: inf
ROOT
ATOM      1  C   UNL     1      18.725  54.172  13.310  1.00  0.00     0.053 C 
ENDROOT
BRANCH   1   2
ATOM      2  C   UNL     1      19.698  53.812  14.388  1.00  0.00     0.041 C 
ATOM      3  O   UNL     1      19.575  52.726  15.015  1.00  0.00    -0.550 OA
ATOM      4  O   UNL     1      20.769  54.650  14.667  1.00  0.00    -0.550 OA
ENDBRANCH   1   2
BRANCH   1   5
ATOM      5  C   UNL     1      18.033  55.499  13.634  1.00  0.00     0.006 C 
BRANCH   5   6
ATOM      6  C   UNL     1      17.348  55.440  15.005  1.00  0.00    -0.003 C 
ATOM      7  C   UNL     1      17.647  56.693  15.824  1.00  0.00     0.004 C 
ENDBRANCH   5   6
ENDBRANCH   1   5
TORSDOF 3
ENDMDL
MODEL 9
REMARK VINA RESULT:    -3.108      2.878      3.381
REMARK INTER + INTRA:          -3.697
REMARK INTER:                  -3.613
REMARK INTRA:                  -0.084
REMARK UNBOUND:                -0.044
REMARK SMILES CCCCC(=O)[O-]
REMARK SMILES IDX 4 1 5 2 6 3 7 4 3 5 2 6 1 7
REMARK H PARENT
REMARK Flexibility Score: inf
ROOT
ATOM      1  C   UNL     1      21.919  56.057  16.386  1.00  0.00     0.053 C 
ENDROOT
BRANCH   1   2
ATOM      2  C   UNL     1      21.522  54.692  15.918  1.00  0.00     0.041 C 
ATOM      3  O   UNL     1      20.777  54.560  14.911  1.00  0.00    -0.550 OA
ATOM      4  O   UNL     1      22.016  53.565  16.562  1.00  0.00    -0.550 OA
ENDBRANCH   1   2
BRANCH   1   5
ATOM      5  C   UNL     1      20.704  56.990  16.407  1.00  0.00     0.006 C 
BRANCH   5   6
ATOM      6  C   UNL     1      20.053  57.013  17.795  1.00  0.00    -0.003 C 
ATOM      7  C   UNL     1      18.561  56.704  17.709  1.00  0.00     0.004 C 
ENDBRANCH   5   6
ENDBRANCH   1   5
TORSDOF 3
ENDMDL
