MODEL 1
REMARK VINA RESULT:    -5.056      0.000      0.000
REMARK INTER + INTRA:          -5.534
REMARK INTER:                  -5.500
REMARK INTRA:                  -0.035
REMARK UNBOUND:                -0.035
REMARK SMILES O=C([O-])c1ccc(O)cc1
REMARK SMILES IDX 4 1 5 2 10 3 6 4 9 5 7 6 2 7 1 8 3 9 8 10
REMARK H PARENT 8 11
REMARK Flexibility Score: inf
ROOT
ATOM      1  C   UNL     1     103.649  23.273 199.444  1.00  0.00    -0.003 A 
ATOM      2  C   UNL     1     103.020  23.272 200.702  1.00  0.00     0.014 A 
ATOM      3  C   UNL     1     102.866  23.450 198.290  1.00  0.00     0.014 A 
ATOM      4  C   UNL     1     101.636  23.445 200.801  1.00  0.00     0.047 A 
ATOM      5  C   UNL     1     101.482  23.623 198.392  1.00  0.00     0.047 A 
ATOM      6  C   UNL     1     100.863  23.621 199.646  1.00  0.00     0.115 A 
ENDROOT
BRANCH   1   7
ATOM      7  C   UNL     1     105.114  23.091 199.333  1.00  0.00     0.071 C 
ATOM      8  O   UNL     1     105.867  23.348 200.309  1.00  0.00    -0.545 OA
ATOM      9  O   UNL     1     105.678  22.632 198.148  1.00  0.00    -0.545 OA
ENDBRANCH   1   7
BRANCH   6  10
ATOM     10  O   UNL     1      99.484  23.794 199.733  1.00  0.00    -0.508 OA
ATOM     11  H   UNL     1      98.891  23.749 198.913  1.00  0.00     0.293 HD
ENDBRANCH   6  10
TORSDOF 2
ENDMDL
MODEL 2
REMARK VINA RESULT:    -5.023      0.153      1.539
REMARK INTER + INTRA:          -5.498
REMARK INTER:                  -5.464
REMARK INTRA:                  -0.034
REMARK UNBOUND:                -0.035
REMARK SMILES O=C([O-])c1ccc(O)cc1
REMARK SMILES IDX 4 1 5 2 10 3 6 4 9 5 7 6 2 7 1 8 3 9 8 10
REMARK H PARENT 8 11
REMARK Flexibility Score: inf
ROOT
ATOM      1  C   UNL     1     103.661  23.240 199.409  1.00  0.00    -0.003 A 
ATOM      2  C   UNL     1     102.836  23.475 198.294  1.00  0.00     0.014 A 
ATOM      3  C   UNL     1     103.091  23.250 200.694  1.00  0.00     0.014 A 
ATOM      4  C   UNL     1     101.468  23.712 198.464  1.00  0.00     0.047 A 
ATOM      5  C   UNL     1     101.723  23.489 200.861  1.00  0.00     0.047 A 
ATOM      6  C   UNL     1     100.908  23.721 199.748  1.00  0.00     0.115 A 
ENDROOT
BRANCH   1   7
ATOM      7  C   UNL     1     105.109  22.987 199.236  1.00  0.00     0.071 C 
ATOM      8  O   UNL     1     105.922  23.268 200.156  1.00  0.00    -0.545 OA
ATOM      9  O   UNL     1     105.591  22.435 198.055  1.00  0.00    -0.545 OA
ENDBRANCH   1   7
BRANCH   6  10
ATOM     10  O   UNL     1      99.547  23.957 199.928  1.00  0.00    -0.508 OA
ATOM     11  H   UNL     1      98.876  23.776 199.192  1.00  0.00     0.293 HD
ENDBRANCH   6  10
TORSDOF 2
ENDMDL
MODEL 3
REMARK VINA RESULT:    -5.001      3.671      5.099
REMARK INTER + INTRA:          -5.474
REMARK INTER:                  -5.442
REMARK INTRA:                  -0.032
REMARK UNBOUND:                -0.035
REMARK SMILES O=C([O-])c1ccc(O)cc1
REMARK SMILES IDX 4 1 5 2 10 3 6 4 9 5 7 6 2 7 1 8 3 9 8 10
REMARK H PARENT 8 11
REMARK Flexibility Score: inf
ROOT
ATOM      1  C   UNL     1     104.670  23.422 196.499  1.00  0.00    -0.003 A 
ATOM      2  C   UNL     1     104.769  23.987 195.214  1.00  0.00     0.014 A 
ATOM      3  C   UNL     1     104.910  24.234 197.621  1.00  0.00     0.014 A 
ATOM      4  C   UNL     1     105.100  25.336 195.058  1.00  0.00     0.047 A 
ATOM      5  C   UNL     1     105.241  25.584 197.462  1.00  0.00     0.047 A 
ATOM      6  C   UNL     1     105.338  26.138 196.182  1.00  0.00     0.115 A 
ENDROOT
BRANCH   1   7
ATOM      7  C   UNL     1     104.319  21.994 196.670  1.00  0.00     0.071 C 
ATOM      8  O   UNL     1     103.414  21.469 195.970  1.00  0.00    -0.545 OA
ATOM      9  O   UNL     1     104.986  21.213 197.608  1.00  0.00    -0.545 OA
ENDBRANCH   1   7
BRANCH   6  10
ATOM     10  O   UNL     1     105.668  27.484 196.038  1.00  0.00    -0.508 OA
ATOM     11  H   UNL     1     106.597  27.774 195.755  1.00  0.00     0.293 HD
ENDBRANCH   6  10
TORSDOF 2
ENDMDL
MODEL 4
REMARK VINA RESULT:    -4.957      3.714      4.893
REMARK INTER + INTRA:          -5.426
REMARK INTER:                  -5.394
REMARK INTRA:                  -0.032
REMARK UNBOUND:                -0.035
REMARK SMILES O=C([O-])c1ccc(O)cc1
REMARK SMILES IDX 4 1 5 2 10 3 6 4 9 5 7 6 2 7 1 8 3 9 8 10
REMARK H PARENT 8 11
REMARK Flexibility Score: inf
ROOT
ATOM      1  C   UNL     1     104.742  23.532 196.523  1.00  0.00    -0.003 A 
ATOM      2  C   UNL     1     105.009  24.346 197.639  1.00  0.00     0.014 A 
ATOM      3  C   UNL     1     104.796  24.097 195.237  1.00  0.00     0.014 A 
ATOM      4  C   UNL     1     105.326  25.697 197.469  1.00  0.00     0.047 A 
ATOM      5  C   UNL     1     105.112  25.450 195.070  1.00  0.00     0.047 A 
ATOM      6  C   UNL     1     105.377  26.253 196.183  1.00  0.00     0.115 A 
ENDROOT
BRANCH   1   7
ATOM      7  C   UNL     1     104.407  22.100 196.697  1.00  0.00     0.071 C 
ATOM      8  O   UNL     1     103.519  21.560 195.986  1.00  0.00    -0.545 OA
ATOM      9  O   UNL     1     105.069  21.333 197.648  1.00  0.00    -0.545 OA
ENDBRANCH   1   7
BRANCH   6  10
ATOM     10  O   UNL     1     105.691  27.598 196.003  1.00  0.00    -0.508 OA
ATOM     11  H   UNL     1     105.031  28.331 196.232  1.00  0.00     0.293 HD
ENDBRANCH   6  10
TORSDOF 2
ENDMDL
MODEL 5
REMARK VINA RESULT:    -4.945      2.277      3.122
REMARK INTER + INTRA:          -5.413
REMARK INTER:                  -5.385
REMARK INTRA:                  -0.028
REMARK UNBOUND:                -0.035
REMARK SMILES O=C([O-])c1ccc(O)cc1
REMARK SMILES IDX 4 1 5 2 10 3 6 4 9 5 7 6 2 7 1 8 3 9 8 10
REMARK H PARENT 8 11
REMARK Flexibility Score: inf
ROOT
ATOM      1  C   UNL     1     104.140  24.335 197.909  1.00  0.00    -0.003 A 
ATOM      2  C   UNL     1     102.739  24.235 197.990  1.00  0.00     0.014 A 
ATOM      3  C   UNL     1     104.924  23.784 198.937  1.00  0.00     0.014 A 
ATOM      4  C   UNL     1     102.137  23.596 199.077  1.00  0.00     0.047 A 
ATOM      5  C   UNL     1     104.318  23.145 200.025  1.00  0.00     0.047 A 
ATOM      6  C   UNL     1     102.925  23.049 200.099  1.00  0.00     0.115 A 
ENDROOT
BRANCH   1   7
ATOM      7  C   UNL     1     104.783  25.011 196.759  1.00  0.00     0.071 C 
ATOM      8  O   UNL     1     104.689  24.529 195.600  1.00  0.00    -0.545 OA
ATOM      9  O   UNL     1     105.500  26.187 196.945  1.00  0.00    -0.545 OA
ENDBRANCH   1   7
BRANCH   6  10
ATOM     10  O   UNL     1     102.336  22.410 201.187  1.00  0.00    -0.508 OA
ATOM     11  H   UNL     1     101.976  21.465 201.115  1.00  0.00     0.293 HD
ENDBRANCH   6  10
TORSDOF 2
ENDMDL
MODEL 6
REMARK VINA RESULT:    -4.933     13.659     14.980
REMARK INTER + INTRA:          -5.400
REMARK INTER:                  -5.372
REMARK INTRA:                  -0.028
REMARK UNBOUND:                -0.035
REMARK SMILES O=C([O-])c1ccc(O)cc1
REMARK SMILES IDX 4 1 5 2 10 3 6 4 9 5 7 6 2 7 1 8 3 9 8 10
REMARK H PARENT 8 11
REMARK Flexibility Score: inf
ROOT
ATOM      1  C   UNL     1      99.535  32.086 187.627  1.00  0.00    -0.003 A 
ATOM      2  C   UNL     1     100.908  31.823 187.472  1.00  0.00     0.014 A 
ATOM      3  C   UNL     1      98.889  31.667 188.804  1.00  0.00     0.014 A 
ATOM      4  C   UNL     1     101.618  31.156 188.475  1.00  0.00     0.047 A 
ATOM      5  C   UNL     1      99.602  30.999 189.805  1.00  0.00     0.047 A 
ATOM      6  C   UNL     1     100.966  30.741 189.644  1.00  0.00     0.115 A 
ENDROOT
BRANCH   1   7
ATOM      7  C   UNL     1      98.778  32.793 186.570  1.00  0.00     0.071 C 
ATOM      8  O   UNL     1      97.854  32.208 185.944  1.00  0.00    -0.545 OA
ATOM      9  O   UNL     1      99.076  34.113 186.253  1.00  0.00    -0.545 OA
ENDBRANCH   1   7
BRANCH   6  10
ATOM     10  O   UNL     1     101.665  30.076 190.649  1.00  0.00    -0.508 OA
ATOM     11  H   UNL     1     102.130  29.193 190.475  1.00  0.00     0.293 HD
ENDBRANCH   6  10
TORSDOF 2
ENDMDL
MODEL 7
REMARK VINA RESULT:    -4.892      4.910      5.983
REMARK INTER + INTRA:          -5.355
REMARK INTER:                  -5.319
REMARK INTRA:                  -0.036
REMARK UNBOUND:                -0.035
REMARK SMILES O=C([O-])c1ccc(O)cc1
REMARK SMILES IDX 4 1 5 2 10 3 6 4 9 5 7 6 2 7 1 8 3 9 8 10
REMARK H PARENT 8 11
REMARK Flexibility Score: inf
ROOT
ATOM      1  C   UNL     1     105.594  21.565 194.186  1.00  0.00    -0.003 A 
ATOM      2  C   UNL     1     104.773  22.040 193.146  1.00  0.00     0.014 A 
ATOM      3  C   UNL     1     105.132  21.646 195.511  1.00  0.00     0.014 A 
ATOM      4  C   UNL     1     103.516  22.582 193.429  1.00  0.00     0.047 A 
ATOM      5  C   UNL     1     103.874  22.190 195.791  1.00  0.00     0.047 A 
ATOM      6  C   UNL     1     103.063  22.659 194.753  1.00  0.00     0.115 A 
ENDROOT
BRANCH   1   7
ATOM      7  C   UNL     1     106.926  20.990 193.893  1.00  0.00     0.071 C 
ATOM      8  O   UNL     1     107.644  20.532 194.820  1.00  0.00    -0.545 OA
ATOM      9  O   UNL     1     107.402  20.947 192.587  1.00  0.00    -0.545 OA
ENDBRANCH   1   7
BRANCH   6  10
ATOM     10  O   UNL     1     101.812  23.197 195.046  1.00  0.00    -0.508 OA
ATOM     11  H   UNL     1     101.389  23.905 194.458  1.00  0.00     0.293 HD
ENDBRANCH   6  10
TORSDOF 2
ENDMDL
MODEL 8
REMARK VINA RESULT:    -4.844      0.971      4.135
REMARK INTER + INTRA:          -5.303
REMARK INTER:                  -5.274
REMARK INTRA:                  -0.030
REMARK UNBOUND:                -0.035
REMARK SMILES O=C([O-])c1ccc(O)cc1
REMARK SMILES IDX 4 1 5 2 10 3 6 4 9 5 7 6 2 7 1 8 3 9 8 10
REMARK H PARENT 8 11
REMARK Flexibility Score: inf
ROOT
ATOM      1  C   UNL     1     101.947  23.522 199.294  1.00  0.00    -0.003 A 
ATOM      2  C   UNL     1     102.710  23.162 200.421  1.00  0.00     0.014 A 
ATOM      3  C   UNL     1     102.610  23.853 198.099  1.00  0.00     0.014 A 
ATOM      4  C   UNL     1     104.105  23.134 200.350  1.00  0.00     0.047 A 
ATOM      5  C   UNL     1     104.007  23.824 198.032  1.00  0.00     0.047 A 
ATOM      6  C   UNL     1     104.758  23.465 199.155  1.00  0.00     0.115 A 
ENDROOT
BRANCH   1   7
ATOM      7  C   UNL     1     100.469  23.553 199.362  1.00  0.00     0.071 C 
ATOM      8  O   UNL     1      99.883  24.244 200.237  1.00  0.00    -0.545 OA
ATOM      9  O   UNL     1      99.706  22.820 198.460  1.00  0.00    -0.545 OA
ENDBRANCH   1   7
BRANCH   6  10
ATOM     10  O   UNL     1     106.148  23.440 199.074  1.00  0.00    -0.508 OA
ATOM     11  H   UNL     1     106.637  22.702 198.581  1.00  0.00     0.293 HD
ENDBRANCH   6  10
TORSDOF 2
ENDMDL
MODEL 9
REMARK VINA RESULT:    -4.824      0.977      4.518
REMARK INTER + INTRA:          -5.282
REMARK INTER:                  -5.252
REMARK INTRA:                  -0.030
REMARK UNBOUND:                -0.035
REMARK SMILES O=C([O-])c1ccc(O)cc1
REMARK SMILES IDX 4 1 5 2 10 3 6 4 9 5 7 6 2 7 1 8 3 9 8 10
REMARK H PARENT 8 11
REMARK Flexibility Score: inf
ROOT
ATOM      1  C   UNL     1     101.918  23.570 199.244  1.00  0.00    -0.003 A 
ATOM      2  C   UNL     1     102.576  23.988 198.072  1.00  0.00     0.014 A 
ATOM      3  C   UNL     1     102.686  23.150 200.344  1.00  0.00     0.014 A 
ATOM      4  C   UNL     1     103.972  23.986 198.006  1.00  0.00     0.047 A 
ATOM      5  C   UNL     1     104.083  23.148 200.274  1.00  0.00     0.047 A 
ATOM      6  C   UNL     1     104.730  23.565 199.107  1.00  0.00     0.115 A 
ENDROOT
BRANCH   1   7
ATOM      7  C   UNL     1     100.440  23.571 199.321  1.00  0.00     0.071 C 
ATOM      8  O   UNL     1      99.754  22.949 198.467  1.00  0.00    -0.545 OA
ATOM      9  O   UNL     1      99.788  24.259 200.338  1.00  0.00    -0.545 OA
ENDBRANCH   1   7
BRANCH   6  10
ATOM     10  O   UNL     1     106.122  23.559 199.051  1.00  0.00    -0.508 OA
ATOM     11  H   UNL     1     106.680  23.163 199.798  1.00  0.00     0.293 HD
ENDBRANCH   6  10
TORSDOF 2
ENDMDL
