MODEL 1
REMARK VINA RESULT:    -3.216      0.000      0.000
REMARK INTER + INTRA:          -3.888
REMARK INTER:                  -3.781
REMARK INTRA:                  -0.108
REMARK UNBOUND:                -0.108
REMARK SMILES CCCCC(=O)[O-]
REMARK SMILES IDX 4 1 5 2 6 3 7 4 3 5 2 6 1 7
REMARK H PARENT
REMARK Flexibility Score: inf
ROOT
ATOM      1  C   UNL     1     -18.790  44.244  -5.701  1.00  0.00     0.053 C 
ENDROOT
BRANCH   1   2
ATOM      2  C   UNL     1     -17.390  44.045  -6.188  1.00  0.00     0.041 C 
ATOM      3  O   UNL     1     -17.105  43.051  -6.908  1.00  0.00    -0.550 OA
ATOM      4  O   UNL     1     -16.409  44.982  -5.887  1.00  0.00    -0.550 OA
ENDBRANCH   1   2
BRANCH   1   5
ATOM      5  C   UNL     1     -19.229  45.697  -5.912  1.00  0.00     0.006 C 
BRANCH   5   6
ATOM      6  C   UNL     1     -19.754  45.910  -7.337  1.00  0.00    -0.003 C 
ATOM      7  C   UNL     1     -20.760  44.828  -7.719  1.00  0.00     0.004 C 
ENDBRANCH   5   6
ENDBRANCH   1   5
TORSDOF 3
ENDMDL
MODEL 2
REMARK VINA RESULT:    -3.212      0.084      1.227
REMARK INTER + INTRA:          -3.883
REMARK INTER:                  -3.780
REMARK INTRA:                  -0.103
REMARK UNBOUND:                -0.108
REMARK SMILES CCCCC(=O)[O-]
REMARK SMILES IDX 4 1 5 2 6 3 7 4 3 5 2 6 1 7
REMARK H PARENT
REMARK Flexibility Score: inf
ROOT
ATOM      1  C   UNL     1     -18.757  44.238  -5.673  1.00  0.00     0.053 C 
ENDROOT
BRANCH   1   2
ATOM      2  C   UNL     1     -17.366  44.036  -6.183  1.00  0.00     0.041 C 
ATOM      3  O   UNL     1     -16.456  44.854  -5.883  1.00  0.00    -0.550 OA
ATOM      4  O   UNL     1     -17.061  42.918  -6.950  1.00  0.00    -0.550 OA
ENDBRANCH   1   2
BRANCH   1   5
ATOM      5  C   UNL     1     -19.206  45.686  -5.901  1.00  0.00     0.006 C 
BRANCH   5   6
ATOM      6  C   UNL     1     -19.691  45.889  -7.341  1.00  0.00    -0.003 C 
ATOM      7  C   UNL     1     -20.723  44.833  -7.727  1.00  0.00     0.004 C 
ENDBRANCH   5   6
ENDBRANCH   1   5
TORSDOF 3
ENDMDL
MODEL 3
REMARK VINA RESULT:    -3.160      2.257      3.367
REMARK INTER + INTRA:          -3.821
REMARK INTER:                  -3.707
REMARK INTRA:                  -0.115
REMARK UNBOUND:                -0.108
REMARK SMILES CCCCC(=O)[O-]
REMARK SMILES IDX 4 1 5 2 6 3 7 4 3 5 2 6 1 7
REMARK H PARENT
REMARK Flexibility Score: inf
ROOT
ATOM      1  C   UNL     1     -20.847  44.968  -7.912  1.00  0.00     0.053 C 
ENDROOT
BRANCH   1   2
ATOM      2  C   UNL     1     -20.130  44.119  -8.914  1.00  0.00     0.041 C 
ATOM      3  O   UNL     1     -20.597  42.996  -9.243  1.00  0.00    -0.550 OA
ATOM      4  O   UNL     1     -18.972  44.588  -9.521  1.00  0.00    -0.550 OA
ENDBRANCH   1   2
BRANCH   1   5
ATOM      5  C   UNL     1     -19.860  45.531  -6.883  1.00  0.00     0.006 C 
BRANCH   5   6
ATOM      6  C   UNL     1     -19.625  44.532  -5.745  1.00  0.00    -0.003 C 
ATOM      7  C   UNL     1     -18.168  44.081  -5.702  1.00  0.00     0.004 C 
ENDBRANCH   5   6
ENDBRANCH   1   5
TORSDOF 3
ENDMDL
MODEL 4
REMARK VINA RESULT:    -3.157      2.474      3.347
REMARK INTER + INTRA:          -3.819
REMARK INTER:                  -3.736
REMARK INTRA:                  -0.083
REMARK UNBOUND:                -0.108
REMARK SMILES CCCCC(=O)[O-]
REMARK SMILES IDX 4 1 5 2 6 3 7 4 3 5 2 6 1 7
REMARK H PARENT
REMARK Flexibility Score: inf
ROOT
ATOM      1  C   UNL     1     -18.703  45.215  -5.861  1.00  0.00     0.053 C 
ENDROOT
BRANCH   1   2
ATOM      2  C   UNL     1     -20.049  44.581  -6.017  1.00  0.00     0.041 C 
ATOM      3  O   UNL     1     -20.615  44.566  -7.143  1.00  0.00    -0.550 OA
ATOM      4  O   UNL     1     -20.657  43.963  -4.932  1.00  0.00    -0.550 OA
ENDBRANCH   1   2
BRANCH   1   5
ATOM      5  C   UNL     1     -17.607  44.145  -5.826  1.00  0.00     0.006 C 
BRANCH   5   6
ATOM      6  C   UNL     1     -16.866  44.075  -7.166  1.00  0.00    -0.003 C 
ATOM      7  C   UNL     1     -17.010  42.695  -7.802  1.00  0.00     0.004 C 
ENDBRANCH   5   6
ENDBRANCH   1   5
TORSDOF 3
ENDMDL
MODEL 5
REMARK VINA RESULT:    -3.137      2.328      3.229
REMARK INTER + INTRA:          -3.795
REMARK INTER:                  -3.706
REMARK INTRA:                  -0.089
REMARK UNBOUND:                -0.108
REMARK SMILES CCCCC(=O)[O-]
REMARK SMILES IDX 4 1 5 2 6 3 7 4 3 5 2 6 1 7
REMARK H PARENT
REMARK Flexibility Score: inf
ROOT
ATOM      1  C   UNL     1     -19.515  45.598  -6.733  1.00  0.00     0.053 C 
ENDROOT
BRANCH   1   2
ATOM      2  C   UNL     1     -18.787  46.887  -6.524  1.00  0.00     0.041 C 
ATOM      3  O   UNL     1     -18.273  47.491  -7.504  1.00  0.00    -0.550 OA
ATOM      4  O   UNL     1     -18.716  47.449  -5.256  1.00  0.00    -0.550 OA
ENDBRANCH   1   2
BRANCH   1   5
ATOM      5  C   UNL     1     -19.030  44.541  -5.734  1.00  0.00     0.006 C 
BRANCH   5   6
ATOM      6  C   UNL     1     -17.528  44.283  -5.896  1.00  0.00    -0.003 C 
ATOM      7  C   UNL     1     -17.258  43.296  -7.029  1.00  0.00     0.004 C 
ENDBRANCH   5   6
ENDBRANCH   1   5
TORSDOF 3
ENDMDL
MODEL 6
REMARK VINA RESULT:    -3.116      1.678      2.303
REMARK INTER + INTRA:          -3.770
REMARK INTER:                  -3.669
REMARK INTRA:                  -0.101
REMARK UNBOUND:                -0.108
REMARK SMILES CCCCC(=O)[O-]
REMARK SMILES IDX 4 1 5 2 6 3 7 4 3 5 2 6 1 7
REMARK H PARENT
REMARK Flexibility Score: inf
ROOT
ATOM      1  C   UNL     1     -20.286  44.521  -6.248  1.00  0.00     0.053 C 
ENDROOT
BRANCH   1   2
ATOM      2  C   UNL     1     -18.888  44.853  -5.833  1.00  0.00     0.041 C 
ATOM      3  O   UNL     1     -18.546  46.054  -5.662  1.00  0.00    -0.550 OA
ATOM      4  O   UNL     1     -17.974  43.837  -5.586  1.00  0.00    -0.550 OA
ENDBRANCH   1   2
BRANCH   1   5
ATOM      5  C   UNL     1     -20.566  45.050  -7.658  1.00  0.00     0.006 C 
BRANCH   5   6
ATOM      6  C   UNL     1     -19.671  44.358  -8.692  1.00  0.00    -0.003 C 
ATOM      7  C   UNL     1     -20.370  43.146  -9.301  1.00  0.00     0.004 C 
ENDBRANCH   5   6
ENDBRANCH   1   5
TORSDOF 3
ENDMDL
MODEL 7
REMARK VINA RESULT:    -3.105      0.917      1.513
REMARK INTER + INTRA:          -3.757
REMARK INTER:                  -3.683
REMARK INTRA:                  -0.074
REMARK UNBOUND:                -0.108
REMARK SMILES CCCCC(=O)[O-]
REMARK SMILES IDX 4 1 5 2 6 3 7 4 3 5 2 6 1 7
REMARK H PARENT
REMARK Flexibility Score: inf
ROOT
ATOM      1  C   UNL     1     -18.382  44.264  -5.695  1.00  0.00     0.053 C 
ENDROOT
BRANCH   1   2
ATOM      2  C   UNL     1     -17.206  43.914  -6.551  1.00  0.00     0.041 C 
ATOM      3  O   UNL     1     -17.133  42.779  -7.093  1.00  0.00    -0.550 OA
ATOM      4  O   UNL     1     -16.214  44.856  -6.790  1.00  0.00    -0.550 OA
ENDBRANCH   1   2
BRANCH   1   5
ATOM      5  C   UNL     1     -19.541  44.772  -6.560  1.00  0.00     0.006 C 
BRANCH   5   6
ATOM      6  C   UNL     1     -19.396  46.271  -6.847  1.00  0.00    -0.003 C 
ATOM      7  C   UNL     1     -18.831  47.009  -5.636  1.00  0.00     0.004 C 
ENDBRANCH   5   6
ENDBRANCH   1   5
TORSDOF 3
ENDMDL
MODEL 8
REMARK VINA RESULT:    -3.067      2.348      3.453
REMARK INTER + INTRA:          -3.713
REMARK INTER:                  -3.626
REMARK INTRA:                  -0.087
REMARK UNBOUND:                -0.108
REMARK SMILES CCCCC(=O)[O-]
REMARK SMILES IDX 4 1 5 2 6 3 7 4 3 5 2 6 1 7
REMARK H PARENT
REMARK Flexibility Score: inf
ROOT
ATOM      1  C   UNL     1     -19.290  45.701  -6.373  1.00  0.00     0.053 C 
ENDROOT
BRANCH   1   2
ATOM      2  C   UNL     1     -19.809  45.557  -7.768  1.00  0.00     0.041 C 
ATOM      3  O   UNL     1     -19.040  45.728  -8.752  1.00  0.00    -0.550 OA
ATOM      4  O   UNL     1     -21.130  45.186  -7.985  1.00  0.00    -0.550 OA
ENDBRANCH   1   2
BRANCH   1   5
ATOM      5  C   UNL     1     -18.949  44.328  -5.784  1.00  0.00     0.006 C 
BRANCH   5   6
ATOM      6  C   UNL     1     -17.448  44.039  -5.902  1.00  0.00    -0.003 C 
ATOM      7  C   UNL     1     -17.150  43.170  -7.120  1.00  0.00     0.004 C 
ENDBRANCH   5   6
ENDBRANCH   1   5
TORSDOF 3
ENDMDL
MODEL 9
REMARK VINA RESULT:    -3.047      2.067      2.801
REMARK INTER + INTRA:          -3.688
REMARK INTER:                  -3.605
REMARK INTRA:                  -0.083
REMARK UNBOUND:                -0.108
REMARK SMILES CCCCC(=O)[O-]
REMARK SMILES IDX 4 1 5 2 6 3 7 4 3 5 2 6 1 7
REMARK H PARENT
REMARK Flexibility Score: inf
ROOT
ATOM      1  C   UNL     1     -19.200  45.148  -7.145  1.00  0.00     0.053 C 
ENDROOT
BRANCH   1   2
ATOM      2  C   UNL     1     -19.146  44.357  -5.876  1.00  0.00     0.041 C 
ATOM      3  O   UNL     1     -18.045  43.913  -5.452  1.00  0.00    -0.550 OA
ATOM      4  O   UNL     1     -20.302  44.151  -5.135  1.00  0.00    -0.550 OA
ENDBRANCH   1   2
BRANCH   1   5
ATOM      5  C   UNL     1     -19.613  46.595  -6.857  1.00  0.00     0.006 C 
BRANCH   5   6
ATOM      6  C   UNL     1     -18.398  47.444  -6.463  1.00  0.00    -0.003 C 
ATOM      7  C   UNL     1     -18.390  47.729  -4.964  1.00  0.00     0.004 C 
ENDBRANCH   5   6
ENDBRANCH   1   5
TORSDOF 3
ENDMDL
