MODEL 1
REMARK VINA RESULT:    -4.353      0.000      0.000
REMARK INTER + INTRA:          -5.493
REMARK INTER:                  -5.244
REMARK INTRA:                  -0.249
REMARK UNBOUND:                -0.249
REMARK SMILES NC(=O)C[C@H]([NH3+])C(=O)[O-]
REMARK SMILES IDX 4 1 5 2 6 3 7 7 8 8 9 9 2 10 3 11 1 12
REMARK H PARENT 6 4 6 5 6 6 1 13 1 14
REMARK Flexibility Score: inf
ROOT
ATOM      1  C   UNL     1       1.745  -6.498   7.952  1.00  0.00     0.171 C 
ENDROOT
BRANCH   1   2
ATOM      2  C   UNL     1       2.930  -7.481   7.856  1.00  0.00     0.237 C 
BRANCH   2   3
ATOM      3  N   UNL     1       4.176  -6.760   7.572  1.00  0.00    -0.350 N 
ATOM      4  H   UNL     1       4.133  -5.786   7.951  1.00  0.00     0.345 HD
ATOM      5  H   UNL     1       4.337  -6.721   6.539  1.00  0.00     0.345 HD
ATOM      6  H   UNL     1       4.982  -7.261   8.010  1.00  0.00     0.345 HD
ENDBRANCH   2   3
BRANCH   2   7
ATOM      7  C   UNL     1       2.681  -8.527   6.799  1.00  0.00     0.100 C 
ATOM      8  O   UNL     1       2.402  -8.188   5.618  1.00  0.00    -0.544 OA
ATOM      9  O   UNL     1       2.745  -9.876   7.128  1.00  0.00    -0.544 OA
ENDBRANCH   2   7
ENDBRANCH   1   2
BRANCH   1  10
ATOM     10  C   UNL     1       2.063  -5.337   8.849  1.00  0.00     0.223 C 
ATOM     11  O   UNL     1       2.312  -4.208   8.348  1.00  0.00    -0.275 OA
ATOM     12  N   UNL     1       2.050  -5.495  10.268  1.00  0.00    -0.369 N 
ATOM     13  H   UNL     1       2.258  -4.683  10.890  1.00  0.00     0.159 HD
ATOM     14  H   UNL     1       1.829  -6.420  10.698  1.00  0.00     0.159 HD
ENDBRANCH   1  10
TORSDOF 4
ENDMDL
MODEL 2
REMARK VINA RESULT:    -4.345      4.109      6.048
REMARK INTER + INTRA:          -5.483
REMARK INTER:                  -5.220
REMARK INTRA:                  -0.263
REMARK UNBOUND:                -0.249
REMARK SMILES NC(=O)C[C@H]([NH3+])C(=O)[O-]
REMARK SMILES IDX 4 1 5 2 6 3 7 7 8 8 9 9 2 10 3 11 1 12
REMARK H PARENT 6 4 6 5 6 6 1 13 1 14
REMARK Flexibility Score: inf
ROOT
ATOM      1  C   UNL     1       1.779 -10.528   4.555  1.00  0.00     0.171 C 
ENDROOT
BRANCH   1   2
ATOM      2  C   UNL     1       2.455  -9.163   4.313  1.00  0.00     0.237 C 
BRANCH   2   3
ATOM      3  N   UNL     1       3.595  -9.308   3.400  1.00  0.00    -0.350 N 
ATOM      4  H   UNL     1       3.364  -9.970   2.623  1.00  0.00     0.345 HD
ATOM      5  H   UNL     1       4.426  -9.668   3.923  1.00  0.00     0.345 HD
ATOM      6  H   UNL     1       3.842  -8.377   2.993  1.00  0.00     0.345 HD
ENDBRANCH   2   3
BRANCH   2   7
ATOM      7  C   UNL     1       2.903  -8.543   5.612  1.00  0.00     0.100 C 
ATOM      8  O   UNL     1       2.070  -7.986   6.375  1.00  0.00    -0.544 OA
ATOM      9  O   UNL     1       4.247  -8.573   5.968  1.00  0.00    -0.544 OA
ENDBRANCH   2   7
ENDBRANCH   1   2
BRANCH   1  10
ATOM     10  C   UNL     1       1.674 -11.326   3.287  1.00  0.00     0.223 C 
ATOM     11  O   UNL     1       2.661 -11.997   2.885  1.00  0.00    -0.275 OA
ATOM     12  N   UNL     1       0.450 -11.356   2.552  1.00  0.00    -0.369 N 
ATOM     13  H   UNL     1       0.375 -11.922   1.677  1.00  0.00     0.159 HD
ATOM     14  H   UNL     1      -0.381 -10.818   2.881  1.00  0.00     0.159 HD
ENDBRANCH   1  10
TORSDOF 4
ENDMDL
MODEL 3
REMARK VINA RESULT:    -4.328      1.258      4.293
REMARK INTER + INTRA:          -5.463
REMARK INTER:                  -5.343
REMARK INTRA:                  -0.120
REMARK UNBOUND:                -0.249
REMARK SMILES NC(=O)C[C@H]([NH3+])C(=O)[O-]
REMARK SMILES IDX 4 1 5 2 6 3 7 7 8 8 9 9 2 10 3 11 1 12
REMARK H PARENT 6 4 6 5 6 6 1 13 1 14
REMARK Flexibility Score: inf
ROOT
ATOM      1  C   UNL     1       1.396  -6.274   8.299  1.00  0.00     0.171 C 
ENDROOT
BRANCH   1   2
ATOM      2  C   UNL     1       1.864  -5.706   9.655  1.00  0.00     0.237 C 
BRANCH   2   3
ATOM      3  N   UNL     1       0.809  -5.851  10.665  1.00  0.00    -0.350 N 
ATOM      4  H   UNL     1       0.706  -4.971  11.221  1.00  0.00     0.345 HD
ATOM      5  H   UNL     1       1.042  -6.641  11.310  1.00  0.00     0.345 HD
ATOM      6  H   UNL     1      -0.101  -6.067  10.197  1.00  0.00     0.345 HD
ENDBRANCH   2   3
BRANCH   2   7
ATOM      7  C   UNL     1       2.267  -4.259   9.525  1.00  0.00     0.100 C 
ATOM      8  O   UNL     1       2.257  -3.691   8.401  1.00  0.00    -0.544 OA
ATOM      9  O   UNL     1       2.665  -3.546  10.650  1.00  0.00    -0.544 OA
ENDBRANCH   2   7
ENDBRANCH   1   2
BRANCH   1  10
ATOM     10  C   UNL     1       2.436  -7.166   7.685  1.00  0.00     0.223 C 
ATOM     11  O   UNL     1       2.238  -7.668   6.547  1.00  0.00    -0.275 OA
ATOM     12  N   UNL     1       3.664  -7.421   8.368  1.00  0.00    -0.369 N 
ATOM     13  H   UNL     1       4.391  -8.031   7.933  1.00  0.00     0.159 HD
ATOM     14  H   UNL     1       3.849  -6.999   9.304  1.00  0.00     0.159 HD
ENDBRANCH   1  10
TORSDOF 4
ENDMDL
MODEL 4
REMARK VINA RESULT:    -4.258      1.862      4.111
REMARK INTER + INTRA:          -5.379
REMARK INTER:                  -5.154
REMARK INTRA:                  -0.225
REMARK UNBOUND:                -0.249
REMARK SMILES NC(=O)C[C@H]([NH3+])C(=O)[O-]
REMARK SMILES IDX 4 1 5 2 6 3 7 7 8 8 9 9 2 10 3 11 1 12
REMARK H PARENT 6 4 6 5 6 6 1 13 1 14
REMARK Flexibility Score: inf
ROOT
ATOM      1  C   UNL     1       2.375  -8.060   7.166  1.00  0.00     0.171 C 
ENDROOT
BRANCH   1   2
ATOM      2  C   UNL     1       2.957  -6.759   7.756  1.00  0.00     0.237 C 
BRANCH   2   3
ATOM      3  N   UNL     1       3.907  -7.062   8.832  1.00  0.00    -0.350 N 
ATOM      4  H   UNL     1       3.601  -6.622   9.731  1.00  0.00     0.345 HD
ATOM      5  H   UNL     1       4.857  -6.703   8.579  1.00  0.00     0.345 HD
ATOM      6  H   UNL     1       3.973  -8.097   8.964  1.00  0.00     0.345 HD
ENDBRANCH   2   3
BRANCH   2   7
ATOM      7  C   UNL     1       1.861  -5.859   8.266  1.00  0.00     0.100 C 
ATOM      8  O   UNL     1       0.767  -6.344   8.662  1.00  0.00    -0.544 OA
ATOM      9  O   UNL     1       2.048  -4.481   8.290  1.00  0.00    -0.544 OA
ENDBRANCH   2   7
ENDBRANCH   1   2
BRANCH   1  10
ATOM     10  C   UNL     1       3.135  -8.503   5.949  1.00  0.00     0.223 C 
ATOM     11  O   UNL     1       4.395  -8.469   5.950  1.00  0.00    -0.275 OA
ATOM     12  N   UNL     1       2.441  -8.997   4.804  1.00  0.00    -0.369 N 
ATOM     13  H   UNL     1       2.971  -9.317   3.963  1.00  0.00     0.159 HD
ATOM     14  H   UNL     1       1.398  -9.046   4.794  1.00  0.00     0.159 HD
ENDBRANCH   1  10
TORSDOF 4
ENDMDL
MODEL 5
REMARK VINA RESULT:    -4.193      4.409      5.798
REMARK INTER + INTRA:          -5.300
REMARK INTER:                  -5.024
REMARK INTRA:                  -0.276
REMARK UNBOUND:                -0.249
REMARK SMILES NC(=O)C[C@H]([NH3+])C(=O)[O-]
REMARK SMILES IDX 4 1 5 2 6 3 7 7 8 8 9 9 2 10 3 11 1 12
REMARK H PARENT 6 4 6 5 6 6 1 13 1 14
REMARK Flexibility Score: inf
ROOT
ATOM      1  C   UNL     1       2.453  -1.404   8.248  1.00  0.00     0.171 C 
ENDROOT
BRANCH   1   2
ATOM      2  C   UNL     1       2.040  -2.117   9.552  1.00  0.00     0.237 C 
BRANCH   2   3
ATOM      3  N   UNL     1       2.757  -1.546  10.699  1.00  0.00    -0.350 N 
ATOM      4  H   UNL     1       2.142  -1.522  11.545  1.00  0.00     0.345 HD
ATOM      5  H   UNL     1       3.071  -0.573  10.473  1.00  0.00     0.345 HD
ATOM      6  H   UNL     1       3.604  -2.122  10.908  1.00  0.00     0.345 HD
ENDBRANCH   2   3
BRANCH   2   7
ATOM      7  C   UNL     1       2.296  -3.599   9.464  1.00  0.00     0.100 C 
ATOM      8  O   UNL     1       2.651  -4.249  10.483  1.00  0.00    -0.544 OA
ATOM      9  O   UNL     1       2.152  -4.257   8.248  1.00  0.00    -0.544 OA
ENDBRANCH   2   7
ENDBRANCH   1   2
BRANCH   1  10
ATOM     10  C   UNL     1       2.317   0.086   8.365  1.00  0.00     0.223 C 
ATOM     11  O   UNL     1       3.288   0.773   8.780  1.00  0.00    -0.275 OA
ATOM     12  N   UNL     1       1.106   0.735   7.976  1.00  0.00    -0.369 N 
ATOM     13  H   UNL     1       1.018   1.773   8.046  1.00  0.00     0.159 HD
ATOM     14  H   UNL     1       0.299   0.180   7.615  1.00  0.00     0.159 HD
ENDBRANCH   1  10
TORSDOF 4
ENDMDL
MODEL 6
REMARK VINA RESULT:    -4.108      2.020      2.586
REMARK INTER + INTRA:          -5.198
REMARK INTER:                  -5.074
REMARK INTRA:                  -0.124
REMARK UNBOUND:                -0.249
REMARK SMILES NC(=O)C[C@H]([NH3+])C(=O)[O-]
REMARK SMILES IDX 4 1 5 2 6 3 7 7 8 8 9 9 2 10 3 11 1 12
REMARK H PARENT 6 4 6 5 6 6 1 13 1 14
REMARK Flexibility Score: inf
ROOT
ATOM      1  C   UNL     1       2.326  -5.040   9.666  1.00  0.00     0.171 C 
ENDROOT
BRANCH   1   2
ATOM      2  C   UNL     1       1.642  -5.727   8.466  1.00  0.00     0.237 C 
BRANCH   2   3
ATOM      3  N   UNL     1       0.457  -6.472   8.906  1.00  0.00    -0.350 N 
ATOM      4  H   UNL     1       0.719  -7.441   9.201  1.00  0.00     0.345 HD
ATOM      5  H   UNL     1      -0.239  -6.525   8.126  1.00  0.00     0.345 HD
ATOM      6  H   UNL     1       0.009  -5.979   9.712  1.00  0.00     0.345 HD
ENDBRANCH   2   3
BRANCH   2   7
ATOM      7  C   UNL     1       2.600  -6.644   7.750  1.00  0.00     0.100 C 
ATOM      8  O   UNL     1       3.834  -6.603   8.001  1.00  0.00    -0.544 OA
ATOM      9  O   UNL     1       2.124  -7.535   6.795  1.00  0.00    -0.544 OA
ENDBRANCH   2   7
ENDBRANCH   1   2
BRANCH   1  10
ATOM     10  C   UNL     1       2.439  -3.557   9.464  1.00  0.00     0.223 C 
ATOM     11  O   UNL     1       2.291  -3.068   8.312  1.00  0.00    -0.275 OA
ATOM     12  N   UNL     1       2.678  -2.693  10.575  1.00  0.00    -0.369 N 
ATOM     13  H   UNL     1       2.744  -1.660  10.434  1.00  0.00     0.159 HD
ATOM     14  H   UNL     1       2.787  -3.082  11.537  1.00  0.00     0.159 HD
ENDBRANCH   1  10
TORSDOF 4
ENDMDL
MODEL 7
REMARK VINA RESULT:    -4.103      6.846      8.183
REMARK INTER + INTRA:          -5.192
REMARK INTER:                  -5.087
REMARK INTRA:                  -0.105
REMARK UNBOUND:                -0.249
REMARK SMILES NC(=O)C[C@H]([NH3+])C(=O)[O-]
REMARK SMILES IDX 4 1 5 2 6 3 7 7 8 8 9 9 2 10 3 11 1 12
REMARK H PARENT 6 4 6 5 6 6 1 13 1 14
REMARK Flexibility Score: inf
ROOT
ATOM      1  C   UNL     1       0.284   1.032   9.229  1.00  0.00     0.171 C 
ENDROOT
BRANCH   1   2
ATOM      2  C   UNL     1       1.647   0.775   8.554  1.00  0.00     0.237 C 
BRANCH   2   3
ATOM      3  N   UNL     1       1.558   1.013   7.109  1.00  0.00    -0.350 N 
ATOM      4  H   UNL     1       2.262   0.436   6.595  1.00  0.00     0.345 HD
ATOM      5  H   UNL     1       1.726   2.026   6.904  1.00  0.00     0.345 HD
ATOM      6  H   UNL     1       0.600   0.766   6.768  1.00  0.00     0.345 HD
ENDBRANCH   2   3
BRANCH   2   7
ATOM      7  C   UNL     1       2.128  -0.627   8.823  1.00  0.00     0.100 C 
ATOM      8  O   UNL     1       2.259  -1.043  10.005  1.00  0.00    -0.544 OA
ATOM      9  O   UNL     1       2.444  -1.468   7.762  1.00  0.00    -0.544 OA
ENDBRANCH   2   7
ENDBRANCH   1   2
BRANCH   1  10
ATOM     10  C   UNL     1       0.350   2.186  10.187  1.00  0.00     0.223 C 
ATOM     11  O   UNL     1      -0.180   2.087  11.326  1.00  0.00    -0.275 OA
ATOM     12  N   UNL     1       1.040   3.384   9.829  1.00  0.00    -0.369 N 
ATOM     13  H   UNL     1       1.096   4.181  10.502  1.00  0.00     0.159 HD
ATOM     14  H   UNL     1       1.497   3.475   8.895  1.00  0.00     0.159 HD
ENDBRANCH   1  10
TORSDOF 4
ENDMDL
MODEL 8
REMARK VINA RESULT:    -3.888      2.347      3.119
REMARK INTER + INTRA:          -4.933
REMARK INTER:                  -4.689
REMARK INTRA:                  -0.244
REMARK UNBOUND:                -0.249
REMARK SMILES NC(=O)C[C@H]([NH3+])C(=O)[O-]
REMARK SMILES IDX 4 1 5 2 6 3 7 7 8 8 9 9 2 10 3 11 1 12
REMARK H PARENT 6 4 6 5 6 6 1 13 1 14
REMARK Flexibility Score: inf
ROOT
ATOM      1  C   UNL     1       3.517  -8.245   6.341  1.00  0.00     0.171 C 
ENDROOT
BRANCH   1   2
ATOM      2  C   UNL     1       2.348  -8.927   5.602  1.00  0.00     0.237 C 
BRANCH   2   3
ATOM      3  N   UNL     1       1.740  -9.963   6.446  1.00  0.00    -0.350 N 
ATOM      4  H   UNL     1       1.771  -9.684   7.454  1.00  0.00     0.345 HD
ATOM      5  H   UNL     1       2.252 -10.867   6.323  1.00  0.00     0.345 HD
ATOM      6  H   UNL     1       0.744 -10.109   6.163  1.00  0.00     0.345 HD
ENDBRANCH   2   3
BRANCH   2   7
ATOM      7  C   UNL     1       2.807  -9.523   4.296  1.00  0.00     0.100 C 
ATOM      8  O   UNL     1       2.145 -10.443   3.745  1.00  0.00    -0.544 OA
ATOM      9  O   UNL     1       3.975  -9.065   3.696  1.00  0.00    -0.544 OA
ENDBRANCH   2   7
ENDBRANCH   1   2
BRANCH   1  10
ATOM     10  C   UNL     1       3.028  -7.359   7.450  1.00  0.00     0.223 C 
ATOM     11  O   UNL     1       1.859  -6.891   7.410  1.00  0.00    -0.275 OA
ATOM     12  N   UNL     1       3.867  -7.073   8.569  1.00  0.00    -0.369 N 
ATOM     13  H   UNL     1       3.521  -6.467   9.346  1.00  0.00     0.159 HD
ATOM     14  H   UNL     1       4.832  -7.467   8.625  1.00  0.00     0.159 HD
ENDBRANCH   1  10
TORSDOF 4
ENDMDL
MODEL 9
REMARK VINA RESULT:    -3.815      3.093      4.262
REMARK INTER + INTRA:          -4.845
REMARK INTER:                  -4.596
REMARK INTRA:                  -0.249
REMARK UNBOUND:                -0.249
REMARK SMILES NC(=O)C[C@H]([NH3+])C(=O)[O-]
REMARK SMILES IDX 4 1 5 2 6 3 7 7 8 8 9 9 2 10 3 11 1 12
REMARK H PARENT 6 4 6 5 6 6 1 13 1 14
REMARK Flexibility Score: inf
ROOT
ATOM      1  C   UNL     1       2.634  -9.021   4.692  1.00  0.00     0.171 C 
ENDROOT
BRANCH   1   2
ATOM      2  C   UNL     1       1.695 -10.203   5.011  1.00  0.00     0.237 C 
BRANCH   2   3
ATOM      3  N   UNL     1       1.727 -10.512   6.445  1.00  0.00    -0.350 N 
ATOM      4  H   UNL     1       1.156  -9.820   6.985  1.00  0.00     0.345 HD
ATOM      5  H   UNL     1       2.714 -10.490   6.792  1.00  0.00     0.345 HD
ATOM      6  H   UNL     1       1.344 -11.471   6.608  1.00  0.00     0.345 HD
ENDBRANCH   2   3
BRANCH   2   7
ATOM      7  C   UNL     1       2.068 -11.422   4.207  1.00  0.00     0.100 C 
ATOM      8  O   UNL     1       2.062 -11.383   2.947  1.00  0.00    -0.544 OA
ATOM      9  O   UNL     1       2.408 -12.604   4.854  1.00  0.00    -0.544 OA
ENDBRANCH   2   7
ENDBRANCH   1   2
BRANCH   1  10
ATOM     10  C   UNL     1       3.027  -8.276   5.935  1.00  0.00     0.223 C 
ATOM     11  O   UNL     1       2.143  -7.716   6.636  1.00  0.00    -0.275 OA
ATOM     12  N   UNL     1       4.393  -8.228   6.347  1.00  0.00    -0.369 N 
ATOM     13  H   UNL     1       4.663  -7.720   7.219  1.00  0.00     0.159 HD
ATOM     14  H   UNL     1       5.135  -8.701   5.785  1.00  0.00     0.159 HD
ENDBRANCH   1  10
TORSDOF 4
ENDMDL
