MODEL 1
REMARK VINA RESULT:    -6.313      0.000      0.000
REMARK INTER + INTRA:          -6.313
REMARK INTER:                  -6.313
REMARK INTRA:                   0.000
REMARK UNBOUND:                 0.000
REMARK SMILES C=C1CCC[C@@]2(C)Cc3occ(C)c3C[C@@H]12
REMARK SMILES IDX 13 1 12 2 11 3 10 4 9 5 14 6 15 7 16 8 2 9 1 10 3 11 4 12
REMARK SMILES IDX 5 13 6 14 8 15 7 16
REMARK H PARENT
REMARK Flexibility Score: inf
ROOT
ATOM      1  C   UNL     1       7.811 -39.576  48.178  1.00  0.00     0.048 C 
ATOM      2  C   UNL     1       8.599 -39.360  46.928  1.00  0.00    -0.009 A 
ATOM      3  C   UNL     1       9.447 -40.265  46.307  1.00  0.00     0.198 A 
ATOM      4  O   UNL     1      10.030 -39.690  45.274  1.00  0.00    -0.469 OA
ATOM      5  C   UNL     1       9.609 -38.447  45.211  1.00  0.00     0.107 A 
ATOM      6  C   UNL     1       8.725 -38.192  46.209  1.00  0.00    -0.003 A 
ATOM      7  C   UNL     1       8.129 -36.845  46.400  1.00  0.00     0.048 C 
ATOM      8  C   UNL     1       9.238 -35.781  46.190  1.00  0.00     0.025 C 
ATOM      9  C   UNL     1      10.151 -35.723  47.428  1.00  0.00    -0.073 C 
ATOM     10  C   UNL     1       9.628 -35.347  48.609  1.00  0.00     0.008 C 
ATOM     11  C   UNL     1      11.649 -35.949  47.383  1.00  0.00     0.031 C 
ATOM     12  C   UNL     1      12.203 -36.265  45.998  1.00  0.00     0.005 C 
ATOM     13  C   UNL     1      11.466 -35.478  44.918  1.00  0.00     0.008 C 
ATOM     14  C   UNL     1       9.996 -35.950  44.789  1.00  0.00    -0.019 C 
ATOM     15  C   UNL     1       9.976 -37.420  44.195  1.00  0.00     0.083 C 
ATOM     16  C   UNL     1       9.314 -35.024  43.751  1.00  0.00     0.012 C 
ENDROOT
TORSDOF 0
ENDMDL
MODEL 2
REMARK VINA RESULT:    -6.167     13.844     16.223
REMARK INTER + INTRA:          -6.167
REMARK INTER:                  -6.167
REMARK INTRA:                   0.000
REMARK UNBOUND:                 0.000
REMARK SMILES C=C1CCC[C@@]2(C)Cc3occ(C)c3C[C@@H]12
REMARK SMILES IDX 13 1 12 2 11 3 10 4 9 5 14 6 15 7 16 8 2 9 1 10 3 11 4 12
REMARK SMILES IDX 5 13 6 14 8 15 7 16
REMARK H PARENT
REMARK Flexibility Score: inf
ROOT
ATOM      1  C   UNL     1       8.492 -46.823  33.600  1.00  0.00     0.048 C 
ATOM      2  C   UNL     1       7.300 -47.652  33.946  1.00  0.00    -0.009 A 
ATOM      3  C   UNL     1       5.981 -47.412  33.590  1.00  0.00     0.198 A 
ATOM      4  O   UNL     1       5.200 -48.315  34.147  1.00  0.00    -0.469 OA
ATOM      5  C   UNL     1       5.954 -49.118  34.863  1.00  0.00     0.107 A 
ATOM      6  C   UNL     1       7.258 -48.753  34.773  1.00  0.00    -0.003 A 
ATOM      7  C   UNL     1       8.323 -49.465  35.525  1.00  0.00     0.048 C 
ATOM      8  C   UNL     1       7.800 -49.764  36.955  1.00  0.00     0.025 C 
ATOM      9  C   UNL     1       7.839 -48.483  37.806  1.00  0.00    -0.073 C 
ATOM     10  C   UNL     1       9.027 -47.904  38.063  1.00  0.00     0.008 C 
ATOM     11  C   UNL     1       6.625 -47.885  38.488  1.00  0.00     0.031 C 
ATOM     12  C   UNL     1       5.325 -48.646  38.252  1.00  0.00     0.005 C 
ATOM     13  C   UNL     1       5.569 -50.151  38.200  1.00  0.00     0.008 C 
ATOM     14  C   UNL     1       6.397 -50.538  36.948  1.00  0.00    -0.019 C 
ATOM     15  C   UNL     1       5.514 -50.304  35.652  1.00  0.00     0.083 C 
ATOM     16  C   UNL     1       6.679 -52.058  37.046  1.00  0.00     0.012 C 
ENDROOT
TORSDOF 0
ENDMDL
MODEL 3
REMARK VINA RESULT:    -5.998      1.671      3.865
REMARK INTER + INTRA:          -5.998
REMARK INTER:                  -5.998
REMARK INTRA:                   0.000
REMARK UNBOUND:                 0.000
REMARK SMILES C=C1CCC[C@@]2(C)Cc3occ(C)c3C[C@@H]12
REMARK SMILES IDX 13 1 12 2 11 3 10 4 9 5 14 6 15 7 16 8 2 9 1 10 3 11 4 12
REMARK SMILES IDX 5 13 6 14 8 15 7 16
REMARK H PARENT
REMARK Flexibility Score: inf
ROOT
ATOM      1  C   UNL     1       6.855 -35.034  42.724  1.00  0.00     0.048 C 
ATOM      2  C   UNL     1       8.225 -35.600  42.906  1.00  0.00    -0.009 A 
ATOM      3  C   UNL     1       8.946 -36.355  41.993  1.00  0.00     0.198 A 
ATOM      4  O   UNL     1      10.081 -36.745  42.539  1.00  0.00    -0.469 OA
ATOM      5  C   UNL     1      10.116 -36.291  43.771  1.00  0.00     0.107 A 
ATOM      6  C   UNL     1       8.994 -35.578  44.048  1.00  0.00    -0.003 A 
ATOM      7  C   UNL     1       8.753 -34.990  45.391  1.00  0.00     0.048 C 
ATOM      8  C   UNL     1       9.181 -36.024  46.466  1.00  0.00     0.025 C 
ATOM      9  C   UNL     1       8.115 -37.127  46.586  1.00  0.00    -0.073 C 
ATOM     10  C   UNL     1       6.876 -36.798  46.998  1.00  0.00     0.008 C 
ATOM     11  C   UNL     1       8.399 -38.602  46.385  1.00  0.00     0.031 C 
ATOM     12  C   UNL     1       9.846 -38.927  46.026  1.00  0.00     0.005 C 
ATOM     13  C   UNL     1      10.815 -38.004  46.759  1.00  0.00     0.008 C 
ATOM     14  C   UNL     1      10.682 -36.544  46.257  1.00  0.00    -0.019 C 
ATOM     15  C   UNL     1      11.214 -36.461  44.765  1.00  0.00     0.083 C 
ATOM     16  C   UNL     1      11.623 -35.679  47.131  1.00  0.00     0.012 C 
ENDROOT
TORSDOF 0
ENDMDL
MODEL 4
REMARK VINA RESULT:    -5.941      1.939      3.632
REMARK INTER + INTRA:          -5.941
REMARK INTER:                  -5.941
REMARK INTRA:                   0.000
REMARK UNBOUND:                 0.000
REMARK SMILES C=C1CCC[C@@]2(C)Cc3occ(C)c3C[C@@H]12
REMARK SMILES IDX 13 1 12 2 11 3 10 4 9 5 14 6 15 7 16 8 2 9 1 10 3 11 4 12
REMARK SMILES IDX 5 13 6 14 8 15 7 16
REMARK H PARENT
REMARK Flexibility Score: inf
ROOT
ATOM      1  C   UNL     1       6.884 -38.520  48.634  1.00  0.00     0.048 C 
ATOM      2  C   UNL     1       7.659 -37.273  48.364  1.00  0.00    -0.009 A 
ATOM      3  C   UNL     1       7.168 -35.977  48.308  1.00  0.00     0.198 A 
ATOM      4  O   UNL     1       8.136 -35.150  47.964  1.00  0.00    -0.469 OA
ATOM      5  C   UNL     1       9.227 -35.857  47.779  1.00  0.00     0.107 A 
ATOM      6  C   UNL     1       8.987 -37.173  48.013  1.00  0.00    -0.003 A 
ATOM      7  C   UNL     1      10.041 -38.204  47.830  1.00  0.00     0.048 C 
ATOM      8  C   UNL     1      10.828 -37.879  46.532  1.00  0.00     0.025 C 
ATOM      9  C   UNL     1      10.000 -38.283  45.301  1.00  0.00    -0.073 C 
ATOM     10  C   UNL     1       9.690 -39.580  45.117  1.00  0.00     0.008 C 
ATOM     11  C   UNL     1       9.604 -37.322  44.198  1.00  0.00     0.031 C 
ATOM     12  C   UNL     1      10.075 -35.887  44.405  1.00  0.00     0.005 C 
ATOM     13  C   UNL     1      11.453 -35.850  45.060  1.00  0.00     0.008 C 
ATOM     14  C   UNL     1      11.393 -36.379  46.515  1.00  0.00    -0.019 C 
ATOM     15  C   UNL     1      10.578 -35.351  47.406  1.00  0.00     0.083 C 
ATOM     16  C   UNL     1      12.847 -36.400  47.048  1.00  0.00     0.012 C 
ENDROOT
TORSDOF 0
ENDMDL
MODEL 5
REMARK VINA RESULT:    -5.872      1.569      3.470
REMARK INTER + INTRA:          -5.872
REMARK INTER:                  -5.872
REMARK INTRA:                   0.000
REMARK UNBOUND:                 0.000
REMARK SMILES C=C1CCC[C@@]2(C)Cc3occ(C)c3C[C@@H]12
REMARK SMILES IDX 13 1 12 2 11 3 10 4 9 5 14 6 15 7 16 8 2 9 1 10 3 11 4 12
REMARK SMILES IDX 5 13 6 14 8 15 7 16
REMARK H PARENT
REMARK Flexibility Score: inf
ROOT
ATOM      1  C   UNL     1      10.070 -40.663  45.428  1.00  0.00     0.048 C 
ATOM      2  C   UNL     1       9.199 -39.918  46.385  1.00  0.00    -0.009 A 
ATOM      3  C   UNL     1       7.911 -40.252  46.778  1.00  0.00     0.198 A 
ATOM      4  O   UNL     1       7.433 -39.313  47.570  1.00  0.00    -0.469 OA
ATOM      5  C   UNL     1       8.348 -38.379  47.691  1.00  0.00     0.107 A 
ATOM      6  C   UNL     1       9.457 -38.703  46.979  1.00  0.00    -0.003 A 
ATOM      7  C   UNL     1      10.631 -37.795  46.904  1.00  0.00     0.048 C 
ATOM      8  C   UNL     1      10.118 -36.341  46.733  1.00  0.00     0.025 C 
ATOM      9  C   UNL     1       9.653 -36.115  45.284  1.00  0.00    -0.073 C 
ATOM     10  C   UNL     1      10.551 -36.209  44.286  1.00  0.00     0.008 C 
ATOM     11  C   UNL     1       8.255 -35.668  44.906  1.00  0.00     0.031 C 
ATOM     12  C   UNL     1       7.309 -35.472  46.086  1.00  0.00     0.005 C 
ATOM     13  C   UNL     1       8.047 -34.900  47.293  1.00  0.00     0.008 C 
ATOM     14  C   UNL     1       9.061 -35.924  47.863  1.00  0.00    -0.019 C 
ATOM     15  C   UNL     1       8.265 -37.134  48.508  1.00  0.00     0.083 C 
ATOM     16  C   UNL     1       9.826 -35.213  49.007  1.00  0.00     0.012 C 
ENDROOT
TORSDOF 0
ENDMDL
MODEL 6
REMARK VINA RESULT:    -5.747      1.789      4.028
REMARK INTER + INTRA:          -5.747
REMARK INTER:                  -5.747
REMARK INTRA:                   0.000
REMARK UNBOUND:                 0.000
REMARK SMILES C=C1CCC[C@@]2(C)Cc3occ(C)c3C[C@@H]12
REMARK SMILES IDX 13 1 12 2 11 3 10 4 9 5 14 6 15 7 16 8 2 9 1 10 3 11 4 12
REMARK SMILES IDX 5 13 6 14 8 15 7 16
REMARK H PARENT
REMARK Flexibility Score: inf
ROOT
ATOM      1  C   UNL     1      10.125 -36.333  42.683  1.00  0.00     0.048 C 
ATOM      2  C   UNL     1       9.052 -36.363  43.723  1.00  0.00    -0.009 A 
ATOM      3  C   UNL     1       7.900 -35.591  43.759  1.00  0.00     0.198 A 
ATOM      4  O   UNL     1       7.237 -35.838  44.871  1.00  0.00    -0.469 OA
ATOM      5  C   UNL     1       7.918 -36.723  45.563  1.00  0.00     0.107 A 
ATOM      6  C   UNL     1       9.048 -37.079  44.899  1.00  0.00    -0.003 A 
ATOM      7  C   UNL     1      10.028 -38.032  45.480  1.00  0.00     0.048 C 
ATOM      8  C   UNL     1      10.204 -37.701  46.986  1.00  0.00     0.025 C 
ATOM      9  C   UNL     1      11.086 -36.452  47.149  1.00  0.00    -0.073 C 
ATOM     10  C   UNL     1      12.363 -36.492  46.725  1.00  0.00     0.008 C 
ATOM     11  C   UNL     1      10.646 -35.197  47.875  1.00  0.00     0.031 C 
ATOM     12  C   UNL     1       9.226 -35.248  48.429  1.00  0.00     0.005 C 
ATOM     13  C   UNL     1       8.885 -36.644  48.940  1.00  0.00     0.008 C 
ATOM     14  C   UNL     1       8.809 -37.661  47.773  1.00  0.00    -0.019 C 
ATOM     15  C   UNL     1       7.547 -37.323  46.876  1.00  0.00     0.083 C 
ATOM     16  C   UNL     1       8.566 -39.054  48.404  1.00  0.00     0.012 C 
ENDROOT
TORSDOF 0
ENDMDL
MODEL 7
REMARK VINA RESULT:    -5.456     14.334     16.739
REMARK INTER + INTRA:          -5.456
REMARK INTER:                  -5.456
REMARK INTRA:                   0.000
REMARK UNBOUND:                 0.000
REMARK SMILES C=C1CCC[C@@]2(C)Cc3occ(C)c3C[C@@H]12
REMARK SMILES IDX 13 1 12 2 11 3 10 4 9 5 14 6 15 7 16 8 2 9 1 10 3 11 4 12
REMARK SMILES IDX 5 13 6 14 8 15 7 16
REMARK H PARENT
REMARK Flexibility Score: inf
ROOT
ATOM      1  C   UNL     1       8.761 -46.750  35.201  1.00  0.00     0.048 C 
ATOM      2  C   UNL     1       7.718 -47.674  34.665  1.00  0.00    -0.009 A 
ATOM      3  C   UNL     1       6.839 -47.429  33.620  1.00  0.00     0.198 A 
ATOM      4  O   UNL     1       6.011 -48.446  33.490  1.00  0.00    -0.469 OA
ATOM      5  C   UNL     1       6.305 -49.330  34.416  1.00  0.00     0.107 A 
ATOM      6  C   UNL     1       7.350 -48.902  35.169  1.00  0.00    -0.003 A 
ATOM      7  C   UNL     1       7.859 -49.691  36.320  1.00  0.00     0.048 C 
ATOM      8  C   UNL     1       6.645 -50.254  37.106  1.00  0.00     0.025 C 
ATOM      9  C   UNL     1       6.004 -49.140  37.951  1.00  0.00    -0.073 C 
ATOM     10  C   UNL     1       6.724 -48.567  38.933  1.00  0.00     0.008 C 
ATOM     11  C   UNL     1       4.553 -48.720  37.832  1.00  0.00     0.031 C 
ATOM     12  C   UNL     1       3.755 -49.480  36.778  1.00  0.00     0.005 C 
ATOM     13  C   UNL     1       4.186 -50.942  36.710  1.00  0.00     0.008 C 
ATOM     14  C   UNL     1       5.633 -51.071  36.170  1.00  0.00    -0.019 C 
ATOM     15  C   UNL     1       5.653 -50.652  34.641  1.00  0.00     0.083 C 
ATOM     16  C   UNL     1       6.008 -52.572  36.242  1.00  0.00     0.012 C 
ENDROOT
TORSDOF 0
ENDMDL
MODEL 8
REMARK VINA RESULT:    -5.436      1.801      3.955
REMARK INTER + INTRA:          -5.436
REMARK INTER:                  -5.436
REMARK INTRA:                   0.000
REMARK UNBOUND:                 0.000
REMARK SMILES C=C1CCC[C@@]2(C)Cc3occ(C)c3C[C@@H]12
REMARK SMILES IDX 13 1 12 2 11 3 10 4 9 5 14 6 15 7 16 8 2 9 1 10 3 11 4 12
REMARK SMILES IDX 5 13 6 14 8 15 7 16
REMARK H PARENT
REMARK Flexibility Score: inf
ROOT
ATOM      1  C   UNL     1      12.752 -36.110  46.807  1.00  0.00     0.048 C 
ATOM      2  C   UNL     1      11.515 -36.245  45.981  1.00  0.00    -0.009 A 
ATOM      3  C   UNL     1      11.233 -35.601  44.785  1.00  0.00     0.198 A 
ATOM      4  O   UNL     1      10.012 -35.907  44.394  1.00  0.00    -0.469 OA
ATOM      5  C   UNL     1       9.486 -36.707  45.294  1.00  0.00     0.107 A 
ATOM      6  C   UNL     1      10.372 -36.947  46.294  1.00  0.00    -0.003 A 
ATOM      7  C   UNL     1      10.017 -37.784  47.469  1.00  0.00     0.048 C 
ATOM      8  C   UNL     1       8.576 -37.422  47.914  1.00  0.00     0.025 C 
ATOM      9  C   UNL     1       8.581 -36.084  48.673  1.00  0.00    -0.073 C 
ATOM     10  C   UNL     1       9.258 -35.991  49.832  1.00  0.00     0.008 C 
ATOM     11  C   UNL     1       7.764 -34.876  48.260  1.00  0.00     0.031 C 
ATOM     12  C   UNL     1       6.930 -35.074  46.999  1.00  0.00     0.005 C 
ATOM     13  C   UNL     1       6.378 -36.494  46.921  1.00  0.00     0.008 C 
ATOM     14  C   UNL     1       7.518 -37.524  46.715  1.00  0.00    -0.019 C 
ATOM     15  C   UNL     1       8.133 -37.331  45.267  1.00  0.00     0.083 C 
ATOM     16  C   UNL     1       6.868 -38.929  46.757  1.00  0.00     0.012 C 
ENDROOT
TORSDOF 0
ENDMDL
MODEL 9
REMARK VINA RESULT:    -5.358     13.210     15.728
REMARK INTER + INTRA:          -5.358
REMARK INTER:                  -5.358
REMARK INTRA:                   0.000
REMARK UNBOUND:                 0.000
REMARK SMILES C=C1CCC[C@@]2(C)Cc3occ(C)c3C[C@@H]12
REMARK SMILES IDX 13 1 12 2 11 3 10 4 9 5 14 6 15 7 16 8 2 9 1 10 3 11 4 12
REMARK SMILES IDX 5 13 6 14 8 15 7 16
REMARK H PARENT
REMARK Flexibility Score: inf
ROOT
ATOM      1  C   UNL     1       8.344 -45.895  38.148  1.00  0.00     0.048 C 
ATOM      2  C   UNL     1       8.187 -46.943  37.095  1.00  0.00    -0.009 A 
ATOM      3  C   UNL     1       8.265 -46.768  35.722  1.00  0.00     0.198 A 
ATOM      4  O   UNL     1       7.991 -47.905  35.114  1.00  0.00    -0.469 OA
ATOM      5  C   UNL     1       7.722 -48.803  36.034  1.00  0.00     0.107 A 
ATOM      6  C   UNL     1       7.828 -48.261  37.274  1.00  0.00    -0.003 A 
ATOM      7  C   UNL     1       7.529 -49.046  38.499  1.00  0.00     0.048 C 
ATOM      8  C   UNL     1       6.259 -49.899  38.239  1.00  0.00     0.025 C 
ATOM      9  C   UNL     1       5.005 -49.011  38.315  1.00  0.00    -0.073 C 
ATOM     10  C   UNL     1       4.699 -48.408  39.479  1.00  0.00     0.008 C 
ATOM     11  C   UNL     1       4.008 -48.860  37.184  1.00  0.00     0.031 C 
ATOM     12  C   UNL     1       4.349 -49.651  35.926  1.00  0.00     0.005 C 
ATOM     13  C   UNL     1       4.984 -50.994  36.276  1.00  0.00     0.008 C 
ATOM     14  C   UNL     1       6.381 -50.798  36.919  1.00  0.00    -0.019 C 
ATOM     15  C   UNL     1       7.380 -50.239  35.823  1.00  0.00     0.083 C 
ATOM     16  C   UNL     1       6.888 -52.202  37.331  1.00  0.00     0.012 C 
ENDROOT
TORSDOF 0
ENDMDL
