MODEL 1
REMARK VINA RESULT:    -4.874      0.000      0.000
REMARK INTER + INTRA:          -5.672
REMARK INTER:                  -5.301
REMARK INTRA:                  -0.371
REMARK UNBOUND:                -0.371
REMARK SMILES C=C1C[C@@]2(O)O[C@@]3(C[C@H]2C(C)C)[C@@H](C)CC[C@@H]13
REMARK SMILES IDX 14 1 13 2 15 3 16 4 17 5 7 6 8 7 9 8 4 9 6 10 3 11 2 12 1 13
REMARK SMILES IDX 10 14 11 15 12 16 5 17
REMARK H PARENT 5 18
REMARK Flexibility Score: inf
ROOT
ATOM      1  C   UNL     1      42.178   8.001 192.467  1.00  0.00     0.011 C 
ATOM      2  C   UNL     1      41.771   9.264 191.692  1.00  0.00     0.019 C 
ATOM      3  C   UNL     1      42.927  10.266 191.561  1.00  0.00     0.007 C 
ATOM      4  C   UNL     1      42.856  10.852 190.148  1.00  0.00     0.011 C 
ATOM      5  C   UNL     1      41.568  10.319 189.520  1.00  0.00     0.047 C 
ATOM      6  C   UNL     1      41.301   8.991 190.256  1.00  0.00     0.081 C 
ATOM      7  C   UNL     1      39.834   8.561 190.147  1.00  0.00     0.046 C 
ATOM      8  C   UNL     1      39.851   7.648 188.927  1.00  0.00     0.054 C 
ATOM      9  C   UNL     1      41.339   7.662 188.477  1.00  0.00     0.173 C 
ATOM     10  O   UNL     1      42.062   7.965 189.649  1.00  0.00    -0.342 OA
ATOM     11  C   UNL     1      41.731   8.729 187.425  1.00  0.00     0.096 C 
ATOM     12  C   UNL     1      41.687  10.125 188.015  1.00  0.00    -0.066 C 
ATOM     13  C   UNL     1      41.779  11.190 187.206  1.00  0.00     0.008 C 
ENDROOT
BRANCH   8  14
ATOM     14  C   UNL     1      38.691   7.879 187.904  1.00  0.00    -0.009 C 
ATOM     15  C   UNL     1      37.831   6.654 187.525  1.00  0.00     0.008 C 
ATOM     16  C   UNL     1      37.802   9.059 188.320  1.00  0.00     0.008 C 
ENDBRANCH   8  14
BRANCH   9  17
ATOM     17  O   UNL     1      41.695   6.384 188.009  1.00  0.00    -0.365 OA
ATOM     18  H   UNL     1      41.265   5.717 188.605  1.00  0.00     0.214 HD
ENDBRANCH   9  17
TORSDOF 2
ENDMDL
MODEL 2
REMARK VINA RESULT:    -4.680      1.709      4.729
REMARK INTER + INTRA:          -5.461
REMARK INTER:                  -5.068
REMARK INTRA:                  -0.393
REMARK UNBOUND:                -0.371
REMARK SMILES C=C1C[C@@]2(O)O[C@@]3(C[C@H]2C(C)C)[C@@H](C)CC[C@@H]13
REMARK SMILES IDX 14 1 13 2 15 3 16 4 17 5 7 6 8 7 9 8 4 9 6 10 3 11 2 12 1 13
REMARK SMILES IDX 10 14 11 15 12 16 5 17
REMARK H PARENT 5 18
REMARK Flexibility Score: inf
ROOT
ATOM      1  C   UNL     1      36.666   9.517 189.008  1.00  0.00     0.011 C 
ATOM      2  C   UNL     1      37.527   8.245 189.057  1.00  0.00     0.019 C 
ATOM      3  C   UNL     1      37.097   7.209 188.007  1.00  0.00     0.007 C 
ATOM      4  C   UNL     1      38.376   6.587 187.440  1.00  0.00     0.011 C 
ATOM      5  C   UNL     1      39.534   7.138 188.272  1.00  0.00     0.047 C 
ATOM      6  C   UNL     1      39.020   8.492 188.800  1.00  0.00     0.081 C 
ATOM      7  C   UNL     1      39.800   8.958 190.035  1.00  0.00     0.046 C 
ATOM      8  C   UNL     1      40.885   9.837 189.423  1.00  0.00     0.054 C 
ATOM      9  C   UNL     1      40.596   9.771 187.898  1.00  0.00     0.173 C 
ATOM     10  O   UNL     1      39.219   9.480 187.809  1.00  0.00    -0.342 OA
ATOM     11  C   UNL     1      41.335   8.666 187.103  1.00  0.00     0.096 C 
ATOM     12  C   UNL     1      40.817   7.288 187.465  1.00  0.00    -0.066 C 
ATOM     13  C   UNL     1      41.480   6.199 187.049  1.00  0.00     0.008 C 
ENDROOT
BRANCH   8  14
ATOM     14  C   UNL     1      42.325   9.610 189.988  1.00  0.00    -0.009 C 
ATOM     15  C   UNL     1      42.916  10.722 190.882  1.00  0.00     0.008 C 
ATOM     16  C   UNL     1      42.452   8.240 190.670  1.00  0.00     0.008 C 
ENDBRANCH   8  14
BRANCH   9  17
ATOM     17  O   UNL     1      40.861  11.026 187.320  1.00  0.00    -0.365 OA
ATOM     18  H   UNL     1      41.292  11.589 188.014  1.00  0.00     0.214 HD
ENDBRANCH   9  17
TORSDOF 2
ENDMDL
MODEL 3
REMARK VINA RESULT:    -4.665      3.471      7.011
REMARK INTER + INTRA:          -5.445
REMARK INTER:                  -5.064
REMARK INTRA:                  -0.381
REMARK UNBOUND:                -0.371
REMARK SMILES C=C1C[C@@]2(O)O[C@@]3(C[C@H]2C(C)C)[C@@H](C)CC[C@@H]13
REMARK SMILES IDX 14 1 13 2 15 3 16 4 17 5 7 6 8 7 9 8 4 9 6 10 3 11 2 12 1 13
REMARK SMILES IDX 10 14 11 15 12 16 5 17
REMARK H PARENT 5 18
REMARK Flexibility Score: inf
ROOT
ATOM      1  C   UNL     1      38.557   2.075 184.776  1.00  0.00     0.011 C 
ATOM      2  C   UNL     1      37.670   2.938 185.684  1.00  0.00     0.019 C 
ATOM      3  C   UNL     1      36.622   2.106 186.439  1.00  0.00     0.007 C 
ATOM      4  C   UNL     1      36.531   2.678 187.857  1.00  0.00     0.011 C 
ATOM      5  C   UNL     1      37.397   3.939 187.875  1.00  0.00     0.047 C 
ATOM      6  C   UNL     1      38.443   3.703 186.768  1.00  0.00     0.081 C 
ATOM      7  C   UNL     1      39.069   5.016 186.284  1.00  0.00     0.046 C 
ATOM      8  C   UNL     1      40.314   5.126 187.158  1.00  0.00     0.054 C 
ATOM      9  C   UNL     1      40.253   3.853 188.047  1.00  0.00     0.173 C 
ATOM     10  O   UNL     1      39.504   2.927 187.292  1.00  0.00    -0.342 OA
ATOM     11  C   UNL     1      39.536   3.998 189.411  1.00  0.00     0.096 C 
ATOM     12  C   UNL     1      38.043   4.187 189.231  1.00  0.00    -0.066 C 
ATOM     13  C   UNL     1      37.288   4.548 190.278  1.00  0.00     0.008 C 
ENDROOT
BRANCH   8  14
ATOM     14  C   UNL     1      40.570   6.539 187.777  1.00  0.00    -0.009 C 
ATOM     15  C   UNL     1      41.720   7.375 187.174  1.00  0.00     0.008 C 
ATOM     16  C   UNL     1      39.278   7.364 187.850  1.00  0.00     0.008 C 
ENDBRANCH   8  14
BRANCH   9  17
ATOM     17  O   UNL     1      41.558   3.365 188.247  1.00  0.00    -0.365 OA
ATOM     18  H   UNL     1      42.190   4.073 187.957  1.00  0.00     0.214 HD
ENDBRANCH   9  17
TORSDOF 2
ENDMDL
MODEL 4
REMARK VINA RESULT:    -4.661      4.972      7.505
REMARK INTER + INTRA:          -5.440
REMARK INTER:                  -5.043
REMARK INTRA:                  -0.397
REMARK UNBOUND:                -0.371
REMARK SMILES C=C1C[C@@]2(O)O[C@@]3(C[C@H]2C(C)C)[C@@H](C)CC[C@@H]13
REMARK SMILES IDX 14 1 13 2 15 3 16 4 17 5 7 6 8 7 9 8 4 9 6 10 3 11 2 12 1 13
REMARK SMILES IDX 10 14 11 15 12 16 5 17
REMARK H PARENT 5 18
REMARK Flexibility Score: inf
ROOT
ATOM      1  C   UNL     1      39.500   0.410 184.457  1.00  0.00     0.011 C 
ATOM      2  C   UNL     1      39.799   1.017 185.835  1.00  0.00     0.019 C 
ATOM      3  C   UNL     1      41.273   1.423 185.989  1.00  0.00     0.007 C 
ATOM      4  C   UNL     1      41.297   2.752 186.749  1.00  0.00     0.011 C 
ATOM      5  C   UNL     1      39.857   3.032 187.181  1.00  0.00     0.047 C 
ATOM      6  C   UNL     1      38.992   2.286 186.146  1.00  0.00     0.081 C 
ATOM      7  C   UNL     1      37.577   2.016 186.672  1.00  0.00     0.046 C 
ATOM      8  C   UNL     1      36.801   3.221 186.153  1.00  0.00     0.054 C 
ATOM      9  C   UNL     1      37.871   4.046 185.384  1.00  0.00     0.173 C 
ATOM     10  O   UNL     1      38.841   3.098 184.998  1.00  0.00    -0.342 OA
ATOM     11  C   UNL     1      38.615   5.136 186.195  1.00  0.00     0.096 C 
ATOM     12  C   UNL     1      39.539   4.521 187.227  1.00  0.00    -0.066 C 
ATOM     13  C   UNL     1      40.096   5.298 188.166  1.00  0.00     0.008 C 
ENDROOT
BRANCH   8  14
ATOM     14  C   UNL     1      35.845   3.896 187.190  1.00  0.00    -0.009 C 
ATOM     15  C   UNL     1      34.327   3.756 186.946  1.00  0.00     0.008 C 
ATOM     16  C   UNL     1      36.204   3.497 188.628  1.00  0.00     0.008 C 
ENDBRANCH   8  14
BRANCH   9  17
ATOM     17  O   UNL     1      37.282   4.623 184.244  1.00  0.00    -0.365 OA
ATOM     18  H   UNL     1      37.526   4.060 183.464  1.00  0.00     0.214 HD
ENDBRANCH   9  17
TORSDOF 2
ENDMDL
MODEL 5
REMARK VINA RESULT:    -4.527      7.717     10.246
REMARK INTER + INTRA:          -5.295
REMARK INTER:                  -4.929
REMARK INTRA:                  -0.366
REMARK UNBOUND:                -0.371
REMARK SMILES C=C1C[C@@]2(O)O[C@@]3(C[C@H]2C(C)C)[C@@H](C)CC[C@@H]13
REMARK SMILES IDX 14 1 13 2 15 3 16 4 17 5 7 6 8 7 9 8 4 9 6 10 3 11 2 12 1 13
REMARK SMILES IDX 10 14 11 15 12 16 5 17
REMARK H PARENT 5 18
REMARK Flexibility Score: inf
ROOT
ATOM      1  C   UNL     1      36.089   3.960 182.482  1.00  0.00     0.011 C 
ATOM      2  C   UNL     1      35.724   3.396 183.863  1.00  0.00     0.019 C 
ATOM      3  C   UNL     1      34.374   2.662 183.857  1.00  0.00     0.007 C 
ATOM      4  C   UNL     1      34.533   1.422 184.741  1.00  0.00     0.011 C 
ATOM      5  C   UNL     1      35.913   1.524 185.391  1.00  0.00     0.047 C 
ATOM      6  C   UNL     1      36.738   2.382 184.411  1.00  0.00     0.081 C 
ATOM      7  C   UNL     1      37.955   3.018 185.093  1.00  0.00     0.046 C 
ATOM      8  C   UNL     1      39.055   2.000 184.812  1.00  0.00     0.054 C 
ATOM      9  C   UNL     1      38.332   0.892 183.996  1.00  0.00     0.173 C 
ATOM     10  O   UNL     1      37.246   1.552 183.385  1.00  0.00    -0.342 OA
ATOM     11  C   UNL     1      37.737  -0.285 184.808  1.00  0.00     0.096 C 
ATOM     12  C   UNL     1      36.548   0.162 185.635  1.00  0.00    -0.066 C 
ATOM     13  C   UNL     1      36.041  -0.659 186.566  1.00  0.00     0.008 C 
ENDROOT
BRANCH   8  14
ATOM     14  C   UNL     1      39.964   1.646 186.034  1.00  0.00    -0.009 C 
ATOM     15  C   UNL     1      41.491   1.759 185.833  1.00  0.00     0.008 C 
ATOM     16  C   UNL     1      39.525   2.400 187.298  1.00  0.00     0.008 C 
ENDBRANCH   8  14
BRANCH   9  17
ATOM     17  O   UNL     1      39.207   0.394 183.013  1.00  0.00    -0.365 OA
ATOM     18  H   UNL     1      40.065   0.172 183.461  1.00  0.00     0.214 HD
ENDBRANCH   9  17
TORSDOF 2
ENDMDL
MODEL 6
REMARK VINA RESULT:    -4.460      1.489      4.839
REMARK INTER + INTRA:          -5.222
REMARK INTER:                  -4.892
REMARK INTRA:                  -0.330
REMARK UNBOUND:                -0.371
REMARK SMILES C=C1C[C@@]2(O)O[C@@]3(C[C@H]2C(C)C)[C@@H](C)CC[C@@H]13
REMARK SMILES IDX 14 1 13 2 15 3 16 4 17 5 7 6 8 7 9 8 4 9 6 10 3 11 2 12 1 13
REMARK SMILES IDX 10 14 11 15 12 16 5 17
REMARK H PARENT 5 18
REMARK Flexibility Score: inf
ROOT
ATOM      1  C   UNL     1      40.895   4.432 187.727  1.00  0.00     0.011 C 
ATOM      2  C   UNL     1      40.024   5.545 187.125  1.00  0.00     0.019 C 
ATOM      3  C   UNL     1      38.560   5.114 186.953  1.00  0.00     0.007 C 
ATOM      4  C   UNL     1      37.690   6.314 187.335  1.00  0.00     0.011 C 
ATOM      5  C   UNL     1      38.643   7.487 187.567  1.00  0.00     0.047 C 
ATOM      6  C   UNL     1      39.976   6.827 187.970  1.00  0.00     0.081 C 
ATOM      7  C   UNL     1      41.168   7.765 187.753  1.00  0.00     0.046 C 
ATOM      8  C   UNL     1      41.315   8.427 189.119  1.00  0.00     0.054 C 
ATOM      9  C   UNL     1      40.181   7.783 189.964  1.00  0.00     0.173 C 
ATOM     10  O   UNL     1      39.948   6.534 189.353  1.00  0.00    -0.342 OA
ATOM     11  C   UNL     1      38.824   8.529 189.980  1.00  0.00     0.096 C 
ATOM     12  C   UNL     1      38.137   8.452 188.631  1.00  0.00    -0.066 C 
ATOM     13  C   UNL     1      37.065   9.219 188.387  1.00  0.00     0.008 C 
ENDROOT
BRANCH   8  14
ATOM     14  C   UNL     1      41.528   9.976 189.091  1.00  0.00    -0.009 C 
ATOM     15  C   UNL     1      42.518  10.570 190.116  1.00  0.00     0.008 C 
ATOM     16  C   UNL     1      41.849  10.473 187.674  1.00  0.00     0.008 C 
ENDBRANCH   8  14
BRANCH   9  17
ATOM     17  O   UNL     1      40.633   7.596 191.283  1.00  0.00    -0.365 OA
ATOM     18  H   UNL     1      41.603   7.389 191.239  1.00  0.00     0.214 HD
ENDBRANCH   9  17
TORSDOF 2
ENDMDL
MODEL 7
REMARK VINA RESULT:    -4.459     12.548     14.814
REMARK INTER + INTRA:          -5.222
REMARK INTER:                  -4.894
REMARK INTRA:                  -0.328
REMARK UNBOUND:                -0.371
REMARK SMILES C=C1C[C@@]2(O)O[C@@]3(C[C@H]2C(C)C)[C@@H](C)CC[C@@H]13
REMARK SMILES IDX 14 1 13 2 15 3 16 4 17 5 7 6 8 7 9 8 4 9 6 10 3 11 2 12 1 13
REMARK SMILES IDX 10 14 11 15 12 16 5 17
REMARK H PARENT 5 18
REMARK Flexibility Score: inf
ROOT
ATOM      1  C   UNL     1      39.510  -7.866 188.202  1.00  0.00     0.011 C 
ATOM      2  C   UNL     1      39.452  -7.299 186.776  1.00  0.00     0.019 C 
ATOM      3  C   UNL     1      38.020  -6.942 186.348  1.00  0.00     0.007 C 
ATOM      4  C   UNL     1      38.100  -5.631 185.559  1.00  0.00     0.011 C 
ATOM      5  C   UNL     1      39.587  -5.317 185.387  1.00  0.00     0.047 C 
ATOM      6  C   UNL     1      40.269  -6.013 186.581  1.00  0.00     0.081 C 
ATOM      7  C   UNL     1      41.761  -6.253 186.327  1.00  0.00     0.046 C 
ATOM      8  C   UNL     1      42.400  -5.013 186.944  1.00  0.00     0.054 C 
ATOM      9  C   UNL     1      41.188  -4.204 187.483  1.00  0.00     0.173 C 
ATOM     10  O   UNL     1      40.189  -5.172 187.715  1.00  0.00    -0.342 OA
ATOM     11  C   UNL     1      40.576  -3.155 186.522  1.00  0.00     0.096 C 
ATOM     12  C   UNL     1      39.870  -3.822 185.358  1.00  0.00    -0.066 C 
ATOM     13  C   UNL     1      39.472  -3.083 184.312  1.00  0.00     0.008 C 
ENDROOT
BRANCH   8  14
ATOM     14  C   UNL     1      43.510  -4.333 186.078  1.00  0.00    -0.009 C 
ATOM     15  C   UNL     1      44.734  -3.760 186.824  1.00  0.00     0.008 C 
ATOM     16  C   UNL     1      43.954  -5.240 184.921  1.00  0.00     0.008 C 
ENDBRANCH   8  14
BRANCH   9  17
ATOM     17  O   UNL     1      41.545  -3.584 188.695  1.00  0.00    -0.365 OA
ATOM     18  H   UNL     1      41.064  -4.054 189.424  1.00  0.00     0.214 HD
ENDBRANCH   9  17
TORSDOF 2
ENDMDL
MODEL 8
REMARK VINA RESULT:    -4.417      2.325      4.245
REMARK INTER + INTRA:          -5.176
REMARK INTER:                  -4.783
REMARK INTRA:                  -0.393
REMARK UNBOUND:                -0.371
REMARK SMILES C=C1C[C@@]2(O)O[C@@]3(C[C@H]2C(C)C)[C@@H](C)CC[C@@H]13
REMARK SMILES IDX 14 1 13 2 15 3 16 4 17 5 7 6 8 7 9 8 4 9 6 10 3 11 2 12 1 13
REMARK SMILES IDX 10 14 11 15 12 16 5 17
REMARK H PARENT 5 18
REMARK Flexibility Score: inf
ROOT
ATOM      1  C   UNL     1      38.369   4.558 188.503  1.00  0.00     0.011 C 
ATOM      2  C   UNL     1      39.681   5.350 188.597  1.00  0.00     0.019 C 
ATOM      3  C   UNL     1      40.584   5.133 187.372  1.00  0.00     0.007 C 
ATOM      4  C   UNL     1      41.210   6.488 187.031  1.00  0.00     0.011 C 
ATOM      5  C   UNL     1      40.806   7.449 188.149  1.00  0.00     0.047 C 
ATOM      6  C   UNL     1      39.488   6.870 188.698  1.00  0.00     0.081 C 
ATOM      7  C   UNL     1      39.189   7.370 190.116  1.00  0.00     0.046 C 
ATOM      8  C   UNL     1      38.310   8.588 189.854  1.00  0.00     0.054 C 
ATOM      9  C   UNL     1      38.207   8.641 188.304  1.00  0.00     0.173 C 
ATOM     10  O   UNL     1      38.416   7.310 187.888  1.00  0.00    -0.342 OA
ATOM     11  C   UNL     1      39.263   9.505 187.572  1.00  0.00     0.096 C 
ATOM     12  C   UNL     1      40.642   8.882 187.660  1.00  0.00    -0.066 C 
ATOM     13  C   UNL     1      41.715   9.589 187.280  1.00  0.00     0.008 C 
ENDROOT
BRANCH   8  14
ATOM     14  C   UNL     1      38.666   9.861 190.689  1.00  0.00    -0.009 C 
ATOM     15  C   UNL     1      37.610  10.362 191.697  1.00  0.00     0.008 C 
ATOM     16  C   UNL     1      40.039   9.724 191.363  1.00  0.00     0.008 C 
ENDBRANCH   8  14
BRANCH   9  17
ATOM     17  O   UNL     1      36.915   9.062 187.939  1.00  0.00    -0.365 OA
ATOM     18  H   UNL     1      36.294   8.308 188.114  1.00  0.00     0.214 HD
ENDBRANCH   9  17
TORSDOF 2
ENDMDL
MODEL 9
REMARK VINA RESULT:    -4.411      4.210      7.004
REMARK INTER + INTRA:          -5.169
REMARK INTER:                  -4.773
REMARK INTRA:                  -0.396
REMARK UNBOUND:                -0.371
REMARK SMILES C=C1C[C@@]2(O)O[C@@]3(C[C@H]2C(C)C)[C@@H](C)CC[C@@H]13
REMARK SMILES IDX 14 1 13 2 15 3 16 4 17 5 7 6 8 7 9 8 4 9 6 10 3 11 2 12 1 13
REMARK SMILES IDX 10 14 11 15 12 16 5 17
REMARK H PARENT 5 18
REMARK Flexibility Score: inf
ROOT
ATOM      1  C   UNL     1      41.005   6.042 187.241  1.00  0.00     0.011 C 
ATOM      2  C   UNL     1      39.911   5.267 187.990  1.00  0.00     0.019 C 
ATOM      3  C   UNL     1      38.937   6.197 188.729  1.00  0.00     0.007 C 
ATOM      4  C   UNL     1      37.534   5.606 188.557  1.00  0.00     0.011 C 
ATOM      5  C   UNL     1      37.713   4.254 187.866  1.00  0.00     0.047 C 
ATOM      6  C   UNL     1      39.033   4.392 187.083  1.00  0.00     0.081 C 
ATOM      7  C   UNL     1      39.644   3.028 186.747  1.00  0.00     0.046 C 
ATOM      8  C   UNL     1      39.083   2.753 185.356  1.00  0.00     0.054 C 
ATOM      9  C   UNL     1      38.210   4.003 185.058  1.00  0.00     0.173 C 
ATOM     10  O   UNL     1      38.773   5.027 185.847  1.00  0.00    -0.342 OA
ATOM     11  C   UNL     1      36.715   3.911 185.452  1.00  0.00     0.096 C 
ATOM     12  C   UNL     1      36.543   3.901 186.958  1.00  0.00    -0.066 C 
ATOM     13  C   UNL     1      35.347   3.605 187.487  1.00  0.00     0.008 C 
ENDROOT
BRANCH   8  14
ATOM     14  C   UNL     1      38.534   1.306 185.132  1.00  0.00    -0.009 C 
ATOM     15  C   UNL     1      39.342   0.382 184.196  1.00  0.00     0.008 C 
ATOM     16  C   UNL     1      38.236   0.605 186.465  1.00  0.00     0.008 C 
ENDBRANCH   8  14
BRANCH   9  17
ATOM     17  O   UNL     1      38.319   4.332 183.694  1.00  0.00    -0.365 OA
ATOM     18  H   UNL     1      39.026   3.754 183.304  1.00  0.00     0.214 HD
ENDBRANCH   9  17
TORSDOF 2
ENDMDL
