MODEL 1
REMARK VINA RESULT:    -4.064      0.000      0.000
REMARK INTER + INTRA:          -6.004
REMARK INTER:                  -5.727
REMARK INTRA:                  -0.277
REMARK UNBOUND:                -0.277
REMARK SMILES CCCCCCCCC(=O)[O-]
REMARK SMILES IDX 6 1 7 2 8 3 9 4 10 5 11 6 5 7 4 8 3 9 2 10 1 11
REMARK H PARENT
REMARK Flexibility Score: inf
ROOT
ATOM      1  C   UNL     1      -2.838  37.489  19.353  1.00  0.00     0.000 C 
ENDROOT
BRANCH   1   2
ATOM      2  C   UNL     1      -4.370  37.661  19.282  1.00  0.00     0.006 C 
BRANCH   2   3
ATOM      3  C   UNL     1      -5.103  37.404  20.606  1.00  0.00     0.053 C 
BRANCH   3   4
ATOM      4  C   UNL     1      -5.084  35.955  20.985  1.00  0.00     0.041 C 
ATOM      5  O   UNL     1      -5.097  35.615  22.197  1.00  0.00    -0.550 OA
ATOM      6  O   UNL     1      -5.018  34.980  19.997  1.00  0.00    -0.550 OA
ENDBRANCH   3   4
ENDBRANCH   2   3
ENDBRANCH   1   2
BRANCH   1   7
ATOM      7  C   UNL     1      -2.116  37.478  17.993  1.00  0.00     0.000 C 
BRANCH   7   8
ATOM      8  C   UNL     1      -3.054  37.146  16.820  1.00  0.00    -0.000 C 
BRANCH   8   9
ATOM      9  C   UNL     1      -2.327  36.432  15.669  1.00  0.00    -0.000 C 
BRANCH   9  10
ATOM     10  C   UNL     1      -2.978  36.695  14.302  1.00  0.00    -0.003 C 
ATOM     11  C   UNL     1      -4.005  37.819  14.390  1.00  0.00     0.004 C 
ENDBRANCH   9  10
ENDBRANCH   8   9
ENDBRANCH   7   8
ENDBRANCH   1   7
TORSDOF 7
ENDMDL
MODEL 2
REMARK VINA RESULT:    -3.891      1.016      1.477
REMARK INTER + INTRA:          -5.761
REMARK INTER:                  -5.493
REMARK INTRA:                  -0.268
REMARK UNBOUND:                -0.277
REMARK SMILES CCCCCCCCC(=O)[O-]
REMARK SMILES IDX 6 1 7 2 8 3 9 4 10 5 11 6 5 7 4 8 3 9 2 10 1 11
REMARK H PARENT
REMARK Flexibility Score: inf
ROOT
ATOM      1  C   UNL     1      -3.539  37.590  19.550  1.00  0.00     0.000 C 
ENDROOT
BRANCH   1   2
ATOM      2  C   UNL     1      -4.692  37.379  20.552  1.00  0.00     0.006 C 
BRANCH   2   3
ATOM      3  C   UNL     1      -5.125  35.916  20.729  1.00  0.00     0.053 C 
BRANCH   3   4
ATOM      4  C   UNL     1      -4.404  35.252  21.862  1.00  0.00     0.041 C 
ATOM      5  O   UNL     1      -3.201  34.905  21.731  1.00  0.00    -0.550 OA
ATOM      6  O   UNL     1      -5.073  34.987  23.051  1.00  0.00    -0.550 OA
ENDBRANCH   3   4
ENDBRANCH   2   3
ENDBRANCH   1   2
BRANCH   1   7
ATOM      7  C   UNL     1      -3.690  36.845  18.210  1.00  0.00     0.000 C 
BRANCH   7   8
ATOM      8  C   UNL     1      -2.606  37.228  17.188  1.00  0.00    -0.000 C 
BRANCH   8   9
ATOM      9  C   UNL     1      -2.404  36.149  16.111  1.00  0.00    -0.000 C 
BRANCH   9  10
ATOM     10  C   UNL     1      -2.544  36.700  14.685  1.00  0.00    -0.003 C 
ATOM     11  C   UNL     1      -3.853  37.466  14.518  1.00  0.00     0.004 C 
ENDBRANCH   9  10
ENDBRANCH   8   9
ENDBRANCH   7   8
ENDBRANCH   1   7
TORSDOF 7
ENDMDL
MODEL 3
REMARK VINA RESULT:    -3.816      3.241      5.981
REMARK INTER + INTRA:          -5.656
REMARK INTER:                  -5.433
REMARK INTRA:                  -0.222
REMARK UNBOUND:                -0.277
REMARK SMILES CCCCCCCCC(=O)[O-]
REMARK SMILES IDX 6 1 7 2 8 3 9 4 10 5 11 6 5 7 4 8 3 9 2 10 1 11
REMARK H PARENT
REMARK Flexibility Score: inf
ROOT
ATOM      1  C   UNL     1      -2.546  37.492  18.266  1.00  0.00     0.000 C 
ENDROOT
BRANCH   1   2
ATOM      2  C   UNL     1      -2.093  36.827  16.950  1.00  0.00     0.006 C 
BRANCH   2   3
ATOM      3  C   UNL     1      -3.241  36.339  16.054  1.00  0.00     0.053 C 
BRANCH   3   4
ATOM      4  C   UNL     1      -3.219  36.996  14.708  1.00  0.00     0.041 C 
ATOM      5  O   UNL     1      -2.310  36.721  13.881  1.00  0.00    -0.550 OA
ATOM      6  O   UNL     1      -4.186  37.939  14.380  1.00  0.00    -0.550 OA
ENDBRANCH   3   4
ENDBRANCH   2   3
ENDBRANCH   1   2
BRANCH   1   7
ATOM      7  C   UNL     1      -3.971  37.133  18.726  1.00  0.00     0.000 C 
BRANCH   7   8
ATOM      8  C   UNL     1      -4.231  37.487  20.200  1.00  0.00    -0.000 C 
BRANCH   8   9
ATOM      9  C   UNL     1      -5.125  36.454  20.905  1.00  0.00    -0.000 C 
BRANCH   9  10
ATOM     10  C   UNL     1      -4.318  35.402  21.680  1.00  0.00    -0.003 C 
ATOM     11  C   UNL     1      -5.059  34.960  22.938  1.00  0.00     0.004 C 
ENDBRANCH   9  10
ENDBRANCH   8   9
ENDBRANCH   7   8
ENDBRANCH   1   7
TORSDOF 7
ENDMDL
MODEL 4
REMARK VINA RESULT:    -3.045      0.755      1.156
REMARK INTER + INTRA:          -4.568
REMARK INTER:                  -4.243
REMARK INTRA:                  -0.326
REMARK UNBOUND:                -0.277
REMARK SMILES CCCCCCCCC(=O)[O-]
REMARK SMILES IDX 6 1 7 2 8 3 9 4 10 5 11 6 5 7 4 8 3 9 2 10 1 11
REMARK H PARENT
REMARK Flexibility Score: inf
ROOT
ATOM      1  C   UNL     1      -2.091  37.527  18.392  1.00  0.00     0.000 C 
ENDROOT
BRANCH   1   2
ATOM      2  C   UNL     1      -2.887  37.488  19.714  1.00  0.00     0.006 C 
BRANCH   2   3
ATOM      3  C   UNL     1      -4.393  37.237  19.545  1.00  0.00     0.053 C 
BRANCH   3   4
ATOM      4  C   UNL     1      -4.791  35.877  20.030  1.00  0.00     0.041 C 
ATOM      5  O   UNL     1      -4.796  35.619  21.262  1.00  0.00    -0.550 OA
ATOM      6  O   UNL     1      -5.125  34.885  19.116  1.00  0.00    -0.550 OA
ENDBRANCH   3   4
ENDBRANCH   2   3
ENDBRANCH   1   2
BRANCH   1   7
ATOM      7  C   UNL     1      -2.898  37.168  17.131  1.00  0.00     0.000 C 
BRANCH   7   8
ATOM      8  C   UNL     1      -2.063  36.414  16.081  1.00  0.00    -0.000 C 
BRANCH   8   9
ATOM      9  C   UNL     1      -2.475  36.761  14.641  1.00  0.00    -0.000 C 
BRANCH   9  10
ATOM     10  C   UNL     1      -3.994  36.921  14.481  1.00  0.00    -0.003 C 
ATOM     11  C   UNL     1      -4.345  38.297  13.923  1.00  0.00     0.004 C 
ENDBRANCH   9  10
ENDBRANCH   8   9
ENDBRANCH   7   8
ENDBRANCH   1   7
TORSDOF 7
ENDMDL
MODEL 5
REMARK VINA RESULT:    -2.696      3.464      5.311
REMARK INTER + INTRA:          -4.077
REMARK INTER:                  -3.363
REMARK INTRA:                  -0.714
REMARK UNBOUND:                -0.277
REMARK SMILES CCCCCCCCC(=O)[O-]
REMARK SMILES IDX 6 1 7 2 8 3 9 4 10 5 11 6 5 7 4 8 3 9 2 10 1 11
REMARK H PARENT
REMARK Flexibility Score: inf
ROOT
ATOM      1  C   UNL     1      -3.956  35.430  17.474  1.00  0.00     0.000 C 
ENDROOT
BRANCH   1   2
ATOM      2  C   UNL     1      -2.910  36.068  16.536  1.00  0.00     0.006 C 
BRANCH   2   3
ATOM      3  C   UNL     1      -3.231  37.508  16.109  1.00  0.00     0.053 C 
BRANCH   3   4
ATOM      4  C   UNL     1      -3.663  37.585  14.677  1.00  0.00     0.041 C 
ATOM      5  O   UNL     1      -3.377  36.656  13.877  1.00  0.00    -0.550 OA
ATOM      6  O   UNL     1      -4.352  38.701  14.219  1.00  0.00    -0.550 OA
ENDBRANCH   3   4
ENDBRANCH   2   3
ENDBRANCH   1   2
BRANCH   1   7
ATOM      7  C   UNL     1      -4.573  36.383  18.514  1.00  0.00     0.000 C 
BRANCH   7   8
ATOM      8  C   UNL     1      -3.735  36.488  19.800  1.00  0.00    -0.000 C 
BRANCH   8   9
ATOM      9  C   UNL     1      -2.862  37.752  19.833  1.00  0.00    -0.000 C 
BRANCH   9  10
ATOM     10  C   UNL     1      -1.359  37.436  19.822  1.00  0.00    -0.003 C 
ATOM     11  C   UNL     1      -0.658  38.140  18.664  1.00  0.00     0.004 C 
ENDBRANCH   9  10
ENDBRANCH   8   9
ENDBRANCH   7   8
ENDBRANCH   1   7
TORSDOF 7
ENDMDL
MODEL 6
REMARK VINA RESULT:    -2.352      2.101      2.577
REMARK INTER + INTRA:          -3.592
REMARK INTER:                  -3.230
REMARK INTRA:                  -0.362
REMARK UNBOUND:                -0.277
REMARK SMILES CCCCCCCCC(=O)[O-]
REMARK SMILES IDX 6 1 7 2 8 3 9 4 10 5 11 6 5 7 4 8 3 9 2 10 1 11
REMARK H PARENT
REMARK Flexibility Score: inf
ROOT
ATOM      1  C   UNL     1      -3.991  35.332  18.035  1.00  0.00     0.000 C 
ENDROOT
BRANCH   1   2
ATOM      2  C   UNL     1      -4.578  36.174  19.186  1.00  0.00     0.006 C 
BRANCH   2   3
ATOM      3  C   UNL     1      -3.964  37.575  19.329  1.00  0.00     0.053 C 
BRANCH   3   4
ATOM      4  C   UNL     1      -2.489  37.517  19.582  1.00  0.00     0.041 C 
ATOM      5  O   UNL     1      -2.039  36.891  20.577  1.00  0.00    -0.550 OA
ATOM      6  O   UNL     1      -1.612  38.185  18.735  1.00  0.00    -0.550 OA
ENDBRANCH   3   4
ENDBRANCH   2   3
ENDBRANCH   1   2
BRANCH   1   7
ATOM      7  C   UNL     1      -3.962  36.027  16.661  1.00  0.00     0.000 C 
BRANCH   7   8
ATOM      8  C   UNL     1      -2.539  36.170  16.093  1.00  0.00    -0.000 C 
BRANCH   8   9
ATOM      9  C   UNL     1      -2.530  36.746  14.668  1.00  0.00    -0.000 C 
BRANCH   9  10
ATOM     10  C   UNL     1      -3.936  37.099  14.161  1.00  0.00    -0.003 C 
ATOM     11  C   UNL     1      -4.201  38.597  14.275  1.00  0.00     0.004 C 
ENDBRANCH   9  10
ENDBRANCH   8   9
ENDBRANCH   7   8
ENDBRANCH   1   7
TORSDOF 7
ENDMDL
MODEL 7
REMARK VINA RESULT:    -1.676      2.494      5.235
REMARK INTER + INTRA:          -2.639
REMARK INTER:                  -2.307
REMARK INTRA:                  -0.332
REMARK UNBOUND:                -0.277
REMARK SMILES CCCCCCCCC(=O)[O-]
REMARK SMILES IDX 6 1 7 2 8 3 9 4 10 5 11 6 5 7 4 8 3 9 2 10 1 11
REMARK H PARENT
REMARK Flexibility Score: inf
ROOT
ATOM      1  C   UNL     1      -3.570  35.629  16.946  1.00  0.00     0.000 C 
ENDROOT
BRANCH   1   2
ATOM      2  C   UNL     1      -3.244  37.118  17.178  1.00  0.00     0.006 C 
BRANCH   2   3
ATOM      3  C   UNL     1      -1.754  37.418  17.402  1.00  0.00     0.053 C 
BRANCH   3   4
ATOM      4  C   UNL     1      -1.451  37.700  18.842  1.00  0.00     0.041 C 
ATOM      5  O   UNL     1      -0.286  37.529  19.290  1.00  0.00    -0.550 OA
ATOM      6  O   UNL     1      -2.463  38.118  19.697  1.00  0.00    -0.550 OA
ENDBRANCH   3   4
ENDBRANCH   2   3
ENDBRANCH   1   2
BRANCH   1   7
ATOM      7  C   UNL     1      -4.575  35.015  17.939  1.00  0.00     0.000 C 
BRANCH   7   8
ATOM      8  C   UNL     1      -4.847  35.922  19.151  1.00  0.00    -0.000 C 
BRANCH   8   9
ATOM      9  C   UNL     1      -5.125  35.122  20.434  1.00  0.00    -0.000 C 
BRANCH   9  10
ATOM     10  C   UNL     1      -4.239  35.559  21.610  1.00  0.00    -0.003 C 
ATOM     11  C   UNL     1      -4.875  35.186  22.946  1.00  0.00     0.004 C 
ENDBRANCH   9  10
ENDBRANCH   8   9
ENDBRANCH   7   8
ENDBRANCH   1   7
TORSDOF 7
ENDMDL
