MODEL 1
REMARK VINA RESULT:    -3.235      0.000      0.000
REMARK INTER + INTRA:          -5.163
REMARK INTER:                  -4.937
REMARK INTRA:                  -0.226
REMARK UNBOUND:                -0.226
REMARK SMILES CC1=CCC[C@H](C)C(=O)C[C@@H](C(C)C)C(=O)C1
REMARK SMILES IDX 8 1 9 2 6 3 7 4 5 5 4 6 3 7 2 8 1 9 10 11 11 12 15 13 16 14
REMARK SMILES IDX 17 15 12 17 13 18 14 19
REMARK H PARENT
REMARK Flexibility Score: 70.00
ROOT
ATOM      1  C   UNL     1      14.568  62.132  20.872  1.00  0.00     0.136 C 
ATOM      2  O   UNL     1      14.869  61.237  20.096  1.00  0.00    -0.299 OA
ENDROOT
BRANCH   1   3
ATOM      3  C   UNL     1      13.093  62.472  21.028  1.00  0.00     0.053 C 
ATOM      4  C   UNL     1      12.431  62.988  19.740  1.00  0.00     0.016 C 
BRANCH   3   5
ATOM      5  C   UNL     1      12.308  61.331  21.710  1.00  0.00     0.015 C 
BRANCH   5   6
ATOM      6  C   UNL     1      12.368  61.331  23.250  1.00  0.00     0.028 C 
BRANCH   6   7
ATOM      7  C   UNL     1      12.226  62.736  23.777  1.00  0.00    -0.028 C 
ATOM      8  C   UNL     1      13.170  63.383  24.500  1.00  0.00    -0.070 CG0
ATOM      9  C   UNL     1      12.924  64.828  24.853  1.00  0.00     0.039 C 
ATOM     10  G   UNL     1      14.432  62.701  25.007  1.00  0.00     0.000 G0
ENDBRANCH   6   7
ENDBRANCH   5   6
ENDBRANCH   3   5
ENDBRANCH   1   3
BRANCH   1  11
ATOM     11  C   UNL     1      15.675  62.836  21.635  1.00  0.00     0.087 C 
BRANCH  11  12
ATOM     12  C   UNL     1      16.059  62.205  23.010  1.00  0.00     0.066 C 
BRANCH  12  13
ATOM     13  C   UNL     1      15.665  63.059  24.210  1.00  0.00     0.140 C 
ATOM     14  O   UNL     1      16.378  63.985  24.565  1.00  0.00    -0.299 OA
BRANCH  13  15
ATOM     15  C   UNL     1      14.438  62.716  25.026  1.00  0.00     0.106 CG0
ATOM     16  G   UNL     1      13.172  63.367  24.490  1.00  0.00     0.000 G0
ENDBRANCH  13  15
ENDBRANCH  12  13
BRANCH  12  17
ATOM     17  C   UNL     1      17.529  61.684  23.124  1.00  0.00    -0.006 C 
ATOM     18  C   UNL     1      17.961  60.739  21.992  1.00  0.00     0.008 C 
ATOM     19  C   UNL     1      17.795  61.019  24.485  1.00  0.00     0.008 C 
ENDBRANCH  12  17
ENDBRANCH  11  12
ENDBRANCH   1  11
TORSDOF 1
ENDMDL
MODEL 2
REMARK VINA RESULT:    -3.124      2.703      3.711
REMARK INTER + INTRA:          -4.993
REMARK INTER:                  -4.558
REMARK INTRA:                  -0.435
REMARK UNBOUND:                -0.226
REMARK SMILES CC1=CCC[C@H](C)C(=O)C[C@@H](C(C)C)C(=O)C1
REMARK SMILES IDX 8 1 9 2 6 3 7 4 5 5 4 6 3 7 2 8 1 9 10 11 11 12 15 13 16 14
REMARK SMILES IDX 17 15 12 17 13 18 14 19
REMARK H PARENT
REMARK Flexibility Score: 70.00
ROOT
ATOM      1  C   UNL     1      16.914  60.914  22.381  1.00  0.00     0.136 C 
ATOM      2  O   UNL     1      18.094  60.605  22.443  1.00  0.00    -0.299 OA
ENDROOT
BRANCH   1   3
ATOM      3  C   UNL     1      16.481  61.856  21.267  1.00  0.00     0.053 C 
ATOM      4  C   UNL     1      16.048  61.140  19.977  1.00  0.00     0.016 C 
BRANCH   3   5
ATOM      5  C   UNL     1      15.460  62.903  21.762  1.00  0.00     0.015 C 
BRANCH   5   6
ATOM      6  C   UNL     1      14.019  62.695  21.254  1.00  0.00     0.028 C 
BRANCH   6   7
ATOM      7  C   UNL     1      13.038  62.882  22.383  1.00  0.00    -0.028 C 
ATOM      8  C   UNL     1      12.410  61.873  23.030  1.00  0.00    -0.070 CG0
ATOM      9  C   UNL     1      11.547  62.220  24.216  1.00  0.00     0.039 C 
ATOM     10  G   UNL     1      12.502  60.422  22.580  1.00  0.00     0.000 G0
ENDBRANCH   6   7
ENDBRANCH   5   6
ENDBRANCH   3   5
ENDBRANCH   1   3
BRANCH   1  11
ATOM     11  C   UNL     1      15.956  60.336  23.407  1.00  0.00     0.087 C 
BRANCH  11  12
ATOM     12  C   UNL     1      14.885  59.345  22.852  1.00  0.00     0.066 C 
BRANCH  12  13
ATOM     13  C   UNL     1      13.481  59.592  23.391  1.00  0.00     0.140 C 
ATOM     14  O   UNL     1      13.129  59.082  24.444  1.00  0.00    -0.299 OA
BRANCH  13  15
ATOM     15  C   UNL     1      12.481  60.394  22.589  1.00  0.00     0.106 CG0
ATOM     16  G   UNL     1      12.413  61.852  23.017  1.00  0.00     0.000 G0
ENDBRANCH  13  15
ENDBRANCH  12  13
BRANCH  12  17
ATOM     17  C   UNL     1      15.275  57.832  22.912  1.00  0.00    -0.006 C 
ATOM     18  C   UNL     1      16.277  57.474  24.021  1.00  0.00     0.008 C 
ATOM     19  C   UNL     1      15.796  57.323  21.557  1.00  0.00     0.008 C 
ENDBRANCH  12  17
ENDBRANCH  11  12
ENDBRANCH   1  11
TORSDOF 1
ENDMDL
MODEL 3
REMARK VINA RESULT:    -2.805     13.186     15.252
REMARK INTER + INTRA:          -4.506
REMARK INTER:                  -4.340
REMARK INTRA:                  -0.166
REMARK UNBOUND:                -0.226
REMARK SMILES CC1=CCC[C@H](C)C(=O)C[C@@H](C(C)C)C(=O)C1
REMARK SMILES IDX 8 1 9 2 6 3 7 4 5 5 4 6 3 7 2 8 1 9 10 11 11 12 15 13 16 14
REMARK SMILES IDX 17 15 12 17 13 18 14 19
REMARK H PARENT
REMARK Flexibility Score: 70.00
ROOT
ATOM      1  C   UNL     1      18.407  52.765  32.774  1.00  0.00     0.136 C 
ATOM      2  O   UNL     1      18.543  53.023  31.587  1.00  0.00    -0.299 OA
ENDROOT
BRANCH   1   3
ATOM      3  C   UNL     1      19.465  53.278  33.740  1.00  0.00     0.053 C 
ATOM      4  C   UNL     1      19.990  54.684  33.404  1.00  0.00     0.016 C 
BRANCH   3   5
ATOM      5  C   UNL     1      19.025  53.122  35.211  1.00  0.00     0.015 C 
BRANCH   5   6
ATOM      6  C   UNL     1      18.033  54.192  35.710  1.00  0.00     0.028 C 
BRANCH   6   7
ATOM      7  C   UNL     1      17.089  53.596  36.722  1.00  0.00    -0.028 C 
ATOM      8  C   UNL     1      15.782  53.331  36.491  1.00  0.00    -0.070 CG0
ATOM      9  C   UNL     1      15.001  52.625  37.569  1.00  0.00     0.039 C 
ATOM     10  G   UNL     1      15.067  53.760  35.218  1.00  0.00     0.000 G0
ENDBRANCH   6   7
ENDBRANCH   5   6
ENDBRANCH   3   5
ENDBRANCH   1   3
BRANCH   1  11
ATOM     11  C   UNL     1      17.194  51.965  33.210  1.00  0.00     0.087 C 
BRANCH  11  12
ATOM     12  C   UNL     1      15.809  52.646  32.971  1.00  0.00     0.066 C 
BRANCH  12  13
ATOM     13  C   UNL     1      14.912  52.663  34.203  1.00  0.00     0.140 C 
ATOM     14  O   UNL     1      14.033  51.825  34.334  1.00  0.00    -0.299 OA
BRANCH  13  15
ATOM     15  C   UNL     1      15.039  53.767  35.229  1.00  0.00     0.106 CG0
ATOM     16  G   UNL     1      15.789  53.329  36.478  1.00  0.00     0.000 G0
ENDBRANCH  13  15
ENDBRANCH  12  13
BRANCH  12  17
ATOM     17  C   UNL     1      15.039  52.173  31.695  1.00  0.00    -0.006 C 
ATOM     18  C   UNL     1      15.431  50.773  31.195  1.00  0.00     0.008 C 
ATOM     19  C   UNL     1      15.162  53.188  30.545  1.00  0.00     0.008 C 
ENDBRANCH  12  17
ENDBRANCH  11  12
ENDBRANCH   1  11
TORSDOF 1
ENDMDL
MODEL 4
REMARK VINA RESULT:    -2.797      1.852      4.170
REMARK INTER + INTRA:          -4.495
REMARK INTER:                  -4.147
REMARK INTRA:                  -0.348
REMARK UNBOUND:                -0.226
REMARK SMILES CC1=CCC[C@H](C)C(=O)C[C@@H](C(C)C)C(=O)C1
REMARK SMILES IDX 8 1 9 2 6 3 7 4 5 5 4 6 3 7 2 8 1 9 10 11 11 12 15 13 16 14
REMARK SMILES IDX 17 15 12 17 13 18 14 19
REMARK H PARENT
REMARK Flexibility Score: 70.00
ROOT
ATOM      1  C   UNL     1      13.231  60.737  22.488  1.00  0.00     0.136 C 
ATOM      2  O   UNL     1      12.108  60.289  22.665  1.00  0.00    -0.299 OA
ENDROOT
BRANCH   1   3
ATOM      3  C   UNL     1      13.697  60.944  21.054  1.00  0.00     0.053 C 
ATOM      4  C   UNL     1      13.547  62.390  20.551  1.00  0.00     0.016 C 
BRANCH   3   5
ATOM      5  C   UNL     1      15.102  60.352  20.814  1.00  0.00     0.015 C 
BRANCH   5   6
ATOM      6  C   UNL     1      16.219  61.394  20.603  1.00  0.00     0.028 C 
BRANCH   6   7
ATOM      7  C   UNL     1      17.355  61.141  21.560  1.00  0.00    -0.028 C 
ATOM      8  C   UNL     1      17.576  61.847  22.694  1.00  0.00    -0.070 CG0
ATOM      9  C   UNL     1      18.687  61.393  23.606  1.00  0.00     0.039 C 
ATOM     10  G   UNL     1      16.786  63.096  23.054  1.00  0.00     0.000 G0
ENDBRANCH   6   7
ENDBRANCH   5   6
ENDBRANCH   3   5
ENDBRANCH   1   3
BRANCH   1  11
ATOM     11  C   UNL     1      14.083  61.066  23.700  1.00  0.00     0.087 C 
BRANCH  11  12
ATOM     12  C   UNL     1      14.362  62.583  23.941  1.00  0.00     0.066 C 
BRANCH  12  13
ATOM     13  C   UNL     1      15.827  62.903  24.214  1.00  0.00     0.140 C 
ATOM     14  O   UNL     1      16.219  63.058  25.361  1.00  0.00    -0.299 OA
BRANCH  13  15
ATOM     15  C   UNL     1      16.791  63.120  23.069  1.00  0.00     0.106 CG0
ATOM     16  G   UNL     1      17.557  61.861  22.695  1.00  0.00     0.000 G0
ENDBRANCH  13  15
ENDBRANCH  12  13
BRANCH  12  17
ATOM     17  C   UNL     1      13.411  63.286  24.965  1.00  0.00    -0.006 C 
ATOM     18  C   UNL     1      12.376  62.356  25.618  1.00  0.00     0.008 C 
ATOM     19  C   UNL     1      12.700  64.499  24.342  1.00  0.00     0.008 C 
ENDBRANCH  12  17
ENDBRANCH  11  12
ENDBRANCH   1  11
TORSDOF 1
ENDMDL
MODEL 5
REMARK VINA RESULT:    -2.779     13.530     15.430
REMARK INTER + INTRA:          -4.467
REMARK INTER:                  -4.649
REMARK INTRA:                   0.182
REMARK UNBOUND:                -0.226
REMARK SMILES CC1=CCC[C@H](C)C(=O)C[C@@H](C(C)C)C(=O)C1
REMARK SMILES IDX 8 1 9 2 6 3 7 4 5 5 4 6 3 7 2 8 1 9 10 11 11 12 15 13 16 14
REMARK SMILES IDX 17 15 12 17 13 18 14 19
REMARK H PARENT
REMARK Flexibility Score: 70.00
ROOT
ATOM      1  C   UNL     1      15.708  52.861  34.898  1.00  0.00     0.136 C 
ATOM      2  O   UNL     1      15.122  51.791  34.965  1.00  0.00    -0.299 OA
ENDROOT
BRANCH   1   3
ATOM      3  C   UNL     1      15.995  53.599  36.198  1.00  0.00     0.053 C 
ATOM      4  C   UNL     1      15.098  53.169  37.371  1.00  0.00     0.016 C 
BRANCH   3   5
ATOM      5  C   UNL     1      17.500  53.597  36.541  1.00  0.00     0.015 C 
BRANCH   5   6
ATOM      6  C   UNL     1      18.362  52.655  35.677  1.00  0.00     0.028 C 
BRANCH   6   7
ATOM      7  C   UNL     1      19.467  53.429  35.006  1.00  0.00    -0.028 C 
ATOM      8  C   UNL     1      19.840  53.273  33.715  1.00  0.00    -0.070 CG0
ATOM      9  C   UNL     1      20.885  54.208  33.161  1.00  0.00     0.039 C 
ATOM     10  G   UNL     1      19.286  52.171  32.825  1.00  0.00     0.000 G0
ENDBRANCH   6   7
ENDBRANCH   5   6
ENDBRANCH   3   5
ENDBRANCH   1   3
BRANCH   1  11
ATOM     11  C   UNL     1      16.122  53.379  33.533  1.00  0.00     0.087 C 
BRANCH  11  12
ATOM     12  C   UNL     1      16.664  52.307  32.536  1.00  0.00     0.066 C 
BRANCH  12  13
ATOM     13  C   UNL     1      18.068  52.602  32.021  1.00  0.00     0.140 C 
ATOM     14  O   UNL     1      18.224  53.130  30.930  1.00  0.00    -0.299 OA
BRANCH  13  15
ATOM     15  C   UNL     1      19.281  52.163  32.809  1.00  0.00     0.106 CG0
ATOM     16  G   UNL     1      19.842  53.267  33.693  1.00  0.00     0.000 G0
ENDBRANCH  13  15
ENDBRANCH  12  13
BRANCH  12  17
ATOM     17  C   UNL     1      15.689  51.913  31.378  1.00  0.00    -0.006 C 
ATOM     18  C   UNL     1      14.256  52.446  31.540  1.00  0.00     0.008 C 
ATOM     19  C   UNL     1      15.655  50.391  31.155  1.00  0.00     0.008 C 
ENDBRANCH  12  17
ENDBRANCH  11  12
ENDBRANCH   1  11
TORSDOF 1
ENDMDL
MODEL 6
REMARK VINA RESULT:    -2.777     12.409     14.600
REMARK INTER + INTRA:          -4.464
REMARK INTER:                  -4.247
REMARK INTRA:                  -0.217
REMARK UNBOUND:                -0.226
REMARK SMILES CC1=CCC[C@H](C)C(=O)C[C@@H](C(C)C)C(=O)C1
REMARK SMILES IDX 8 1 9 2 6 3 7 4 5 5 4 6 3 7 2 8 1 9 10 11 11 12 15 13 16 14
REMARK SMILES IDX 17 15 12 17 13 18 14 19
REMARK H PARENT
REMARK Flexibility Score: 70.00
ROOT
ATOM      1  C   UNL     1      18.519  54.848  33.618  1.00  0.00     0.136 C 
ATOM      2  O   UNL     1      19.364  55.709  33.813  1.00  0.00    -0.299 OA
ENDROOT
BRANCH   1   3
ATOM      3  C   UNL     1      18.871  53.411  33.976  1.00  0.00     0.053 C 
ATOM      4  C   UNL     1      20.133  52.883  33.275  1.00  0.00     0.016 C 
BRANCH   3   5
ATOM      5  C   UNL     1      18.875  53.183  35.503  1.00  0.00     0.015 C 
BRANCH   5   6
ATOM      6  C   UNL     1      17.542  53.498  36.211  1.00  0.00     0.028 C 
BRANCH   6   7
ATOM      7  C   UNL     1      16.457  52.580  35.711  1.00  0.00    -0.028 C 
ATOM      8  C   UNL     1      15.225  52.985  35.324  1.00  0.00    -0.070 CG0
ATOM      9  C   UNL     1      14.292  51.957  34.737  1.00  0.00     0.039 C 
ATOM     10  G   UNL     1      14.733  54.414  35.504  1.00  0.00     0.000 G0
ENDBRANCH   6   7
ENDBRANCH   5   6
ENDBRANCH   3   5
ENDBRANCH   1   3
BRANCH   1  11
ATOM     11  C   UNL     1      17.177  55.263  33.045  1.00  0.00     0.087 C 
BRANCH  11  12
ATOM     12  C   UNL     1      16.218  56.003  34.031  1.00  0.00     0.066 C 
BRANCH  12  13
ATOM     13  C   UNL     1      14.902  55.272  34.272  1.00  0.00     0.140 C 
ATOM     14  O   UNL     1      13.961  55.432  33.510  1.00  0.00    -0.299 OA
BRANCH  13  15
ATOM     15  C   UNL     1      14.716  54.415  35.505  1.00  0.00     0.106 CG0
ATOM     16  G   UNL     1      15.248  53.001  35.326  1.00  0.00     0.000 G0
ENDBRANCH  13  15
ENDBRANCH  12  13
BRANCH  12  17
ATOM     17  C   UNL     1      15.995  57.523  33.737  1.00  0.00    -0.006 C 
ATOM     18  C   UNL     1      17.074  58.167  32.853  1.00  0.00     0.008 C 
ATOM     19  C   UNL     1      15.832  58.336  35.033  1.00  0.00     0.008 C 
ENDBRANCH  12  17
ENDBRANCH  11  12
ENDBRANCH   1  11
TORSDOF 1
ENDMDL
MODEL 7
REMARK VINA RESULT:    -2.650     12.029     14.418
REMARK INTER + INTRA:          -4.270
REMARK INTER:                  -4.258
REMARK INTRA:                  -0.012
REMARK UNBOUND:                -0.226
REMARK SMILES CC1=CCC[C@H](C)C(=O)C[C@@H](C(C)C)C(=O)C1
REMARK SMILES IDX 8 1 9 2 6 3 7 4 5 5 4 6 3 7 2 8 1 9 10 11 11 12 15 13 16 14
REMARK SMILES IDX 17 15 12 17 13 18 14 19
REMARK H PARENT
REMARK Flexibility Score: 70.00
ROOT
ATOM      1  C   UNL     1      15.702  54.067  34.987  1.00  0.00     0.136 C 
ATOM      2  O   UNL     1      15.266  53.607  33.942  1.00  0.00    -0.299 OA
ENDROOT
BRANCH   1   3
ATOM      3  C   UNL     1      16.286  53.096  36.003  1.00  0.00     0.053 C 
ATOM      4  C   UNL     1      15.246  52.165  36.649  1.00  0.00     0.016 C 
BRANCH   3   5
ATOM      5  C   UNL     1      17.517  52.350  35.444  1.00  0.00     0.015 C 
BRANCH   5   6
ATOM      6  C   UNL     1      18.808  53.189  35.373  1.00  0.00     0.028 C 
BRANCH   6   7
ATOM      7  C   UNL     1      19.031  53.683  33.966  1.00  0.00    -0.028 C 
ATOM      8  C   UNL     1      19.005  54.984  33.596  1.00  0.00    -0.070 CG0
ATOM      9  C   UNL     1      19.365  55.324  32.172  1.00  0.00     0.039 C 
ATOM     10  G   UNL     1      18.583  56.101  34.539  1.00  0.00     0.000 G0
ENDBRANCH   6   7
ENDBRANCH   5   6
ENDBRANCH   3   5
ENDBRANCH   1   3
BRANCH   1  11
ATOM     11  C   UNL     1      15.642  55.568  35.202  1.00  0.00     0.087 C 
BRANCH  11  12
ATOM     12  C   UNL     1      16.015  56.446  33.966  1.00  0.00     0.066 C 
BRANCH  12  13
ATOM     13  C   UNL     1      17.452  56.954  33.985  1.00  0.00     0.140 C 
ATOM     14  O   UNL     1      17.730  58.030  33.477  1.00  0.00    -0.299 OA
BRANCH  13  15
ATOM     15  C   UNL     1      18.562  56.095  34.549  1.00  0.00     0.106 CG0
ATOM     16  G   UNL     1      18.992  54.987  33.599  1.00  0.00     0.000 G0
ENDBRANCH  13  15
ENDBRANCH  12  13
BRANCH  12  17
ATOM     17  C   UNL     1      14.999  57.583  33.619  1.00  0.00    -0.006 C 
ATOM     18  C   UNL     1      14.163  58.078  34.809  1.00  0.00     0.008 C 
ATOM     19  C   UNL     1      14.068  57.181  32.462  1.00  0.00     0.008 C 
ENDBRANCH  12  17
ENDBRANCH  11  12
ENDBRANCH   1  11
TORSDOF 1
ENDMDL
MODEL 8
REMARK VINA RESULT:    -2.628      2.687      4.243
REMARK INTER + INTRA:          -4.237
REMARK INTER:                  -4.171
REMARK INTRA:                  -0.066
REMARK UNBOUND:                -0.226
REMARK SMILES CC1=CCC[C@H](C)C(=O)C[C@@H](C(C)C)C(=O)C1
REMARK SMILES IDX 8 1 9 2 6 3 7 4 5 5 4 6 3 7 2 8 1 9 10 11 11 12 15 13 16 14
REMARK SMILES IDX 17 15 12 17 13 18 14 19
REMARK H PARENT
REMARK Flexibility Score: 70.00
ROOT
ATOM      1  C   UNL     1      15.595  61.155  20.536  1.00  0.00     0.136 C 
ATOM      2  O   UNL     1      16.531  61.497  19.828  1.00  0.00    -0.299 OA
ENDROOT
BRANCH   1   3
ATOM      3  C   UNL     1      14.641  62.234  21.026  1.00  0.00     0.053 C 
ATOM      4  C   UNL     1      13.158  61.923  20.764  1.00  0.00     0.016 C 
BRANCH   3   5
ATOM      5  C   UNL     1      14.935  62.643  22.485  1.00  0.00     0.015 C 
BRANCH   5   6
ATOM      6  C   UNL     1      16.384  63.095  22.753  1.00  0.00     0.028 C 
BRANCH   6   7
ATOM      7  C   UNL     1      16.898  62.469  24.024  1.00  0.00    -0.028 C 
ATOM      8  C   UNL     1      17.652  61.346  24.077  1.00  0.00    -0.070 CG0
ATOM      9  C   UNL     1      18.186  60.914  25.419  1.00  0.00     0.039 C 
ATOM     10  G   UNL     1      17.937  60.486  22.855  1.00  0.00     0.000 G0
ENDBRANCH   6   7
ENDBRANCH   5   6
ENDBRANCH   3   5
ENDBRANCH   1   3
BRANCH   1  11
ATOM     11  C   UNL     1      15.437  59.683  20.872  1.00  0.00     0.087 C 
BRANCH  11  12
ATOM     12  C   UNL     1      15.628  59.307  22.376  1.00  0.00     0.066 C 
BRANCH  12  13
ATOM     13  C   UNL     1      17.087  59.221  22.807  1.00  0.00     0.140 C 
ATOM     14  O   UNL     1      17.554  58.157  23.185  1.00  0.00    -0.299 OA
BRANCH  13  15
ATOM     15  C   UNL     1      17.947  60.464  22.859  1.00  0.00     0.106 CG0
ATOM     16  G   UNL     1      17.651  61.336  24.070  1.00  0.00     0.000 G0
ENDBRANCH  13  15
ENDBRANCH  12  13
BRANCH  12  17
ATOM     17  C   UNL     1      14.800  58.076  22.870  1.00  0.00    -0.006 C 
ATOM     18  C   UNL     1      13.941  57.407  21.786  1.00  0.00     0.008 C 
ATOM     19  C   UNL     1      13.923  58.429  24.083  1.00  0.00     0.008 C 
ENDBRANCH  12  17
ENDBRANCH  11  12
ENDBRANCH   1  11
TORSDOF 1
ENDMDL
MODEL 9
REMARK VINA RESULT:    -2.624      2.133      4.644
REMARK INTER + INTRA:          -4.230
REMARK INTER:                  -3.966
REMARK INTRA:                  -0.264
REMARK UNBOUND:                -0.226
REMARK SMILES CC1=CCC[C@H](C)C(=O)C[C@@H](C(C)C)C(=O)C1
REMARK SMILES IDX 8 1 9 2 6 3 7 4 5 5 4 6 3 7 2 8 1 9 10 11 11 12 15 13 16 14
REMARK SMILES IDX 17 15 12 17 13 18 14 19
REMARK H PARENT
REMARK Flexibility Score: 70.00
ROOT
ATOM      1  C   UNL     1      15.610  63.470  25.226  1.00  0.00     0.136 C 
ATOM      2  O   UNL     1      16.790  63.591  24.929  1.00  0.00    -0.299 OA
ENDROOT
BRANCH   1   3
ATOM      3  C   UNL     1      15.053  64.379  26.312  1.00  0.00     0.053 C 
ATOM      4  C   UNL     1      15.836  64.325  27.634  1.00  0.00     0.016 C 
BRANCH   3   5
ATOM      5  C   UNL     1      14.817  65.815  25.796  1.00  0.00     0.015 C 
BRANCH   5   6
ATOM      6  C   UNL     1      13.350  66.151  25.459  1.00  0.00     0.028 C 
BRANCH   6   7
ATOM      7  C   UNL     1      12.418  65.308  26.291  1.00  0.00    -0.028 C 
ATOM      8  C   UNL     1      11.641  64.313  25.804  1.00  0.00    -0.070 CG0
ATOM      9  C   UNL     1      10.852  63.485  26.786  1.00  0.00     0.039 C 
ATOM     10  G   UNL     1      11.497  64.033  24.315  1.00  0.00     0.000 G0
ENDBRANCH   6   7
ENDBRANCH   5   6
ENDBRANCH   3   5
ENDBRANCH   1   3
BRANCH   1  11
ATOM     11  C   UNL     1      14.777  62.436  24.492  1.00  0.00     0.087 C 
BRANCH  11  12
ATOM     12  C   UNL     1      13.764  63.000  23.445  1.00  0.00     0.066 C 
BRANCH  12  13
ATOM     13  C   UNL     1      12.304  62.830  23.850  1.00  0.00     0.140 C 
ATOM     14  O   UNL     1      11.759  61.742  23.739  1.00  0.00    -0.299 OA
BRANCH  13  15
ATOM     15  C   UNL     1      11.491  64.020  24.305  1.00  0.00     0.106 CG0
ATOM     16  G   UNL     1      11.631  64.297  25.794  1.00  0.00     0.000 G0
ENDBRANCH  13  15
ENDBRANCH  12  13
BRANCH  12  17
ATOM     17  C   UNL     1      14.014  62.561  21.965  1.00  0.00    -0.006 C 
ATOM     18  C   UNL     1      15.481  62.642  21.514  1.00  0.00     0.008 C 
ATOM     19  C   UNL     1      13.125  63.342  20.981  1.00  0.00     0.008 C 
ENDBRANCH  12  17
ENDBRANCH  11  12
ENDBRANCH   1  11
TORSDOF 1
ENDMDL
