MODEL 1
REMARK VINA RESULT:    -3.637      0.000      0.000
REMARK INTER + INTRA:          -4.096
REMARK INTER:                  -4.063
REMARK INTRA:                  -0.034
REMARK UNBOUND:                -0.034
REMARK SMILES CCCC(=O)[O-]
REMARK SMILES IDX 3 1 4 2 5 3 6 4 2 5 1 6
REMARK H PARENT
REMARK Flexibility Score: inf
ROOT
ATOM      1  C   UNL     1       7.245   0.695  -1.632  1.00  0.00     0.052 C 
ENDROOT
BRANCH   1   2
ATOM      2  C   UNL     1       6.789   0.675  -3.060  1.00  0.00     0.041 C 
ATOM      3  O   UNL     1       6.055   1.597  -3.504  1.00  0.00    -0.550 OA
ATOM      4  O   UNL     1       7.201  -0.346  -3.907  1.00  0.00    -0.550 OA
ENDBRANCH   1   2
BRANCH   1   5
ATOM      5  C   UNL     1       6.062   0.633  -0.658  1.00  0.00     0.003 C 
ATOM      6  C   UNL     1       6.022   1.836   0.285  1.00  0.00     0.004 C 
ENDBRANCH   1   5
TORSDOF 2
ENDMDL
MODEL 2
REMARK VINA RESULT:    -3.598     18.676     19.285
REMARK INTER + INTRA:          -4.052
REMARK INTER:                  -3.994
REMARK INTRA:                  -0.058
REMARK UNBOUND:                -0.034
REMARK SMILES CCCC(=O)[O-]
REMARK SMILES IDX 3 1 4 2 5 3 6 4 2 5 1 6
REMARK H PARENT
REMARK Flexibility Score: inf
ROOT
ATOM      1  C   UNL     1     -10.335  -4.961   6.691  1.00  0.00     0.052 C 
ENDROOT
BRANCH   1   2
ATOM      2  C   UNL     1      -8.989  -5.585   6.480  1.00  0.00     0.041 C 
ATOM      3  O   UNL     1      -7.949  -4.876   6.515  1.00  0.00    -0.550 OA
ATOM      4  O   UNL     1      -8.882  -6.954   6.276  1.00  0.00    -0.550 OA
ENDBRANCH   1   2
BRANCH   1   5
ATOM      5  C   UNL     1     -10.789  -4.161   5.464  1.00  0.00     0.003 C 
ATOM      6  C   UNL     1     -11.008  -5.050   4.240  1.00  0.00     0.004 C 
ENDBRANCH   1   5
TORSDOF 2
ENDMDL
MODEL 3
REMARK VINA RESULT:    -3.268      2.067      2.582
REMARK INTER + INTRA:          -3.684
REMARK INTER:                  -3.678
REMARK INTRA:                  -0.006
REMARK UNBOUND:                -0.034
REMARK SMILES CCCC(=O)[O-]
REMARK SMILES IDX 3 1 4 2 5 3 6 4 2 5 1 6
REMARK H PARENT
REMARK Flexibility Score: inf
ROOT
ATOM      1  C   UNL     1       7.393   2.517  -0.777  1.00  0.00     0.052 C 
ENDROOT
BRANCH   1   2
ATOM      2  C   UNL     1       6.467   1.542  -1.440  1.00  0.00     0.041 C 
ATOM      3  O   UNL     1       5.921   0.628  -0.767  1.00  0.00    -0.550 OA
ATOM      4  O   UNL     1       6.182   1.664  -2.794  1.00  0.00    -0.550 OA
ENDBRANCH   1   2
BRANCH   1   5
ATOM      5  C   UNL     1       6.715   3.236   0.394  1.00  0.00     0.003 C 
ATOM      6  C   UNL     1       7.533   4.426   0.898  1.00  0.00     0.004 C 
ENDBRANCH   1   5
TORSDOF 2
ENDMDL
MODEL 4
REMARK VINA RESULT:    -3.189      2.835      3.670
REMARK INTER + INTRA:          -3.596
REMARK INTER:                  -3.565
REMARK INTRA:                  -0.031
REMARK UNBOUND:                -0.034
REMARK SMILES CCCC(=O)[O-]
REMARK SMILES IDX 3 1 4 2 5 3 6 4 2 5 1 6
REMARK H PARENT
REMARK Flexibility Score: inf
ROOT
ATOM      1  C   UNL     1       7.280   2.257  -1.092  1.00  0.00     0.052 C 
ENDROOT
BRANCH   1   2
ATOM      2  C   UNL     1       6.545   2.540   0.184  1.00  0.00     0.041 C 
ATOM      3  O   UNL     1       6.700   3.641   0.774  1.00  0.00    -0.550 OA
ATOM      4  O   UNL     1       5.665   1.599   0.702  1.00  0.00    -0.550 OA
ENDBRANCH   1   2
BRANCH   1   5
ATOM      5  C   UNL     1       6.946   0.866  -1.642  1.00  0.00     0.003 C 
ATOM      6  C   UNL     1       6.317   0.927  -3.035  1.00  0.00     0.004 C 
ENDBRANCH   1   5
TORSDOF 2
ENDMDL
MODEL 5
REMARK VINA RESULT:    -3.166     18.141     18.700
REMARK INTER + INTRA:          -3.570
REMARK INTER:                  -3.500
REMARK INTRA:                  -0.070
REMARK UNBOUND:                -0.034
REMARK SMILES CCCC(=O)[O-]
REMARK SMILES IDX 3 1 4 2 5 3 6 4 2 5 1 6
REMARK H PARENT
REMARK Flexibility Score: inf
ROOT
ATOM      1  C   UNL     1      -7.973  -6.168   5.274  1.00  0.00     0.052 C 
ENDROOT
BRANCH   1   2
ATOM      2  C   UNL     1      -9.109  -6.511   4.357  1.00  0.00     0.041 C 
ATOM      3  O   UNL     1      -9.368  -7.715   4.092  1.00  0.00    -0.550 OA
ATOM      4  O   UNL     1      -9.901  -5.503   3.824  1.00  0.00    -0.550 OA
ENDBRANCH   1   2
BRANCH   1   5
ATOM      5  C   UNL     1      -8.457  -5.415   6.518  1.00  0.00     0.003 C 
ATOM      6  C   UNL     1      -9.315  -6.290   7.431  1.00  0.00     0.004 C 
ENDBRANCH   1   5
TORSDOF 2
ENDMDL
MODEL 6
REMARK VINA RESULT:    -3.108     18.565     19.103
REMARK INTER + INTRA:          -3.506
REMARK INTER:                  -3.438
REMARK INTRA:                  -0.067
REMARK UNBOUND:                -0.034
REMARK SMILES CCCC(=O)[O-]
REMARK SMILES IDX 3 1 4 2 5 3 6 4 2 5 1 6
REMARK H PARENT
REMARK Flexibility Score: inf
ROOT
ATOM      1  C   UNL     1      -9.822  -6.055   4.049  1.00  0.00     0.052 C 
ENDROOT
BRANCH   1   2
ATOM      2  C   UNL     1      -8.907  -6.467   5.163  1.00  0.00     0.041 C 
ATOM      3  O   UNL     1      -7.717  -6.055   5.191  1.00  0.00    -0.550 OA
ATOM      4  O   UNL     1      -9.379  -7.280   6.186  1.00  0.00    -0.550 OA
ENDBRANCH   1   2
BRANCH   1   5
ATOM      5  C   UNL     1     -11.118  -5.432   4.581  1.00  0.00     0.003 C 
ATOM      6  C   UNL     1     -10.861  -4.171   5.406  1.00  0.00     0.004 C 
ENDBRANCH   1   5
TORSDOF 2
ENDMDL
MODEL 7
REMARK VINA RESULT:    -3.050     12.124     12.532
REMARK INTER + INTRA:          -3.440
REMARK INTER:                  -3.424
REMARK INTRA:                  -0.016
REMARK UNBOUND:                -0.034
REMARK SMILES CCCC(=O)[O-]
REMARK SMILES IDX 3 1 4 2 5 3 6 4 2 5 1 6
REMARK H PARENT
REMARK Flexibility Score: inf
ROOT
ATOM      1  C   UNL     1      -1.973  -5.974  -5.326  1.00  0.00     0.052 C 
ENDROOT
BRANCH   1   2
ATOM      2  C   UNL     1      -3.092  -6.967  -5.243  1.00  0.00     0.041 C 
ATOM      3  O   UNL     1      -4.288  -6.573  -5.207  1.00  0.00    -0.550 OA
ATOM      4  O   UNL     1      -2.816  -8.328  -5.240  1.00  0.00    -0.550 OA
ENDBRANCH   1   2
BRANCH   1   5
ATOM      5  C   UNL     1      -1.279  -6.015  -6.693  1.00  0.00     0.003 C 
ATOM      6  C   UNL     1      -0.030  -6.897  -6.685  1.00  0.00     0.004 C 
ENDBRANCH   1   5
TORSDOF 2
ENDMDL
MODEL 8
REMARK VINA RESULT:    -3.029      3.526      4.189
REMARK INTER + INTRA:          -3.417
REMARK INTER:                  -3.407
REMARK INTRA:                  -0.011
REMARK UNBOUND:                -0.034
REMARK SMILES CCCC(=O)[O-]
REMARK SMILES IDX 3 1 4 2 5 3 6 4 2 5 1 6
REMARK H PARENT
REMARK Flexibility Score: inf
ROOT
ATOM      1  C   UNL     1       6.542   2.944   0.474  1.00  0.00     0.052 C 
ENDROOT
BRANCH   1   2
ATOM      2  C   UNL     1       7.575   4.027   0.384  1.00  0.00     0.041 C 
ATOM      3  O   UNL     1       7.229   5.237   0.415  1.00  0.00    -0.550 OA
ATOM      4  O   UNL     1       8.921   3.697   0.299  1.00  0.00    -0.550 OA
ENDBRANCH   1   2
BRANCH   1   5
ATOM      5  C   UNL     1       6.430   2.156  -0.836  1.00  0.00     0.003 C 
ATOM      6  C   UNL     1       6.070   0.689  -0.603  1.00  0.00     0.004 C 
ENDBRANCH   1   5
TORSDOF 2
ENDMDL
MODEL 9
REMARK VINA RESULT:    -1.415     18.741     19.344
REMARK INTER + INTRA:          -1.614
REMARK INTER:                  -1.567
REMARK INTRA:                  -0.047
REMARK UNBOUND:                -0.034
REMARK SMILES CCCC(=O)[O-]
REMARK SMILES IDX 3 1 4 2 5 3 6 4 2 5 1 6
REMARK H PARENT
REMARK Flexibility Score: inf
ROOT
ATOM      1  C   UNL     1      -9.787  -6.349   7.177  1.00  0.00     0.052 C 
ENDROOT
BRANCH   1   2
ATOM      2  C   UNL     1      -8.631  -5.975   6.298  1.00  0.00     0.041 C 
ATOM      3  O   UNL     1      -8.494  -6.513   5.168  1.00  0.00    -0.550 OA
ATOM      4  O   UNL     1      -7.725  -5.009   6.715  1.00  0.00    -0.550 OA
ENDBRANCH   1   2
BRANCH   1   5
ATOM      5  C   UNL     1     -10.716  -5.156   7.430  1.00  0.00     0.003 C 
ATOM      6  C   UNL     1     -11.125  -4.453   6.135  1.00  0.00     0.004 C 
ENDBRANCH   1   5
TORSDOF 2
ENDMDL
