MODEL 1
REMARK VINA RESULT:    -2.176      0.000      0.000
REMARK INTER + INTRA:          -7.174
REMARK INTER:                  -3.958
REMARK INTRA:                  -3.216
REMARK UNBOUND:                -3.216
REMARK SMILES CCCCCC=CCC=CCCCCCCCC(=O)[O-]
REMARK SMILES IDX 11 1 12 2 13 3 14 4 15 5 16 6 17 7 18 8 19 9 20 10 10 11
REMARK SMILES IDX 9 12 8 13 7 14 6 15 5 16 4 17 3 18 2 19 1 20
REMARK H PARENT
REMARK Flexibility Score: inf
ROOT
ATOM      1  C   UNL     1      -1.492   6.350  16.395  1.00  0.00     0.027 C 
ENDROOT
BRANCH   1   2
ATOM      2  C   UNL     1      -0.883   6.229  14.991  1.00  0.00     0.004 C 
BRANCH   2   3
ATOM      3  C   UNL     1      -0.070   7.470  14.593  1.00  0.00     0.000 C 
BRANCH   3   4
ATOM      4  C   UNL     1       1.377   7.131  14.203  1.00  0.00     0.000 C 
BRANCH   4   5
ATOM      5  C   UNL     1       2.349   8.198  14.728  1.00  0.00     0.000 C 
BRANCH   5   6
ATOM      6  C   UNL     1       1.627   9.438  15.278  1.00  0.00     0.006 C 
BRANCH   6   7
ATOM      7  C   UNL     1       2.279  10.749  14.819  1.00  0.00     0.053 C 
BRANCH   7   8
ATOM      8  C   UNL     1       3.376  11.145  15.757  1.00  0.00     0.041 C 
ATOM      9  O   UNL     1       3.101  11.531  16.925  1.00  0.00    -0.550 OA
ATOM     10  O   UNL     1       4.698  11.131  15.330  1.00  0.00    -0.550 OA
ENDBRANCH   7   8
ENDBRANCH   6   7
ENDBRANCH   5   6
ENDBRANCH   4   5
ENDBRANCH   3   4
ENDBRANCH   2   3
ENDBRANCH   1   2
BRANCH   1  11
ATOM     11  C   UNL     1      -1.360   7.756  16.926  1.00  0.00    -0.031 C 
ATOM     12  C   UNL     1      -0.598   8.107  17.978  1.00  0.00    -0.027 C 
BRANCH  12  13
ATOM     13  C   UNL     1       0.245   7.135  18.769  1.00  0.00     0.054 C 
BRANCH  13  14
ATOM     14  C   UNL     1       1.666   7.113  18.268  1.00  0.00    -0.027 C 
ATOM     15  C   UNL     1       2.271   6.042  17.718  1.00  0.00    -0.031 C 
BRANCH  15  16
ATOM     16  C   UNL     1       1.613   4.700  17.480  1.00  0.00     0.027 C 
BRANCH  16  17
ATOM     17  C   UNL     1       1.985   4.111  16.111  1.00  0.00     0.004 C 
BRANCH  17  18
ATOM     18  C   UNL     1       1.009   3.038  15.591  1.00  0.00     0.000 C 
BRANCH  18  19
ATOM     19  C   UNL     1      -0.223   2.831  16.497  1.00  0.00    -0.003 C 
ATOM     20  C   UNL     1      -1.505   2.614  15.696  1.00  0.00     0.004 C 
ENDBRANCH  18  19
ENDBRANCH  17  18
ENDBRANCH  16  17
ENDBRANCH  15  16
ENDBRANCH  13  14
ENDBRANCH  12  13
ENDBRANCH   1  11
TORSDOF 14
ENDMDL
MODEL 2
REMARK VINA RESULT:    -2.144      1.957      4.008
REMARK INTER + INTRA:          -7.115
REMARK INTER:                  -4.137
REMARK INTRA:                  -2.978
REMARK UNBOUND:                -3.216
REMARK SMILES CCCCCC=CCC=CCCCCCCCC(=O)[O-]
REMARK SMILES IDX 11 1 12 2 13 3 14 4 15 5 16 6 17 7 18 8 19 9 20 10 10 11
REMARK SMILES IDX 9 12 8 13 7 14 6 15 5 16 4 17 3 18 2 19 1 20
REMARK H PARENT
REMARK Flexibility Score: inf
ROOT
ATOM      1  C   UNL     1       1.336   6.814  14.364  1.00  0.00     0.027 C 
ENDROOT
BRANCH   1   2
ATOM      2  C   UNL     1       2.203   8.017  14.762  1.00  0.00     0.004 C 
BRANCH   2   3
ATOM      3  C   UNL     1       1.365   9.251  15.128  1.00  0.00     0.000 C 
BRANCH   3   4
ATOM      4  C   UNL     1       2.122  10.570  14.904  1.00  0.00     0.000 C 
BRANCH   4   5
ATOM      5  C   UNL     1       2.748  11.070  16.214  1.00  0.00     0.000 C 
BRANCH   5   6
ATOM      6  C   UNL     1       1.900  10.723  17.448  1.00  0.00     0.006 C 
BRANCH   6   7
ATOM      7  C   UNL     1       1.932  11.826  18.513  1.00  0.00     0.053 C 
BRANCH   7   8
ATOM      8  C   UNL     1       0.675  12.637  18.464  1.00  0.00     0.041 C 
ATOM      9  O   UNL     1       0.695  13.807  17.996  1.00  0.00    -0.550 OA
ATOM     10  O   UNL     1      -0.508  12.120  18.976  1.00  0.00    -0.550 OA
ENDBRANCH   7   8
ENDBRANCH   6   7
ENDBRANCH   5   6
ENDBRANCH   4   5
ENDBRANCH   3   4
ENDBRANCH   2   3
ENDBRANCH   1   2
BRANCH   1  11
ATOM     11  C   UNL     1      -0.128   7.098  14.596  1.00  0.00    -0.031 C 
ATOM     12  C   UNL     1      -0.997   6.229  15.144  1.00  0.00    -0.027 C 
BRANCH  12  13
ATOM     13  C   UNL     1      -0.620   4.846  15.617  1.00  0.00     0.054 C 
BRANCH  13  14
ATOM     14  C   UNL     1      -0.949   4.660  17.076  1.00  0.00    -0.027 C 
ATOM     15  C   UNL     1      -0.120   4.957  18.095  1.00  0.00    -0.031 C 
BRANCH  15  16
ATOM     16  C   UNL     1       1.260   5.560  17.944  1.00  0.00     0.027 C 
BRANCH  16  17
ATOM     17  C   UNL     1       1.250   7.081  18.160  1.00  0.00     0.004 C 
BRANCH  17  18
ATOM     18  C   UNL     1       0.014   7.611  18.913  1.00  0.00     0.000 C 
BRANCH  18  19
ATOM     19  C   UNL     1      -0.870   8.551  18.065  1.00  0.00    -0.003 C 
ATOM     20  C   UNL     1      -2.325   8.089  18.011  1.00  0.00     0.004 C 
ENDBRANCH  18  19
ENDBRANCH  17  18
ENDBRANCH  16  17
ENDBRANCH  15  16
ENDBRANCH  13  14
ENDBRANCH  12  13
ENDBRANCH   1  11
TORSDOF 14
ENDMDL
MODEL 3
REMARK VINA RESULT:    -2.019      2.807      5.855
REMARK INTER + INTRA:          -6.887
REMARK INTER:                  -3.765
REMARK INTRA:                  -3.122
REMARK UNBOUND:                -3.216
REMARK SMILES CCCCCC=CCC=CCCCCCCCC(=O)[O-]
REMARK SMILES IDX 11 1 12 2 13 3 14 4 15 5 16 6 17 7 18 8 19 9 20 10 10 11
REMARK SMILES IDX 9 12 8 13 7 14 6 15 5 16 4 17 3 18 2 19 1 20
REMARK H PARENT
REMARK Flexibility Score: inf
ROOT
ATOM      1  C   UNL     1       0.192   4.228  16.553  1.00  0.00     0.027 C 
ENDROOT
BRANCH   1   2
ATOM      2  C   UNL     1       0.683   4.841  17.872  1.00  0.00     0.004 C 
BRANCH   2   3
ATOM      3  C   UNL     1       1.722   5.952  17.655  1.00  0.00     0.000 C 
BRANCH   3   4
ATOM      4  C   UNL     1       1.273   7.304  18.230  1.00  0.00     0.000 C 
BRANCH   4   5
ATOM      5  C   UNL     1      -0.141   7.205  18.820  1.00  0.00     0.000 C 
BRANCH   5   6
ATOM      6  C   UNL     1      -1.055   8.353  18.365  1.00  0.00     0.006 C 
BRANCH   6   7
ATOM      7  C   UNL     1      -2.520   7.918  18.224  1.00  0.00     0.053 C 
BRANCH   7   8
ATOM      8  C   UNL     1      -3.436   9.072  18.486  1.00  0.00     0.041 C 
ATOM      9  O   UNL     1      -3.860   9.774  17.529  1.00  0.00    -0.550 OA
ATOM     10  O   UNL     1      -3.788   9.402  19.789  1.00  0.00    -0.550 OA
ENDBRANCH   7   8
ENDBRANCH   6   7
ENDBRANCH   5   6
ENDBRANCH   4   5
ENDBRANCH   3   4
ENDBRANCH   2   3
ENDBRANCH   1   2
BRANCH   1  11
ATOM     11  C   UNL     1      -1.170   4.759  16.180  1.00  0.00    -0.031 C 
ATOM     12  C   UNL     1      -1.385   5.769  15.317  1.00  0.00    -0.027 C 
BRANCH  12  13
ATOM     13  C   UNL     1      -0.286   6.505  14.590  1.00  0.00     0.054 C 
BRANCH  13  14
ATOM     14  C   UNL     1      -0.275   7.967  14.952  1.00  0.00    -0.027 C 
ATOM     15  C   UNL     1       0.832   8.731  15.034  1.00  0.00    -0.031 C 
BRANCH  15  16
ATOM     16  C   UNL     1       2.239   8.256  14.740  1.00  0.00     0.027 C 
BRANCH  16  17
ATOM     17  C   UNL     1       3.295   9.290  15.158  1.00  0.00     0.004 C 
BRANCH  17  18
ATOM     18  C   UNL     1       2.715  10.624  15.667  1.00  0.00     0.000 C 
BRANCH  18  19
ATOM     19  C   UNL     1       2.953  10.867  17.173  1.00  0.00    -0.003 C 
ATOM     20  C   UNL     1       1.649  11.081  17.941  1.00  0.00     0.004 C 
ENDBRANCH  18  19
ENDBRANCH  17  18
ENDBRANCH  16  17
ENDBRANCH  15  16
ENDBRANCH  13  14
ENDBRANCH  12  13
ENDBRANCH   1  11
TORSDOF 14
ENDMDL
MODEL 4
REMARK VINA RESULT:    -1.998      2.895      5.228
REMARK INTER + INTRA:          -6.850
REMARK INTER:                  -3.684
REMARK INTRA:                  -3.166
REMARK UNBOUND:                -3.216
REMARK SMILES CCCCCC=CCC=CCCCCCCCC(=O)[O-]
REMARK SMILES IDX 11 1 12 2 13 3 14 4 15 5 16 6 17 7 18 8 19 9 20 10 10 11
REMARK SMILES IDX 9 12 8 13 7 14 6 15 5 16 4 17 3 18 2 19 1 20
REMARK H PARENT
REMARK Flexibility Score: inf
ROOT
ATOM      1  C   UNL     1       0.797   7.762  14.645  1.00  0.00     0.027 C 
ENDROOT
BRANCH   1   2
ATOM      2  C   UNL     1       0.527   6.251  14.602  1.00  0.00     0.004 C 
BRANCH   2   3
ATOM      3  C   UNL     1      -0.802   5.871  15.273  1.00  0.00     0.000 C 
BRANCH   3   4
ATOM      4  C   UNL     1      -1.306   6.949  16.244  1.00  0.00     0.000 C 
BRANCH   4   5
ATOM      5  C   UNL     1      -1.877   6.313  17.520  1.00  0.00     0.000 C 
BRANCH   5   6
ATOM      6  C   UNL     1      -2.445   7.353  18.499  1.00  0.00     0.006 C 
BRANCH   6   7
ATOM      7  C   UNL     1      -2.702   8.710  17.831  1.00  0.00     0.053 C 
BRANCH   7   8
ATOM      8  C   UNL     1      -2.741   9.799  18.858  1.00  0.00     0.041 C 
ATOM      9  O   UNL     1      -2.045   9.706  19.904  1.00  0.00    -0.550 OA
ATOM     10  O   UNL     1      -3.577  10.894  18.681  1.00  0.00    -0.550 OA
ENDBRANCH   7   8
ENDBRANCH   6   7
ENDBRANCH   5   6
ENDBRANCH   4   5
ENDBRANCH   3   4
ENDBRANCH   2   3
ENDBRANCH   1   2
BRANCH   1  11
ATOM     11  C   UNL     1       2.270   8.054  14.500  1.00  0.00    -0.031 C 
ATOM     12  C   UNL     1       2.837   9.253  14.733  1.00  0.00    -0.027 C 
BRANCH  12  13
ATOM     13  C   UNL     1       2.072  10.472  15.188  1.00  0.00     0.054 C 
BRANCH  13  14
ATOM     14  C   UNL     1       2.546  10.941  16.539  1.00  0.00    -0.027 C 
ATOM     15  C   UNL     1       2.026  10.543  17.717  1.00  0.00    -0.031 C 
BRANCH  15  16
ATOM     16  C   UNL     1       0.909   9.534  17.877  1.00  0.00     0.027 C 
BRANCH  16  17
ATOM     17  C   UNL     1       1.276   8.423  18.872  1.00  0.00     0.004 C 
BRANCH  17  18
ATOM     18  C   UNL     1       1.722   7.101  18.217  1.00  0.00     0.000 C 
BRANCH  18  19
ATOM     19  C   UNL     1       3.233   7.043  17.908  1.00  0.00    -0.003 C 
ATOM     20  C   UNL     1       3.611   5.816  17.081  1.00  0.00     0.004 C 
ENDBRANCH  18  19
ENDBRANCH  17  18
ENDBRANCH  16  17
ENDBRANCH  15  16
ENDBRANCH  13  14
ENDBRANCH  12  13
ENDBRANCH   1  11
TORSDOF 14
ENDMDL
MODEL 5
REMARK VINA RESULT:    -1.949      3.000      5.640
REMARK INTER + INTRA:          -6.761
REMARK INTER:                  -3.514
REMARK INTRA:                  -3.247
REMARK UNBOUND:                -3.216
REMARK SMILES CCCCCC=CCC=CCCCCCCCC(=O)[O-]
REMARK SMILES IDX 11 1 12 2 13 3 14 4 15 5 16 6 17 7 18 8 19 9 20 10 10 11
REMARK SMILES IDX 9 12 8 13 7 14 6 15 5 16 4 17 3 18 2 19 1 20
REMARK H PARENT
REMARK Flexibility Score: inf
ROOT
ATOM      1  C   UNL     1       1.155   5.026  18.145  1.00  0.00     0.027 C 
ENDROOT
BRANCH   1   2
ATOM      2  C   UNL     1       1.514   6.516  18.060  1.00  0.00     0.004 C 
BRANCH   2   3
ATOM      3  C   UNL     1       1.434   7.220  19.423  1.00  0.00     0.000 C 
BRANCH   3   4
ATOM      4  C   UNL     1       0.686   8.560  19.355  1.00  0.00     0.000 C 
BRANCH   4   5
ATOM      5  C   UNL     1      -0.358   8.547  18.228  1.00  0.00     0.000 C 
BRANCH   5   6
ATOM      6  C   UNL     1      -1.780   8.271  18.741  1.00  0.00     0.006 C 
BRANCH   6   7
ATOM      7  C   UNL     1      -2.857   8.626  17.706  1.00  0.00     0.053 C 
BRANCH   7   8
ATOM      8  C   UNL     1      -3.731   9.728  18.217  1.00  0.00     0.041 C 
ATOM      9  O   UNL     1      -3.699  10.047  19.436  1.00  0.00    -0.550 OA
ATOM     10  O   UNL     1      -4.612  10.374  17.359  1.00  0.00    -0.550 OA
ENDBRANCH   7   8
ENDBRANCH   6   7
ENDBRANCH   5   6
ENDBRANCH   4   5
ENDBRANCH   3   4
ENDBRANCH   2   3
ENDBRANCH   1   2
BRANCH   1  11
ATOM     11  C   UNL     1      -0.309   4.836  18.456  1.00  0.00    -0.031 C 
ATOM     12  C   UNL     1      -1.276   4.706  17.529  1.00  0.00    -0.027 C 
BRANCH  12  13
ATOM     13  C   UNL     1      -1.024   4.721  16.040  1.00  0.00     0.054 C 
BRANCH  13  14
ATOM     14  C   UNL     1      -1.321   6.075  15.450  1.00  0.00    -0.027 C 
ATOM     15  C   UNL     1      -0.436   6.828  14.767  1.00  0.00    -0.031 C 
BRANCH  15  16
ATOM     16  C   UNL     1       0.987   6.422  14.451  1.00  0.00     0.027 C 
BRANCH  16  17
ATOM     17  C   UNL     1       1.964   7.599  14.583  1.00  0.00     0.004 C 
BRANCH  17  18
ATOM     18  C   UNL     1       1.312   8.924  15.024  1.00  0.00     0.000 C 
BRANCH  18  19
ATOM     19  C   UNL     1       2.330  10.001  15.455  1.00  0.00    -0.003 C 
ATOM     20  C   UNL     1       3.131   9.585  16.688  1.00  0.00     0.004 C 
ENDBRANCH  18  19
ENDBRANCH  17  18
ENDBRANCH  16  17
ENDBRANCH  15  16
ENDBRANCH  13  14
ENDBRANCH  12  13
ENDBRANCH   1  11
TORSDOF 14
ENDMDL
MODEL 6
REMARK VINA RESULT:    -1.927      2.526      5.811
REMARK INTER + INTRA:          -6.720
REMARK INTER:                  -3.601
REMARK INTRA:                  -3.119
REMARK UNBOUND:                -3.216
REMARK SMILES CCCCCC=CCC=CCCCCCCCC(=O)[O-]
REMARK SMILES IDX 11 1 12 2 13 3 14 4 15 5 16 6 17 7 18 8 19 9 20 10 10 11
REMARK SMILES IDX 9 12 8 13 7 14 6 15 5 16 4 17 3 18 2 19 1 20
REMARK H PARENT
REMARK Flexibility Score: inf
ROOT
ATOM      1  C   UNL     1       0.909   8.482  15.512  1.00  0.00     0.027 C 
ENDROOT
BRANCH   1   2
ATOM      2  C   UNL     1      -0.077   7.687  14.644  1.00  0.00     0.004 C 
BRANCH   2   3
ATOM      3  C   UNL     1       0.164   6.172  14.716  1.00  0.00     0.000 C 
BRANCH   3   4
ATOM      4  C   UNL     1      -0.817   5.458  15.658  1.00  0.00     0.000 C 
BRANCH   4   5
ATOM      5  C   UNL     1      -0.180   5.224  17.035  1.00  0.00     0.000 C 
BRANCH   5   6
ATOM      6  C   UNL     1      -0.759   6.144  18.121  1.00  0.00     0.006 C 
BRANCH   6   7
ATOM      7  C   UNL     1      -2.054   6.837  17.677  1.00  0.00     0.053 C 
BRANCH   7   8
ATOM      8  C   UNL     1      -2.015   8.292  18.023  1.00  0.00     0.041 C 
ATOM      9  O   UNL     1      -0.956   8.807  18.473  1.00  0.00    -0.550 OA
ATOM     10  O   UNL     1      -3.157   9.072  17.890  1.00  0.00    -0.550 OA
ENDBRANCH   7   8
ENDBRANCH   6   7
ENDBRANCH   5   6
ENDBRANCH   4   5
ENDBRANCH   3   4
ENDBRANCH   2   3
ENDBRANCH   1   2
BRANCH   1  11
ATOM     11  C   UNL     1       2.273   7.838  15.513  1.00  0.00    -0.031 C 
ATOM     12  C   UNL     1       2.982   7.552  16.621  1.00  0.00    -0.027 C 
BRANCH  12  13
ATOM     13  C   UNL     1       2.498   7.827  18.024  1.00  0.00     0.054 C 
BRANCH  13  14
ATOM     14  C   UNL     1       3.404   8.801  18.733  1.00  0.00    -0.027 C 
ATOM     15  C   UNL     1       3.189  10.129  18.819  1.00  0.00    -0.031 C 
BRANCH  15  16
ATOM     16  C   UNL     1       1.987  10.852  18.252  1.00  0.00     0.027 C 
BRANCH  16  17
ATOM     17  C   UNL     1       2.292  11.498  16.892  1.00  0.00     0.004 C 
BRANCH  17  18
ATOM     18  C   UNL     1       3.786  11.513  16.514  1.00  0.00     0.000 C 
BRANCH  18  19
ATOM     19  C   UNL     1       4.061  11.063  15.063  1.00  0.00    -0.003 C 
ATOM     20  C   UNL     1       2.879  11.339  14.134  1.00  0.00     0.004 C 
ENDBRANCH  18  19
ENDBRANCH  17  18
ENDBRANCH  16  17
ENDBRANCH  15  16
ENDBRANCH  13  14
ENDBRANCH  12  13
ENDBRANCH   1  11
TORSDOF 14
ENDMDL
MODEL 7
REMARK VINA RESULT:    -1.902      1.446      3.571
REMARK INTER + INTRA:          -6.676
REMARK INTER:                  -3.464
REMARK INTRA:                  -3.211
REMARK UNBOUND:                -3.216
REMARK SMILES CCCCCC=CCC=CCCCCCCCC(=O)[O-]
REMARK SMILES IDX 11 1 12 2 13 3 14 4 15 5 16 6 17 7 18 8 19 9 20 10 10 11
REMARK SMILES IDX 9 12 8 13 7 14 6 15 5 16 4 17 3 18 2 19 1 20
REMARK H PARENT
REMARK Flexibility Score: inf
ROOT
ATOM      1  C   UNL     1      -1.354   5.830  15.278  1.00  0.00     0.027 C 
ENDROOT
BRANCH   1   2
ATOM      2  C   UNL     1      -0.437   6.958  14.784  1.00  0.00     0.004 C 
BRANCH   2   3
ATOM      3  C   UNL     1       0.991   6.472  14.496  1.00  0.00     0.000 C 
BRANCH   3   4
ATOM      4  C   UNL     1       2.039   7.585  14.651  1.00  0.00     0.000 C 
BRANCH   4   5
ATOM      5  C   UNL     1       1.365   8.930  14.965  1.00  0.00     0.000 C 
BRANCH   5   6
ATOM      6  C   UNL     1       2.378  10.070  15.153  1.00  0.00     0.006 C 
BRANCH   6   7
ATOM      7  C   UNL     1       2.083  10.919  16.397  1.00  0.00     0.053 C 
BRANCH   7   8
ATOM      8  C   UNL     1       3.358  11.325  17.068  1.00  0.00     0.041 C 
ATOM      9  O   UNL     1       4.319  11.768  16.384  1.00  0.00    -0.550 OA
ATOM     10  O   UNL     1       3.503  11.174  18.441  1.00  0.00    -0.550 OA
ENDBRANCH   7   8
ENDBRANCH   6   7
ENDBRANCH   5   6
ENDBRANCH   4   5
ENDBRANCH   3   4
ENDBRANCH   2   3
ENDBRANCH   1   2
BRANCH   1  11
ATOM     11  C   UNL     1      -0.597   4.852  16.141  1.00  0.00    -0.031 C 
ATOM     12  C   UNL     1      -0.983   4.459  17.369  1.00  0.00    -0.027 C 
BRANCH  12  13
ATOM     13  C   UNL     1      -2.243   4.937  18.050  1.00  0.00     0.054 C 
BRANCH  13  14
ATOM     14  C   UNL     1      -1.935   5.589  19.373  1.00  0.00    -0.027 C 
ATOM     15  C   UNL     1      -1.740   6.910  19.552  1.00  0.00    -0.031 C 
BRANCH  15  16
ATOM     16  C   UNL     1      -1.834   7.957  18.465  1.00  0.00     0.027 C 
BRANCH  16  17
ATOM     17  C   UNL     1      -0.451   8.477  18.045  1.00  0.00     0.004 C 
BRANCH  17  18
ATOM     18  C   UNL     1       0.667   8.219  19.073  1.00  0.00     0.000 C 
BRANCH  18  19
ATOM     19  C   UNL     1       2.017   7.828  18.434  1.00  0.00    -0.003 C 
ATOM     20  C   UNL     1       2.133   6.323  18.193  1.00  0.00     0.004 C 
ENDBRANCH  18  19
ENDBRANCH  17  18
ENDBRANCH  16  17
ENDBRANCH  15  16
ENDBRANCH  13  14
ENDBRANCH  12  13
ENDBRANCH   1  11
TORSDOF 14
ENDMDL
MODEL 8
REMARK VINA RESULT:    -1.893      3.303      6.200
REMARK INTER + INTRA:          -6.659
REMARK INTER:                  -3.466
REMARK INTRA:                  -3.193
REMARK UNBOUND:                -3.216
REMARK SMILES CCCCCC=CCC=CCCCCCCCC(=O)[O-]
REMARK SMILES IDX 11 1 12 2 13 3 14 4 15 5 16 6 17 7 18 8 19 9 20 10 10 11
REMARK SMILES IDX 9 12 8 13 7 14 6 15 5 16 4 17 3 18 2 19 1 20
REMARK H PARENT
REMARK Flexibility Score: inf
ROOT
ATOM      1  C   UNL     1       1.126   5.454  17.803  1.00  0.00     0.027 C 
ENDROOT
BRANCH   1   2
ATOM      2  C   UNL     1       1.429   6.933  18.086  1.00  0.00     0.004 C 
BRANCH   2   3
ATOM      3  C   UNL     1       0.347   7.601  18.948  1.00  0.00     0.000 C 
BRANCH   3   4
ATOM      4  C   UNL     1      -0.096   8.963  18.392  1.00  0.00     0.000 C 
BRANCH   4   5
ATOM      5  C   UNL     1      -1.558   9.255  18.763  1.00  0.00     0.000 C 
BRANCH   5   6
ATOM      6  C   UNL     1      -2.555   8.410  17.954  1.00  0.00     0.006 C 
BRANCH   6   7
ATOM      7  C   UNL     1      -3.757   7.956  18.793  1.00  0.00     0.053 C 
BRANCH   7   8
ATOM      8  C   UNL     1      -3.585   6.534  19.226  1.00  0.00     0.041 C 
ATOM      9  O   UNL     1      -4.228   5.615  18.651  1.00  0.00    -0.550 OA
ATOM     10  O   UNL     1      -2.750   6.226  20.293  1.00  0.00    -0.550 OA
ENDBRANCH   7   8
ENDBRANCH   6   7
ENDBRANCH   5   6
ENDBRANCH   4   5
ENDBRANCH   3   4
ENDBRANCH   2   3
ENDBRANCH   1   2
BRANCH   1  11
ATOM     11  C   UNL     1      -0.357   5.185  17.846  1.00  0.00    -0.031 C 
ATOM     12  C   UNL     1      -1.166   5.190  16.770  1.00  0.00    -0.027 C 
BRANCH  12  13
ATOM     13  C   UNL     1      -0.691   5.456  15.361  1.00  0.00     0.054 C 
BRANCH  13  14
ATOM     14  C   UNL     1      -0.855   6.908  14.995  1.00  0.00    -0.027 C 
ATOM     15  C   UNL     1       0.149   7.724  14.619  1.00  0.00    -0.031 C 
BRANCH  15  16
ATOM     16  C   UNL     1       1.596   7.308  14.466  1.00  0.00     0.027 C 
BRANCH  16  17
ATOM     17  C   UNL     1       2.557   8.494  14.637  1.00  0.00     0.004 C 
BRANCH  17  18
ATOM     18  C   UNL     1       1.944   9.715  15.349  1.00  0.00     0.000 C 
BRANCH  18  19
ATOM     19  C   UNL     1       2.989  10.616  16.041  1.00  0.00    -0.003 C 
ATOM     20  C   UNL     1       3.300  10.160  17.466  1.00  0.00     0.004 C 
ENDBRANCH  18  19
ENDBRANCH  17  18
ENDBRANCH  16  17
ENDBRANCH  15  16
ENDBRANCH  13  14
ENDBRANCH  12  13
ENDBRANCH   1  11
TORSDOF 14
ENDMDL
MODEL 9
REMARK VINA RESULT:    -1.892      3.158      6.152
REMARK INTER + INTRA:          -6.657
REMARK INTER:                  -3.444
REMARK INTRA:                  -3.213
REMARK UNBOUND:                -3.216
REMARK SMILES CCCCCC=CCC=CCCCCCCCC(=O)[O-]
REMARK SMILES IDX 11 1 12 2 13 3 14 4 15 5 16 6 17 7 18 8 19 9 20 10 10 11
REMARK SMILES IDX 9 12 8 13 7 14 6 15 5 16 4 17 3 18 2 19 1 20
REMARK H PARENT
REMARK Flexibility Score: inf
ROOT
ATOM      1  C   UNL     1      -1.568   7.825  17.267  1.00  0.00     0.027 C 
ENDROOT
BRANCH   1   2
ATOM      2  C   UNL     1      -0.619   8.131  18.434  1.00  0.00     0.004 C 
BRANCH   2   3
ATOM      3  C   UNL     1       0.266   6.932  18.804  1.00  0.00     0.000 C 
BRANCH   3   4
ATOM      4  C   UNL     1       1.765   7.232  18.652  1.00  0.00     0.000 C 
BRANCH   4   5
ATOM      5  C   UNL     1       2.507   6.023  18.062  1.00  0.00     0.000 C 
BRANCH   5   6
ATOM      6  C   UNL     1       1.627   4.766  17.987  1.00  0.00     0.006 C 
BRANCH   6   7
ATOM      7  C   UNL     1       2.072   3.802  16.879  1.00  0.00     0.053 C 
BRANCH   7   8
ATOM      8  C   UNL     1       0.924   2.954  16.430  1.00  0.00     0.041 C 
ATOM      9  O   UNL     1       0.911   2.469  15.267  1.00  0.00    -0.550 OA
ATOM     10  O   UNL     1      -0.154   2.734  17.279  1.00  0.00    -0.550 OA
ENDBRANCH   7   8
ENDBRANCH   6   7
ENDBRANCH   5   6
ENDBRANCH   4   5
ENDBRANCH   3   4
ENDBRANCH   2   3
ENDBRANCH   1   2
BRANCH   1  11
ATOM     11  C   UNL     1      -1.609   6.346  16.972  1.00  0.00    -0.031 C 
ATOM     12  C   UNL     1      -1.197   5.785  15.820  1.00  0.00    -0.027 C 
BRANCH  12  13
ATOM     13  C   UNL     1      -0.622   6.564  14.662  1.00  0.00     0.054 C 
BRANCH  13  14
ATOM     14  C   UNL     1       0.884   6.516  14.666  1.00  0.00    -0.027 C 
ATOM     15  C   UNL     1       1.687   7.578  14.874  1.00  0.00    -0.031 C 
BRANCH  15  16
ATOM     16  C   UNL     1       1.210   8.982  15.174  1.00  0.00     0.027 C 
BRANCH  16  17
ATOM     17  C   UNL     1       2.297  10.031  14.897  1.00  0.00     0.004 C 
BRANCH  17  18
ATOM     18  C   UNL     1       2.402  11.138  15.964  1.00  0.00     0.000 C 
BRANCH  18  19
ATOM     19  C   UNL     1       2.338  10.610  17.413  1.00  0.00    -0.003 C 
ATOM     20  C   UNL     1       1.291  11.339  18.253  1.00  0.00     0.004 C 
ENDBRANCH  18  19
ENDBRANCH  17  18
ENDBRANCH  16  17
ENDBRANCH  15  16
ENDBRANCH  13  14
ENDBRANCH  12  13
ENDBRANCH   1  11
TORSDOF 14
ENDMDL
