MODEL 1
REMARK VINA RESULT:    -5.145      0.000      0.000
REMARK INTER + INTRA:         -11.546
REMARK INTER:                  -9.957
REMARK INTRA:                  -1.589
REMARK UNBOUND:                -1.589
REMARK SMILES CCCCCCCCCCCCCCCCCC(=O)[O-]
REMARK SMILES IDX 10 1 11 2 12 3 13 4 14 5 15 6 16 7 17 8 18 9 19 10 20 11
REMARK SMILES IDX 9 12 8 13 7 14 6 15 5 16 4 17 3 18 2 19 1 20
REMARK H PARENT
REMARK Flexibility Score: inf
ROOT
ATOM      1  C   UNL     1      -6.585  66.167  51.906  1.00  0.00     0.000 C 
ENDROOT
BRANCH   1   2
ATOM      2  C   UNL     1      -6.587  65.167  53.076  1.00  0.00     0.000 C 
BRANCH   2   3
ATOM      3  C   UNL     1      -7.975  64.626  53.475  1.00  0.00     0.000 C 
BRANCH   3   4
ATOM      4  C   UNL     1      -7.995  63.164  53.963  1.00  0.00     0.000 C 
BRANCH   4   5
ATOM      5  C   UNL     1      -7.185  62.176  53.102  1.00  0.00     0.000 C 
BRANCH   5   6
ATOM      6  C   UNL     1      -6.763  60.917  53.877  1.00  0.00     0.000 C 
BRANCH   6   7
ATOM      7  C   UNL     1      -6.544  61.186  55.377  1.00  0.00     0.006 C 
BRANCH   7   8
ATOM      8  C   UNL     1      -5.222  60.632  55.935  1.00  0.00     0.053 C 
BRANCH   8   9
ATOM      9  C   UNL     1      -5.269  59.147  56.122  1.00  0.00     0.041 C 
ATOM     10  O   UNL     1      -4.203  58.492  56.266  1.00  0.00    -0.550 OA
ATOM     11  O   UNL     1      -6.492  58.490  56.173  1.00  0.00    -0.550 OA
ENDBRANCH   8   9
ENDBRANCH   7   8
ENDBRANCH   6   7
ENDBRANCH   5   6
ENDBRANCH   4   5
ENDBRANCH   3   4
ENDBRANCH   2   3
ENDBRANCH   1   2
BRANCH   1  12
ATOM     12  C   UNL     1      -5.496  65.867  50.864  1.00  0.00     0.000 C 
BRANCH  12  13
ATOM     13  C   UNL     1      -6.058  65.269  49.562  1.00  0.00    -0.000 C 
BRANCH  13  14
ATOM     14  C   UNL     1      -6.285  63.746  49.583  1.00  0.00    -0.000 C 
BRANCH  14  15
ATOM     15  C   UNL     1      -7.768  63.361  49.690  1.00  0.00    -0.000 C 
BRANCH  15  16
ATOM     16  C   UNL     1      -8.668  64.509  49.208  1.00  0.00    -0.000 C 
BRANCH  16  17
ATOM     17  C   UNL     1      -9.334  64.216  47.853  1.00  0.00    -0.000 C 
BRANCH  17  18
ATOM     18  C   UNL     1      -8.905  62.892  47.192  1.00  0.00    -0.000 C 
BRANCH  18  19
ATOM     19  C   UNL     1      -9.148  62.849  45.669  1.00  0.00    -0.003 C 
ATOM     20  C   UNL     1      -9.308  61.424  45.141  1.00  0.00     0.004 C 
ENDBRANCH  18  19
ENDBRANCH  17  18
ENDBRANCH  16  17
ENDBRANCH  15  16
ENDBRANCH  14  15
ENDBRANCH  13  14
ENDBRANCH  12  13
ENDBRANCH   1  12
TORSDOF 16
ENDMDL
MODEL 2
REMARK VINA RESULT:    -5.123      3.129      7.691
REMARK INTER + INTRA:         -11.504
REMARK INTER:                  -9.944
REMARK INTRA:                  -1.560
REMARK UNBOUND:                -1.589
REMARK SMILES CCCCCCCCCCCCCCCCCC(=O)[O-]
REMARK SMILES IDX 10 1 11 2 12 3 13 4 14 5 15 6 16 7 17 8 18 9 19 10 20 11
REMARK SMILES IDX 9 12 8 13 7 14 6 15 5 16 4 17 3 18 2 19 1 20
REMARK H PARENT
REMARK Flexibility Score: inf
ROOT
ATOM      1  C   UNL     1      -7.787  65.151  53.232  1.00  0.00     0.000 C 
ENDROOT
BRANCH   1   2
ATOM      2  C   UNL     1      -6.344  65.654  53.048  1.00  0.00     0.000 C 
BRANCH   2   3
ATOM      3  C   UNL     1      -6.164  66.756  51.983  1.00  0.00     0.000 C 
BRANCH   3   4
ATOM      4  C   UNL     1      -5.495  66.299  50.672  1.00  0.00     0.000 C 
BRANCH   4   5
ATOM      5  C   UNL     1      -5.910  64.900  50.178  1.00  0.00     0.000 C 
BRANCH   5   6
ATOM      6  C   UNL     1      -7.045  64.946  49.142  1.00  0.00     0.000 C 
BRANCH   6   7
ATOM      7  C   UNL     1      -8.396  64.479  49.716  1.00  0.00     0.006 C 
BRANCH   7   8
ATOM      8  C   UNL     1      -9.437  64.090  48.653  1.00  0.00     0.053 C 
BRANCH   8   9
ATOM      9  C   UNL     1      -9.229  62.697  48.144  1.00  0.00     0.041 C 
ATOM     10  O   UNL     1      -8.882  62.505  46.949  1.00  0.00    -0.550 OA
ATOM     11  O   UNL     1      -9.384  61.614  48.999  1.00  0.00    -0.550 OA
ENDBRANCH   8   9
ENDBRANCH   7   8
ENDBRANCH   6   7
ENDBRANCH   5   6
ENDBRANCH   4   5
ENDBRANCH   3   4
ENDBRANCH   2   3
ENDBRANCH   1   2
BRANCH   1  12
ATOM     12  C   UNL     1      -7.855  63.737  53.830  1.00  0.00     0.000 C 
BRANCH  12  13
ATOM     13  C   UNL     1      -7.413  62.644  52.839  1.00  0.00    -0.000 C 
BRANCH  13  14
ATOM     14  C   UNL     1      -5.895  62.400  52.767  1.00  0.00    -0.000 C 
BRANCH  14  15
ATOM     15  C   UNL     1      -5.343  61.676  54.005  1.00  0.00    -0.000 C 
BRANCH  15  16
ATOM     16  C   UNL     1      -6.223  60.472  54.372  1.00  0.00    -0.000 C 
BRANCH  16  17
ATOM     17  C   UNL     1      -6.412  60.313  55.891  1.00  0.00    -0.000 C 
BRANCH  17  18
ATOM     18  C   UNL     1      -5.697  59.096  56.509  1.00  0.00    -0.000 C 
BRANCH  18  19
ATOM     19  C   UNL     1      -4.284  59.410  57.044  1.00  0.00    -0.003 C 
ATOM     20  C   UNL     1      -3.258  58.350  56.646  1.00  0.00     0.004 C 
ENDBRANCH  18  19
ENDBRANCH  17  18
ENDBRANCH  16  17
ENDBRANCH  15  16
ENDBRANCH  14  15
ENDBRANCH  13  14
ENDBRANCH  12  13
ENDBRANCH   1  12
TORSDOF 16
ENDMDL
MODEL 3
REMARK VINA RESULT:    -5.119      5.464      9.356
REMARK INTER + INTRA:         -11.495
REMARK INTER:                 -10.523
REMARK INTRA:                  -0.973
REMARK UNBOUND:                -1.589
REMARK SMILES CCCCCCCCCCCCCCCCCC(=O)[O-]
REMARK SMILES IDX 10 1 11 2 12 3 13 4 14 5 15 6 16 7 17 8 18 9 19 10 20 11
REMARK SMILES IDX 9 12 8 13 7 14 6 15 5 16 4 17 3 18 2 19 1 20
REMARK H PARENT
REMARK Flexibility Score: inf
ROOT
ATOM      1  C   UNL     1      -9.761  63.448  42.833  1.00  0.00     0.000 C 
ENDROOT
BRANCH   1   2
ATOM      2  C   UNL     1     -10.081  61.988  43.202  1.00  0.00     0.000 C 
BRANCH   2   3
ATOM      3  C   UNL     1      -9.670  61.566  44.628  1.00  0.00     0.000 C 
BRANCH   3   4
ATOM      4  C   UNL     1      -9.199  62.715  45.542  1.00  0.00     0.000 C 
BRANCH   4   5
ATOM      5  C   UNL     1      -9.029  62.341  47.027  1.00  0.00     0.000 C 
BRANCH   5   6
ATOM      6  C   UNL     1      -9.102  63.560  47.961  1.00  0.00     0.000 C 
BRANCH   6   7
ATOM      7  C   UNL     1      -8.119  63.465  49.142  1.00  0.00     0.006 C 
BRANCH   7   8
ATOM      8  C   UNL     1      -8.105  64.700  50.059  1.00  0.00     0.053 C 
BRANCH   8   9
ATOM      9  C   UNL     1      -6.721  65.238  50.257  1.00  0.00     0.041 C 
ATOM     10  O   UNL     1      -5.832  65.034  49.390  1.00  0.00    -0.550 OA
ATOM     11  O   UNL     1      -6.424  65.994  51.384  1.00  0.00    -0.550 OA
ENDBRANCH   8   9
ENDBRANCH   7   8
ENDBRANCH   6   7
ENDBRANCH   5   6
ENDBRANCH   4   5
ENDBRANCH   3   4
ENDBRANCH   2   3
ENDBRANCH   1   2
BRANCH   1  12
ATOM     12  C   UNL     1      -9.997  63.753  41.345  1.00  0.00     0.000 C 
BRANCH  12  13
ATOM     13  C   UNL     1      -9.453  62.656  40.412  1.00  0.00    -0.000 C 
BRANCH  13  14
ATOM     14  C   UNL     1     -10.277  62.412  39.136  1.00  0.00    -0.000 C 
BRANCH  14  15
ATOM     15  C   UNL     1     -11.715  61.956  39.427  1.00  0.00    -0.000 C 
BRANCH  15  16
ATOM     16  C   UNL     1     -11.722  60.610  40.166  1.00  0.00    -0.000 C 
BRANCH  16  17
ATOM     17  C   UNL     1     -13.140  60.041  40.353  1.00  0.00    -0.000 C 
BRANCH  17  18
ATOM     18  C   UNL     1     -14.278  60.968  39.887  1.00  0.00    -0.000 C 
BRANCH  18  19
ATOM     19  C   UNL     1     -15.013  60.467  38.627  1.00  0.00    -0.003 C 
ATOM     20  C   UNL     1     -16.436  59.997  38.926  1.00  0.00     0.004 C 
ENDBRANCH  18  19
ENDBRANCH  17  18
ENDBRANCH  16  17
ENDBRANCH  15  16
ENDBRANCH  14  15
ENDBRANCH  13  14
ENDBRANCH  12  13
ENDBRANCH   1  12
TORSDOF 16
ENDMDL
MODEL 4
REMARK VINA RESULT:    -5.072      6.298     11.521
REMARK INTER + INTRA:         -11.404
REMARK INTER:                 -10.423
REMARK INTRA:                  -0.982
REMARK UNBOUND:                -1.589
REMARK SMILES CCCCCCCCCCCCCCCCCC(=O)[O-]
REMARK SMILES IDX 10 1 11 2 12 3 13 4 14 5 15 6 16 7 17 8 18 9 19 10 20 11
REMARK SMILES IDX 9 12 8 13 7 14 6 15 5 16 4 17 3 18 2 19 1 20
REMARK H PARENT
REMARK Flexibility Score: inf
ROOT
ATOM      1  C   UNL     1      -9.554  61.483  44.614  1.00  0.00     0.000 C 
ENDROOT
BRANCH   1   2
ATOM      2  C   UNL     1     -10.206  61.904  43.284  1.00  0.00     0.000 C 
BRANCH   2   3
ATOM      3  C   UNL     1      -9.848  63.324  42.799  1.00  0.00     0.000 C 
BRANCH   3   4
ATOM      4  C   UNL     1      -9.625  63.462  41.280  1.00  0.00     0.000 C 
BRANCH   4   5
ATOM      5  C   UNL     1      -9.614  62.136  40.497  1.00  0.00     0.000 C 
BRANCH   5   6
ATOM      6  C   UNL     1     -10.342  62.235  39.146  1.00  0.00     0.000 C 
BRANCH   6   7
ATOM      7  C   UNL     1     -11.762  61.640  39.190  1.00  0.00     0.006 C 
BRANCH   7   8
ATOM      8  C   UNL     1     -11.903  60.397  40.083  1.00  0.00     0.053 C 
BRANCH   8   9
ATOM      9  C   UNL     1     -13.243  60.332  40.750  1.00  0.00     0.041 C 
ATOM     10  O   UNL     1     -13.323  60.173  41.996  1.00  0.00    -0.550 OA
ATOM     11  O   UNL     1     -14.401  60.482  39.999  1.00  0.00    -0.550 OA
ENDBRANCH   8   9
ENDBRANCH   7   8
ENDBRANCH   6   7
ENDBRANCH   5   6
ENDBRANCH   4   5
ENDBRANCH   3   4
ENDBRANCH   2   3
ENDBRANCH   1   2
BRANCH   1  12
ATOM     12  C   UNL     1      -9.195  62.680  45.510  1.00  0.00     0.000 C 
BRANCH  12  13
ATOM     13  C   UNL     1      -9.085  62.304  46.999  1.00  0.00    -0.000 C 
BRANCH  13  14
ATOM     14  C   UNL     1      -9.215  63.480  47.983  1.00  0.00    -0.000 C 
BRANCH  14  15
ATOM     15  C   UNL     1      -8.195  63.419  49.131  1.00  0.00    -0.000 C 
BRANCH  15  16
ATOM     16  C   UNL     1      -7.856  64.828  49.637  1.00  0.00    -0.000 C 
BRANCH  16  17
ATOM     17  C   UNL     1      -7.405  64.841  51.108  1.00  0.00    -0.000 C 
BRANCH  17  18
ATOM     18  C   UNL     1      -6.342  63.786  51.469  1.00  0.00    -0.000 C 
BRANCH  18  19
ATOM     19  C   UNL     1      -6.473  63.236  52.905  1.00  0.00    -0.003 C 
ATOM     20  C   UNL     1      -7.797  63.624  53.562  1.00  0.00     0.004 C 
ENDBRANCH  18  19
ENDBRANCH  17  18
ENDBRANCH  16  17
ENDBRANCH  15  16
ENDBRANCH  14  15
ENDBRANCH  13  14
ENDBRANCH  12  13
ENDBRANCH   1  12
TORSDOF 16
ENDMDL
MODEL 5
REMARK VINA RESULT:    -4.993      3.694      6.936
REMARK INTER + INTRA:         -11.253
REMARK INTER:                 -10.403
REMARK INTRA:                  -0.850
REMARK UNBOUND:                -1.589
REMARK SMILES CCCCCCCCCCCCCCCCCC(=O)[O-]
REMARK SMILES IDX 10 1 11 2 12 3 13 4 14 5 15 6 16 7 17 8 18 9 19 10 20 11
REMARK SMILES IDX 9 12 8 13 7 14 6 15 5 16 4 17 3 18 2 19 1 20
REMARK H PARENT
REMARK Flexibility Score: inf
ROOT
ATOM      1  C   UNL     1      -9.194  62.695  45.543  1.00  0.00     0.000 C 
ENDROOT
BRANCH   1   2
ATOM      2  C   UNL     1      -9.186  62.370  47.048  1.00  0.00     0.000 C 
BRANCH   2   3
ATOM      3  C   UNL     1      -9.093  63.593  47.983  1.00  0.00     0.000 C 
BRANCH   3   4
ATOM      4  C   UNL     1      -8.064  63.471  49.124  1.00  0.00     0.000 C 
BRANCH   4   5
ATOM      5  C   UNL     1      -8.041  64.651  50.113  1.00  0.00     0.000 C 
BRANCH   5   6
ATOM      6  C   UNL     1      -6.631  64.962  50.640  1.00  0.00     0.000 C 
BRANCH   6   7
ATOM      7  C   UNL     1      -6.567  65.018  52.177  1.00  0.00     0.006 C 
BRANCH   7   8
ATOM      8  C   UNL     1      -7.832  64.503  52.884  1.00  0.00     0.053 C 
BRANCH   8   9
ATOM      9  C   UNL     1      -7.612  63.169  53.529  1.00  0.00     0.041 C 
ATOM     10  O   UNL     1      -6.957  62.276  52.930  1.00  0.00    -0.550 OA
ATOM     11  O   UNL     1      -8.101  62.925  54.806  1.00  0.00    -0.550 OA
ENDBRANCH   8   9
ENDBRANCH   7   8
ENDBRANCH   6   7
ENDBRANCH   5   6
ENDBRANCH   4   5
ENDBRANCH   3   4
ENDBRANCH   2   3
ENDBRANCH   1   2
BRANCH   1  12
ATOM     12  C   UNL     1      -9.509  61.470  44.669  1.00  0.00     0.000 C 
BRANCH  12  13
ATOM     13  C   UNL     1     -10.195  61.841  43.341  1.00  0.00    -0.000 C 
BRANCH  13  14
ATOM     14  C   UNL     1      -9.748  63.177  42.722  1.00  0.00    -0.000 C 
BRANCH  14  15
ATOM     15  C   UNL     1      -9.742  63.156  41.186  1.00  0.00    -0.000 C 
BRANCH  15  16
ATOM     16  C   UNL     1      -9.904  61.723  40.658  1.00  0.00    -0.000 C 
BRANCH  16  17
ATOM     17  C   UNL     1     -11.161  61.547  39.788  1.00  0.00    -0.000 C 
BRANCH  17  18
ATOM     18  C   UNL     1     -12.027  60.322  40.140  1.00  0.00    -0.000 C 
BRANCH  18  19
ATOM     19  C   UNL     1     -13.544  60.607  40.122  1.00  0.00    -0.003 C 
ATOM     20  C   UNL     1     -13.900  61.836  39.287  1.00  0.00     0.004 C 
ENDBRANCH  18  19
ENDBRANCH  17  18
ENDBRANCH  16  17
ENDBRANCH  15  16
ENDBRANCH  14  15
ENDBRANCH  13  14
ENDBRANCH  12  13
ENDBRANCH   1  12
TORSDOF 16
ENDMDL
MODEL 6
REMARK VINA RESULT:    -4.973      6.244     11.036
REMARK INTER + INTRA:         -11.214
REMARK INTER:                 -10.290
REMARK INTRA:                  -0.924
REMARK UNBOUND:                -1.589
REMARK SMILES CCCCCCCCCCCCCCCCCC(=O)[O-]
REMARK SMILES IDX 10 1 11 2 12 3 13 4 14 5 15 6 16 7 17 8 18 9 19 10 20 11
REMARK SMILES IDX 9 12 8 13 7 14 6 15 5 16 4 17 3 18 2 19 1 20
REMARK H PARENT
REMARK Flexibility Score: inf
ROOT
ATOM      1  C   UNL     1      -8.889  62.275  46.946  1.00  0.00     0.000 C 
ENDROOT
BRANCH   1   2
ATOM      2  C   UNL     1      -9.266  62.676  45.509  1.00  0.00     0.000 C 
BRANCH   2   3
ATOM      3  C   UNL     1      -9.743  61.517  44.609  1.00  0.00     0.000 C 
BRANCH   3   4
ATOM      4  C   UNL     1     -10.152  61.922  43.179  1.00  0.00     0.000 C 
BRANCH   4   5
ATOM      5  C   UNL     1      -9.805  63.369  42.783  1.00  0.00     0.000 C 
BRANCH   5   6
ATOM      6  C   UNL     1      -9.896  63.612  41.268  1.00  0.00     0.000 C 
BRANCH   6   7
ATOM      7  C   UNL     1      -9.608  62.344  40.443  1.00  0.00     0.006 C 
BRANCH   7   8
ATOM      8  C   UNL     1     -10.469  62.200  39.177  1.00  0.00     0.053 C 
BRANCH   8   9
ATOM      9  C   UNL     1     -11.800  61.580  39.470  1.00  0.00     0.041 C 
ATOM     10  O   UNL     1     -11.879  60.570  40.217  1.00  0.00    -0.550 OA
ATOM     11  O   UNL     1     -12.959  62.139  38.945  1.00  0.00    -0.550 OA
ENDBRANCH   8   9
ENDBRANCH   7   8
ENDBRANCH   6   7
ENDBRANCH   5   6
ENDBRANCH   4   5
ENDBRANCH   3   4
ENDBRANCH   2   3
ENDBRANCH   1   2
BRANCH   1  12
ATOM     12  C   UNL     1      -9.085  63.418  47.956  1.00  0.00     0.000 C 
BRANCH  12  13
ATOM     13  C   UNL     1      -8.167  63.297  49.186  1.00  0.00    -0.000 C 
BRANCH  13  14
ATOM     14  C   UNL     1      -7.920  64.609  49.952  1.00  0.00    -0.000 C 
BRANCH  14  15
ATOM     15  C   UNL     1      -6.432  64.874  50.225  1.00  0.00    -0.000 C 
BRANCH  15  16
ATOM     16  C   UNL     1      -6.254  65.790  51.446  1.00  0.00    -0.000 C 
BRANCH  16  17
ATOM     17  C   UNL     1      -7.055  65.313  52.670  1.00  0.00    -0.000 C 
BRANCH  17  18
ATOM     18  C   UNL     1      -6.560  63.995  53.295  1.00  0.00    -0.000 C 
BRANCH  18  19
ATOM     19  C   UNL     1      -7.687  63.134  53.904  1.00  0.00    -0.003 C 
ATOM     20  C   UNL     1      -7.600  61.669  53.479  1.00  0.00     0.004 C 
ENDBRANCH  18  19
ENDBRANCH  17  18
ENDBRANCH  16  17
ENDBRANCH  15  16
ENDBRANCH  14  15
ENDBRANCH  13  14
ENDBRANCH  12  13
ENDBRANCH   1  12
TORSDOF 16
ENDMDL
MODEL 7
REMARK VINA RESULT:    -4.968      4.005      7.494
REMARK INTER + INTRA:         -11.203
REMARK INTER:                 -10.153
REMARK INTRA:                  -1.051
REMARK UNBOUND:                -1.589
REMARK SMILES CCCCCCCCCCCCCCCCCC(=O)[O-]
REMARK SMILES IDX 10 1 11 2 12 3 13 4 14 5 15 6 16 7 17 8 18 9 19 10 20 11
REMARK SMILES IDX 9 12 8 13 7 14 6 15 5 16 4 17 3 18 2 19 1 20
REMARK H PARENT
REMARK Flexibility Score: inf
ROOT
ATOM      1  C   UNL     1      -9.674  61.447  44.635  1.00  0.00     0.000 C 
ENDROOT
BRANCH   1   2
ATOM      2  C   UNL     1      -9.227  62.625  45.520  1.00  0.00     0.000 C 
BRANCH   2   3
ATOM      3  C   UNL     1      -8.971  62.273  46.999  1.00  0.00     0.000 C 
BRANCH   3   4
ATOM      4  C   UNL     1      -9.173  63.433  47.995  1.00  0.00     0.000 C 
BRANCH   4   5
ATOM      5  C   UNL     1      -8.133  63.511  49.128  1.00  0.00     0.000 C 
BRANCH   5   6
ATOM      6  C   UNL     1      -8.165  64.855  49.875  1.00  0.00     0.000 C 
BRANCH   6   7
ATOM      7  C   UNL     1      -7.052  64.975  50.933  1.00  0.00     0.006 C 
BRANCH   7   8
ATOM      8  C   UNL     1      -6.384  63.641  51.307  1.00  0.00     0.053 C 
BRANCH   8   9
ATOM      9  C   UNL     1      -6.620  63.276  52.740  1.00  0.00     0.041 C 
ATOM     10  O   UNL     1      -6.077  62.252  53.231  1.00  0.00    -0.550 OA
ATOM     11  O   UNL     1      -7.413  64.086  53.543  1.00  0.00    -0.550 OA
ENDBRANCH   8   9
ENDBRANCH   7   8
ENDBRANCH   6   7
ENDBRANCH   5   6
ENDBRANCH   4   5
ENDBRANCH   3   4
ENDBRANCH   2   3
ENDBRANCH   1   2
BRANCH   1  12
ATOM     12  C   UNL     1     -10.036  61.878  43.204  1.00  0.00     0.000 C 
BRANCH  12  13
ATOM     13  C   UNL     1      -9.834  63.385  42.961  1.00  0.00    -0.000 C 
BRANCH  13  14
ATOM     14  C   UNL     1      -9.534  63.780  41.504  1.00  0.00    -0.000 C 
BRANCH  14  15
ATOM     15  C   UNL     1      -9.588  62.589  40.535  1.00  0.00    -0.000 C 
BRANCH  15  16
ATOM     16  C   UNL     1     -10.486  62.904  39.330  1.00  0.00    -0.000 C 
BRANCH  16  17
ATOM     17  C   UNL     1     -11.654  61.913  39.181  1.00  0.00    -0.000 C 
BRANCH  17  18
ATOM     18  C   UNL     1     -11.595  60.697  40.125  1.00  0.00    -0.000 C 
BRANCH  18  19
ATOM     19  C   UNL     1     -12.942  60.372  40.805  1.00  0.00    -0.003 C 
ATOM     20  C   UNL     1     -14.118  60.422  39.830  1.00  0.00     0.004 C 
ENDBRANCH  18  19
ENDBRANCH  17  18
ENDBRANCH  16  17
ENDBRANCH  15  16
ENDBRANCH  14  15
ENDBRANCH  13  14
ENDBRANCH  12  13
ENDBRANCH   1  12
TORSDOF 16
ENDMDL
MODEL 8
REMARK VINA RESULT:    -4.949      7.262     12.522
REMARK INTER + INTRA:         -11.167
REMARK INTER:                 -10.178
REMARK INTRA:                  -0.989
REMARK UNBOUND:                -1.589
REMARK SMILES CCCCCCCCCCCCCCCCCC(=O)[O-]
REMARK SMILES IDX 10 1 11 2 12 3 13 4 14 5 15 6 16 7 17 8 18 9 19 10 20 11
REMARK SMILES IDX 9 12 8 13 7 14 6 15 5 16 4 17 3 18 2 19 1 20
REMARK H PARENT
REMARK Flexibility Score: inf
ROOT
ATOM      1  C   UNL     1      -9.718  63.917  42.637  1.00  0.00     0.000 C 
ENDROOT
BRANCH   1   2
ATOM      2  C   UNL     1      -9.690  64.592  41.254  1.00  0.00     0.000 C 
BRANCH   2   3
ATOM      3  C   UNL     1      -9.017  63.770  40.136  1.00  0.00     0.000 C 
BRANCH   3   4
ATOM      4  C   UNL     1      -9.716  63.830  38.764  1.00  0.00     0.000 C 
BRANCH   4   5
ATOM      5  C   UNL     1     -10.419  62.530  38.330  1.00  0.00     0.000 C 
BRANCH   5   6
ATOM      6  C   UNL     1     -11.710  62.257  39.120  1.00  0.00     0.000 C 
BRANCH   6   7
ATOM      7  C   UNL     1     -11.598  61.026  40.038  1.00  0.00     0.006 C 
BRANCH   7   8
ATOM      8  C   UNL     1     -12.531  59.864  39.658  1.00  0.00     0.053 C 
BRANCH   8   9
ATOM      9  C   UNL     1     -13.931  60.328  39.398  1.00  0.00     0.041 C 
ATOM     10  O   UNL     1     -14.465  60.133  38.275  1.00  0.00    -0.550 OA
ATOM     11  O   UNL     1     -14.658  60.945  40.408  1.00  0.00    -0.550 OA
ENDBRANCH   8   9
ENDBRANCH   7   8
ENDBRANCH   6   7
ENDBRANCH   5   6
ENDBRANCH   4   5
ENDBRANCH   3   4
ENDBRANCH   2   3
ENDBRANCH   1   2
BRANCH   1  12
ATOM     12  C   UNL     1      -9.694  62.382  42.554  1.00  0.00     0.000 C 
BRANCH  12  13
ATOM     13  C   UNL     1     -10.368  61.704  43.761  1.00  0.00    -0.000 C 
BRANCH  13  14
ATOM     14  C   UNL     1      -9.448  61.449  44.968  1.00  0.00    -0.000 C 
BRANCH  14  15
ATOM     15  C   UNL     1      -9.227  62.702  45.829  1.00  0.00    -0.000 C 
BRANCH  15  16
ATOM     16  C   UNL     1      -8.938  62.320  47.288  1.00  0.00    -0.000 C 
BRANCH  16  17
ATOM     17  C   UNL     1      -8.894  63.538  48.227  1.00  0.00    -0.000 C 
BRANCH  17  18
ATOM     18  C   UNL     1      -7.897  63.422  49.394  1.00  0.00    -0.000 C 
BRANCH  18  19
ATOM     19  C   UNL     1      -7.864  64.664  50.311  1.00  0.00    -0.003 C 
ATOM     20  C   UNL     1      -6.525  65.398  50.256  1.00  0.00     0.004 C 
ENDBRANCH  18  19
ENDBRANCH  17  18
ENDBRANCH  16  17
ENDBRANCH  15  16
ENDBRANCH  14  15
ENDBRANCH  13  14
ENDBRANCH  12  13
ENDBRANCH   1  12
TORSDOF 16
ENDMDL
MODEL 9
REMARK VINA RESULT:    -4.848      6.561     11.939
REMARK INTER + INTRA:         -10.972
REMARK INTER:                 -10.303
REMARK INTRA:                  -0.669
REMARK UNBOUND:                -1.589
REMARK SMILES CCCCCCCCCCCCCCCCCC(=O)[O-]
REMARK SMILES IDX 10 1 11 2 12 3 13 4 14 5 15 6 16 7 17 8 18 9 19 10 20 11
REMARK SMILES IDX 9 12 8 13 7 14 6 15 5 16 4 17 3 18 2 19 1 20
REMARK H PARENT
REMARK Flexibility Score: inf
ROOT
ATOM      1  C   UNL     1     -10.337  61.561  43.880  1.00  0.00     0.000 C 
ENDROOT
BRANCH   1   2
ATOM      2  C   UNL     1      -9.987  62.583  42.783  1.00  0.00     0.000 C 
BRANCH   2   3
ATOM      3  C   UNL     1      -9.920  62.011  41.352  1.00  0.00     0.000 C 
BRANCH   3   4
ATOM      4  C   UNL     1      -9.708  63.054  40.237  1.00  0.00     0.000 C 
BRANCH   4   5
ATOM      5  C   UNL     1     -10.980  63.465  39.474  1.00  0.00     0.000 C 
BRANCH   5   6
ATOM      6  C   UNL     1     -11.784  62.259  38.960  1.00  0.00     0.000 C 
BRANCH   6   7
ATOM      7  C   UNL     1     -13.305  62.455  39.095  1.00  0.00     0.006 C 
BRANCH   7   8
ATOM      8  C   UNL     1     -14.076  61.188  39.503  1.00  0.00     0.053 C 
BRANCH   8   9
ATOM      9  C   UNL     1     -13.214  60.224  40.258  1.00  0.00     0.041 C 
ATOM     10  O   UNL     1     -12.578  59.327  39.645  1.00  0.00    -0.550 OA
ATOM     11  O   UNL     1     -13.085  60.339  41.637  1.00  0.00    -0.550 OA
ENDBRANCH   8   9
ENDBRANCH   7   8
ENDBRANCH   6   7
ENDBRANCH   5   6
ENDBRANCH   4   5
ENDBRANCH   3   4
ENDBRANCH   2   3
ENDBRANCH   1   2
BRANCH   1  12
ATOM     12  C   UNL     1      -9.265  61.471  44.978  1.00  0.00     0.000 C 
BRANCH  12  13
ATOM     13  C   UNL     1      -9.222  62.718  45.880  1.00  0.00    -0.000 C 
BRANCH  13  14
ATOM     14  C   UNL     1      -8.863  62.449  47.353  1.00  0.00    -0.000 C 
BRANCH  14  15
ATOM     15  C   UNL     1      -9.661  63.320  48.334  1.00  0.00    -0.000 C 
BRANCH  15  16
ATOM     16  C   UNL     1      -8.870  64.580  48.717  1.00  0.00    -0.000 C 
BRANCH  16  17
ATOM     17  C   UNL     1      -7.570  64.259  49.475  1.00  0.00    -0.000 C 
BRANCH  17  18
ATOM     18  C   UNL     1      -7.321  65.119  50.729  1.00  0.00    -0.000 C 
BRANCH  18  19
ATOM     19  C   UNL     1      -5.865  65.611  50.867  1.00  0.00    -0.003 C 
ATOM     20  C   UNL     1      -5.213  65.900  49.514  1.00  0.00     0.004 C 
ENDBRANCH  18  19
ENDBRANCH  17  18
ENDBRANCH  16  17
ENDBRANCH  15  16
ENDBRANCH  14  15
ENDBRANCH  13  14
ENDBRANCH  12  13
ENDBRANCH   1  12
TORSDOF 16
ENDMDL
