MODEL 1
REMARK VINA RESULT:    -3.806      0.000      0.000
REMARK INTER + INTRA:          -6.034
REMARK INTER:                  -5.142
REMARK INTRA:                  -0.892
REMARK UNBOUND:                -0.892
REMARK SMILES C[C@@H](O)[C@@H](O)[C@@H](O)[C@H](O)C=O
REMARK SMILES IDX 4 1 2 2 1 3 3 4 6 6 8 7 10 8 11 9 9 10 7 12 5 14
REMARK H PARENT 3 5 9 11 7 13 5 15
REMARK Flexibility Score: inf
ROOT
ATOM      1  C   UNL     1       5.799  12.254  22.740  1.00  0.00     0.174 C 
ENDROOT
BRANCH   1   2
ATOM      2  C   UNL     1       4.914  13.522  22.897  1.00  0.00     0.142 C 
ATOM      3  C   UNL     1       5.226  14.628  21.876  1.00  0.00     0.041 C 
BRANCH   2   4
ATOM      4  O   UNL     1       3.555  13.169  22.827  1.00  0.00    -0.391 OA
ATOM      5  H   UNL     1       3.236  12.995  23.751  1.00  0.00     0.211 HD
ENDBRANCH   2   4
ENDBRANCH   1   2
BRANCH   1   6
ATOM      6  C   UNL     1       6.049  11.442  24.048  1.00  0.00     0.181 C 
BRANCH   6   7
ATOM      7  C   UNL     1       5.005  10.329  24.318  1.00  0.00     0.209 C 
BRANCH   7   8
ATOM      8  C   UNL     1       4.110  10.673  25.481  1.00  0.00     0.258 C 
ATOM      9  O   UNL     1       3.272  11.555  25.378  1.00  0.00    -0.300 OA
ENDBRANCH   7   8
BRANCH   7  10
ATOM     10  O   UNL     1       4.223  10.103  23.172  1.00  0.00    -0.383 OA
ATOM     11  H   UNL     1       3.764  10.954  22.944  1.00  0.00     0.211 HD
ENDBRANCH   7  10
ENDBRANCH   6   7
BRANCH   6  12
ATOM     12  O   UNL     1       6.105  12.297  25.161  1.00  0.00    -0.387 OA
ATOM     13  H   UNL     1       6.504  11.782  25.909  1.00  0.00     0.211 HD
ENDBRANCH   6  12
ENDBRANCH   1   6
BRANCH   1  14
ATOM     14  O   UNL     1       7.032  12.611  22.165  1.00  0.00    -0.388 OA
ATOM     15  H   UNL     1       7.428  13.316  22.741  1.00  0.00     0.211 HD
ENDBRANCH   1  14
TORSDOF 8
ENDMDL
MODEL 2
REMARK VINA RESULT:    -3.758      1.287      1.873
REMARK INTER + INTRA:          -5.967
REMARK INTER:                  -4.983
REMARK INTRA:                  -0.985
REMARK UNBOUND:                -0.892
REMARK SMILES C[C@@H](O)[C@@H](O)[C@@H](O)[C@H](O)C=O
REMARK SMILES IDX 4 1 2 2 1 3 3 4 6 6 8 7 10 8 11 9 9 10 7 12 5 14
REMARK H PARENT 3 5 9 11 7 13 5 15
REMARK Flexibility Score: inf
ROOT
ATOM      1  C   UNL     1       5.096  12.343  24.129  1.00  0.00     0.174 C 
ENDROOT
BRANCH   1   2
ATOM      2  C   UNL     1       4.499  13.525  23.313  1.00  0.00     0.142 C 
ATOM      3  C   UNL     1       5.419  14.032  22.191  1.00  0.00     0.041 C 
BRANCH   2   4
ATOM      4  O   UNL     1       3.249  13.160  22.785  1.00  0.00    -0.391 OA
ATOM      5  H   UNL     1       3.400  12.755  21.891  1.00  0.00     0.211 HD
ENDBRANCH   2   4
ENDBRANCH   1   2
BRANCH   1   6
ATOM      6  C   UNL     1       4.148  11.716  25.197  1.00  0.00     0.181 C 
BRANCH   6   7
ATOM      7  C   UNL     1       3.397  10.448  24.718  1.00  0.00     0.209 C 
BRANCH   7   8
ATOM      8  C   UNL     1       1.903  10.608  24.829  1.00  0.00     0.258 C 
ATOM      9  O   UNL     1       1.287  11.262  24.003  1.00  0.00    -0.300 OA
ENDBRANCH   7   8
BRANCH   7  10
ATOM     10  O   UNL     1       3.742  10.148  23.388  1.00  0.00    -0.383 OA
ATOM     11  H   UNL     1       3.824   9.161  23.311  1.00  0.00     0.211 HD
ENDBRANCH   7  10
ENDBRANCH   6   7
BRANCH   6  12
ATOM     12  O   UNL     1       3.210  12.661  25.645  1.00  0.00    -0.387 OA
ATOM     13  H   UNL     1       2.901  13.169  24.850  1.00  0.00     0.211 HD
ENDBRANCH   6  12
ENDBRANCH   1   6
BRANCH   1  14
ATOM     14  O   UNL     1       6.291  12.756  24.744  1.00  0.00    -0.388 OA
ATOM     15  H   UNL     1       7.029  12.250  24.312  1.00  0.00     0.211 HD
ENDBRANCH   1  14
TORSDOF 8
ENDMDL
MODEL 3
REMARK VINA RESULT:    -3.654      1.541      3.473
REMARK INTER + INTRA:          -5.827
REMARK INTER:                  -4.997
REMARK INTRA:                  -0.830
REMARK UNBOUND:                -0.892
REMARK SMILES C[C@@H](O)[C@@H](O)[C@@H](O)[C@H](O)C=O
REMARK SMILES IDX 4 1 2 2 1 3 3 4 6 6 8 7 10 8 11 9 9 10 7 12 5 14
REMARK H PARENT 3 5 9 11 7 13 5 15
REMARK Flexibility Score: inf
ROOT
ATOM      1  C   UNL     1       5.644  11.190  22.882  1.00  0.00     0.174 C 
ENDROOT
BRANCH   1   2
ATOM      2  C   UNL     1       7.177  11.167  22.624  1.00  0.00     0.142 C 
ATOM      3  C   UNL     1       7.657   9.938  21.835  1.00  0.00     0.041 C 
BRANCH   2   4
ATOM      4  O   UNL     1       7.571  12.346  21.969  1.00  0.00    -0.391 OA
ATOM      5  H   UNL     1       7.331  13.115  22.550  1.00  0.00     0.211 HD
ENDBRANCH   2   4
ENDBRANCH   1   2
BRANCH   1   6
ATOM      6  C   UNL     1       5.170  12.122  24.040  1.00  0.00     0.181 C 
BRANCH   6   7
ATOM      7  C   UNL     1       4.139  13.196  23.613  1.00  0.00     0.209 C 
BRANCH   7   8
ATOM      8  C   UNL     1       4.562  13.909  22.355  1.00  0.00     0.258 C 
ATOM      9  O   UNL     1       5.560  14.612  22.348  1.00  0.00    -0.300 OA
ENDBRANCH   7   8
BRANCH   7  10
ATOM     10  O   UNL     1       2.874  12.612  23.421  1.00  0.00    -0.383 OA
ATOM     11  H   UNL     1       2.923  12.041  22.610  1.00  0.00     0.211 HD
ENDBRANCH   7  10
ENDBRANCH   6   7
BRANCH   6  12
ATOM     12  O   UNL     1       6.267  12.756  24.647  1.00  0.00    -0.387 OA
ATOM     13  H   UNL     1       7.056  12.169  24.518  1.00  0.00     0.211 HD
ENDBRANCH   6  12
ENDBRANCH   1   6
BRANCH   1  14
ATOM     14  O   UNL     1       5.188   9.881  23.115  1.00  0.00    -0.388 OA
ATOM     15  H   UNL     1       4.196   9.918  23.132  1.00  0.00     0.211 HD
ENDBRANCH   1  14
TORSDOF 8
ENDMDL
MODEL 4
REMARK VINA RESULT:    -3.615      1.240      2.755
REMARK INTER + INTRA:          -5.775
REMARK INTER:                  -4.878
REMARK INTRA:                  -0.897
REMARK UNBOUND:                -0.892
REMARK SMILES C[C@@H](O)[C@@H](O)[C@@H](O)[C@H](O)C=O
REMARK SMILES IDX 4 1 2 2 1 3 3 4 6 6 8 7 10 8 11 9 9 10 7 12 5 14
REMARK H PARENT 3 5 9 11 7 13 5 15
REMARK Flexibility Score: inf
ROOT
ATOM      1  C   UNL     1       4.403  12.813  23.516  1.00  0.00     0.174 C 
ENDROOT
BRANCH   1   2
ATOM      2  C   UNL     1       5.497  13.256  22.504  1.00  0.00     0.142 C 
ATOM      3  C   UNL     1       5.274  14.661  21.921  1.00  0.00     0.041 C 
BRANCH   2   4
ATOM      4  O   UNL     1       6.766  13.179  23.105  1.00  0.00    -0.391 OA
ATOM      5  H   UNL     1       7.017  12.219  23.167  1.00  0.00     0.211 HD
ENDBRANCH   2   4
ENDBRANCH   1   2
BRANCH   1   6
ATOM      6  C   UNL     1       4.482  11.328  23.986  1.00  0.00     0.181 C 
BRANCH   6   7
ATOM      7  C   UNL     1       5.357  11.104  25.245  1.00  0.00     0.209 C 
BRANCH   7   8
ATOM      8  C   UNL     1       6.509  10.172  24.967  1.00  0.00     0.258 C 
ATOM      9  O   UNL     1       7.466  10.550  24.311  1.00  0.00    -0.300 OA
ENDBRANCH   7   8
BRANCH   7  10
ATOM     10  O   UNL     1       5.849  12.330  25.726  1.00  0.00    -0.383 OA
ATOM     11  H   UNL     1       5.324  12.573  26.533  1.00  0.00     0.211 HD
ENDBRANCH   7  10
ENDBRANCH   6   7
BRANCH   6  12
ATOM     12  O   UNL     1       4.952  10.503  22.950  1.00  0.00    -0.387 OA
ATOM     13  H   UNL     1       4.215   9.884  22.710  1.00  0.00     0.211 HD
ENDBRANCH   6  12
ENDBRANCH   1   6
BRANCH   1  14
ATOM     14  O   UNL     1       3.132  13.067  22.971  1.00  0.00    -0.388 OA
ATOM     15  H   UNL     1       2.505  12.414  23.381  1.00  0.00     0.211 HD
ENDBRANCH   1  14
TORSDOF 8
ENDMDL
MODEL 5
REMARK VINA RESULT:    -3.574      1.646      3.793
REMARK INTER + INTRA:          -5.719
REMARK INTER:                  -5.204
REMARK INTRA:                  -0.515
REMARK UNBOUND:                -0.892
REMARK SMILES C[C@@H](O)[C@@H](O)[C@@H](O)[C@H](O)C=O
REMARK SMILES IDX 4 1 2 2 1 3 3 4 6 6 8 7 10 8 11 9 9 10 7 12 5 14
REMARK H PARENT 3 5 9 11 7 13 5 15
REMARK Flexibility Score: inf
ROOT
ATOM      1  C   UNL     1       4.716  12.560  23.403  1.00  0.00     0.174 C 
ENDROOT
BRANCH   1   2
ATOM      2  C   UNL     1       4.086  11.389  24.209  1.00  0.00     0.142 C 
ATOM      3  C   UNL     1       2.820  11.780  24.988  1.00  0.00     0.041 C 
BRANCH   2   4
ATOM      4  O   UNL     1       3.812  10.310  23.351  1.00  0.00    -0.391 OA
ATOM      5  H   UNL     1       3.002  10.538  22.822  1.00  0.00     0.211 HD
ENDBRANCH   2   4
ENDBRANCH   1   2
BRANCH   1   6
ATOM      6  C   UNL     1       5.948  12.186  22.522  1.00  0.00     0.181 C 
BRANCH   6   7
ATOM      7  C   UNL     1       7.206  11.773  23.326  1.00  0.00     0.209 C 
BRANCH   7   8
ATOM      8  C   UNL     1       8.153  10.944  22.496  1.00  0.00     0.258 C 
ATOM      9  O   UNL     1       7.797  10.487  21.422  1.00  0.00    -0.300 OA
ENDBRANCH   7   8
BRANCH   7  10
ATOM     10  O   UNL     1       7.875  12.911  23.808  1.00  0.00    -0.383 OA
ATOM     11  H   UNL     1       8.013  12.792  24.785  1.00  0.00     0.211 HD
ENDBRANCH   7  10
ENDBRANCH   6   7
BRANCH   6  12
ATOM     12  O   UNL     1       6.282  13.244  21.660  1.00  0.00    -0.387 OA
ATOM     13  H   UNL     1       6.820  12.862  20.919  1.00  0.00     0.211 HD
ENDBRANCH   6  12
ENDBRANCH   1   6
BRANCH   1  14
ATOM     14  O   UNL     1       5.066  13.599  24.283  1.00  0.00    -0.388 OA
ATOM     15  H   UNL     1       5.853  13.287  24.804  1.00  0.00     0.211 HD
ENDBRANCH   1  14
TORSDOF 8
ENDMDL
MODEL 6
REMARK VINA RESULT:    -3.453      1.837      2.790
REMARK INTER + INTRA:          -5.556
REMARK INTER:                  -4.840
REMARK INTRA:                  -0.716
REMARK UNBOUND:                -0.892
REMARK SMILES C[C@@H](O)[C@@H](O)[C@@H](O)[C@H](O)C=O
REMARK SMILES IDX 4 1 2 2 1 3 3 4 6 6 8 7 10 8 11 9 9 10 7 12 5 14
REMARK H PARENT 3 5 9 11 7 13 5 15
REMARK Flexibility Score: inf
ROOT
ATOM      1  C   UNL     1       6.425  12.168  22.316  1.00  0.00     0.174 C 
ENDROOT
BRANCH   1   2
ATOM      2  C   UNL     1       5.855  13.476  22.936  1.00  0.00     0.142 C 
ATOM      3  C   UNL     1       4.823  14.187  22.046  1.00  0.00     0.041 C 
BRANCH   2   4
ATOM      4  O   UNL     1       5.301  13.205  24.199  1.00  0.00    -0.391 OA
ATOM      5  H   UNL     1       4.354  12.936  24.066  1.00  0.00     0.211 HD
ENDBRANCH   2   4
ENDBRANCH   1   2
BRANCH   1   6
ATOM      6  C   UNL     1       6.100  10.857  23.094  1.00  0.00     0.181 C 
BRANCH   6   7
ATOM      7  C   UNL     1       6.896   9.617  22.616  1.00  0.00     0.209 C 
BRANCH   7   8
ATOM      8  C   UNL     1       6.082   8.353  22.727  1.00  0.00     0.258 C 
ATOM      9  O   UNL     1       5.410   7.965  21.785  1.00  0.00    -0.300 OA
ENDBRANCH   7   8
BRANCH   7  10
ATOM     10  O   UNL     1       7.320   9.789  21.287  1.00  0.00    -0.383 OA
ATOM     11  H   UNL     1       7.961   9.060  21.075  1.00  0.00     0.211 HD
ENDBRANCH   7  10
ENDBRANCH   6   7
BRANCH   6  12
ATOM     12  O   UNL     1       4.726  10.570  23.033  1.00  0.00    -0.387 OA
ATOM     13  H   UNL     1       4.306  11.263  22.461  1.00  0.00     0.211 HD
ENDBRANCH   6  12
ENDBRANCH   1   6
BRANCH   1  14
ATOM     14  O   UNL     1       7.817  12.292  22.161  1.00  0.00    -0.388 OA
ATOM     15  H   UNL     1       8.234  11.941  22.992  1.00  0.00     0.211 HD
ENDBRANCH   1  14
TORSDOF 8
ENDMDL
MODEL 7
REMARK VINA RESULT:    -3.425      1.236      2.182
REMARK INTER + INTRA:          -5.518
REMARK INTER:                  -5.173
REMARK INTRA:                  -0.345
REMARK UNBOUND:                -0.892
REMARK SMILES C[C@@H](O)[C@@H](O)[C@@H](O)[C@H](O)C=O
REMARK SMILES IDX 4 1 2 2 1 3 3 4 6 6 8 7 10 8 11 9 9 10 7 12 5 14
REMARK H PARENT 3 5 9 11 7 13 5 15
REMARK Flexibility Score: inf
ROOT
ATOM      1  C   UNL     1       5.361  12.468  23.721  1.00  0.00     0.174 C 
ENDROOT
BRANCH   1   2
ATOM      2  C   UNL     1       5.670  12.909  22.262  1.00  0.00     0.142 C 
ATOM      3  C   UNL     1       5.319  14.376  21.968  1.00  0.00     0.041 C 
BRANCH   2   4
ATOM      4  O   UNL     1       7.022  12.667  21.965  1.00  0.00    -0.391 OA
ATOM      5  H   UNL     1       7.519  12.609  22.823  1.00  0.00     0.211 HD
ENDBRANCH   2   4
ENDBRANCH   1   2
BRANCH   1   6
ATOM      6  C   UNL     1       4.256  11.378  23.875  1.00  0.00     0.181 C 
BRANCH   6   7
ATOM      7  C   UNL     1       4.048  10.881  25.327  1.00  0.00     0.209 C 
BRANCH   7   8
ATOM      8  C   UNL     1       2.765  11.406  25.920  1.00  0.00     0.258 C 
ATOM      9  O   UNL     1       2.543  12.606  25.950  1.00  0.00    -0.300 OA
ENDBRANCH   7   8
BRANCH   7  10
ATOM     10  O   UNL     1       4.045   9.476  25.369  1.00  0.00    -0.383 OA
ATOM     11  H   UNL     1       3.997   9.144  24.434  1.00  0.00     0.211 HD
ENDBRANCH   7  10
ENDBRANCH   6   7
BRANCH   6  12
ATOM     12  O   UNL     1       4.527  10.275  23.048  1.00  0.00    -0.387 OA
ATOM     13  H   UNL     1       4.074   9.489  23.449  1.00  0.00     0.211 HD
ENDBRANCH   6  12
ENDBRANCH   1   6
BRANCH   1  14
ATOM     14  O   UNL     1       5.021  13.596  24.489  1.00  0.00    -0.388 OA
ATOM     15  H   UNL     1       5.849  14.133  24.597  1.00  0.00     0.211 HD
ENDBRANCH   1  14
TORSDOF 8
ENDMDL
MODEL 8
REMARK VINA RESULT:    -3.401      1.762      2.449
REMARK INTER + INTRA:          -5.486
REMARK INTER:                  -4.826
REMARK INTRA:                  -0.660
REMARK UNBOUND:                -0.892
REMARK SMILES C[C@@H](O)[C@@H](O)[C@@H](O)[C@H](O)C=O
REMARK SMILES IDX 4 1 2 2 1 3 3 4 6 6 8 7 10 8 11 9 9 10 7 12 5 14
REMARK H PARENT 3 5 9 11 7 13 5 15
REMARK Flexibility Score: inf
ROOT
ATOM      1  C   UNL     1       5.493  11.292  23.050  1.00  0.00     0.174 C 
ENDROOT
BRANCH   1   2
ATOM      2  C   UNL     1       6.754  12.049  22.545  1.00  0.00     0.142 C 
ATOM      3  C   UNL     1       7.819  11.136  21.918  1.00  0.00     0.041 C 
BRANCH   2   4
ATOM      4  O   UNL     1       6.378  13.051  21.633  1.00  0.00    -0.391 OA
ATOM      5  H   UNL     1       5.425  12.906  21.394  1.00  0.00     0.211 HD
ENDBRANCH   2   4
ENDBRANCH   1   2
BRANCH   1   6
ATOM      6  C   UNL     1       4.903  11.794  24.403  1.00  0.00     0.181 C 
BRANCH   6   7
ATOM      7  C   UNL     1       3.486  11.254  24.721  1.00  0.00     0.209 C 
BRANCH   7   8
ATOM      8  C   UNL     1       2.480  12.368  24.854  1.00  0.00     0.258 C 
ATOM      9  O   UNL     1       1.884  12.784  23.874  1.00  0.00    -0.300 OA
ENDBRANCH   7   8
BRANCH   7  10
ATOM     10  O   UNL     1       3.068  10.357  23.722  1.00  0.00    -0.383 OA
ATOM     11  H   UNL     1       3.068  10.845  22.856  1.00  0.00     0.211 HD
ENDBRANCH   7  10
ENDBRANCH   6   7
BRANCH   6  12
ATOM     12  O   UNL     1       4.877  13.198  24.444  1.00  0.00    -0.387 OA
ATOM     13  H   UNL     1       4.213  13.500  23.771  1.00  0.00     0.211 HD
ENDBRANCH   6  12
ENDBRANCH   1   6
BRANCH   1  14
ATOM     14  O   UNL     1       5.777   9.918  23.140  1.00  0.00    -0.388 OA
ATOM     15  H   UNL     1       5.436   9.608  24.021  1.00  0.00     0.211 HD
ENDBRANCH   1  14
TORSDOF 8
ENDMDL
MODEL 9
REMARK VINA RESULT:    -3.396      1.641      3.836
REMARK INTER + INTRA:          -5.479
REMARK INTER:                  -4.536
REMARK INTRA:                  -0.943
REMARK UNBOUND:                -0.892
REMARK SMILES C[C@@H](O)[C@@H](O)[C@@H](O)[C@H](O)C=O
REMARK SMILES IDX 4 1 2 2 1 3 3 4 6 6 8 7 10 8 11 9 9 10 7 12 5 14
REMARK H PARENT 3 5 9 11 7 13 5 15
REMARK Flexibility Score: inf
ROOT
ATOM      1  C   UNL     1       3.232  10.924  25.030  1.00  0.00     0.174 C 
ENDROOT
BRANCH   1   2
ATOM      2  C   UNL     1       2.081  11.481  24.145  1.00  0.00     0.142 C 
ATOM      3  C   UNL     1       0.845  11.928  24.941  1.00  0.00     0.041 C 
BRANCH   2   4
ATOM      4  O   UNL     1       2.556  12.542  23.354  1.00  0.00    -0.391 OA
ATOM      5  H   UNL     1       2.417  12.299  22.401  1.00  0.00     0.211 HD
ENDBRANCH   2   4
ENDBRANCH   1   2
BRANCH   1   6
ATOM      6  C   UNL     1       4.523  10.497  24.266  1.00  0.00     0.181 C 
BRANCH   6   7
ATOM      7  C   UNL     1       5.626  11.585  24.220  1.00  0.00     0.209 C 
BRANCH   7   8
ATOM      8  C   UNL     1       5.979  11.963  22.805  1.00  0.00     0.258 C 
ATOM      9  O   UNL     1       5.399  12.880  22.246  1.00  0.00    -0.300 OA
ENDBRANCH   7   8
BRANCH   7  10
ATOM     10  O   UNL     1       5.215  12.730  24.926  1.00  0.00    -0.383 OA
ATOM     11  H   UNL     1       5.488  13.526  24.399  1.00  0.00     0.211 HD
ENDBRANCH   7  10
ENDBRANCH   6   7
BRANCH   6  12
ATOM     12  O   UNL     1       4.216  10.102  22.953  1.00  0.00    -0.387 OA
ATOM     13  H   UNL     1       4.994   9.592  22.610  1.00  0.00     0.211 HD
ENDBRANCH   6  12
ENDBRANCH   1   6
BRANCH   1  14
ATOM     14  O   UNL     1       2.755   9.841  25.791  1.00  0.00    -0.388 OA
ATOM     15  H   UNL     1       1.771   9.953  25.870  1.00  0.00     0.211 HD
ENDBRANCH   1  14
TORSDOF 8
ENDMDL
