MODEL 1
REMARK VINA RESULT:    -4.049      0.000      0.000
REMARK INTER + INTRA:          -7.043
REMARK INTER:                  -6.417
REMARK INTRA:                  -0.627
REMARK UNBOUND:                -0.627
REMARK SMILES CCCCCCCCCCCC(=O)[O-]
REMARK SMILES IDX 7 1 8 2 9 3 10 4 11 5 12 6 13 7 14 8 6 9 5 10 4 11 3 12 2 13
REMARK SMILES IDX 1 14
REMARK H PARENT
REMARK Flexibility Score: inf
ROOT
ATOM      1  C   UNL     1     -43.959 -48.506  36.662  1.00  0.00     0.000 C 
ENDROOT
BRANCH   1   2
ATOM      2  C   UNL     1     -45.315 -48.151  37.302  1.00  0.00     0.000 C 
BRANCH   2   3
ATOM      3  C   UNL     1     -46.444 -49.165  37.039  1.00  0.00     0.000 C 
BRANCH   3   4
ATOM      4  C   UNL     1     -46.451 -50.325  38.046  1.00  0.00     0.006 C 
BRANCH   4   5
ATOM      5  C   UNL     1     -46.896 -51.628  37.376  1.00  0.00     0.053 C 
BRANCH   5   6
ATOM      6  C   UNL     1     -47.370 -52.609  38.402  1.00  0.00     0.041 C 
ATOM      7  O   UNL     1     -47.540 -52.243  39.594  1.00  0.00    -0.550 OA
ATOM      8  O   UNL     1     -47.579 -53.936  38.050  1.00  0.00    -0.550 OA
ENDBRANCH   5   6
ENDBRANCH   4   5
ENDBRANCH   3   4
ENDBRANCH   2   3
ENDBRANCH   1   2
BRANCH   1   9
ATOM      9  C   UNL     1     -44.031 -49.515  35.497  1.00  0.00     0.000 C 
BRANCH   9  10
ATOM     10  C   UNL     1     -43.067 -49.233  34.328  1.00  0.00    -0.000 C 
BRANCH  10  11
ATOM     11  C   UNL     1     -42.394 -47.849  34.364  1.00  0.00    -0.000 C 
BRANCH  11  12
ATOM     12  C   UNL     1     -40.867 -47.933  34.534  1.00  0.00    -0.000 C 
BRANCH  12  13
ATOM     13  C   UNL     1     -40.430 -47.802  36.000  1.00  0.00    -0.003 C 
ATOM     14  C   UNL     1     -38.912 -47.850  36.169  1.00  0.00     0.004 C 
ENDBRANCH  12  13
ENDBRANCH  11  12
ENDBRANCH  10  11
ENDBRANCH   9  10
ENDBRANCH   1   9
TORSDOF 10
ENDMDL
MODEL 2
REMARK VINA RESULT:    -4.028      1.900      3.482
REMARK INTER + INTRA:          -7.010
REMARK INTER:                  -5.690
REMARK INTRA:                  -1.319
REMARK UNBOUND:                -0.627
REMARK SMILES CCCCCCCCCCCC(=O)[O-]
REMARK SMILES IDX 7 1 8 2 9 3 10 4 11 5 12 6 13 7 14 8 6 9 5 10 4 11 3 12 2 13
REMARK SMILES IDX 1 14
REMARK H PARENT
REMARK Flexibility Score: inf
ROOT
ATOM      1  C   UNL     1     -40.999 -48.791  38.220  1.00  0.00     0.000 C 
ENDROOT
BRANCH   1   2
ATOM      2  C   UNL     1     -42.210 -47.836  38.219  1.00  0.00     0.000 C 
BRANCH   2   3
ATOM      3  C   UNL     1     -43.584 -48.529  38.247  1.00  0.00     0.000 C 
BRANCH   3   4
ATOM      4  C   UNL     1     -44.397 -48.294  36.964  1.00  0.00     0.006 C 
BRANCH   4   5
ATOM      5  C   UNL     1     -45.104 -49.578  36.521  1.00  0.00     0.053 C 
BRANCH   5   6
ATOM      6  C   UNL     1     -46.507 -49.610  37.040  1.00  0.00     0.041 C 
ATOM      7  O   UNL     1     -47.020 -50.698  37.408  1.00  0.00    -0.550 OA
ATOM      8  O   UNL     1     -47.262 -48.445  37.071  1.00  0.00    -0.550 OA
ENDBRANCH   5   6
ENDBRANCH   4   5
ENDBRANCH   3   4
ENDBRANCH   2   3
ENDBRANCH   1   2
BRANCH   1   9
ATOM      9  C   UNL     1     -40.294 -48.951  36.858  1.00  0.00     0.000 C 
BRANCH   9  10
ATOM     10  C   UNL     1     -40.388 -47.727  35.926  1.00  0.00    -0.000 C 
BRANCH  10  11
ATOM     11  C   UNL     1     -40.764 -48.051  34.469  1.00  0.00    -0.000 C 
BRANCH  11  12
ATOM     12  C   UNL     1     -42.257 -47.830  34.175  1.00  0.00    -0.000 C 
BRANCH  12  13
ATOM     13  C   UNL     1     -42.912 -49.049  33.508  1.00  0.00    -0.003 C 
ATOM     14  C   UNL     1     -42.434 -50.374  34.101  1.00  0.00     0.004 C 
ENDBRANCH  12  13
ENDBRANCH  11  12
ENDBRANCH  10  11
ENDBRANCH   9  10
ENDBRANCH   1   9
TORSDOF 10
ENDMDL
MODEL 3
REMARK VINA RESULT:    -4.002      4.879      6.158
REMARK INTER + INTRA:          -6.967
REMARK INTER:                  -6.342
REMARK INTRA:                  -0.626
REMARK UNBOUND:                -0.627
REMARK SMILES CCCCCCCCCCCC(=O)[O-]
REMARK SMILES IDX 7 1 8 2 9 3 10 4 11 5 12 6 13 7 14 8 6 9 5 10 4 11 3 12 2 13
REMARK SMILES IDX 1 14
REMARK H PARENT
REMARK Flexibility Score: inf
ROOT
ATOM      1  C   UNL     1     -43.099 -48.336  37.773  1.00  0.00     0.000 C 
ENDROOT
BRANCH   1   2
ATOM      2  C   UNL     1     -43.868 -48.259  39.107  1.00  0.00     0.000 C 
BRANCH   2   3
ATOM      3  C   UNL     1     -43.862 -46.875  39.782  1.00  0.00     0.000 C 
BRANCH   3   4
ATOM      4  C   UNL     1     -42.451 -46.283  39.917  1.00  0.00     0.006 C 
BRANCH   4   5
ATOM      5  C   UNL     1     -42.509 -44.837  40.417  1.00  0.00     0.053 C 
BRANCH   5   6
ATOM      6  C   UNL     1     -41.153 -44.377  40.848  1.00  0.00     0.041 C 
ATOM      7  O   UNL     1     -40.867 -43.151  40.835  1.00  0.00    -0.550 OA
ATOM      8  O   UNL     1     -40.188 -45.306  41.218  1.00  0.00    -0.550 OA
ENDBRANCH   5   6
ENDBRANCH   4   5
ENDBRANCH   3   4
ENDBRANCH   2   3
ENDBRANCH   1   2
BRANCH   1   9
ATOM      9  C   UNL     1     -43.984 -48.353  36.510  1.00  0.00     0.000 C 
BRANCH   9  10
ATOM     10  C   UNL     1     -43.731 -49.533  35.551  1.00  0.00    -0.000 C 
BRANCH  10  11
ATOM     11  C   UNL     1     -43.083 -49.149  34.209  1.00  0.00    -0.000 C 
BRANCH  11  12
ATOM     12  C   UNL     1     -42.293 -47.831  34.285  1.00  0.00    -0.000 C 
BRANCH  12  13
ATOM     13  C   UNL     1     -40.777 -48.058  34.380  1.00  0.00    -0.003 C 
ATOM     14  C   UNL     1     -40.220 -47.747  35.768  1.00  0.00     0.004 C 
ENDBRANCH  12  13
ENDBRANCH  11  12
ENDBRANCH  10  11
ENDBRANCH   9  10
ENDBRANCH   1   9
TORSDOF 10
ENDMDL
MODEL 4
REMARK VINA RESULT:    -3.894      1.127      1.802
REMARK INTER + INTRA:          -6.798
REMARK INTER:                  -6.015
REMARK INTRA:                  -0.782
REMARK UNBOUND:                -0.627
REMARK SMILES CCCCCCCCCCCC(=O)[O-]
REMARK SMILES IDX 7 1 8 2 9 3 10 4 11 5 12 6 13 7 14 8 6 9 5 10 4 11 3 12 2 13
REMARK SMILES IDX 1 14
REMARK H PARENT
REMARK Flexibility Score: inf
ROOT
ATOM      1  C   UNL     1     -44.964 -48.405  37.553  1.00  0.00     0.000 C 
ENDROOT
BRANCH   1   2
ATOM      2  C   UNL     1     -46.262 -49.058  37.037  1.00  0.00     0.000 C 
BRANCH   2   3
ATOM      3  C   UNL     1     -46.691 -50.333  37.786  1.00  0.00     0.000 C 
BRANCH   3   4
ATOM      4  C   UNL     1     -45.663 -50.784  38.833  1.00  0.00     0.006 C 
BRANCH   4   5
ATOM      5  C   UNL     1     -46.219 -50.626  40.251  1.00  0.00     0.053 C 
BRANCH   5   6
ATOM      6  C   UNL     1     -47.171 -51.735  40.567  1.00  0.00     0.041 C 
ATOM      7  O   UNL     1     -48.244 -51.492  41.180  1.00  0.00    -0.550 OA
ATOM      8  O   UNL     1     -46.852 -53.043  40.227  1.00  0.00    -0.550 OA
ENDBRANCH   5   6
ENDBRANCH   4   5
ENDBRANCH   3   4
ENDBRANCH   2   3
ENDBRANCH   1   2
BRANCH   1   9
ATOM      9  C   UNL     1     -43.805 -48.367  36.536  1.00  0.00     0.000 C 
BRANCH   9  10
ATOM     10  C   UNL     1     -43.855 -49.457  35.447  1.00  0.00    -0.000 C 
BRANCH  10  11
ATOM     11  C   UNL     1     -43.029 -49.149  34.186  1.00  0.00    -0.000 C 
BRANCH  11  12
ATOM     12  C   UNL     1     -42.304 -47.795  34.264  1.00  0.00    -0.000 C 
BRANCH  12  13
ATOM     13  C   UNL     1     -40.776 -47.947  34.314  1.00  0.00    -0.003 C 
ATOM     14  C   UNL     1     -40.224 -47.889  35.738  1.00  0.00     0.004 C 
ENDBRANCH  12  13
ENDBRANCH  11  12
ENDBRANCH  10  11
ENDBRANCH   9  10
ENDBRANCH   1   9
TORSDOF 10
ENDMDL
MODEL 5
REMARK VINA RESULT:    -3.888      3.556      7.418
REMARK INTER + INTRA:          -6.788
REMARK INTER:                  -6.147
REMARK INTRA:                  -0.641
REMARK UNBOUND:                -0.627
REMARK SMILES CCCCCCCCCCCC(=O)[O-]
REMARK SMILES IDX 7 1 8 2 9 3 10 4 11 5 12 6 13 7 14 8 6 9 5 10 4 11 3 12 2 13
REMARK SMILES IDX 1 14
REMARK H PARENT
REMARK Flexibility Score: inf
ROOT
ATOM      1  C   UNL     1     -46.363 -51.262  37.633  1.00  0.00     0.000 C 
ENDROOT
BRANCH   1   2
ATOM      2  C   UNL     1     -46.776 -49.882  37.082  1.00  0.00     0.000 C 
BRANCH   2   3
ATOM      3  C   UNL     1     -45.621 -48.878  36.910  1.00  0.00     0.000 C 
BRANCH   3   4
ATOM      4  C   UNL     1     -44.441 -49.458  36.116  1.00  0.00     0.006 C 
BRANCH   4   5
ATOM      5  C   UNL     1     -43.341 -48.409  35.928  1.00  0.00     0.053 C 
BRANCH   5   6
ATOM      6  C   UNL     1     -42.794 -48.467  34.536  1.00  0.00     0.041 C 
ATOM      7  O   UNL     1     -43.223 -49.327  33.724  1.00  0.00    -0.550 OA
ATOM      8  O   UNL     1     -41.778 -47.601  34.152  1.00  0.00    -0.550 OA
ENDBRANCH   5   6
ENDBRANCH   4   5
ENDBRANCH   3   4
ENDBRANCH   2   3
ENDBRANCH   1   2
BRANCH   1   9
ATOM      9  C   UNL     1     -47.286 -52.429  37.226  1.00  0.00     0.000 C 
BRANCH   9  10
ATOM     10  C   UNL     1     -47.160 -53.694  38.097  1.00  0.00    -0.000 C 
BRANCH  10  11
ATOM     11  C   UNL     1     -46.822 -53.431  39.575  1.00  0.00    -0.000 C 
BRANCH  11  12
ATOM     12  C   UNL     1     -47.958 -53.839  40.528  1.00  0.00    -0.000 C 
BRANCH  12  13
ATOM     13  C   UNL     1     -48.843 -52.650  40.932  1.00  0.00    -0.003 C 
ATOM     14  C   UNL     1     -48.030 -51.413  41.310  1.00  0.00     0.004 C 
ENDBRANCH  12  13
ENDBRANCH  11  12
ENDBRANCH  10  11
ENDBRANCH   9  10
ENDBRANCH   1   9
TORSDOF 10
ENDMDL
MODEL 6
REMARK VINA RESULT:    -3.871      3.461      5.564
REMARK INTER + INTRA:          -6.761
REMARK INTER:                  -5.934
REMARK INTRA:                  -0.827
REMARK UNBOUND:                -0.627
REMARK SMILES CCCCCCCCCCCC(=O)[O-]
REMARK SMILES IDX 7 1 8 2 9 3 10 4 11 5 12 6 13 7 14 8 6 9 5 10 4 11 3 12 2 13
REMARK SMILES IDX 1 14
REMARK H PARENT
REMARK Flexibility Score: inf
ROOT
ATOM      1  C   UNL     1     -40.859 -48.528  37.178  1.00  0.00     0.000 C 
ENDROOT
BRANCH   1   2
ATOM      2  C   UNL     1     -40.231 -47.769  35.992  1.00  0.00     0.000 C 
BRANCH   2   3
ATOM      3  C   UNL     1     -40.862 -48.069  34.620  1.00  0.00     0.000 C 
BRANCH   3   4
ATOM      4  C   UNL     1     -42.386 -47.877  34.610  1.00  0.00     0.006 C 
BRANCH   4   5
ATOM      5  C   UNL     1     -43.093 -49.137  34.101  1.00  0.00     0.053 C 
BRANCH   5   6
ATOM      6  C   UNL     1     -43.732 -49.874  35.235  1.00  0.00     0.041 C 
ATOM      7  O   UNL     1     -43.411 -51.067  35.474  1.00  0.00    -0.550 OA
ATOM      8  O   UNL     1     -44.716 -49.258  35.997  1.00  0.00    -0.550 OA
ENDBRANCH   5   6
ENDBRANCH   4   5
ENDBRANCH   3   4
ENDBRANCH   2   3
ENDBRANCH   1   2
BRANCH   1   9
ATOM      9  C   UNL     1     -41.382 -47.634  38.321  1.00  0.00     0.000 C 
BRANCH   9  10
ATOM     10  C   UNL     1     -42.914 -47.621  38.490  1.00  0.00    -0.000 C 
BRANCH  10  11
ATOM     11  C   UNL     1     -43.403 -47.410  39.934  1.00  0.00    -0.000 C 
BRANCH  11  12
ATOM     12  C   UNL     1     -43.637 -45.929  40.274  1.00  0.00    -0.000 C 
BRANCH  12  13
ATOM     13  C   UNL     1     -42.635 -45.396  41.309  1.00  0.00    -0.003 C 
ATOM     14  C   UNL     1     -41.480 -44.626  40.669  1.00  0.00     0.004 C 
ENDBRANCH  12  13
ENDBRANCH  11  12
ENDBRANCH  10  11
ENDBRANCH   9  10
ENDBRANCH   1   9
TORSDOF 10
ENDMDL
MODEL 7
REMARK VINA RESULT:    -3.818      1.915      4.043
REMARK INTER + INTRA:          -6.676
REMARK INTER:                  -5.921
REMARK INTRA:                  -0.755
REMARK UNBOUND:                -0.627
REMARK SMILES CCCCCCCCCCCC(=O)[O-]
REMARK SMILES IDX 7 1 8 2 9 3 10 4 11 5 12 6 13 7 14 8 6 9 5 10 4 11 3 12 2 13
REMARK SMILES IDX 1 14
REMARK H PARENT
REMARK Flexibility Score: inf
ROOT
ATOM      1  C   UNL     1     -46.267 -51.967  37.584  1.00  0.00     0.000 C 
ENDROOT
BRANCH   1   2
ATOM      2  C   UNL     1     -47.514 -52.874  37.608  1.00  0.00     0.000 C 
BRANCH   2   3
ATOM      3  C   UNL     1     -47.332 -54.210  38.351  1.00  0.00     0.000 C 
BRANCH   3   4
ATOM      4  C   UNL     1     -47.274 -54.042  39.876  1.00  0.00     0.006 C 
BRANCH   4   5
ATOM      5  C   UNL     1     -48.449 -53.199  40.379  1.00  0.00     0.053 C 
BRANCH   5   6
ATOM      6  C   UNL     1     -47.954 -52.011  41.141  1.00  0.00     0.041 C 
ATOM      7  O   UNL     1     -48.771 -51.192  41.638  1.00  0.00    -0.550 OA
ATOM      8  O   UNL     1     -46.589 -51.782  41.262  1.00  0.00    -0.550 OA
ENDBRANCH   5   6
ENDBRANCH   4   5
ENDBRANCH   3   4
ENDBRANCH   2   3
ENDBRANCH   1   2
BRANCH   1   9
ATOM      9  C   UNL     1     -46.521 -50.498  37.979  1.00  0.00     0.000 C 
BRANCH   9  10
ATOM     10  C   UNL     1     -46.244 -49.466  36.868  1.00  0.00    -0.000 C 
BRANCH  10  11
ATOM     11  C   UNL     1     -45.408 -48.251  37.308  1.00  0.00    -0.000 C 
BRANCH  11  12
ATOM     12  C   UNL     1     -43.924 -48.379  36.923  1.00  0.00    -0.000 C 
BRANCH  12  13
ATOM     13  C   UNL     1     -43.725 -49.071  35.566  1.00  0.00    -0.003 C 
ATOM     14  C   UNL     1     -42.735 -48.332  34.667  1.00  0.00     0.004 C 
ENDBRANCH  12  13
ENDBRANCH  11  12
ENDBRANCH  10  11
ENDBRANCH   9  10
ENDBRANCH   1   9
TORSDOF 10
ENDMDL
MODEL 8
REMARK VINA RESULT:    -3.809      1.240      2.363
REMARK INTER + INTRA:          -6.662
REMARK INTER:                  -5.394
REMARK INTRA:                  -1.268
REMARK UNBOUND:                -0.627
REMARK SMILES CCCCCCCCCCCC(=O)[O-]
REMARK SMILES IDX 7 1 8 2 9 3 10 4 11 5 12 6 13 7 14 8 6 9 5 10 4 11 3 12 2 13
REMARK SMILES IDX 1 14
REMARK H PARENT
REMARK Flexibility Score: inf
ROOT
ATOM      1  C   UNL     1     -42.680 -50.113  34.510  1.00  0.00     0.000 C 
ENDROOT
BRANCH   1   2
ATOM      2  C   UNL     1     -43.730 -50.398  35.603  1.00  0.00     0.000 C 
BRANCH   2   3
ATOM      3  C   UNL     1     -44.539 -49.171  36.063  1.00  0.00     0.000 C 
BRANCH   3   4
ATOM      4  C   UNL     1     -45.031 -49.290  37.513  1.00  0.00     0.006 C 
BRANCH   4   5
ATOM      5  C   UNL     1     -46.534 -49.580  37.558  1.00  0.00     0.053 C 
BRANCH   5   6
ATOM      6  C   UNL     1     -46.782 -51.001  37.953  1.00  0.00     0.041 C 
ATOM      7  O   UNL     1     -46.943 -51.884  37.070  1.00  0.00    -0.550 OA
ATOM      8  O   UNL     1     -46.883 -51.343  39.295  1.00  0.00    -0.550 OA
ENDBRANCH   5   6
ENDBRANCH   4   5
ENDBRANCH   3   4
ENDBRANCH   2   3
ENDBRANCH   1   2
BRANCH   1   9
ATOM      9  C   UNL     1     -42.825 -48.748  33.807  1.00  0.00     0.000 C 
BRANCH   9  10
ATOM     10  C   UNL     1     -41.784 -47.688  34.216  1.00  0.00    -0.000 C 
BRANCH  10  11
ATOM     11  C   UNL     1     -40.468 -48.257  34.777  1.00  0.00    -0.000 C 
BRANCH  11  12
ATOM     12  C   UNL     1     -40.104 -47.672  36.152  1.00  0.00    -0.000 C 
BRANCH  12  13
ATOM     13  C   UNL     1     -41.177 -47.954  37.215  1.00  0.00    -0.003 C 
ATOM     14  C   UNL     1     -41.035 -49.340  37.842  1.00  0.00     0.004 C 
ENDBRANCH  12  13
ENDBRANCH  11  12
ENDBRANCH  10  11
ENDBRANCH   9  10
ENDBRANCH   1   9
TORSDOF 10
ENDMDL
MODEL 9
REMARK VINA RESULT:    -3.805      2.706      5.337
REMARK INTER + INTRA:          -6.657
REMARK INTER:                  -5.492
REMARK INTRA:                  -1.165
REMARK UNBOUND:                -0.627
REMARK SMILES CCCCCCCCCCCC(=O)[O-]
REMARK SMILES IDX 7 1 8 2 9 3 10 4 11 5 12 6 13 7 14 8 6 9 5 10 4 11 3 12 2 13
REMARK SMILES IDX 1 14
REMARK H PARENT
REMARK Flexibility Score: inf
ROOT
ATOM      1  C   UNL     1     -40.928 -48.108  34.561  1.00  0.00     0.000 C 
ENDROOT
BRANCH   1   2
ATOM      2  C   UNL     1     -40.311 -47.657  35.900  1.00  0.00     0.000 C 
BRANCH   2   3
ATOM      3  C   UNL     1     -40.678 -48.532  37.112  1.00  0.00     0.000 C 
BRANCH   3   4
ATOM      4  C   UNL     1     -41.312 -47.729  38.257  1.00  0.00     0.006 C 
BRANCH   4   5
ATOM      5  C   UNL     1     -41.752 -48.653  39.397  1.00  0.00     0.053 C 
BRANCH   5   6
ATOM      6  C   UNL     1     -43.054 -48.193  39.971  1.00  0.00     0.041 C 
ATOM      7  O   UNL     1     -43.385 -46.981  39.898  1.00  0.00    -0.550 OA
ATOM      8  O   UNL     1     -43.880 -49.095  40.630  1.00  0.00    -0.550 OA
ENDBRANCH   5   6
ENDBRANCH   4   5
ENDBRANCH   3   4
ENDBRANCH   2   3
ENDBRANCH   1   2
BRANCH   1   9
ATOM      9  C   UNL     1     -42.460 -47.960  34.466  1.00  0.00     0.000 C 
BRANCH   9  10
ATOM     10  C   UNL     1     -43.240 -49.286  34.377  1.00  0.00    -0.000 C 
BRANCH  10  11
ATOM     11  C   UNL     1     -44.036 -49.655  35.641  1.00  0.00    -0.000 C 
BRANCH  11  12
ATOM     12  C   UNL     1     -44.411 -48.428  36.489  1.00  0.00    -0.000 C 
BRANCH  12  13
ATOM     13  C   UNL     1     -45.561 -48.715  37.465  1.00  0.00    -0.003 C 
ATOM     14  C   UNL     1     -46.570 -49.719  36.908  1.00  0.00     0.004 C 
ENDBRANCH  12  13
ENDBRANCH  11  12
ENDBRANCH  10  11
ENDBRANCH   9  10
ENDBRANCH   1   9
TORSDOF 10
ENDMDL
