MODEL 1
REMARK VINA RESULT:    -3.832      0.000      0.000
REMARK INTER + INTRA:          -7.394
REMARK INTER:                  -6.184
REMARK INTRA:                  -1.211
REMARK UNBOUND:                -1.211
REMARK SMILES CCCCCCCCCCCCO
REMARK SMILES IDX 7 1 6 2 5 3 4 4 3 5 2 6 1 7 8 8 9 9 10 10 11 11 12 12 13 13
REMARK H PARENT 13 14
REMARK Flexibility Score: inf
ROOT
ATOM      1  C   UNL     1     185.178 190.510 191.548  1.00  0.00     0.000 C 
ENDROOT
BRANCH   1   2
ATOM      2  C   UNL     1     185.794 191.917 191.449  1.00  0.00    -0.000 C 
BRANCH   2   3
ATOM      3  C   UNL     1     186.509 192.222 190.118  1.00  0.00    -0.000 C 
BRANCH   3   4
ATOM      4  C   UNL     1     185.674 193.013 189.091  1.00  0.00    -0.000 C 
BRANCH   4   5
ATOM      5  C   UNL     1     185.415 192.280 187.763  1.00  0.00    -0.000 C 
BRANCH   5   6
ATOM      6  C   UNL     1     184.271 191.260 187.859  1.00  0.00    -0.003 C 
ATOM      7  C   UNL     1     184.543 190.044 186.978  1.00  0.00     0.004 C 
ENDBRANCH   5   6
ENDBRANCH   4   5
ENDBRANCH   3   4
ENDBRANCH   2   3
ENDBRANCH   1   2
BRANCH   1   8
ATOM      8  C   UNL     1     185.935 189.468 190.711  1.00  0.00     0.000 C 
BRANCH   8   9
ATOM      9  C   UNL     1     185.011 188.315 190.302  1.00  0.00     0.000 C 
BRANCH   9  10
ATOM     10  C   UNL     1     183.541 188.671 190.554  1.00  0.00     0.002 C 
BRANCH  10  11
ATOM     11  C   UNL     1     182.753 187.449 191.042  1.00  0.00     0.028 C 
BRANCH  11  12
ATOM     12  C   UNL     1     182.343 186.536 189.882  1.00  0.00     0.156 C 
BRANCH  12  13
ATOM     13  O   UNL     1     182.433 185.185 190.251  1.00  0.00    -0.396 OA
ATOM     14  H   UNL     1     183.160 184.789 189.703  1.00  0.00     0.210 HD
ENDBRANCH  12  13
ENDBRANCH  11  12
ENDBRANCH  10  11
ENDBRANCH   9  10
ENDBRANCH   8   9
ENDBRANCH   1   8
TORSDOF 11
ENDMDL
MODEL 2
REMARK VINA RESULT:    -3.768      1.568      2.000
REMARK INTER + INTRA:          -7.292
REMARK INTER:                  -6.330
REMARK INTRA:                  -0.962
REMARK UNBOUND:                -1.211
REMARK SMILES CCCCCCCCCCCCO
REMARK SMILES IDX 7 1 6 2 5 3 4 4 3 5 2 6 1 7 8 8 9 9 10 10 11 11 12 12 13 13
REMARK H PARENT 13 14
REMARK Flexibility Score: inf
ROOT
ATOM      1  C   UNL     1     183.866 189.885 190.252  1.00  0.00     0.000 C 
ENDROOT
BRANCH   1   2
ATOM      2  C   UNL     1     184.119 191.042 189.271  1.00  0.00    -0.000 C 
BRANCH   2   3
ATOM      3  C   UNL     1     185.290 191.972 189.647  1.00  0.00    -0.000 C 
BRANCH   3   4
ATOM      4  C   UNL     1     186.286 192.267 188.507  1.00  0.00    -0.000 C 
BRANCH   4   5
ATOM      5  C   UNL     1     185.815 191.834 187.107  1.00  0.00    -0.000 C 
BRANCH   5   6
ATOM      6  C   UNL     1     186.896 191.074 186.324  1.00  0.00    -0.003 C 
ATOM      7  C   UNL     1     186.386 189.710 185.868  1.00  0.00     0.004 C 
ENDBRANCH   5   6
ENDBRANCH   4   5
ENDBRANCH   3   4
ENDBRANCH   2   3
ENDBRANCH   1   2
BRANCH   1   8
ATOM      8  C   UNL     1     184.712 188.641 189.938  1.00  0.00     0.000 C 
BRANCH   8   9
ATOM      9  C   UNL     1     184.442 188.140 188.514  1.00  0.00     0.000 C 
BRANCH   9  10
ATOM     10  C   UNL     1     183.142 187.331 188.451  1.00  0.00     0.002 C 
BRANCH  10  11
ATOM     11  C   UNL     1     183.048 186.346 189.623  1.00  0.00     0.028 C 
BRANCH  11  12
ATOM     12  C   UNL     1     181.623 186.261 190.182  1.00  0.00     0.156 C 
BRANCH  12  13
ATOM     13  O   UNL     1     181.513 186.978 191.383  1.00  0.00    -0.396 OA
ATOM     14  H   UNL     1     181.338 187.923 191.135  1.00  0.00     0.210 HD
ENDBRANCH  12  13
ENDBRANCH  11  12
ENDBRANCH  10  11
ENDBRANCH   9  10
ENDBRANCH   8   9
ENDBRANCH   1   8
TORSDOF 11
ENDMDL
MODEL 3
REMARK VINA RESULT:    -3.690      1.848      2.600
REMARK INTER + INTRA:          -7.167
REMARK INTER:                  -6.408
REMARK INTRA:                  -0.759
REMARK UNBOUND:                -1.211
REMARK SMILES CCCCCCCCCCCCO
REMARK SMILES IDX 7 1 6 2 5 3 4 4 3 5 2 6 1 7 8 8 9 9 10 10 11 11 12 12 13 13
REMARK H PARENT 13 14
REMARK Flexibility Score: inf
ROOT
ATOM      1  C   UNL     1     185.183 190.633 189.803  1.00  0.00     0.000 C 
ENDROOT
BRANCH   1   2
ATOM      2  C   UNL     1     185.008 191.960 189.043  1.00  0.00    -0.000 C 
BRANCH   2   3
ATOM      3  C   UNL     1     185.465 191.932 187.571  1.00  0.00    -0.000 C 
BRANCH   3   4
ATOM      4  C   UNL     1     185.307 190.573 186.860  1.00  0.00    -0.000 C 
BRANCH   4   5
ATOM      5  C   UNL     1     186.624 189.932 186.387  1.00  0.00    -0.000 C 
BRANCH   5   6
ATOM      6  C   UNL     1     186.772 189.934 184.859  1.00  0.00    -0.003 C 
ATOM      7  C   UNL     1     187.685 191.067 184.397  1.00  0.00     0.004 C 
ENDBRANCH   5   6
ENDBRANCH   4   5
ENDBRANCH   3   4
ENDBRANCH   2   3
ENDBRANCH   1   2
BRANCH   1   8
ATOM      8  C   UNL     1     183.849 190.037 190.277  1.00  0.00     0.000 C 
BRANCH   8   9
ATOM      9  C   UNL     1     183.923 188.507 190.342  1.00  0.00     0.000 C 
BRANCH   9  10
ATOM     10  C   UNL     1     184.203 187.909 188.958  1.00  0.00     0.002 C 
BRANCH  10  11
ATOM     11  C   UNL     1     183.159 186.845 188.597  1.00  0.00     0.028 C 
BRANCH  11  12
ATOM     12  C   UNL     1     182.304 186.453 189.806  1.00  0.00     0.156 C 
BRANCH  12  13
ATOM     13  O   UNL     1     182.593 185.144 190.221  1.00  0.00    -0.396 OA
ATOM     14  H   UNL     1     183.531 184.961 189.952  1.00  0.00     0.210 HD
ENDBRANCH  12  13
ENDBRANCH  11  12
ENDBRANCH  10  11
ENDBRANCH   9  10
ENDBRANCH   8   9
ENDBRANCH   1   8
TORSDOF 11
ENDMDL
MODEL 4
REMARK VINA RESULT:    -3.678      4.439      7.247
REMARK INTER + INTRA:          -7.146
REMARK INTER:                  -6.153
REMARK INTRA:                  -0.993
REMARK UNBOUND:                -1.211
REMARK SMILES CCCCCCCCCCCCO
REMARK SMILES IDX 7 1 6 2 5 3 4 4 3 5 2 6 1 7 8 8 9 9 10 10 11 11 12 12 13 13
REMARK H PARENT 13 14
REMARK Flexibility Score: inf
ROOT
ATOM      1  C   UNL     1     186.024 192.518 188.152  1.00  0.00     0.000 C 
ENDROOT
BRANCH   1   2
ATOM      2  C   UNL     1     184.899 191.471 188.068  1.00  0.00    -0.000 C 
BRANCH   2   3
ATOM      3  C   UNL     1     184.032 191.344 189.337  1.00  0.00    -0.000 C 
BRANCH   3   4
ATOM      4  C   UNL     1     184.049 189.955 190.007  1.00  0.00    -0.000 C 
BRANCH   4   5
ATOM      5  C   UNL     1     184.911 189.859 191.277  1.00  0.00    -0.000 C 
BRANCH   5   6
ATOM      6  C   UNL     1     185.407 191.229 191.766  1.00  0.00    -0.003 C 
ATOM      7  C   UNL     1     186.929 191.312 191.716  1.00  0.00     0.004 C 
ENDBRANCH   5   6
ENDBRANCH   4   5
ENDBRANCH   3   4
ENDBRANCH   2   3
ENDBRANCH   1   2
BRANCH   1   8
ATOM      8  C   UNL     1     185.686 193.682 189.096  1.00  0.00     0.000 C 
BRANCH   8   9
ATOM      9  C   UNL     1     186.958 194.403 189.555  1.00  0.00     0.000 C 
BRANCH   9  10
ATOM     10  C   UNL     1     186.619 195.661 190.362  1.00  0.00     0.002 C 
BRANCH  10  11
ATOM     11  C   UNL     1     187.282 196.903 189.753  1.00  0.00     0.028 C 
BRANCH  11  12
ATOM     12  C   UNL     1     188.785 196.696 189.535  1.00  0.00     0.156 C 
BRANCH  12  13
ATOM     13  O   UNL     1     189.173 197.144 188.264  1.00  0.00    -0.396 OA
ATOM     14  H   UNL     1     189.314 198.124 188.338  1.00  0.00     0.210 HD
ENDBRANCH  12  13
ENDBRANCH  11  12
ENDBRANCH  10  11
ENDBRANCH   9  10
ENDBRANCH   8   9
ENDBRANCH   1   8
TORSDOF 11
ENDMDL
MODEL 5
REMARK VINA RESULT:    -3.674      5.197      7.700
REMARK INTER + INTRA:          -7.139
REMARK INTER:                  -6.600
REMARK INTRA:                  -0.539
REMARK UNBOUND:                -1.211
REMARK SMILES CCCCCCCCCCCCO
REMARK SMILES IDX 7 1 6 2 5 3 4 4 3 5 2 6 1 7 8 8 9 9 10 10 11 11 12 12 13 13
REMARK H PARENT 13 14
REMARK Flexibility Score: inf
ROOT
ATOM      1  C   UNL     1     185.744 194.154 189.557  1.00  0.00     0.000 C 
ENDROOT
BRANCH   1   2
ATOM      2  C   UNL     1     186.388 192.884 188.973  1.00  0.00    -0.000 C 
BRANCH   2   3
ATOM      3  C   UNL     1     185.708 192.335 187.703  1.00  0.00    -0.000 C 
BRANCH   3   4
ATOM      4  C   UNL     1     184.427 191.512 187.948  1.00  0.00    -0.000 C 
BRANCH   4   5
ATOM      5  C   UNL     1     184.613 189.987 187.878  1.00  0.00    -0.000 C 
BRANCH   5   6
ATOM      6  C   UNL     1     184.236 189.279 189.188  1.00  0.00    -0.003 C 
ATOM      7  C   UNL     1     183.961 190.290 190.298  1.00  0.00     0.004 C 
ENDBRANCH   5   6
ENDBRANCH   4   5
ENDBRANCH   3   4
ENDBRANCH   2   3
ENDBRANCH   1   2
BRANCH   1   8
ATOM      8  C   UNL     1     186.748 195.041 190.308  1.00  0.00     0.000 C 
BRANCH   8   9
ATOM      9  C   UNL     1     187.354 196.095 189.376  1.00  0.00     0.000 C 
BRANCH   9  10
ATOM     10  C   UNL     1     187.408 197.468 190.056  1.00  0.00     0.002 C 
BRANCH  10  11
ATOM     11  C   UNL     1     186.599 197.469 191.359  1.00  0.00     0.028 C 
BRANCH  11  12
ATOM     12  C   UNL     1     186.749 198.791 192.120  1.00  0.00     0.156 C 
BRANCH  12  13
ATOM     13  O   UNL     1     186.139 199.844 191.421  1.00  0.00    -0.396 OA
ATOM     14  H   UNL     1     185.226 199.535 191.182  1.00  0.00     0.210 HD
ENDBRANCH  12  13
ENDBRANCH  11  12
ENDBRANCH  10  11
ENDBRANCH   9  10
ENDBRANCH   8   9
ENDBRANCH   1   8
TORSDOF 11
ENDMDL
MODEL 6
REMARK VINA RESULT:    -3.667      5.432      7.879
REMARK INTER + INTRA:          -7.129
REMARK INTER:                  -6.691
REMARK INTRA:                  -0.438
REMARK UNBOUND:                -1.211
REMARK SMILES CCCCCCCCCCCCO
REMARK SMILES IDX 7 1 6 2 5 3 4 4 3 5 2 6 1 7 8 8 9 9 10 10 11 11 12 12 13 13
REMARK H PARENT 13 14
REMARK Flexibility Score: inf
ROOT
ATOM      1  C   UNL     1     187.320 193.735 189.968  1.00  0.00     0.000 C 
ENDROOT
BRANCH   1   2
ATOM      2  C   UNL     1     186.700 192.368 189.627  1.00  0.00    -0.000 C 
BRANCH   2   3
ATOM      3  C   UNL     1     185.411 192.430 188.783  1.00  0.00    -0.000 C 
BRANCH   3   4
ATOM      4  C   UNL     1     185.549 191.915 187.336  1.00  0.00    -0.000 C 
BRANCH   4   5
ATOM      5  C   UNL     1     186.857 191.162 187.038  1.00  0.00    -0.000 C 
BRANCH   5   6
ATOM      6  C   UNL     1     187.131 191.016 185.534  1.00  0.00    -0.003 C 
ATOM      7  C   UNL     1     186.575 189.700 185.000  1.00  0.00     0.004 C 
ENDBRANCH   5   6
ENDBRANCH   4   5
ENDBRANCH   3   4
ENDBRANCH   2   3
ENDBRANCH   1   2
BRANCH   1   8
ATOM      8  C   UNL     1     186.378 194.909 189.665  1.00  0.00     0.000 C 
BRANCH   8   9
ATOM      9  C   UNL     1     187.164 196.214 189.496  1.00  0.00     0.000 C 
BRANCH   9  10
ATOM     10  C   UNL     1     186.843 197.202 190.623  1.00  0.00     0.002 C 
BRANCH  10  11
ATOM     11  C   UNL     1     187.841 198.366 190.637  1.00  0.00     0.028 C 
BRANCH  11  12
ATOM     12  C   UNL     1     187.444 199.444 191.651  1.00  0.00     0.156 C 
BRANCH  12  13
ATOM     13  O   UNL     1     186.101 199.814 191.489  1.00  0.00    -0.396 OA
ATOM     14  H   UNL     1     185.812 199.460 190.608  1.00  0.00     0.210 HD
ENDBRANCH  12  13
ENDBRANCH  11  12
ENDBRANCH  10  11
ENDBRANCH   9  10
ENDBRANCH   8   9
ENDBRANCH   1   8
TORSDOF 11
ENDMDL
MODEL 7
REMARK VINA RESULT:    -3.602      0.941      2.653
REMARK INTER + INTRA:          -7.023
REMARK INTER:                  -5.895
REMARK INTRA:                  -1.128
REMARK UNBOUND:                -1.211
REMARK SMILES CCCCCCCCCCCCO
REMARK SMILES IDX 7 1 6 2 5 3 4 4 3 5 2 6 1 7 8 8 9 9 10 10 11 11 12 12 13 13
REMARK H PARENT 13 14
REMARK Flexibility Score: inf
ROOT
ATOM      1  C   UNL     1     185.732 189.273 188.563  1.00  0.00     0.000 C 
ENDROOT
BRANCH   1   2
ATOM      2  C   UNL     1     184.444 189.645 187.809  1.00  0.00    -0.000 C 
BRANCH   2   3
ATOM      3  C   UNL     1     184.320 191.134 187.427  1.00  0.00    -0.000 C 
BRANCH   3   4
ATOM      4  C   UNL     1     185.641 191.928 187.446  1.00  0.00    -0.000 C 
BRANCH   4   5
ATOM      5  C   UNL     1     185.731 193.011 188.535  1.00  0.00    -0.000 C 
BRANCH   5   6
ATOM      6  C   UNL     1     186.834 192.730 189.566  1.00  0.00    -0.003 C 
ATOM      7  C   UNL     1     186.245 192.542 190.961  1.00  0.00     0.004 C 
ENDBRANCH   5   6
ENDBRANCH   4   5
ENDBRANCH   3   4
ENDBRANCH   2   3
ENDBRANCH   1   2
BRANCH   1   8
ATOM      8  C   UNL     1     185.459 188.689 189.958  1.00  0.00     0.000 C 
BRANCH   8   9
ATOM      9  C   UNL     1     184.297 189.419 190.641  1.00  0.00     0.000 C 
BRANCH   9  10
ATOM     10  C   UNL     1     183.174 188.444 191.011  1.00  0.00     0.002 C 
BRANCH  10  11
ATOM     11  C   UNL     1     183.574 186.997 190.699  1.00  0.00     0.028 C 
BRANCH  11  12
ATOM     12  C   UNL     1     182.602 186.337 189.714  1.00  0.00     0.156 C 
BRANCH  12  13
ATOM     13  O   UNL     1     181.654 185.558 190.393  1.00  0.00    -0.396 OA
ATOM     14  H   UNL     1     180.849 186.127 190.511  1.00  0.00     0.210 HD
ENDBRANCH  12  13
ENDBRANCH  11  12
ENDBRANCH  10  11
ENDBRANCH   9  10
ENDBRANCH   8   9
ENDBRANCH   1   8
TORSDOF 11
ENDMDL
MODEL 8
REMARK VINA RESULT:    -3.580      1.360      2.337
REMARK INTER + INTRA:          -6.988
REMARK INTER:                  -5.700
REMARK INTRA:                  -1.288
REMARK UNBOUND:                -1.211
REMARK SMILES CCCCCCCCCCCCO
REMARK SMILES IDX 7 1 6 2 5 3 4 4 3 5 2 6 1 7 8 8 9 9 10 10 11 11 12 12 13 13
REMARK H PARENT 13 14
REMARK Flexibility Score: inf
ROOT
ATOM      1  C   UNL     1     186.455 189.531 191.125  1.00  0.00     0.000 C 
ENDROOT
BRANCH   1   2
ATOM      2  C   UNL     1     187.215 189.862 189.828  1.00  0.00    -0.000 C 
BRANCH   2   3
ATOM      3  C   UNL     1     186.819 189.011 188.605  1.00  0.00    -0.000 C 
BRANCH   3   4
ATOM      4  C   UNL     1     186.104 189.779 187.475  1.00  0.00    -0.000 C 
BRANCH   4   5
ATOM      5  C   UNL     1     186.517 191.254 187.332  1.00  0.00    -0.000 C 
BRANCH   5   6
ATOM      6  C   UNL     1     185.372 192.228 187.650  1.00  0.00    -0.003 C 
ATOM      7  C   UNL     1     185.759 193.182 188.776  1.00  0.00     0.004 C 
ENDBRANCH   5   6
ENDBRANCH   4   5
ENDBRANCH   3   4
ENDBRANCH   2   3
ENDBRANCH   1   2
BRANCH   1   8
ATOM      8  C   UNL     1     185.286 190.490 191.392  1.00  0.00     0.000 C 
BRANCH   8   9
ATOM      9  C   UNL     1     184.054 190.096 190.569  1.00  0.00     0.000 C 
BRANCH   9  10
ATOM     10  C   UNL     1     183.401 188.826 191.127  1.00  0.00     0.002 C 
BRANCH  10  11
ATOM     11  C   UNL     1     183.315 187.734 190.053  1.00  0.00     0.028 C 
BRANCH  11  12
ATOM     12  C   UNL     1     182.197 186.729 190.351  1.00  0.00     0.156 C 
BRANCH  12  13
ATOM     13  O   UNL     1     181.496 187.090 191.512  1.00  0.00    -0.396 OA
ATOM     14  H   UNL     1     181.661 186.372 192.178  1.00  0.00     0.210 HD
ENDBRANCH  12  13
ENDBRANCH  11  12
ENDBRANCH  10  11
ENDBRANCH   9  10
ENDBRANCH   8   9
ENDBRANCH   1   8
TORSDOF 11
ENDMDL
MODEL 9
REMARK VINA RESULT:    -3.562      2.710      4.894
REMARK INTER + INTRA:          -6.959
REMARK INTER:                  -5.656
REMARK INTRA:                  -1.302
REMARK UNBOUND:                -1.211
REMARK SMILES CCCCCCCCCCCCO
REMARK SMILES IDX 7 1 6 2 5 3 4 4 3 5 2 6 1 7 8 8 9 9 10 10 11 11 12 12 13 13
REMARK H PARENT 13 14
REMARK Flexibility Score: inf
ROOT
ATOM      1  C   UNL     1     184.872 190.294 189.180  1.00  0.00     0.000 C 
ENDROOT
BRANCH   1   2
ATOM      2  C   UNL     1     184.280 190.055 190.580  1.00  0.00    -0.000 C 
BRANCH   2   3
ATOM      3  C   UNL     1     185.246 190.327 191.751  1.00  0.00    -0.000 C 
BRANCH   3   4
ATOM      4  C   UNL     1     186.512 191.126 191.384  1.00  0.00    -0.000 C 
BRANCH   4   5
ATOM      5  C   UNL     1     186.387 192.651 191.549  1.00  0.00    -0.000 C 
BRANCH   5   6
ATOM      6  C   UNL     1     186.987 193.429 190.369  1.00  0.00    -0.003 C 
ATOM      7  C   UNL     1     186.084 194.590 189.961  1.00  0.00     0.004 C 
ENDBRANCH   5   6
ENDBRANCH   4   5
ENDBRANCH   3   4
ENDBRANCH   2   3
ENDBRANCH   1   2
BRANCH   1   8
ATOM      8  C   UNL     1     184.281 191.531 188.486  1.00  0.00     0.000 C 
BRANCH   8   9
ATOM      9  C   UNL     1     185.231 192.061 187.406  1.00  0.00     0.000 C 
BRANCH   9  10
ATOM     10  C   UNL     1     186.523 191.237 187.355  1.00  0.00     0.002 C 
BRANCH  10  11
ATOM     11  C   UNL     1     186.993 191.037 185.909  1.00  0.00     0.028 C 
BRANCH  11  12
ATOM     12  C   UNL     1     186.807 189.589 185.445  1.00  0.00     0.156 C 
BRANCH  12  13
ATOM     13  O   UNL     1     185.445 189.264 185.350  1.00  0.00    -0.396 OA
ATOM     14  H   UNL     1     185.387 188.438 184.803  1.00  0.00     0.210 HD
ENDBRANCH  12  13
ENDBRANCH  11  12
ENDBRANCH  10  11
ENDBRANCH   9  10
ENDBRANCH   8   9
ENDBRANCH   1   8
TORSDOF 11
ENDMDL
