MODEL 1
REMARK VINA RESULT:    -5.782      0.000      0.000
REMARK INTER + INTRA:          -9.429
REMARK INTER:                  -8.148
REMARK INTRA:                  -1.281
REMARK UNBOUND:                -1.281
REMARK SMILES C[C@@H](CO)CCC(=O)[C@@H](C)[C@H]1C(=O)C[C@@H]2[C@@H]3CC=C4C[C@H](O)CC[C@@]4(C)[C@H]3CC[C@@]21C
REMARK SMILES IDX 6 1 5 2 2 3 1 4 3 5 4 6 7 8 8 9 9 10 10 11 11 12 12 13 30 14
REMARK SMILES IDX 13 15 14 16 15 17 29 18 31 19 16 20 28 21 27 22 17 23 25 24
REMARK SMILES IDX 18 25 19 26 24 27 26 28 20 29 23 30 21 31 22 32
REMARK H PARENT 4 7 22 33
REMARK Flexibility Score: inf
ROOT
ATOM      1  C   UNL     1     129.036 143.179 109.711  1.00  0.00     0.076 C 
ENDROOT
BRANCH   1   2
ATOM      2  C   UNL     1     128.907 144.404 110.632  1.00  0.00     0.013 C 
BRANCH   2   3
ATOM      3  C   UNL     1     130.275 144.916 111.168  1.00  0.00     0.012 C 
ATOM      4  C   UNL     1     131.404 143.932 110.819  1.00  0.00     0.010 C 
BRANCH   3   5
ATOM      5  C   UNL     1     130.601 146.314 110.614  1.00  0.00     0.159 C 
BRANCH   5   6
ATOM      6  O   UNL     1     129.575 146.740 109.759  1.00  0.00    -0.396 OA
ATOM      7  H   UNL     1     129.566 147.732 109.807  1.00  0.00     0.210 HD
ENDBRANCH   5   6
ENDBRANCH   3   5
ENDBRANCH   2   3
ENDBRANCH   1   2
BRANCH   1   8
ATOM      8  C   UNL     1     128.107 143.241 108.518  1.00  0.00     0.136 C 
ATOM      9  O   UNL     1     127.148 143.997 108.552  1.00  0.00    -0.299 OA
BRANCH   8  10
ATOM     10  C   UNL     1     128.279 142.321 107.316  1.00  0.00     0.064 C 
ATOM     11  C   UNL     1     126.875 141.913 106.822  1.00  0.00     0.017 C 
BRANCH  10  12
ATOM     12  C   UNL     1     129.163 142.966 106.184  1.00  0.00     0.072 C 
ATOM     13  C   UNL     1     128.948 144.453 106.125  1.00  0.00     0.137 C 
ATOM     14  C   UNL     1     130.726 142.906 106.369  1.00  0.00    -0.019 C 
ATOM     15  O   UNL     1     127.978 144.971 105.592  1.00  0.00    -0.299 OA
ATOM     16  C   UNL     1     130.071 145.254 106.669  1.00  0.00     0.080 C 
ATOM     17  C   UNL     1     131.056 144.191 107.179  1.00  0.00     0.007 C 
ATOM     18  C   UNL     1     131.386 142.989 104.955  1.00  0.00     0.008 C 
ATOM     19  C   UNL     1     131.244 141.642 107.100  1.00  0.00     0.012 C 
ATOM     20  C   UNL     1     132.560 144.608 107.157  1.00  0.00     0.001 C 
ATOM     21  C   UNL     1     132.882 143.309 104.995  1.00  0.00     0.005 C 
ATOM     22  C   UNL     1     133.177 144.636 105.740  1.00  0.00     0.003 C 
ATOM     23  C   UNL     1     132.752 145.980 107.822  1.00  0.00     0.031 C 
ATOM     24  C   UNL     1     134.719 145.028 105.757  1.00  0.00    -0.008 C 
ATOM     25  C   UNL     1     134.193 146.372 107.848  1.00  0.00    -0.027 C 
ATOM     26  C   UNL     1     135.072 146.012 106.890  1.00  0.00    -0.065 C 
ATOM     27  C   UNL     1     135.632 143.772 105.954  1.00  0.00     0.014 C 
ATOM     28  C   UNL     1     135.048 145.699 104.397  1.00  0.00     0.016 C 
ATOM     29  C   UNL     1     136.531 146.374 107.084  1.00  0.00     0.063 C 
ATOM     30  C   UNL     1     137.125 144.098 106.170  1.00  0.00     0.033 C 
ATOM     31  C   UNL     1     137.339 145.094 107.321  1.00  0.00     0.118 C 
BRANCH  31  32
ATOM     32  O   UNL     1     138.700 145.420 107.423  1.00  0.00    -0.393 OA
ATOM     33  H   UNL     1     138.968 145.237 108.362  1.00  0.00     0.210 HD
ENDBRANCH  31  32
ENDBRANCH  10  12
ENDBRANCH   8  10
ENDBRANCH   1   8
TORSDOF 8
ENDMDL
MODEL 2
REMARK VINA RESULT:    -5.635      3.534      7.142
REMARK INTER + INTRA:          -9.221
REMARK INTER:                  -9.192
REMARK INTRA:                  -0.029
REMARK UNBOUND:                -1.281
REMARK SMILES C[C@@H](CO)CCC(=O)[C@@H](C)[C@H]1C(=O)C[C@@H]2[C@@H]3CC=C4C[C@H](O)CC[C@@]4(C)[C@H]3CC[C@@]21C
REMARK SMILES IDX 6 1 5 2 2 3 1 4 3 5 4 6 7 8 8 9 9 10 10 11 11 12 12 13 30 14
REMARK SMILES IDX 13 15 14 16 15 17 29 18 31 19 16 20 28 21 27 22 17 23 25 24
REMARK SMILES IDX 18 25 19 26 24 27 26 28 20 29 23 30 21 31 22 32
REMARK H PARENT 4 7 22 33
REMARK Flexibility Score: inf
ROOT
ATOM      1  C   UNL     1     131.087 146.249 105.849  1.00  0.00     0.076 C 
ENDROOT
BRANCH   1   2
ATOM      2  C   UNL     1     132.476 146.873 106.065  1.00  0.00     0.013 C 
BRANCH   2   3
ATOM      3  C   UNL     1     133.630 145.829 106.042  1.00  0.00     0.012 C 
ATOM      4  C   UNL     1     134.487 145.986 104.776  1.00  0.00     0.010 C 
BRANCH   3   5
ATOM      5  C   UNL     1     134.511 145.948 107.298  1.00  0.00     0.159 C 
BRANCH   5   6
ATOM      6  O   UNL     1     134.041 146.987 108.114  1.00  0.00    -0.396 OA
ATOM      7  H   UNL     1     133.274 146.614 108.624  1.00  0.00     0.210 HD
ENDBRANCH   5   6
ENDBRANCH   3   5
ENDBRANCH   2   3
ENDBRANCH   1   2
BRANCH   1   8
ATOM      8  C   UNL     1     130.384 145.918 107.148  1.00  0.00     0.136 C 
ATOM      9  O   UNL     1     130.890 146.271 108.202  1.00  0.00    -0.299 OA
BRANCH   8  10
ATOM     10  C   UNL     1     129.114 145.078 107.183  1.00  0.00     0.064 C 
ATOM     11  C   UNL     1     128.674 144.816 105.727  1.00  0.00     0.017 C 
BRANCH  10  12
ATOM     12  C   UNL     1     129.291 143.753 108.015  1.00  0.00     0.072 C 
ATOM     13  C   UNL     1     127.957 143.220 108.458  1.00  0.00     0.137 C 
ATOM     14  C   UNL     1     129.867 142.497 107.257  1.00  0.00    -0.019 C 
ATOM     15  O   UNL     1     127.334 143.673 109.407  1.00  0.00    -0.299 OA
ATOM     16  C   UNL     1     127.502 142.020 107.717  1.00  0.00     0.080 C 
ATOM     17  C   UNL     1     128.605 141.806 106.669  1.00  0.00     0.007 C 
ATOM     18  C   UNL     1     130.540 141.560 108.310  1.00  0.00     0.008 C 
ATOM     19  C   UNL     1     130.888 142.828 106.140  1.00  0.00     0.012 C 
ATOM     20  C   UNL     1     128.821 140.326 106.219  1.00  0.00     0.001 C 
ATOM     21  C   UNL     1     130.816 140.149 107.786  1.00  0.00     0.005 C 
ATOM     22  C   UNL     1     129.528 139.451 107.280  1.00  0.00     0.003 C 
ATOM     23  C   UNL     1     127.484 139.677 105.832  1.00  0.00     0.031 C 
ATOM     24  C   UNL     1     129.767 137.961 106.775  1.00  0.00    -0.008 C 
ATOM     25  C   UNL     1     127.681 138.274 105.356  1.00  0.00    -0.027 C 
ATOM     26  C   UNL     1     128.658 137.468 105.823  1.00  0.00    -0.065 C 
ATOM     27  C   UNL     1     131.118 137.825 105.997  1.00  0.00     0.014 C 
ATOM     28  C   UNL     1     129.793 137.041 108.024  1.00  0.00     0.016 C 
ATOM     29  C   UNL     1     128.830 136.105 105.183  1.00  0.00     0.063 C 
ATOM     30  C   UNL     1     131.325 136.454 105.318  1.00  0.00     0.033 C 
ATOM     31  C   UNL     1     130.147 136.078 104.403  1.00  0.00     0.118 C 
BRANCH  31  32
ATOM     32  O   UNL     1     130.345 134.793 103.876  1.00  0.00    -0.393 OA
ATOM     33  H   UNL     1     131.205 134.462 104.247  1.00  0.00     0.210 HD
ENDBRANCH  31  32
ENDBRANCH  10  12
ENDBRANCH   8  10
ENDBRANCH   1   8
TORSDOF 8
ENDMDL
MODEL 3
REMARK VINA RESULT:    -5.610      2.602      6.432
REMARK INTER + INTRA:          -9.187
REMARK INTER:                  -8.120
REMARK INTRA:                  -1.067
REMARK UNBOUND:                -1.281
REMARK SMILES C[C@@H](CO)CCC(=O)[C@@H](C)[C@H]1C(=O)C[C@@H]2[C@@H]3CC=C4C[C@H](O)CC[C@@]4(C)[C@H]3CC[C@@]21C
REMARK SMILES IDX 6 1 5 2 2 3 1 4 3 5 4 6 7 8 8 9 9 10 10 11 11 12 12 13 30 14
REMARK SMILES IDX 13 15 14 16 15 17 29 18 31 19 16 20 28 21 27 22 17 23 25 24
REMARK SMILES IDX 18 25 19 26 24 27 26 28 20 29 23 30 21 31 22 32
REMARK H PARENT 4 7 22 33
REMARK Flexibility Score: inf
ROOT
ATOM      1  C   UNL     1     130.935 145.674 106.336  1.00  0.00     0.076 C 
ENDROOT
BRANCH   1   2
ATOM      2  C   UNL     1     132.361 145.234 106.711  1.00  0.00     0.013 C 
BRANCH   2   3
ATOM      3  C   UNL     1     133.244 146.400 107.241  1.00  0.00     0.012 C 
ATOM      4  C   UNL     1     132.869 146.757 108.689  1.00  0.00     0.010 C 
BRANCH   3   5
ATOM      5  C   UNL     1     134.740 146.050 107.152  1.00  0.00     0.159 C 
BRANCH   5   6
ATOM      6  O   UNL     1     135.479 146.903 107.984  1.00  0.00    -0.396 OA
ATOM      7  H   UNL     1     134.853 147.615 108.279  1.00  0.00     0.210 HD
ENDBRANCH   5   6
ENDBRANCH   3   5
ENDBRANCH   2   3
ENDBRANCH   1   2
BRANCH   1   8
ATOM      8  C   UNL     1     129.996 144.506 106.127  1.00  0.00     0.136 C 
ATOM      9  O   UNL     1     130.397 143.525 105.521  1.00  0.00    -0.299 OA
BRANCH   8  10
ATOM     10  C   UNL     1     128.539 144.557 106.568  1.00  0.00     0.064 C 
ATOM     11  C   UNL     1     127.677 143.948 105.443  1.00  0.00     0.017 C 
BRANCH  10  12
ATOM     12  C   UNL     1     128.306 143.861 107.962  1.00  0.00     0.072 C 
ATOM     13  C   UNL     1     129.167 142.635 108.094  1.00  0.00     0.137 C 
ATOM     14  C   UNL     1     128.741 144.661 109.248  1.00  0.00    -0.019 C 
ATOM     15  O   UNL     1     128.896 141.565 107.571  1.00  0.00    -0.299 OA
ATOM     16  C   UNL     1     130.323 142.797 109.008  1.00  0.00     0.080 C 
ATOM     17  C   UNL     1     130.231 144.267 109.446  1.00  0.00     0.007 C 
ATOM     18  C   UNL     1     127.893 144.141 110.452  1.00  0.00     0.008 C 
ATOM     19  C   UNL     1     128.585 146.198 109.138  1.00  0.00     0.012 C 
ATOM     20  C   UNL     1     130.807 144.580 110.864  1.00  0.00     0.001 C 
ATOM     21  C   UNL     1     128.449 144.556 111.817  1.00  0.00     0.005 C 
ATOM     22  C   UNL     1     129.911 144.081 112.021  1.00  0.00     0.003 C 
ATOM     23  C   UNL     1     132.215 143.987 111.019  1.00  0.00     0.031 C 
ATOM     24  C   UNL     1     130.506 144.449 113.450  1.00  0.00    -0.008 C 
ATOM     25  C   UNL     1     132.796 144.317 112.356  1.00  0.00    -0.027 C 
ATOM     26  C   UNL     1     132.048 144.457 113.470  1.00  0.00    -0.065 C 
ATOM     27  C   UNL     1     130.045 145.869 113.919  1.00  0.00     0.014 C 
ATOM     28  C   UNL     1     130.002 143.382 114.458  1.00  0.00     0.016 C 
ATOM     29  C   UNL     1     132.736 144.904 114.744  1.00  0.00     0.063 C 
ATOM     30  C   UNL     1     130.735 146.368 115.207  1.00  0.00     0.033 C 
ATOM     31  C   UNL     1     132.268 146.318 115.099  1.00  0.00     0.118 C 
BRANCH  31  32
ATOM     32  O   UNL     1     132.844 146.702 116.320  1.00  0.00    -0.393 OA
ATOM     33  H   UNL     1     133.582 147.331 116.102  1.00  0.00     0.210 HD
ENDBRANCH  31  32
ENDBRANCH  10  12
ENDBRANCH   8  10
ENDBRANCH   1   8
TORSDOF 8
ENDMDL
MODEL 4
REMARK VINA RESULT:    -5.507      3.820      7.677
REMARK INTER + INTRA:          -9.041
REMARK INTER:                  -7.833
REMARK INTRA:                  -1.208
REMARK UNBOUND:                -1.281
REMARK SMILES C[C@@H](CO)CCC(=O)[C@@H](C)[C@H]1C(=O)C[C@@H]2[C@@H]3CC=C4C[C@H](O)CC[C@@]4(C)[C@H]3CC[C@@]21C
REMARK SMILES IDX 6 1 5 2 2 3 1 4 3 5 4 6 7 8 8 9 9 10 10 11 11 12 12 13 30 14
REMARK SMILES IDX 13 15 14 16 15 17 29 18 31 19 16 20 28 21 27 22 17 23 25 24
REMARK SMILES IDX 18 25 19 26 24 27 26 28 20 29 23 30 21 31 22 32
REMARK H PARENT 4 7 22 33
REMARK Flexibility Score: inf
ROOT
ATOM      1  C   UNL     1     130.094 144.749 106.826  1.00  0.00     0.076 C 
ENDROOT
BRANCH   1   2
ATOM      2  C   UNL     1     129.368 145.674 105.835  1.00  0.00     0.013 C 
BRANCH   2   3
ATOM      3  C   UNL     1     128.124 145.012 105.175  1.00  0.00     0.012 C 
ATOM      4  C   UNL     1     128.383 143.525 104.885  1.00  0.00     0.010 C 
BRANCH   3   5
ATOM      5  C   UNL     1     126.875 145.169 106.061  1.00  0.00     0.159 C 
BRANCH   5   6
ATOM      6  O   UNL     1     126.924 146.395 106.740  1.00  0.00    -0.396 OA
ATOM      7  H   UNL     1     127.672 146.324 107.389  1.00  0.00     0.210 HD
ENDBRANCH   5   6
ENDBRANCH   3   5
ENDBRANCH   2   3
ENDBRANCH   1   2
BRANCH   1   8
ATOM      8  C   UNL     1     129.828 145.112 108.271  1.00  0.00     0.136 C 
ATOM      9  O   UNL     1     129.170 146.110 108.519  1.00  0.00    -0.299 OA
BRANCH   8  10
ATOM     10  C   UNL     1     130.438 144.323 109.423  1.00  0.00     0.064 C 
ATOM     11  C   UNL     1     130.753 145.312 110.565  1.00  0.00     0.017 C 
BRANCH  10  12
ATOM     12  C   UNL     1     129.523 143.127 109.884  1.00  0.00     0.072 C 
ATOM     13  C   UNL     1     128.124 143.294 109.359  1.00  0.00     0.137 C 
ATOM     14  C   UNL     1     129.874 141.696 109.327  1.00  0.00    -0.019 C 
ATOM     15  O   UNL     1     127.304 144.047 109.859  1.00  0.00    -0.299 OA
ATOM     16  C   UNL     1     127.779 142.381 108.243  1.00  0.00     0.080 C 
ATOM     17  C   UNL     1     129.086 141.612 107.990  1.00  0.00     0.007 C 
ATOM     18  C   UNL     1     129.323 140.635 110.332  1.00  0.00     0.008 C 
ATOM     19  C   UNL     1     131.385 141.444 109.095  1.00  0.00     0.012 C 
ATOM     20  C   UNL     1     128.913 140.168 107.422  1.00  0.00     0.001 C 
ATOM     21  C   UNL     1     129.263 139.218 109.755  1.00  0.00     0.005 C 
ATOM     22  C   UNL     1     128.404 139.147 108.466  1.00  0.00     0.003 C 
ATOM     23  C   UNL     1     127.968 140.171 106.211  1.00  0.00     0.031 C 
ATOM     24  C   UNL     1     128.276 137.679 107.866  1.00  0.00    -0.008 C 
ATOM     25  C   UNL     1     127.828 138.802 105.630  1.00  0.00    -0.027 C 
ATOM     26  C   UNL     1     127.893 137.677 106.372  1.00  0.00    -0.065 C 
ATOM     27  C   UNL     1     129.621 136.887 107.985  1.00  0.00     0.014 C 
ATOM     28  C   UNL     1     127.168 136.941 108.663  1.00  0.00     0.016 C 
ATOM     29  C   UNL     1     127.851 136.342 105.655  1.00  0.00     0.063 C 
ATOM     30  C   UNL     1     129.624 135.527 107.255  1.00  0.00     0.033 C 
ATOM     31  C   UNL     1     129.218 135.663 105.778  1.00  0.00     0.118 C 
BRANCH  31  32
ATOM     32  O   UNL     1     129.158 134.393 105.183  1.00  0.00    -0.393 OA
ATOM     33  H   UNL     1     128.418 134.424 104.519  1.00  0.00     0.210 HD
ENDBRANCH  31  32
ENDBRANCH  10  12
ENDBRANCH   8  10
ENDBRANCH   1   8
TORSDOF 8
ENDMDL
MODEL 5
REMARK VINA RESULT:    -5.499      8.973     11.605
REMARK INTER + INTRA:          -9.030
REMARK INTER:                  -7.826
REMARK INTRA:                  -1.203
REMARK UNBOUND:                -1.281
REMARK SMILES C[C@@H](CO)CCC(=O)[C@@H](C)[C@H]1C(=O)C[C@@H]2[C@@H]3CC=C4C[C@H](O)CC[C@@]4(C)[C@H]3CC[C@@]21C
REMARK SMILES IDX 6 1 5 2 2 3 1 4 3 5 4 6 7 8 8 9 9 10 10 11 11 12 12 13 30 14
REMARK SMILES IDX 13 15 14 16 15 17 29 18 31 19 16 20 28 21 27 22 17 23 25 24
REMARK SMILES IDX 18 25 19 26 24 27 26 28 20 29 23 30 21 31 22 32
REMARK H PARENT 4 7 22 33
REMARK Flexibility Score: inf
ROOT
ATOM      1  C   UNL     1     129.374 131.048 109.580  1.00  0.00     0.076 C 
ENDROOT
BRANCH   1   2
ATOM      2  C   UNL     1     128.205 131.608 110.408  1.00  0.00     0.013 C 
BRANCH   2   3
ATOM      3  C   UNL     1     128.431 133.074 110.876  1.00  0.00     0.012 C 
ATOM      4  C   UNL     1     127.105 133.725 111.300  1.00  0.00     0.010 C 
BRANCH   3   5
ATOM      5  C   UNL     1     129.446 133.139 112.031  1.00  0.00     0.159 C 
BRANCH   5   6
ATOM      6  O   UNL     1     129.106 132.202 113.018  1.00  0.00    -0.396 OA
ATOM      7  H   UNL     1     128.125 132.066 112.946  1.00  0.00     0.210 HD
ENDBRANCH   5   6
ENDBRANCH   3   5
ENDBRANCH   2   3
ENDBRANCH   1   2
BRANCH   1   8
ATOM      8  C   UNL     1     128.914 130.225 108.396  1.00  0.00     0.136 C 
ATOM      9  O   UNL     1     127.929 129.513 108.516  1.00  0.00    -0.299 OA
BRANCH   8  10
ATOM     10  C   UNL     1     129.697 130.189 107.090  1.00  0.00     0.064 C 
ATOM     11  C   UNL     1     129.673 128.741 106.558  1.00  0.00     0.017 C 
BRANCH  10  12
ATOM     12  C   UNL     1     129.165 131.235 106.039  1.00  0.00     0.072 C 
ATOM     13  C   UNL     1     127.671 131.379 106.141  1.00  0.00     0.137 C 
ATOM     14  C   UNL     1     129.615 132.734 106.223  1.00  0.00    -0.019 C 
ATOM     15  O   UNL     1     126.885 130.576 105.664  1.00  0.00    -0.299 OA
ATOM     16  C   UNL     1     127.223 132.642 106.775  1.00  0.00     0.080 C 
ATOM     17  C   UNL     1     128.537 133.332 107.170  1.00  0.00     0.007 C 
ATOM     18  C   UNL     1     129.542 133.437 104.830  1.00  0.00     0.008 C 
ATOM     19  C   UNL     1     131.034 132.915 106.815  1.00  0.00     0.012 C 
ATOM     20  C   UNL     1     128.490 134.893 107.202  1.00  0.00     0.001 C 
ATOM     21  C   UNL     1     129.594 134.965 104.912  1.00  0.00     0.005 C 
ATOM     22  C   UNL     1     128.461 135.542 105.798  1.00  0.00     0.003 C 
ATOM     23  C   UNL     1     127.281 135.382 108.013  1.00  0.00     0.031 C 
ATOM     24  C   UNL     1     128.452 137.131 105.866  1.00  0.00    -0.008 C 
ATOM     25  C   UNL     1     127.247 136.874 108.089  1.00  0.00    -0.027 C 
ATOM     26  C   UNL     1     127.704 137.672 107.102  1.00  0.00    -0.065 C 
ATOM     27  C   UNL     1     129.902 137.715 105.929  1.00  0.00     0.014 C 
ATOM     28  C   UNL     1     127.739 137.651 104.589  1.00  0.00     0.016 C 
ATOM     29  C   UNL     1     127.723 139.168 107.341  1.00  0.00     0.063 C 
ATOM     30  C   UNL     1     129.965 139.236 106.186  1.00  0.00     0.033 C 
ATOM     31  C   UNL     1     129.175 139.644 107.441  1.00  0.00     0.118 C 
BRANCH  31  32
ATOM     32  O   UNL     1     129.195 141.039 107.583  1.00  0.00    -0.393 OA
ATOM     33  H   UNL     1     128.409 141.280 108.142  1.00  0.00     0.210 HD
ENDBRANCH  31  32
ENDBRANCH  10  12
ENDBRANCH   8  10
ENDBRANCH   1   8
TORSDOF 8
ENDMDL
MODEL 6
REMARK VINA RESULT:    -5.370      1.919      3.657
REMARK INTER + INTRA:          -8.849
REMARK INTER:                  -7.997
REMARK INTRA:                  -0.852
REMARK UNBOUND:                -1.281
REMARK SMILES C[C@@H](CO)CCC(=O)[C@@H](C)[C@H]1C(=O)C[C@@H]2[C@@H]3CC=C4C[C@H](O)CC[C@@]4(C)[C@H]3CC[C@@]21C
REMARK SMILES IDX 6 1 5 2 2 3 1 4 3 5 4 6 7 8 8 9 9 10 10 11 11 12 12 13 30 14
REMARK SMILES IDX 13 15 14 16 15 17 29 18 31 19 16 20 28 21 27 22 17 23 25 24
REMARK SMILES IDX 18 25 19 26 24 27 26 28 20 29 23 30 21 31 22 32
REMARK H PARENT 4 7 22 33
REMARK Flexibility Score: inf
ROOT
ATOM      1  C   UNL     1     128.890 142.357 108.855  1.00  0.00     0.076 C 
ENDROOT
BRANCH   1   2
ATOM      2  C   UNL     1     128.996 141.327 107.717  1.00  0.00     0.013 C 
BRANCH   2   3
ATOM      3  C   UNL     1     127.684 140.522 107.493  1.00  0.00     0.012 C 
ATOM      4  C   UNL     1     126.941 141.021 106.243  1.00  0.00     0.010 C 
BRANCH   3   5
ATOM      5  C   UNL     1     127.969 139.014 107.373  1.00  0.00     0.159 C 
BRANCH   5   6
ATOM      6  O   UNL     1     126.986 138.287 108.060  1.00  0.00    -0.396 OA
ATOM      7  H   UNL     1     127.213 137.328 107.938  1.00  0.00     0.210 HD
ENDBRANCH   5   6
ENDBRANCH   3   5
ENDBRANCH   2   3
ENDBRANCH   1   2
BRANCH   1   8
ATOM      8  C   UNL     1     128.146 143.609 108.446  1.00  0.00     0.136 C 
ATOM      9  O   UNL     1     127.274 144.046 109.179  1.00  0.00    -0.299 OA
BRANCH   8  10
ATOM     10  C   UNL     1     128.389 144.285 107.102  1.00  0.00     0.064 C 
ATOM     11  C   UNL     1     127.059 144.914 106.637  1.00  0.00     0.017 C 
BRANCH  10  12
ATOM     12  C   UNL     1     129.571 145.325 107.155  1.00  0.00     0.072 C 
ATOM     13  C   UNL     1     129.846 145.745 108.572  1.00  0.00     0.137 C 
ATOM     14  C   UNL     1     130.997 144.815 106.721  1.00  0.00    -0.019 C 
ATOM     15  O   UNL     1     129.167 146.563 109.174  1.00  0.00    -0.299 OA
ATOM     16  C   UNL     1     131.082 145.168 109.151  1.00  0.00     0.080 C 
ATOM     17  C   UNL     1     131.607 144.251 108.035  1.00  0.00     0.007 C 
ATOM     18  C   UNL     1     131.828 146.048 106.241  1.00  0.00     0.008 C 
ATOM     19  C   UNL     1     130.990 143.739 105.608  1.00  0.00     0.012 C 
ATOM     20  C   UNL     1     133.156 144.053 108.005  1.00  0.00     0.001 C 
ATOM     21  C   UNL     1     133.330 145.772 106.138  1.00  0.00     0.005 C 
ATOM     22  C   UNL     1     133.929 145.287 107.484  1.00  0.00     0.003 C 
ATOM     23  C   UNL     1     133.681 143.675 109.397  1.00  0.00     0.031 C 
ATOM     24  C   UNL     1     135.500 145.039 107.429  1.00  0.00    -0.008 C 
ATOM     25  C   UNL     1     135.157 143.439 109.374  1.00  0.00    -0.027 C 
ATOM     26  C   UNL     1     135.994 144.097 108.545  1.00  0.00    -0.065 C 
ATOM     27  C   UNL     1     135.935 144.394 106.072  1.00  0.00     0.014 C 
ATOM     28  C   UNL     1     136.198 146.415 107.597  1.00  0.00     0.016 C 
ATOM     29  C   UNL     1     137.454 143.691 108.532  1.00  0.00     0.063 C 
ATOM     30  C   UNL     1     137.414 143.953 106.023  1.00  0.00     0.033 C 
ATOM     31  C   UNL     1     137.779 143.024 107.193  1.00  0.00     0.118 C 
BRANCH  31  32
ATOM     32  O   UNL     1     139.148 142.719 107.149  1.00  0.00    -0.393 OA
ATOM     33  H   UNL     1     139.595 143.316 107.806  1.00  0.00     0.210 HD
ENDBRANCH  31  32
ENDBRANCH  10  12
ENDBRANCH   8  10
ENDBRANCH   1   8
TORSDOF 8
ENDMDL
MODEL 7
REMARK VINA RESULT:    -5.365      3.413      6.748
REMARK INTER + INTRA:          -8.841
REMARK INTER:                  -7.991
REMARK INTRA:                  -0.849
REMARK UNBOUND:                -1.281
REMARK SMILES C[C@@H](CO)CCC(=O)[C@@H](C)[C@H]1C(=O)C[C@@H]2[C@@H]3CC=C4C[C@H](O)CC[C@@]4(C)[C@H]3CC[C@@]21C
REMARK SMILES IDX 6 1 5 2 2 3 1 4 3 5 4 6 7 8 8 9 9 10 10 11 11 12 12 13 30 14
REMARK SMILES IDX 13 15 14 16 15 17 29 18 31 19 16 20 28 21 27 22 17 23 25 24
REMARK SMILES IDX 18 25 19 26 24 27 26 28 20 29 23 30 21 31 22 32
REMARK H PARENT 4 7 22 33
REMARK Flexibility Score: inf
ROOT
ATOM      1  C   UNL     1     131.327 144.357 108.911  1.00  0.00     0.076 C 
ENDROOT
BRANCH   1   2
ATOM      2  C   UNL     1     131.288 144.230 110.443  1.00  0.00     0.013 C 
BRANCH   2   3
ATOM      3  C   UNL     1     131.068 145.589 111.167  1.00  0.00     0.012 C 
ATOM      4  C   UNL     1     130.200 145.408 112.423  1.00  0.00     0.010 C 
BRANCH   3   5
ATOM      5  C   UNL     1     132.411 146.243 111.541  1.00  0.00     0.159 C 
BRANCH   5   6
ATOM      6  O   UNL     1     132.827 147.099 110.511  1.00  0.00    -0.396 OA
ATOM      7  H   UNL     1     133.414 147.778 110.934  1.00  0.00     0.210 HD
ENDBRANCH   5   6
ENDBRANCH   3   5
ENDBRANCH   2   3
ENDBRANCH   1   2
BRANCH   1   8
ATOM      8  C   UNL     1     130.222 145.236 108.367  1.00  0.00     0.136 C 
ATOM      9  O   UNL     1     130.519 146.243 107.743  1.00  0.00    -0.299 OA
BRANCH   8  10
ATOM     10  C   UNL     1     128.753 144.952 108.655  1.00  0.00     0.064 C 
ATOM     11  C   UNL     1     128.029 146.304 108.822  1.00  0.00     0.017 C 
BRANCH  10  12
ATOM     12  C   UNL     1     128.091 144.035 107.559  1.00  0.00     0.072 C 
ATOM     13  C   UNL     1     128.840 144.134 106.259  1.00  0.00     0.137 C 
ATOM     14  C   UNL     1     128.133 142.478 107.801  1.00  0.00    -0.019 C 
ATOM     15  O   UNL     1     128.714 145.067 105.481  1.00  0.00    -0.299 OA
ATOM     16  C   UNL     1     129.666 142.945 105.939  1.00  0.00     0.080 C 
ATOM     17  C   UNL     1     129.483 142.039 107.167  1.00  0.00     0.007 C 
ATOM     18  C   UNL     1     126.947 141.832 107.017  1.00  0.00     0.008 C 
ATOM     19  C   UNL     1     128.056 142.052 109.288  1.00  0.00     0.012 C 
ATOM     20  C   UNL     1     129.608 140.507 106.892  1.00  0.00     0.001 C 
ATOM     21  C   UNL     1     127.072 140.315 106.858  1.00  0.00     0.005 C 
ATOM     22  C   UNL     1     128.390 139.908 106.151  1.00  0.00     0.003 C 
ATOM     23  C   UNL     1     130.887 140.202 106.099  1.00  0.00     0.031 C 
ATOM     24  C   UNL     1     128.532 138.340 105.921  1.00  0.00    -0.008 C 
ATOM     25  C   UNL     1     131.042 138.733 105.868  1.00  0.00    -0.027 C 
ATOM     26  C   UNL     1     129.994 137.897 105.714  1.00  0.00    -0.065 C 
ATOM     27  C   UNL     1     127.986 137.526 107.141  1.00  0.00     0.014 C 
ATOM     28  C   UNL     1     127.720 137.977 104.649  1.00  0.00     0.016 C 
ATOM     29  C   UNL     1     130.274 136.412 105.598  1.00  0.00     0.063 C 
ATOM     30  C   UNL     1     128.263 136.009 107.068  1.00  0.00     0.033 C 
ATOM     31  C   UNL     1     129.755 135.704 106.853  1.00  0.00     0.118 C 
BRANCH  31  32
ATOM     32  O   UNL     1     129.942 134.320 106.712  1.00  0.00    -0.393 OA
ATOM     33  H   UNL     1     130.657 134.197 106.033  1.00  0.00     0.210 HD
ENDBRANCH  31  32
ENDBRANCH  10  12
ENDBRANCH   8  10
ENDBRANCH   1   8
TORSDOF 8
ENDMDL
MODEL 8
REMARK VINA RESULT:    -5.329      3.464      7.046
REMARK INTER + INTRA:          -8.790
REMARK INTER:                  -7.545
REMARK INTRA:                  -1.245
REMARK UNBOUND:                -1.281
REMARK SMILES C[C@@H](CO)CCC(=O)[C@@H](C)[C@H]1C(=O)C[C@@H]2[C@@H]3CC=C4C[C@H](O)CC[C@@]4(C)[C@H]3CC[C@@]21C
REMARK SMILES IDX 6 1 5 2 2 3 1 4 3 5 4 6 7 8 8 9 9 10 10 11 11 12 12 13 30 14
REMARK SMILES IDX 13 15 14 16 15 17 29 18 31 19 16 20 28 21 27 22 17 23 25 24
REMARK SMILES IDX 18 25 19 26 24 27 26 28 20 29 23 30 21 31 22 32
REMARK H PARENT 4 7 22 33
REMARK Flexibility Score: inf
ROOT
ATOM      1  C   UNL     1     131.375 144.391 108.666  1.00  0.00     0.076 C 
ENDROOT
BRANCH   1   2
ATOM      2  C   UNL     1     132.758 144.958 108.302  1.00  0.00     0.013 C 
BRANCH   2   3
ATOM      3  C   UNL     1     133.465 144.170 107.162  1.00  0.00     0.012 C 
ATOM      4  C   UNL     1     133.190 142.663 107.285  1.00  0.00     0.010 C 
BRANCH   3   5
ATOM      5  C   UNL     1     133.023 144.679 105.778  1.00  0.00     0.159 C 
BRANCH   5   6
ATOM      6  O   UNL     1     132.812 146.065 105.825  1.00  0.00    -0.396 OA
ATOM      7  H   UNL     1     132.126 146.218 106.526  1.00  0.00     0.210 HD
ENDBRANCH   5   6
ENDBRANCH   3   5
ENDBRANCH   2   3
ENDBRANCH   1   2
BRANCH   1   8
ATOM      8  C   UNL     1     130.238 145.279 108.210  1.00  0.00     0.136 C 
ATOM      9  O   UNL     1     130.496 146.315 107.617  1.00  0.00    -0.299 OA
BRANCH   8  10
ATOM     10  C   UNL     1     128.787 144.966 108.553  1.00  0.00     0.064 C 
ATOM     11  C   UNL     1     128.050 146.302 108.779  1.00  0.00     0.017 C 
BRANCH  10  12
ATOM     12  C   UNL     1     128.093 144.061 107.466  1.00  0.00     0.072 C 
ATOM     13  C   UNL     1     128.836 144.133 106.161  1.00  0.00     0.137 C 
ATOM     14  C   UNL     1     128.095 142.505 107.716  1.00  0.00    -0.019 C 
ATOM     15  O   UNL     1     128.731 145.066 105.379  1.00  0.00    -0.299 OA
ATOM     16  C   UNL     1     129.628 142.922 105.842  1.00  0.00     0.080 C 
ATOM     17  C   UNL     1     129.428 142.027 107.075  1.00  0.00     0.007 C 
ATOM     18  C   UNL     1     126.887 141.888 106.943  1.00  0.00     0.008 C 
ATOM     19  C   UNL     1     128.016 142.089 109.205  1.00  0.00     0.012 C 
ATOM     20  C   UNL     1     129.510 140.491 106.808  1.00  0.00     0.001 C 
ATOM     21  C   UNL     1     126.970 140.367 106.790  1.00  0.00     0.005 C 
ATOM     22  C   UNL     1     128.272 139.921 106.077  1.00  0.00     0.003 C 
ATOM     23  C   UNL     1     130.776 140.147 106.008  1.00  0.00     0.031 C 
ATOM     24  C   UNL     1     128.370 138.349 105.854  1.00  0.00    -0.008 C 
ATOM     25  C   UNL     1     130.890 138.674 105.783  1.00  0.00    -0.027 C 
ATOM     26  C   UNL     1     129.819 137.866 105.640  1.00  0.00    -0.065 C 
ATOM     27  C   UNL     1     127.810 137.556 107.081  1.00  0.00     0.014 C 
ATOM     28  C   UNL     1     127.540 138.001 104.589  1.00  0.00     0.016 C 
ATOM     29  C   UNL     1     130.057 136.373 105.530  1.00  0.00     0.063 C 
ATOM     30  C   UNL     1     128.046 136.032 107.015  1.00  0.00     0.033 C 
ATOM     31  C   UNL     1     129.528 135.685 106.791  1.00  0.00     0.118 C 
BRANCH  31  32
ATOM     32  O   UNL     1     129.677 134.296 106.657  1.00  0.00    -0.393 OA
ATOM     33  H   UNL     1     129.887 133.943 107.562  1.00  0.00     0.210 HD
ENDBRANCH  31  32
ENDBRANCH  10  12
ENDBRANCH   8  10
ENDBRANCH   1   8
TORSDOF 8
ENDMDL
MODEL 9
REMARK VINA RESULT:    -5.245      3.566      8.152
REMARK INTER + INTRA:          -8.672
REMARK INTER:                  -8.235
REMARK INTRA:                  -0.437
REMARK UNBOUND:                -1.281
REMARK SMILES C[C@@H](CO)CCC(=O)[C@@H](C)[C@H]1C(=O)C[C@@H]2[C@@H]3CC=C4C[C@H](O)CC[C@@]4(C)[C@H]3CC[C@@]21C
REMARK SMILES IDX 6 1 5 2 2 3 1 4 3 5 4 6 7 8 8 9 9 10 10 11 11 12 12 13 30 14
REMARK SMILES IDX 13 15 14 16 15 17 29 18 31 19 16 20 28 21 27 22 17 23 25 24
REMARK SMILES IDX 18 25 19 26 24 27 26 28 20 29 23 30 21 31 22 32
REMARK H PARENT 4 7 22 33
REMARK Flexibility Score: inf
ROOT
ATOM      1  C   UNL     1     129.193 143.757 106.996  1.00  0.00     0.076 C 
ENDROOT
BRANCH   1   2
ATOM      2  C   UNL     1     127.669 143.573 106.907  1.00  0.00     0.013 C 
BRANCH   2   3
ATOM      3  C   UNL     1     126.905 144.901 106.636  1.00  0.00     0.012 C 
ATOM      4  C   UNL     1     126.947 145.819 107.868  1.00  0.00     0.010 C 
BRANCH   3   5
ATOM      5  C   UNL     1     127.478 145.632 105.409  1.00  0.00     0.159 C 
BRANCH   5   6
ATOM      6  O   UNL     1     127.239 144.880 104.251  1.00  0.00    -0.396 OA
ATOM      7  H   UNL     1     126.331 144.491 104.354  1.00  0.00     0.210 HD
ENDBRANCH   5   6
ENDBRANCH   3   5
ENDBRANCH   2   3
ENDBRANCH   1   2
BRANCH   1   8
ATOM      8  C   UNL     1     129.805 143.027 108.172  1.00  0.00     0.136 C 
ATOM      9  O   UNL     1     129.091 142.324 108.869  1.00  0.00    -0.299 OA
BRANCH   8  10
ATOM     10  C   UNL     1     131.264 143.220 108.567  1.00  0.00     0.064 C 
ATOM     11  C   UNL     1     132.081 143.449 107.278  1.00  0.00     0.017 C 
BRANCH  10  12
ATOM     12  C   UNL     1     131.455 144.370 109.625  1.00  0.00     0.072 C 
ATOM     13  C   UNL     1     130.455 145.471 109.401  1.00  0.00     0.137 C 
ATOM     14  C   UNL     1     131.165 144.017 111.133  1.00  0.00    -0.019 C 
ATOM     15  O   UNL     1     130.574 146.320 108.532  1.00  0.00    -0.299 OA
ATOM     16  C   UNL     1     129.359 145.511 110.399  1.00  0.00     0.080 C 
ATOM     17  C   UNL     1     129.645 144.297 111.296  1.00  0.00     0.007 C 
ATOM     18  C   UNL     1     131.982 145.002 112.028  1.00  0.00     0.008 C 
ATOM     19  C   UNL     1     131.506 142.560 111.534  1.00  0.00     0.012 C 
ATOM     20  C   UNL     1     129.160 144.428 112.775  1.00  0.00     0.001 C 
ATOM     21  C   UNL     1     131.527 145.023 113.490  1.00  0.00     0.005 C 
ATOM     22  C   UNL     1     130.026 145.383 113.629  1.00  0.00     0.003 C 
ATOM     23  C   UNL     1     127.695 144.888 112.825  1.00  0.00     0.031 C 
ATOM     24  C   UNL     1     129.528 145.465 115.139  1.00  0.00    -0.008 C 
ATOM     25  C   UNL     1     127.204 144.975 114.234  1.00  0.00    -0.027 C 
ATOM     26  C   UNL     1     128.001 145.304 115.272  1.00  0.00    -0.065 C 
ATOM     27  C   UNL     1     130.176 144.347 116.021  1.00  0.00     0.014 C 
ATOM     28  C   UNL     1     129.930 146.859 115.690  1.00  0.00     0.016 C 
ATOM     29  C   UNL     1     127.415 145.249 116.669  1.00  0.00     0.063 C 
ATOM     30  C   UNL     1     129.596 144.249 117.449  1.00  0.00     0.033 C 
ATOM     31  C   UNL     1     128.066 144.099 117.443  1.00  0.00     0.118 C 
BRANCH  31  32
ATOM     32  O   UNL     1     127.582 144.096 118.760  1.00  0.00    -0.393 OA
ATOM     33  H   UNL     1     128.146 144.735 119.272  1.00  0.00     0.210 HD
ENDBRANCH  31  32
ENDBRANCH  10  12
ENDBRANCH   8  10
ENDBRANCH   1   8
TORSDOF 8
ENDMDL
