MODEL 1
REMARK VINA RESULT:    -4.499      0.000      0.000
REMARK INTER + INTRA:          -7.301
REMARK INTER:                  -6.340
REMARK INTRA:                  -0.961
REMARK UNBOUND:                -0.961
REMARK SMILES OCC1=C[C@@H](O)[C@@H]2C=CO[C@H](O[C@H]3O[C@H](CO)[C@H](O)[C@@H](O)[C@@H]3O)[C@H]12
REMARK SMILES IDX 12 1 11 2 8 3 9 4 7 5 10 6 24 7 5 8 3 9 4 10 6 11 2 13 1 14
REMARK SMILES IDX 13 16 22 17 14 18 20 19 15 20 18 21 23 22 21 24 16 26 17 27
REMARK SMILES IDX 19 29
REMARK H PARENT 6 12 1 15 23 23 21 25 17 28 19 30
REMARK Flexibility Score: inf
ROOT
ATOM      1  O   UNL     1      85.165  -1.469  -7.456  1.00  0.00    -0.310 OA
ENDROOT
BRANCH   1   2
ATOM      2  C   UNL     1      85.960  -2.570  -7.862  1.00  0.00     0.316 C 
ATOM      3  C   UNL     1      85.991  -3.746  -5.270  1.00  0.00     0.018 C 
ATOM      4  C   UNL     1      87.041  -3.050  -5.704  1.00  0.00     0.186 C 
ATOM      5  C   UNL     1      84.941  -4.264  -6.225  1.00  0.00     0.061 C 
ATOM      6  O   UNL     1      87.125  -2.647  -7.040  1.00  0.00    -0.472 OA
ATOM      7  C   UNL     1      85.161  -3.884  -7.709  1.00  0.00     0.096 C 
ATOM      8  C   UNL     1      83.525  -3.761  -5.893  1.00  0.00     0.145 C 
ATOM      9  C   UNL     1      83.759  -3.757  -8.222  1.00  0.00    -0.036 C 
ATOM     10  C   UNL     1      82.873  -3.695  -7.233  1.00  0.00     0.007 C 
BRANCH   8  11
ATOM     11  O   UNL     1      82.841  -4.666  -5.072  1.00  0.00    -0.388 OA
ATOM     12  H   UNL     1      82.335  -4.117  -4.416  1.00  0.00     0.211 HD
ENDBRANCH   8  11
BRANCH   9  13
ATOM     13  C   UNL     1      83.386  -3.807  -9.677  1.00  0.00     0.187 C 
BRANCH  13  14
ATOM     14  O   UNL     1      83.313  -5.135 -10.113  1.00  0.00    -0.392 OA
ATOM     15  H   UNL     1      83.276  -5.692  -9.291  1.00  0.00     0.211 HD
ENDBRANCH  13  14
ENDBRANCH   9  13
ENDBRANCH   1   2
BRANCH   1  16
ATOM     16  C   UNL     1      85.194  -0.428  -8.422  1.00  0.00     0.286 C 
ATOM     17  C   UNL     1      85.583   0.910  -7.748  1.00  0.00     0.202 C 
ATOM     18  O   UNL     1      83.960  -0.324  -9.117  1.00  0.00    -0.341 OA
ATOM     19  C   UNL     1      84.428   1.520  -6.921  1.00  0.00     0.179 C 
ATOM     20  C   UNL     1      82.892  -0.019  -8.238  1.00  0.00     0.178 C 
ATOM     21  C   UNL     1      83.064   1.395  -7.635  1.00  0.00     0.177 C 
BRANCH  17  22
ATOM     22  O   UNL     1      86.050   1.836  -8.701  1.00  0.00    -0.385 OA
ATOM     23  H   UNL     1      86.860   2.274  -8.331  1.00  0.00     0.211 HD
ENDBRANCH  17  22
BRANCH  19  24
ATOM     24  O   UNL     1      84.382   0.967  -5.626  1.00  0.00    -0.387 OA
ATOM     25  H   UNL     1      84.110   0.015  -5.700  1.00  0.00     0.211 HD
ENDBRANCH  19  24
BRANCH  20  26
ATOM     26  C   UNL     1      81.574  -0.148  -9.012  1.00  0.00     0.191 C 
BRANCH  26  27
ATOM     27  O   UNL     1      80.751  -1.119  -8.424  1.00  0.00    -0.394 OA
ATOM     28  H   UNL     1      80.752  -0.950  -7.445  1.00  0.00     0.210 HD
ENDBRANCH  26  27
ENDBRANCH  20  26
BRANCH  21  29
ATOM     29  O   UNL     1      82.970   2.361  -8.652  1.00  0.00    -0.387 OA
ATOM     30  H   UNL     1      82.024   2.661  -8.677  1.00  0.00     0.211 HD
ENDBRANCH  21  29
ENDBRANCH   1  16
TORSDOF 10
ENDMDL
MODEL 2
REMARK VINA RESULT:    -4.163     13.201     15.745
REMARK INTER + INTRA:          -6.828
REMARK INTER:                  -6.382
REMARK INTRA:                  -0.446
REMARK UNBOUND:                -0.961
REMARK SMILES OCC1=C[C@@H](O)[C@@H]2C=CO[C@H](O[C@H]3O[C@H](CO)[C@H](O)[C@@H](O)[C@@H]3O)[C@H]12
REMARK SMILES IDX 12 1 11 2 8 3 9 4 7 5 10 6 24 7 5 8 3 9 4 10 6 11 2 13 1 14
REMARK SMILES IDX 13 16 22 17 14 18 20 19 15 20 18 21 23 22 21 24 16 26 17 27
REMARK SMILES IDX 19 29
REMARK H PARENT 6 12 1 15 23 23 21 25 17 28 19 30
REMARK Flexibility Score: inf
ROOT
ATOM      1  O   UNL     1      70.642   1.621  -0.320  1.00  0.00    -0.310 OA
ENDROOT
BRANCH   1   2
ATOM      2  C   UNL     1      69.664   1.578  -1.344  1.00  0.00     0.316 C 
ATOM      3  C   UNL     1      70.038   4.302  -2.078  1.00  0.00     0.018 C 
ATOM      4  C   UNL     1      69.005   3.949  -1.315  1.00  0.00     0.186 C 
ATOM      5  C   UNL     1      70.804   3.282  -2.888  1.00  0.00     0.061 C 
ATOM      6  O   UNL     1      68.692   2.600  -1.120  1.00  0.00    -0.472 OA
ATOM      7  C   UNL     1      70.326   1.820  -2.719  1.00  0.00     0.096 C 
ATOM      8  C   UNL     1      72.305   3.250  -2.550  1.00  0.00     0.145 C 
ATOM      9  C   UNL     1      71.597   1.044  -2.880  1.00  0.00    -0.036 C 
ATOM     10  C   UNL     1      72.669   1.824  -2.791  1.00  0.00     0.007 C 
BRANCH   8  11
ATOM     11  O   UNL     1      73.039   4.083  -3.402  1.00  0.00    -0.388 OA
ATOM     12  H   UNL     1      73.195   3.562  -4.233  1.00  0.00     0.211 HD
ENDBRANCH   8  11
BRANCH   9  13
ATOM     13  C   UNL     1      71.653  -0.421  -3.213  1.00  0.00     0.187 C 
BRANCH  13  14
ATOM     14  O   UNL     1      70.428  -0.846  -3.737  1.00  0.00    -0.392 OA
ATOM     15  H   UNL     1      69.814  -0.938  -2.960  1.00  0.00     0.211 HD
ENDBRANCH  13  14
ENDBRANCH   9  13
ENDBRANCH   1   2
BRANCH   1  16
ATOM     16  C   UNL     1      70.894   0.327   0.208  1.00  0.00     0.286 C 
ATOM     17  C   UNL     1      70.461   0.266   1.692  1.00  0.00     0.202 C 
ATOM     18  O   UNL     1      72.254  -0.050   0.044  1.00  0.00    -0.341 OA
ATOM     19  C   UNL     1      71.449   0.994   2.633  1.00  0.00     0.179 C 
ATOM     20  C   UNL     1      73.124   0.833   0.728  1.00  0.00     0.178 C 
ATOM     21  C   UNL     1      72.923   0.726   2.257  1.00  0.00     0.177 C 
BRANCH  17  22
ATOM     22  O   UNL     1      70.277  -1.067   2.107  1.00  0.00    -0.385 OA
ATOM     23  H   UNL     1      70.404  -1.102   3.092  1.00  0.00     0.211 HD
ENDBRANCH  17  22
BRANCH  19  24
ATOM     24  O   UNL     1      71.175   2.375   2.687  1.00  0.00    -0.387 OA
ATOM     25  H   UNL     1      70.268   2.502   3.067  1.00  0.00     0.211 HD
ENDBRANCH  19  24
BRANCH  20  26
ATOM     26  C   UNL     1      74.567   0.504   0.322  1.00  0.00     0.191 C 
BRANCH  26  27
ATOM     27  O   UNL     1      75.236   1.663  -0.097  1.00  0.00    -0.394 OA
ATOM     28  H   UNL     1      74.591   2.415  -0.030  1.00  0.00     0.210 HD
ENDBRANCH  26  27
ENDBRANCH  20  26
BRANCH  21  29
ATOM     29  O   UNL     1      73.301  -0.553   2.700  1.00  0.00    -0.387 OA
ATOM     30  H   UNL     1      72.477  -1.003   3.020  1.00  0.00     0.211 HD
ENDBRANCH  21  29
ENDBRANCH   1  16
TORSDOF 10
ENDMDL
MODEL 3
REMARK VINA RESULT:    -3.653     13.080     15.113
REMARK INTER + INTRA:          -6.110
REMARK INTER:                  -6.214
REMARK INTRA:                   0.104
REMARK UNBOUND:                -0.961
REMARK SMILES OCC1=C[C@@H](O)[C@@H]2C=CO[C@H](O[C@H]3O[C@H](CO)[C@H](O)[C@@H](O)[C@@H]3O)[C@H]12
REMARK SMILES IDX 12 1 11 2 8 3 9 4 7 5 10 6 24 7 5 8 3 9 4 10 6 11 2 13 1 14
REMARK SMILES IDX 13 16 22 17 14 18 20 19 15 20 18 21 23 22 21 24 16 26 17 27
REMARK SMILES IDX 19 29
REMARK H PARENT 6 12 1 15 23 23 21 25 17 28 19 30
REMARK Flexibility Score: inf
ROOT
ATOM      1  O   UNL     1      71.014  -0.014  -0.697  1.00  0.00    -0.310 OA
ENDROOT
BRANCH   1   2
ATOM      2  C   UNL     1      70.726   1.234  -0.090  1.00  0.00     0.316 C 
ATOM      3  C   UNL     1      70.055   0.072   2.420  1.00  0.00     0.018 C 
ATOM      4  C   UNL     1      69.094   0.454   1.580  1.00  0.00     0.186 C 
ATOM      5  C   UNL     1      71.474   0.570   2.274  1.00  0.00     0.061 C 
ATOM      6  O   UNL     1      69.402   1.210   0.444  1.00  0.00    -0.472 OA
ATOM      7  C   UNL     1      71.718   1.503   1.063  1.00  0.00     0.096 C 
ATOM      8  C   UNL     1      72.498  -0.566   2.110  1.00  0.00     0.145 C 
ATOM      9  C   UNL     1      73.130   1.177   0.684  1.00  0.00    -0.036 C 
ATOM     10  C   UNL     1      73.551   0.055   1.257  1.00  0.00     0.007 C 
BRANCH   8  11
ATOM     11  O   UNL     1      73.042  -0.946   3.344  1.00  0.00    -0.388 OA
ATOM     12  H   UNL     1      73.263  -1.911   3.264  1.00  0.00     0.211 HD
ENDBRANCH   8  11
BRANCH   9  13
ATOM     13  C   UNL     1      74.004   2.068  -0.154  1.00  0.00     0.187 C 
BRANCH  13  14
ATOM     14  O   UNL     1      75.329   1.618  -0.118  1.00  0.00    -0.392 OA
ATOM     15  H   UNL     1      75.352   0.885   0.552  1.00  0.00     0.211 HD
ENDBRANCH  13  14
ENDBRANCH   9  13
ENDBRANCH   1   2
BRANCH   1  16
ATOM     16  C   UNL     1      71.881   0.143  -1.812  1.00  0.00     0.286 C 
ATOM     17  C   UNL     1      71.540   1.450  -2.568  1.00  0.00     0.202 C 
ATOM     18  O   UNL     1      71.836  -0.985  -2.673  1.00  0.00    -0.341 OA
ATOM     19  C   UNL     1      70.249   1.333  -3.411  1.00  0.00     0.179 C 
ATOM     20  C   UNL     1      70.539  -1.183  -3.204  1.00  0.00     0.178 C 
ATOM     21  C   UNL     1      70.149  -0.021  -4.146  1.00  0.00     0.177 C 
BRANCH  17  22
ATOM     22  O   UNL     1      72.620   1.860  -3.374  1.00  0.00    -0.385 OA
ATOM     23  H   UNL     1      72.283   1.972  -4.302  1.00  0.00     0.211 HD
ENDBRANCH  17  22
BRANCH  19  24
ATOM     24  O   UNL     1      69.105   1.577  -2.625  1.00  0.00    -0.387 OA
ATOM     25  H   UNL     1      69.353   2.196  -1.890  1.00  0.00     0.211 HD
ENDBRANCH  19  24
BRANCH  20  26
ATOM     26  C   UNL     1      70.513  -2.535  -3.931  1.00  0.00     0.191 C 
BRANCH  26  27
ATOM     27  O   UNL     1      71.800  -2.887  -4.362  1.00  0.00    -0.394 OA
ATOM     28  H   UNL     1      72.242  -2.054  -4.677  1.00  0.00     0.210 HD
ENDBRANCH  26  27
ENDBRANCH  20  26
BRANCH  21  29
ATOM     29  O   UNL     1      70.992  -0.015  -5.271  1.00  0.00    -0.387 OA
ATOM     30  H   UNL     1      71.876   0.319  -4.967  1.00  0.00     0.211 HD
ENDBRANCH  21  29
ENDBRANCH   1  16
TORSDOF 10
ENDMDL
MODEL 4
REMARK VINA RESULT:    -3.495     13.824     16.303
REMARK INTER + INTRA:          -5.887
REMARK INTER:                  -7.002
REMARK INTRA:                   1.115
REMARK UNBOUND:                -0.961
REMARK SMILES OCC1=C[C@@H](O)[C@@H]2C=CO[C@H](O[C@H]3O[C@H](CO)[C@H](O)[C@@H](O)[C@@H]3O)[C@H]12
REMARK SMILES IDX 12 1 11 2 8 3 9 4 7 5 10 6 24 7 5 8 3 9 4 10 6 11 2 13 1 14
REMARK SMILES IDX 13 16 22 17 14 18 20 19 15 20 18 21 23 22 21 24 16 26 17 27
REMARK SMILES IDX 19 29
REMARK H PARENT 6 12 1 15 23 23 21 25 17 28 19 30
REMARK Flexibility Score: inf
ROOT
ATOM      1  O   UNL     1      84.973   3.387   6.546  1.00  0.00    -0.310 OA
ENDROOT
BRANCH   1   2
ATOM      2  C   UNL     1      85.430   3.836   7.810  1.00  0.00     0.316 C 
ATOM      3  C   UNL     1      85.964   6.476   6.891  1.00  0.00     0.018 C 
ATOM      4  C   UNL     1      86.959   5.602   7.035  1.00  0.00     0.186 C 
ATOM      5  C   UNL     1      84.623   6.258   7.551  1.00  0.00     0.061 C 
ATOM      6  O   UNL     1      86.744   4.378   7.677  1.00  0.00    -0.472 OA
ATOM      7  C   UNL     1      84.493   4.939   8.350  1.00  0.00     0.096 C 
ATOM      8  C   UNL     1      83.456   6.230   6.548  1.00  0.00     0.145 C 
ATOM      9  C   UNL     1      83.047   4.593   8.169  1.00  0.00    -0.036 C 
ATOM     10  C   UNL     1      82.486   5.298   7.192  1.00  0.00     0.007 C 
BRANCH   8  11
ATOM     11  O   UNL     1      82.878   7.497   6.401  1.00  0.00    -0.388 OA
ATOM     12  H   UNL     1      83.434   7.980   5.733  1.00  0.00     0.211 HD
ENDBRANCH   8  11
BRANCH   9  13
ATOM     13  C   UNL     1      82.290   3.644   9.056  1.00  0.00     0.187 C 
BRANCH  13  14
ATOM     14  O   UNL     1      81.600   2.704   8.282  1.00  0.00    -0.392 OA
ATOM     15  H   UNL     1      80.744   2.532   8.759  1.00  0.00     0.211 HD
ENDBRANCH  13  14
ENDBRANCH   9  13
ENDBRANCH   1   2
BRANCH   1  16
ATOM     16  C   UNL     1      84.509   2.046   6.611  1.00  0.00     0.286 C 
ATOM     17  C   UNL     1      84.860   1.430   7.987  1.00  0.00     0.202 C 
ATOM     18  O   UNL     1      85.018   1.262   5.542  1.00  0.00    -0.341 OA
ATOM     19  C   UNL     1      86.357   1.064   8.113  1.00  0.00     0.179 C 
ATOM     20  C   UNL     1      86.432   1.193   5.575  1.00  0.00     0.178 C 
ATOM     21  C   UNL     1      86.914   0.420   6.824  1.00  0.00     0.177 C 
BRANCH  17  22
ATOM     22  O   UNL     1      84.054   0.307   8.255  1.00  0.00    -0.385 OA
ATOM     23  H   UNL     1      83.336   0.588   8.881  1.00  0.00     0.211 HD
ENDBRANCH  17  22
BRANCH  19  24
ATOM     24  O   UNL     1      87.123   2.182   8.501  1.00  0.00    -0.387 OA
ATOM     25  H   UNL     1      87.477   2.020   9.413  1.00  0.00     0.211 HD
ENDBRANCH  19  24
BRANCH  20  26
ATOM     26  C   UNL     1      86.916   0.532   4.278  1.00  0.00     0.191 C 
BRANCH  26  27
ATOM     27  O   UNL     1      86.037  -0.488   3.887  1.00  0.00    -0.394 OA
ATOM     28  H   UNL     1      86.284  -0.748   2.960  1.00  0.00     0.210 HD
ENDBRANCH  26  27
ENDBRANCH  20  26
BRANCH  21  29
ATOM     29  O   UNL     1      86.499  -0.920   6.746  1.00  0.00    -0.387 OA
ATOM     30  H   UNL     1      86.348  -1.231   7.676  1.00  0.00     0.211 HD
ENDBRANCH  21  29
ENDBRANCH   1  16
TORSDOF 10
ENDMDL
MODEL 5
REMARK VINA RESULT:    -3.458     14.358     16.634
REMARK INTER + INTRA:          -5.835
REMARK INTER:                  -5.551
REMARK INTRA:                  -0.284
REMARK UNBOUND:                -0.961
REMARK SMILES OCC1=C[C@@H](O)[C@@H]2C=CO[C@H](O[C@H]3O[C@H](CO)[C@H](O)[C@@H](O)[C@@H]3O)[C@H]12
REMARK SMILES IDX 12 1 11 2 8 3 9 4 7 5 10 6 24 7 5 8 3 9 4 10 6 11 2 13 1 14
REMARK SMILES IDX 13 16 22 17 14 18 20 19 15 20 18 21 23 22 21 24 16 26 17 27
REMARK SMILES IDX 19 29
REMARK H PARENT 6 12 1 15 23 23 21 25 17 28 19 30
REMARK Flexibility Score: inf
ROOT
ATOM      1  O   UNL     1      84.030   3.549   7.230  1.00  0.00    -0.310 OA
ENDROOT
BRANCH   1   2
ATOM      2  C   UNL     1      84.385   4.165   8.455  1.00  0.00     0.316 C 
ATOM      3  C   UNL     1      83.157   6.643   7.783  1.00  0.00     0.018 C 
ATOM      4  C   UNL     1      84.477   6.497   7.674  1.00  0.00     0.186 C 
ATOM      5  C   UNL     1      82.324   5.688   8.606  1.00  0.00     0.061 C 
ATOM      6  O   UNL     1      85.113   5.365   8.193  1.00  0.00    -0.472 OA
ATOM      7  C   UNL     1      83.113   4.525   9.255  1.00  0.00     0.096 C 
ATOM      8  C   UNL     1      81.211   5.006   7.792  1.00  0.00     0.145 C 
ATOM      9  C   UNL     1      82.109   3.413   9.253  1.00  0.00    -0.036 C 
ATOM     10  C   UNL     1      81.076   3.679   8.460  1.00  0.00     0.007 C 
BRANCH   8  11
ATOM     11  O   UNL     1      80.005   5.713   7.883  1.00  0.00    -0.388 OA
ATOM     12  H   UNL     1      79.310   5.128   7.481  1.00  0.00     0.211 HD
ENDBRANCH   8  11
BRANCH   9  13
ATOM     13  C   UNL     1      82.201   2.193  10.125  1.00  0.00     0.187 C 
BRANCH  13  14
ATOM     14  O   UNL     1      81.919   1.042   9.380  1.00  0.00    -0.392 OA
ATOM     15  H   UNL     1      82.685   0.924   8.757  1.00  0.00     0.211 HD
ENDBRANCH  13  14
ENDBRANCH   9  13
ENDBRANCH   1   2
BRANCH   1  16
ATOM     16  C   UNL     1      84.266   2.149   7.269  1.00  0.00     0.286 C 
ATOM     17  C   UNL     1      85.447   1.837   8.220  1.00  0.00     0.202 C 
ATOM     18  O   UNL     1      84.486   1.618   5.971  1.00  0.00    -0.341 OA
ATOM     19  C   UNL     1      86.820   2.191   7.603  1.00  0.00     0.179 C 
ATOM     20  C   UNL     1      85.625   2.194   5.359  1.00  0.00     0.178 C 
ATOM     21  C   UNL     1      86.914   1.794   6.113  1.00  0.00     0.177 C 
BRANCH  17  22
ATOM     22  O   UNL     1      85.422   0.488   8.626  1.00  0.00    -0.385 OA
ATOM     23  H   UNL     1      85.363   0.468   9.617  1.00  0.00     0.211 HD
ENDBRANCH  17  22
BRANCH  19  24
ATOM     24  O   UNL     1      87.125   3.554   7.791  1.00  0.00    -0.387 OA
ATOM     25  H   UNL     1      87.512   3.668   8.697  1.00  0.00     0.211 HD
ENDBRANCH  19  24
BRANCH  20  26
ATOM     26  C   UNL     1      85.666   1.749   3.891  1.00  0.00     0.191 C 
BRANCH  26  27
ATOM     27  O   UNL     1      86.991   1.640   3.446  1.00  0.00    -0.394 OA
ATOM     28  H   UNL     1      87.551   1.430   4.240  1.00  0.00     0.210 HD
ENDBRANCH  26  27
ENDBRANCH  20  26
BRANCH  21  29
ATOM     29  O   UNL     1      87.120   0.408   6.004  1.00  0.00    -0.387 OA
ATOM     30  H   UNL     1      87.173   0.200   5.035  1.00  0.00     0.211 HD
ENDBRANCH  21  29
ENDBRANCH   1  16
TORSDOF 10
ENDMDL
MODEL 6
REMARK VINA RESULT:    -3.269     13.528     15.505
REMARK INTER + INTRA:          -5.567
REMARK INTER:                  -5.851
REMARK INTRA:                   0.283
REMARK UNBOUND:                -0.961
REMARK SMILES OCC1=C[C@@H](O)[C@@H]2C=CO[C@H](O[C@H]3O[C@H](CO)[C@H](O)[C@@H](O)[C@@H]3O)[C@H]12
REMARK SMILES IDX 12 1 11 2 8 3 9 4 7 5 10 6 24 7 5 8 3 9 4 10 6 11 2 13 1 14
REMARK SMILES IDX 13 16 22 17 14 18 20 19 15 20 18 21 23 22 21 24 16 26 17 27
REMARK SMILES IDX 19 29
REMARK H PARENT 6 12 1 15 23 23 21 25 17 28 19 30
REMARK Flexibility Score: inf
ROOT
ATOM      1  O   UNL     1      70.813   0.103  -1.362  1.00  0.00    -0.310 OA
ENDROOT
BRANCH   1   2
ATOM      2  C   UNL     1      71.908   0.073  -2.261  1.00  0.00     0.316 C 
ATOM      3  C   UNL     1      70.617  -1.703  -4.072  1.00  0.00     0.018 C 
ATOM      4  C   UNL     1      71.530  -2.162  -3.217  1.00  0.00     0.186 C 
ATOM      5  C   UNL     1      70.508  -0.230  -4.391  1.00  0.00     0.061 C 
ATOM      6  O   UNL     1      72.316  -1.278  -2.471  1.00  0.00    -0.472 OA
ATOM      7  C   UNL     1      71.494   0.681  -3.619  1.00  0.00     0.096 C 
ATOM      8  C   UNL     1      69.115   0.350  -4.090  1.00  0.00     0.145 C 
ATOM      9  C   UNL     1      70.706   1.945  -3.458  1.00  0.00    -0.036 C 
ATOM     10  C   UNL     1      69.416   1.762  -3.718  1.00  0.00     0.007 C 
BRANCH   8  11
ATOM     11  O   UNL     1      68.292   0.317  -5.223  1.00  0.00    -0.388 OA
ATOM     12  H   UNL     1      68.627   1.029  -5.830  1.00  0.00     0.211 HD
ENDBRANCH   8  11
BRANCH   9  13
ATOM     13  C   UNL     1      71.316   3.284  -3.149  1.00  0.00     0.187 C 
BRANCH  13  14
ATOM     14  O   UNL     1      70.512   3.984  -2.243  1.00  0.00    -0.392 OA
ATOM     15  H   UNL     1      70.975   4.849  -2.077  1.00  0.00     0.211 HD
ENDBRANCH  13  14
ENDBRANCH   9  13
ENDBRANCH   1   2
BRANCH   1  16
ATOM     16  C   UNL     1      70.846   1.266  -0.547  1.00  0.00     0.286 C 
ATOM     17  C   UNL     1      72.311   1.705  -0.308  1.00  0.00     0.202 C 
ATOM     18  O   UNL     1      70.153   1.069   0.677  1.00  0.00    -0.341 OA
ATOM     19  C   UNL     1      73.046   0.802   0.710  1.00  0.00     0.179 C 
ATOM     20  C   UNL     1      70.737   0.032   1.444  1.00  0.00     0.178 C 
ATOM     21  C   UNL     1      72.154   0.430   1.915  1.00  0.00     0.177 C 
BRANCH  17  22
ATOM     22  O   UNL     1      72.372   3.053   0.095  1.00  0.00    -0.385 OA
ATOM     23  H   UNL     1      73.002   3.525  -0.511  1.00  0.00     0.211 HD
ENDBRANCH  17  22
BRANCH  19  24
ATOM     24  O   UNL     1      73.569  -0.347   0.085  1.00  0.00    -0.387 OA
ATOM     25  H   UNL     1      74.260  -0.063  -0.569  1.00  0.00     0.211 HD
ENDBRANCH  19  24
BRANCH  20  26
ATOM     26  C   UNL     1      69.811  -0.277   2.628  1.00  0.00     0.191 C 
BRANCH  26  27
ATOM     27  O   UNL     1      69.382   0.910   3.240  1.00  0.00    -0.394 OA
ATOM     28  H   UNL     1      69.857   0.979   4.110  1.00  0.00     0.210 HD
ENDBRANCH  26  27
ENDBRANCH  20  26
BRANCH  21  29
ATOM     29  O   UNL     1      72.074   1.519   2.801  1.00  0.00    -0.387 OA
ATOM     30  H   UNL     1      73.003   1.831   2.959  1.00  0.00     0.211 HD
ENDBRANCH  21  29
ENDBRANCH   1  16
TORSDOF 10
ENDMDL
MODEL 7
REMARK VINA RESULT:    -3.074     13.433     15.489
REMARK INTER + INTRA:          -5.294
REMARK INTER:                  -4.889
REMARK INTRA:                  -0.404
REMARK UNBOUND:                -0.961
REMARK SMILES OCC1=C[C@@H](O)[C@@H]2C=CO[C@H](O[C@H]3O[C@H](CO)[C@H](O)[C@@H](O)[C@@H]3O)[C@H]12
REMARK SMILES IDX 12 1 11 2 8 3 9 4 7 5 10 6 24 7 5 8 3 9 4 10 6 11 2 13 1 14
REMARK SMILES IDX 13 16 22 17 14 18 20 19 15 20 18 21 23 22 21 24 16 26 17 27
REMARK SMILES IDX 19 29
REMARK H PARENT 6 12 1 15 23 23 21 25 17 28 19 30
REMARK Flexibility Score: inf
ROOT
ATOM      1  O   UNL     1      70.852  -0.374  -1.585  1.00  0.00    -0.310 OA
ENDROOT
BRANCH   1   2
ATOM      2  C   UNL     1      71.813  -0.497  -2.619  1.00  0.00     0.316 C 
ATOM      3  C   UNL     1      70.004  -1.773  -4.407  1.00  0.00     0.018 C 
ATOM      4  C   UNL     1      70.897  -2.493  -3.729  1.00  0.00     0.186 C 
ATOM      5  C   UNL     1      70.154  -0.278  -4.565  1.00  0.00     0.061 C 
ATOM      6  O   UNL     1      71.920  -1.866  -3.011  1.00  0.00    -0.472 OA
ATOM      7  C   UNL     1      71.380   0.336  -3.846  1.00  0.00     0.096 C 
ATOM      8  C   UNL     1      68.946   0.508  -4.029  1.00  0.00     0.145 C 
ATOM      9  C   UNL     1      70.881   1.695  -3.461  1.00  0.00    -0.036 C 
ATOM     10  C   UNL     1      69.559   1.786  -3.565  1.00  0.00     0.007 C 
BRANCH   8  11
ATOM     11  O   UNL     1      68.012   0.764  -5.041  1.00  0.00    -0.388 OA
ATOM     12  H   UNL     1      67.954  -0.067  -5.582  1.00  0.00     0.211 HD
ENDBRANCH   8  11
BRANCH   9  13
ATOM     13  C   UNL     1      71.774   2.851  -3.107  1.00  0.00     0.187 C 
BRANCH  13  14
ATOM     14  O   UNL     1      71.006   3.956  -2.723  1.00  0.00    -0.392 OA
ATOM     15  H   UNL     1      70.074   3.622  -2.626  1.00  0.00     0.211 HD
ENDBRANCH  13  14
ENDBRANCH   9  13
ENDBRANCH   1   2
BRANCH   1  16
ATOM     16  C   UNL     1      71.442  -0.567  -0.307  1.00  0.00     0.286 C 
ATOM     17  C   UNL     1      70.351  -0.531   0.791  1.00  0.00     0.202 C 
ATOM     18  O   UNL     1      72.468   0.382  -0.055  1.00  0.00    -0.341 OA
ATOM     19  C   UNL     1      69.847   0.902   1.085  1.00  0.00     0.179 C 
ATOM     20  C   UNL     1      71.967   1.706  -0.064  1.00  0.00     0.178 C 
ATOM     21  C   UNL     1      70.996   1.933   1.118  1.00  0.00     0.177 C 
BRANCH  17  22
ATOM     22  O   UNL     1      70.808  -1.145   1.973  1.00  0.00    -0.385 OA
ATOM     23  H   UNL     1      70.537  -2.101   1.945  1.00  0.00     0.211 HD
ENDBRANCH  17  22
BRANCH  19  24
ATOM     24  O   UNL     1      68.840   1.283   0.176  1.00  0.00    -0.387 OA
ATOM     25  H   UNL     1      68.818   2.273   0.128  1.00  0.00     0.211 HD
ENDBRANCH  19  24
BRANCH  20  26
ATOM     26  C   UNL     1      73.155   2.675  -0.016  1.00  0.00     0.191 C 
BRANCH  26  27
ATOM     27  O   UNL     1      74.332   2.032  -0.424  1.00  0.00    -0.394 OA
ATOM     28  H   UNL     1      74.208   1.768  -1.374  1.00  0.00     0.210 HD
ENDBRANCH  26  27
ENDBRANCH  20  26
BRANCH  21  29
ATOM     29  O   UNL     1      71.693   1.829   2.334  1.00  0.00    -0.387 OA
ATOM     30  H   UNL     1      72.377   1.120   2.215  1.00  0.00     0.211 HD
ENDBRANCH  21  29
ENDBRANCH   1  16
TORSDOF 10
ENDMDL
MODEL 8
REMARK VINA RESULT:    -2.887     13.635     15.593
REMARK INTER + INTRA:          -5.030
REMARK INTER:                  -5.106
REMARK INTRA:                   0.076
REMARK UNBOUND:                -0.961
REMARK SMILES OCC1=C[C@@H](O)[C@@H]2C=CO[C@H](O[C@H]3O[C@H](CO)[C@H](O)[C@@H](O)[C@@H]3O)[C@H]12
REMARK SMILES IDX 12 1 11 2 8 3 9 4 7 5 10 6 24 7 5 8 3 9 4 10 6 11 2 13 1 14
REMARK SMILES IDX 13 16 22 17 14 18 20 19 15 20 18 21 23 22 21 24 16 26 17 27
REMARK SMILES IDX 19 29
REMARK H PARENT 6 12 1 15 23 23 21 25 17 28 19 30
REMARK Flexibility Score: inf
ROOT
ATOM      1  O   UNL     1      71.501   1.817  -0.261  1.00  0.00    -0.310 OA
ENDROOT
BRANCH   1   2
ATOM      2  C   UNL     1      71.929   0.482  -0.057  1.00  0.00     0.316 C 
ATOM      3  C   UNL     1      74.058   1.229   1.679  1.00  0.00     0.018 C 
ATOM      4  C   UNL     1      74.305   0.931   0.404  1.00  0.00     0.186 C 
ATOM      5  C   UNL     1      72.764   0.823   2.346  1.00  0.00     0.061 C 
ATOM      6  O   UNL     1      73.310   0.366  -0.401  1.00  0.00    -0.472 OA
ATOM      7  C   UNL     1      71.756   0.091   1.427  1.00  0.00     0.096 C 
ATOM      8  C   UNL     1      71.982   2.018   2.919  1.00  0.00     0.145 C 
ATOM      9  C   UNL     1      70.436   0.534   1.979  1.00  0.00    -0.036 C 
ATOM     10  C   UNL     1      70.563   1.578   2.791  1.00  0.00     0.007 C 
BRANCH   8  11
ATOM     11  O   UNL     1      72.297   2.236   4.267  1.00  0.00    -0.388 OA
ATOM     12  H   UNL     1      73.228   2.583   4.281  1.00  0.00     0.211 HD
ENDBRANCH   8  11
BRANCH   9  13
ATOM     13  C   UNL     1      69.137  -0.182   1.734  1.00  0.00     0.187 C 
BRANCH  13  14
ATOM     14  O   UNL     1      68.331   0.561   0.864  1.00  0.00    -0.392 OA
ATOM     15  H   UNL     1      68.774   0.516  -0.025  1.00  0.00     0.211 HD
ENDBRANCH  13  14
ENDBRANCH   9  13
ENDBRANCH   1   2
BRANCH   1  16
ATOM     16  C   UNL     1      71.780   2.252  -1.584  1.00  0.00     0.286 C 
ATOM     17  C   UNL     1      70.724   3.290  -2.035  1.00  0.00     0.202 C 
ATOM     18  O   UNL     1      71.859   1.161  -2.489  1.00  0.00    -0.341 OA
ATOM     19  C   UNL     1      69.363   2.643  -2.385  1.00  0.00     0.179 C 
ATOM     20  C   UNL     1      70.636   0.450  -2.556  1.00  0.00     0.178 C 
ATOM     21  C   UNL     1      69.525   1.327  -3.177  1.00  0.00     0.177 C 
BRANCH  17  22
ATOM     22  O   UNL     1      71.200   4.054  -3.118  1.00  0.00    -0.385 OA
ATOM     23  H   UNL     1      71.878   3.512  -3.600  1.00  0.00     0.211 HD
ENDBRANCH  17  22
BRANCH  19  24
ATOM     24  O   UNL     1      68.577   2.455  -1.231  1.00  0.00    -0.387 OA
ATOM     25  H   UNL     1      67.921   3.196  -1.172  1.00  0.00     0.211 HD
ENDBRANCH  19  24
BRANCH  20  26
ATOM     26  C   UNL     1      70.864  -0.834  -3.365  1.00  0.00     0.191 C 
BRANCH  26  27
ATOM     27  O   UNL     1      69.766  -1.092  -4.198  1.00  0.00    -0.394 OA
ATOM     28  H   UNL     1      69.367  -0.213  -4.437  1.00  0.00     0.210 HD
ENDBRANCH  26  27
ENDBRANCH  20  26
BRANCH  21  29
ATOM     29  O   UNL     1      69.838   1.615  -4.517  1.00  0.00    -0.387 OA
ATOM     30  H   UNL     1      70.809   1.446  -4.629  1.00  0.00     0.211 HD
ENDBRANCH  21  29
ENDBRANCH   1  16
TORSDOF 10
ENDMDL
MODEL 9
REMARK VINA RESULT:    -2.579     14.143     16.332
REMARK INTER + INTRA:          -4.595
REMARK INTER:                  -4.634
REMARK INTRA:                   0.038
REMARK UNBOUND:                -0.961
REMARK SMILES OCC1=C[C@@H](O)[C@@H]2C=CO[C@H](O[C@H]3O[C@H](CO)[C@H](O)[C@@H](O)[C@@H]3O)[C@H]12
REMARK SMILES IDX 12 1 11 2 8 3 9 4 7 5 10 6 24 7 5 8 3 9 4 10 6 11 2 13 1 14
REMARK SMILES IDX 13 16 22 17 14 18 20 19 15 20 18 21 23 22 21 24 16 26 17 27
REMARK SMILES IDX 19 29
REMARK H PARENT 6 12 1 15 23 23 21 25 17 28 19 30
REMARK Flexibility Score: inf
ROOT
ATOM      1  O   UNL     1      71.643   0.771   0.350  1.00  0.00    -0.310 OA
ENDROOT
BRANCH   1   2
ATOM      2  C   UNL     1      72.108   2.082   0.081  1.00  0.00     0.316 C 
ATOM      3  C   UNL     1      73.947   1.225  -1.916  1.00  0.00     0.018 C 
ATOM      4  C   UNL     1      74.376   1.511  -0.687  1.00  0.00     0.186 C 
ATOM      5  C   UNL     1      72.599   1.696  -2.409  1.00  0.00     0.061 C 
ATOM      6  O   UNL     1      73.527   2.127   0.238  1.00  0.00    -0.472 OA
ATOM      7  C   UNL     1      71.760   2.480  -1.371  1.00  0.00     0.096 C 
ATOM      8  C   UNL     1      71.688   0.543  -2.865  1.00  0.00     0.145 C 
ATOM      9  C   UNL     1      70.357   2.105  -1.740  1.00  0.00    -0.036 C 
ATOM     10  C   UNL     1      70.322   1.055  -2.554  1.00  0.00     0.007 C 
BRANCH   8  11
ATOM     11  O   UNL     1      71.810   0.308  -4.240  1.00  0.00    -0.388 OA
ATOM     12  H   UNL     1      71.646   1.181  -4.687  1.00  0.00     0.211 HD
ENDBRANCH   8  11
BRANCH   9  13
ATOM     13  C   UNL     1      69.141   2.887  -1.331  1.00  0.00     0.187 C 
BRANCH  13  14
ATOM     14  O   UNL     1      68.202   2.043  -0.729  1.00  0.00    -0.392 OA
ATOM     15  H   UNL     1      67.388   2.596  -0.584  1.00  0.00     0.211 HD
ENDBRANCH  13  14
ENDBRANCH   9  13
ENDBRANCH   1   2
BRANCH   1  16
ATOM     16  C   UNL     1      71.992   0.358   1.663  1.00  0.00     0.286 C 
ATOM     17  C   UNL     1      70.902  -0.581   2.232  1.00  0.00     0.202 C 
ATOM     18  O   UNL     1      72.223   1.469   2.517  1.00  0.00    -0.341 OA
ATOM     19  C   UNL     1      69.624   0.178   2.660  1.00  0.00     0.179 C 
ATOM     20  C   UNL     1      71.064   2.272   2.650  1.00  0.00     0.178 C 
ATOM     21  C   UNL     1      69.944   1.503   3.387  1.00  0.00     0.177 C 
BRANCH  17  22
ATOM     22  O   UNL     1      71.404  -1.344   3.303  1.00  0.00    -0.385 OA
ATOM     23  H   UNL     1      71.618  -2.251   2.959  1.00  0.00     0.211 HD
ENDBRANCH  17  22
BRANCH  19  24
ATOM     24  O   UNL     1      68.766   0.389   1.562  1.00  0.00    -0.387 OA
ATOM     25  H   UNL     1      68.844   1.336   1.278  1.00  0.00     0.211 HD
ENDBRANCH  19  24
BRANCH  20  26
ATOM     26  C   UNL     1      71.448   3.560   3.390  1.00  0.00     0.191 C 
BRANCH  26  27
ATOM     27  O   UNL     1      70.375   4.021   4.166  1.00  0.00    -0.394 OA
ATOM     28  H   UNL     1      70.753   4.337   5.030  1.00  0.00     0.210 HD
ENDBRANCH  26  27
ENDBRANCH  20  26
BRANCH  21  29
ATOM     29  O   UNL     1      70.339   1.235   4.709  1.00  0.00    -0.387 OA
ATOM     30  H   UNL     1      71.261   1.587   4.811  1.00  0.00     0.211 HD
ENDBRANCH  21  29
ENDBRANCH   1  16
TORSDOF 10
ENDMDL
