MODEL 1
REMARK VINA RESULT:    -6.331      0.000      0.000
REMARK INTER + INTRA:          -7.850
REMARK INTER:                  -7.626
REMARK INTRA:                  -0.224
REMARK UNBOUND:                -0.224
REMARK SMILES O=c1c(O)c(-c2ccc(O)c(O)c2)oc2cc(O)cc(O)c12
REMARK SMILES IDX 5 1 3 2 2 3 1 4 22 5 20 6 19 7 17 8 16 9 15 10 14 11 6 12
REMARK SMILES IDX 7 13 8 14 9 15 13 16 11 17 10 18 12 20 4 22 21 24 18 26
REMARK H PARENT 10 19 12 21 4 23 21 25 18 27
REMARK Flexibility Score: inf
ROOT
ATOM      1  C   UNL     1      15.270  15.581  13.484  1.00  0.00     0.180 A 
ATOM      2  C   UNL     1      15.405  16.812  12.819  1.00  0.00     0.208 A 
ATOM      3  C   UNL     1      14.667  17.037  11.646  1.00  0.00     0.238 A 
ATOM      4  O   UNL     1      14.833  18.119  11.026  1.00  0.00    -0.285 OA
ATOM      5  C   UNL     1      13.792  16.035  11.162  1.00  0.00     0.111 A 
ATOM      6  C   UNL     1      12.966  16.171  10.005  1.00  0.00     0.134 A 
ATOM      7  C   UNL     1      12.237  15.067   9.544  1.00  0.00     0.093 A 
ATOM      8  C   UNL     1      12.253  13.855  10.232  1.00  0.00     0.123 A 
ATOM      9  C   UNL     1      13.010  13.730  11.397  1.00  0.00     0.094 A 
ATOM     10  C   UNL     1      13.776  14.801  11.862  1.00  0.00     0.146 A 
ATOM     11  O   UNL     1      14.491  14.637  12.969  1.00  0.00    -0.452 OA
ENDROOT
BRANCH   1  12
ATOM     12  C   UNL     1      15.996  15.280  14.739  1.00  0.00     0.025 A 
ATOM     13  C   UNL     1      15.694  15.949  15.938  1.00  0.00     0.016 A 
ATOM     14  C   UNL     1      16.374  15.631  17.115  1.00  0.00     0.051 A 
ATOM     15  C   UNL     1      17.355  14.635  17.120  1.00  0.00     0.157 A 
ATOM     16  C   UNL     1      16.966  14.264  14.751  1.00  0.00     0.062 A 
ATOM     17  C   UNL     1      17.651  13.944  15.932  1.00  0.00     0.158 A 
BRANCH  15  18
ATOM     18  O   UNL     1      18.019  14.341  18.310  1.00  0.00    -0.504 OA
ATOM     19  H   UNL     1      18.822  13.723  18.340  1.00  0.00     0.293 HD
ENDBRANCH  15  18
BRANCH  17  20
ATOM     20  O   UNL     1      18.622  12.944  15.929  1.00  0.00    -0.504 OA
ATOM     21  H   UNL     1      18.694  12.276  15.171  1.00  0.00     0.293 HD
ENDBRANCH  17  20
ENDBRANCH   1  12
BRANCH   2  22
ATOM     22  O   UNL     1      16.291  17.779  13.302  1.00  0.00    -0.502 OA
ATOM     23  H   UNL     1      17.288  17.615  13.378  1.00  0.00     0.293 HD
ENDBRANCH   2  22
BRANCH   6  24
ATOM     24  O   UNL     1      12.806  17.364   9.296  1.00  0.00    -0.507 OA
ATOM     25  H   UNL     1      13.564  17.952   8.982  1.00  0.00     0.293 HD
ENDBRANCH   6  24
BRANCH   8  26
ATOM     26  O   UNL     1      11.503  12.782   9.752  1.00  0.00    -0.508 OA
ATOM     27  H   UNL     1      11.859  11.835   9.777  1.00  0.00     0.293 HD
ENDBRANCH   8  26
TORSDOF 6
ENDMDL
MODEL 2
REMARK VINA RESULT:    -6.285      1.603      1.649
REMARK INTER + INTRA:          -7.795
REMARK INTER:                  -7.735
REMARK INTRA:                  -0.060
REMARK UNBOUND:                -0.224
REMARK SMILES O=c1c(O)c(-c2ccc(O)c(O)c2)oc2cc(O)cc(O)c12
REMARK SMILES IDX 5 1 3 2 2 3 1 4 22 5 20 6 19 7 17 8 16 9 15 10 14 11 6 12
REMARK SMILES IDX 7 13 8 14 9 15 13 16 11 17 10 18 12 20 4 22 21 24 18 26
REMARK H PARENT 10 19 12 21 4 23 21 25 18 27
REMARK Flexibility Score: inf
ROOT
ATOM      1  C   UNL     1      15.769  15.808  13.327  1.00  0.00     0.180 A 
ATOM      2  C   UNL     1      16.579  16.258  12.270  1.00  0.00     0.208 A 
ATOM      3  C   UNL     1      15.969  16.716  11.091  1.00  0.00     0.238 A 
ATOM      4  O   UNL     1      16.700  17.065  10.129  1.00  0.00    -0.285 OA
ATOM      5  C   UNL     1      14.556  16.734  10.991  1.00  0.00     0.111 A 
ATOM      6  C   UNL     1      13.832  17.214   9.858  1.00  0.00     0.134 A 
ATOM      7  C   UNL     1      12.440  17.064   9.816  1.00  0.00     0.093 A 
ATOM      8  C   UNL     1      11.741  16.510  10.888  1.00  0.00     0.123 A 
ATOM      9  C   UNL     1      12.435  16.093  12.024  1.00  0.00     0.094 A 
ATOM     10  C   UNL     1      13.827  16.196  12.082  1.00  0.00     0.146 A 
ATOM     11  O   UNL     1      14.449  15.777  13.177  1.00  0.00    -0.452 OA
ENDROOT
BRANCH   1  12
ATOM     12  C   UNL     1      16.338  15.335  14.609  1.00  0.00     0.025 A 
ATOM     13  C   UNL     1      15.958  15.909  15.835  1.00  0.00     0.016 A 
ATOM     14  C   UNL     1      16.489  15.429  17.034  1.00  0.00     0.051 A 
ATOM     15  C   UNL     1      17.395  14.365  17.032  1.00  0.00     0.157 A 
ATOM     16  C   UNL     1      17.231  14.251  14.612  1.00  0.00     0.062 A 
ATOM     17  C   UNL     1      17.766  13.769  15.815  1.00  0.00     0.158 A 
BRANCH  15  18
ATOM     18  O   UNL     1      17.910  13.909  18.245  1.00  0.00    -0.504 OA
ATOM     19  H   UNL     1      17.441  14.081  19.128  1.00  0.00     0.293 HD
ENDBRANCH  15  18
BRANCH  17  20
ATOM     20  O   UNL     1      18.663  12.702  15.805  1.00  0.00    -0.504 OA
ATOM     21  H   UNL     1      18.377  11.766  16.068  1.00  0.00     0.293 HD
ENDBRANCH  17  20
ENDBRANCH   1  12
BRANCH   2  22
ATOM     22  O   UNL     1      17.971  16.211  12.382  1.00  0.00    -0.502 OA
ATOM     23  H   UNL     1      18.581  16.150  11.575  1.00  0.00     0.293 HD
ENDBRANCH   2  22
BRANCH   6  24
ATOM     24  O   UNL     1      14.422  17.866   8.773  1.00  0.00    -0.507 OA
ATOM     25  H   UNL     1      15.012  18.681   8.844  1.00  0.00     0.293 HD
ENDBRANCH   6  24
BRANCH   8  26
ATOM     26  O   UNL     1      10.355  16.390  10.817  1.00  0.00    -0.508 OA
ATOM     27  H   UNL     1       9.853  15.711  11.376  1.00  0.00     0.293 HD
ENDBRANCH   8  26
TORSDOF 6
ENDMDL
MODEL 3
REMARK VINA RESULT:    -6.250      3.466      8.316
REMARK INTER + INTRA:          -7.753
REMARK INTER:                  -7.483
REMARK INTRA:                  -0.270
REMARK UNBOUND:                -0.224
REMARK SMILES O=c1c(O)c(-c2ccc(O)c(O)c2)oc2cc(O)cc(O)c12
REMARK SMILES IDX 5 1 3 2 2 3 1 4 22 5 20 6 19 7 17 8 16 9 15 10 14 11 6 12
REMARK SMILES IDX 7 13 8 14 9 15 13 16 11 17 10 18 12 20 4 22 21 24 18 26
REMARK H PARENT 10 19 12 21 4 23 21 25 18 27
REMARK Flexibility Score: inf
ROOT
ATOM      1  C   UNL     1      17.133  13.512  17.378  1.00  0.00     0.180 A 
ATOM      2  C   UNL     1      17.956  13.910  18.445  1.00  0.00     0.208 A 
ATOM      3  C   UNL     1      18.151  13.029  19.521  1.00  0.00     0.238 A 
ATOM      4  O   UNL     1      18.845  13.413  20.498  1.00  0.00    -0.285 OA
ATOM      5  C   UNL     1      17.536  11.754  19.507  1.00  0.00     0.111 A 
ATOM      6  C   UNL     1      17.697  10.766  20.525  1.00  0.00     0.134 A 
ATOM      7  C   UNL     1      16.937   9.591  20.472  1.00  0.00     0.093 A 
ATOM      8  C   UNL     1      16.072   9.339  19.408  1.00  0.00     0.123 A 
ATOM      9  C   UNL     1      15.952  10.272  18.378  1.00  0.00     0.094 A 
ATOM     10  C   UNL     1      16.669  11.470  18.420  1.00  0.00     0.146 A 
ATOM     11  O   UNL     1      16.518  12.335  17.425  1.00  0.00    -0.452 OA
ENDROOT
BRANCH   1  12
ATOM     12  C   UNL     1      16.899  14.375  16.198  1.00  0.00     0.025 A 
ATOM     13  C   UNL     1      17.519  14.113  14.964  1.00  0.00     0.016 A 
ATOM     14  C   UNL     1      17.265  14.927  13.858  1.00  0.00     0.051 A 
ATOM     15  C   UNL     1      16.381  16.005  13.960  1.00  0.00     0.157 A 
ATOM     16  C   UNL     1      15.995  15.446  16.292  1.00  0.00     0.062 A 
ATOM     17  C   UNL     1      15.739  16.264  15.183  1.00  0.00     0.158 A 
BRANCH  15  18
ATOM     18  O   UNL     1      16.148  16.800  12.839  1.00  0.00    -0.504 OA
ATOM     19  H   UNL     1      16.699  17.628  12.642  1.00  0.00     0.293 HD
ENDBRANCH  15  18
BRANCH  17  20
ATOM     20  O   UNL     1      14.850  17.333  15.291  1.00  0.00    -0.504 OA
ATOM     21  H   UNL     1      13.960  17.334  14.806  1.00  0.00     0.293 HD
ENDBRANCH  17  20
ENDBRANCH   1  12
BRANCH   2  22
ATOM     22  O   UNL     1      18.537  15.182  18.449  1.00  0.00    -0.502 OA
ATOM     23  H   UNL     1      18.065  15.995  18.826  1.00  0.00     0.293 HD
ENDBRANCH   2  22
BRANCH   6  24
ATOM     24  O   UNL     1      18.603  10.876  21.583  1.00  0.00    -0.507 OA
ATOM     25  H   UNL     1      18.545  11.564  22.319  1.00  0.00     0.293 HD
ENDBRANCH   6  24
BRANCH   8  26
ATOM     26  O   UNL     1      15.343   8.152  19.381  1.00  0.00    -0.508 OA
ATOM     27  H   UNL     1      14.622   7.957  20.065  1.00  0.00     0.293 HD
ENDBRANCH   8  26
TORSDOF 6
ENDMDL
MODEL 4
REMARK VINA RESULT:    -6.227      1.901      7.104
REMARK INTER + INTRA:          -7.726
REMARK INTER:                  -7.455
REMARK INTRA:                  -0.271
REMARK UNBOUND:                -0.224
REMARK SMILES O=c1c(O)c(-c2ccc(O)c(O)c2)oc2cc(O)cc(O)c12
REMARK SMILES IDX 5 1 3 2 2 3 1 4 22 5 20 6 19 7 17 8 16 9 15 10 14 11 6 12
REMARK SMILES IDX 7 13 8 14 9 15 13 16 11 17 10 18 12 20 4 22 21 24 18 26
REMARK H PARENT 10 19 12 21 4 23 21 25 18 27
REMARK Flexibility Score: inf
ROOT
ATOM      1  C   UNL     1      15.921  15.545  11.848  1.00  0.00     0.180 A 
ATOM      2  C   UNL     1      16.994  14.664  11.629  1.00  0.00     0.208 A 
ATOM      3  C   UNL     1      17.674  14.130  12.735  1.00  0.00     0.238 A 
ATOM      4  O   UNL     1      18.668  13.385  12.531  1.00  0.00    -0.285 OA
ATOM      5  C   UNL     1      17.263  14.471  14.046  1.00  0.00     0.111 A 
ATOM      6  C   UNL     1      17.855  13.957  15.239  1.00  0.00     0.134 A 
ATOM      7  C   UNL     1      17.453  14.464  16.482  1.00  0.00     0.093 A 
ATOM      8  C   UNL     1      16.439  15.415  16.579  1.00  0.00     0.123 A 
ATOM      9  C   UNL     1      15.812  15.880  15.421  1.00  0.00     0.094 A 
ATOM     10  C   UNL     1      16.215  15.421  14.165  1.00  0.00     0.146 A 
ATOM     11  O   UNL     1      15.601  15.897  13.089  1.00  0.00    -0.452 OA
ENDROOT
BRANCH   1  12
ATOM     12  C   UNL     1      15.140  16.129  10.734  1.00  0.00     0.025 A 
ATOM     13  C   UNL     1      15.653  17.178   9.951  1.00  0.00     0.016 A 
ATOM     14  C   UNL     1      14.909  17.697   8.889  1.00  0.00     0.051 A 
ATOM     15  C   UNL     1      13.650  17.172   8.584  1.00  0.00     0.157 A 
ATOM     16  C   UNL     1      13.884  15.589  10.411  1.00  0.00     0.062 A 
ATOM     17  C   UNL     1      13.135  16.110   9.347  1.00  0.00     0.158 A 
BRANCH  15  18
ATOM     18  O   UNL     1      12.929  17.712   7.519  1.00  0.00    -0.504 OA
ATOM     19  H   UNL     1      11.923  17.830   7.555  1.00  0.00     0.293 HD
ENDBRANCH  15  18
BRANCH  17  20
ATOM     20  O   UNL     1      11.883  15.576   9.044  1.00  0.00    -0.504 OA
ATOM     21  H   UNL     1      11.749  14.580   8.912  1.00  0.00     0.293 HD
ENDBRANCH  17  20
ENDBRANCH   1  12
BRANCH   2  22
ATOM     22  O   UNL     1      17.397  14.359  10.326  1.00  0.00    -0.502 OA
ATOM     23  H   UNL     1      17.506  15.066   9.609  1.00  0.00     0.293 HD
ENDBRANCH   2  22
BRANCH   6  24
ATOM     24  O   UNL     1      18.812  12.939  15.260  1.00  0.00    -0.507 OA
ATOM     25  H   UNL     1      19.670  12.968  15.791  1.00  0.00     0.293 HD
ENDBRANCH   6  24
BRANCH   8  26
ATOM     26  O   UNL     1      16.054  15.886  17.832  1.00  0.00    -0.508 OA
ATOM     27  H   UNL     1      15.109  16.204  18.012  1.00  0.00     0.293 HD
ENDBRANCH   8  26
TORSDOF 6
ENDMDL
MODEL 5
REMARK VINA RESULT:    -6.186      2.258      2.807
REMARK INTER + INTRA:          -7.676
REMARK INTER:                  -7.568
REMARK INTRA:                  -0.108
REMARK UNBOUND:                -0.224
REMARK SMILES O=c1c(O)c(-c2ccc(O)c(O)c2)oc2cc(O)cc(O)c12
REMARK SMILES IDX 5 1 3 2 2 3 1 4 22 5 20 6 19 7 17 8 16 9 15 10 14 11 6 12
REMARK SMILES IDX 7 13 8 14 9 15 13 16 11 17 10 18 12 20 4 22 21 24 18 26
REMARK H PARENT 10 19 12 21 4 23 21 25 18 27
REMARK Flexibility Score: inf
ROOT
ATOM      1  C   UNL     1      15.450  15.117  11.706  1.00  0.00     0.180 A 
ATOM      2  C   UNL     1      15.782  15.558  10.414  1.00  0.00     0.208 A 
ATOM      3  C   UNL     1      14.802  16.201   9.640  1.00  0.00     0.238 A 
ATOM      4  O   UNL     1      15.090  16.545   8.464  1.00  0.00    -0.285 OA
ATOM      5  C   UNL     1      13.508  16.409  10.175  1.00  0.00     0.111 A 
ATOM      6  C   UNL     1      12.450  17.084   9.494  1.00  0.00     0.134 A 
ATOM      7  C   UNL     1      11.172  17.117  10.067  1.00  0.00     0.093 A 
ATOM      8  C   UNL     1      10.929  16.558  11.320  1.00  0.00     0.123 A 
ATOM      9  C   UNL     1      11.971  15.948  12.020  1.00  0.00     0.094 A 
ATOM     10  C   UNL     1      13.248  15.867  11.460  1.00  0.00     0.146 A 
ATOM     11  O   UNL     1      14.208  15.268  12.154  1.00  0.00    -0.452 OA
ENDROOT
BRANCH   1  12
ATOM     12  C   UNL     1      16.435  14.453  12.590  1.00  0.00     0.025 A 
ATOM     13  C   UNL     1      16.772  14.992  13.843  1.00  0.00     0.016 A 
ATOM     14  C   UNL     1      17.686  14.336  14.671  1.00  0.00     0.051 A 
ATOM     15  C   UNL     1      18.268  13.130  14.269  1.00  0.00     0.157 A 
ATOM     16  C   UNL     1      17.004  13.230  12.197  1.00  0.00     0.062 A 
ATOM     17  C   UNL     1      17.922  12.571  13.027  1.00  0.00     0.158 A 
BRANCH  15  18
ATOM     18  O   UNL     1      19.178  12.499  15.116  1.00  0.00    -0.504 OA
ATOM     19  H   UNL     1      20.023  12.958  15.435  1.00  0.00     0.293 HD
ENDBRANCH  15  18
BRANCH  17  20
ATOM     20  O   UNL     1      18.491  11.364  12.622  1.00  0.00    -0.504 OA
ATOM     21  H   UNL     1      19.418  11.325  12.214  1.00  0.00     0.293 HD
ENDBRANCH  17  20
ENDBRANCH   1  12
BRANCH   2  22
ATOM     22  O   UNL     1      17.060  15.323   9.897  1.00  0.00    -0.502 OA
ATOM     23  H   UNL     1      17.852  15.098  10.486  1.00  0.00     0.293 HD
ENDBRANCH   2  22
BRANCH   6  24
ATOM     24  O   UNL     1      12.607  17.757   8.280  1.00  0.00    -0.507 OA
ATOM     25  H   UNL     1      11.850  18.023   7.668  1.00  0.00     0.293 HD
ENDBRANCH   6  24
BRANCH   8  26
ATOM     26  O   UNL     1       9.649  16.623  11.866  1.00  0.00    -0.508 OA
ATOM     27  H   UNL     1       9.497  16.894  12.830  1.00  0.00     0.293 HD
ENDBRANCH   8  26
TORSDOF 6
ENDMDL
MODEL 6
REMARK VINA RESULT:    -6.109      2.213      7.239
REMARK INTER + INTRA:          -7.584
REMARK INTER:                  -7.262
REMARK INTRA:                  -0.322
REMARK UNBOUND:                -0.224
REMARK SMILES O=c1c(O)c(-c2ccc(O)c(O)c2)oc2cc(O)cc(O)c12
REMARK SMILES IDX 5 1 3 2 2 3 1 4 22 5 20 6 19 7 17 8 16 9 15 10 14 11 6 12
REMARK SMILES IDX 7 13 8 14 9 15 13 16 11 17 10 18 12 20 4 22 21 24 18 26
REMARK H PARENT 10 19 12 21 4 23 21 25 18 27
REMARK Flexibility Score: inf
ROOT
ATOM      1  C   UNL     1      13.901  14.038  12.299  1.00  0.00     0.180 A 
ATOM      2  C   UNL     1      13.771  12.658  12.069  1.00  0.00     0.208 A 
ATOM      3  C   UNL     1      14.539  11.763  12.832  1.00  0.00     0.238 A 
ATOM      4  O   UNL     1      14.459  10.533  12.582  1.00  0.00    -0.285 OA
ATOM      5  C   UNL     1      15.415  12.260  13.827  1.00  0.00     0.111 A 
ATOM      6  C   UNL     1      16.211  11.443  14.686  1.00  0.00     0.134 A 
ATOM      7  C   UNL     1      17.138  12.045  15.546  1.00  0.00     0.093 A 
ATOM      8  C   UNL     1      17.254  13.432  15.625  1.00  0.00     0.123 A 
ATOM      9  C   UNL     1      16.438  14.240  14.832  1.00  0.00     0.094 A 
ATOM     10  C   UNL     1      15.529  13.670  13.939  1.00  0.00     0.146 A 
ATOM     11  O   UNL     1      14.780  14.475  13.195  1.00  0.00    -0.452 OA
ENDROOT
BRANCH   1  12
ATOM     12  C   UNL     1      13.108  15.040  11.553  1.00  0.00     0.025 A 
ATOM     13  C   UNL     1      13.552  15.558  10.324  1.00  0.00     0.016 A 
ATOM     14  C   UNL     1      12.776  16.485   9.625  1.00  0.00     0.051 A 
ATOM     15  C   UNL     1      11.541  16.900  10.132  1.00  0.00     0.157 A 
ATOM     16  C   UNL     1      11.857  15.442  12.049  1.00  0.00     0.062 A 
ATOM     17  C   UNL     1      11.076  16.373  11.349  1.00  0.00     0.158 A 
BRANCH  15  18
ATOM     18  O   UNL     1      10.788  17.827   9.413  1.00  0.00    -0.504 OA
ATOM     19  H   UNL     1      10.890  18.826   9.551  1.00  0.00     0.293 HD
ENDBRANCH  15  18
BRANCH  17  20
ATOM     20  O   UNL     1       9.842  16.775  11.858  1.00  0.00    -0.504 OA
ATOM     21  H   UNL     1       9.767  17.271  12.739  1.00  0.00     0.293 HD
ENDBRANCH  17  20
ENDBRANCH   1  12
BRANCH   2  22
ATOM     22  O   UNL     1      12.917  12.190  11.066  1.00  0.00    -0.502 OA
ATOM     23  H   UNL     1      11.915  12.332  11.094  1.00  0.00     0.293 HD
ENDBRANCH   2  22
BRANCH   6  24
ATOM     24  O   UNL     1      16.109  10.051  14.753  1.00  0.00    -0.507 OA
ATOM     25  H   UNL     1      16.765   9.449  15.228  1.00  0.00     0.293 HD
ENDBRANCH   6  24
BRANCH   8  26
ATOM     26  O   UNL     1      18.177  13.996  16.502  1.00  0.00    -0.508 OA
ATOM     27  H   UNL     1      19.172  13.836  16.400  1.00  0.00     0.293 HD
ENDBRANCH   8  26
TORSDOF 6
ENDMDL
MODEL 7
REMARK VINA RESULT:    -6.028      2.399      6.550
REMARK INTER + INTRA:          -7.486
REMARK INTER:                  -7.285
REMARK INTRA:                  -0.201
REMARK UNBOUND:                -0.224
REMARK SMILES O=c1c(O)c(-c2ccc(O)c(O)c2)oc2cc(O)cc(O)c12
REMARK SMILES IDX 5 1 3 2 2 3 1 4 22 5 20 6 19 7 17 8 16 9 15 10 14 11 6 12
REMARK SMILES IDX 7 13 8 14 9 15 13 16 11 17 10 18 12 20 4 22 21 24 18 26
REMARK H PARENT 10 19 12 21 4 23 21 25 18 27
REMARK Flexibility Score: inf
ROOT
ATOM      1  C   UNL     1      14.675  15.153  12.231  1.00  0.00     0.180 A 
ATOM      2  C   UNL     1      15.223  15.675  13.415  1.00  0.00     0.208 A 
ATOM      3  C   UNL     1      16.245  14.964  14.065  1.00  0.00     0.238 A 
ATOM      4  O   UNL     1      16.693  15.410  15.153  1.00  0.00    -0.285 OA
ATOM      5  C   UNL     1      16.718  13.750  13.512  1.00  0.00     0.111 A 
ATOM      6  C   UNL     1      17.778  12.968  14.065  1.00  0.00     0.134 A 
ATOM      7  C   UNL     1      18.075  11.718  13.508  1.00  0.00     0.093 A 
ATOM      8  C   UNL     1      17.397  11.250  12.382  1.00  0.00     0.123 A 
ATOM      9  C   UNL     1      16.401  12.034  11.799  1.00  0.00     0.094 A 
ATOM     10  C   UNL     1      16.057  13.269  12.353  1.00  0.00     0.146 A 
ATOM     11  O   UNL     1      15.096  13.979  11.774  1.00  0.00    -0.452 OA
ENDROOT
BRANCH   1  12
ATOM     12  C   UNL     1      13.613  15.856  11.477  1.00  0.00     0.025 A 
ATOM     13  C   UNL     1      13.857  16.401  10.204  1.00  0.00     0.016 A 
ATOM     14  C   UNL     1      12.833  17.039   9.500  1.00  0.00     0.051 A 
ATOM     15  C   UNL     1      11.549  17.132  10.047  1.00  0.00     0.157 A 
ATOM     16  C   UNL     1      12.317  15.932  12.014  1.00  0.00     0.062 A 
ATOM     17  C   UNL     1      11.288  16.573  11.309  1.00  0.00     0.158 A 
BRANCH  15  18
ATOM     18  O   UNL     1      10.548  17.776   9.321  1.00  0.00    -0.504 OA
ATOM     19  H   UNL     1       9.688  17.308   9.058  1.00  0.00     0.293 HD
ENDBRANCH  15  18
BRANCH  17  20
ATOM     20  O   UNL     1      10.009  16.655  11.858  1.00  0.00    -0.504 OA
ATOM     21  H   UNL     1       9.794  16.257  12.764  1.00  0.00     0.293 HD
ENDBRANCH  17  20
ENDBRANCH   1  12
BRANCH   2  22
ATOM     22  O   UNL     1      14.726  16.865  13.955  1.00  0.00    -0.502 OA
ATOM     23  H   UNL     1      15.324  17.647  14.193  1.00  0.00     0.293 HD
ENDBRANCH   2  22
BRANCH   6  24
ATOM     24  O   UNL     1      18.579  13.382  15.132  1.00  0.00    -0.507 OA
ATOM     25  H   UNL     1      18.339  14.119  15.779  1.00  0.00     0.293 HD
ENDBRANCH   6  24
BRANCH   8  26
ATOM     26  O   UNL     1      17.730  10.009  11.846  1.00  0.00    -0.508 OA
ATOM     27  H   UNL     1      17.698   9.837  10.848  1.00  0.00     0.293 HD
ENDBRANCH   8  26
TORSDOF 6
ENDMDL
MODEL 8
REMARK VINA RESULT:    -6.028      2.672      3.429
REMARK INTER + INTRA:          -7.486
REMARK INTER:                  -7.184
REMARK INTRA:                  -0.302
REMARK UNBOUND:                -0.224
REMARK SMILES O=c1c(O)c(-c2ccc(O)c(O)c2)oc2cc(O)cc(O)c12
REMARK SMILES IDX 5 1 3 2 2 3 1 4 22 5 20 6 19 7 17 8 16 9 15 10 14 11 6 12
REMARK SMILES IDX 7 13 8 14 9 15 13 16 11 17 10 18 12 20 4 22 21 24 18 26
REMARK H PARENT 10 19 12 21 4 23 21 25 18 27
REMARK Flexibility Score: inf
ROOT
ATOM      1  C   UNL     1      16.337  15.477  12.018  1.00  0.00     0.180 A 
ATOM      2  C   UNL     1      17.599  15.750  11.463  1.00  0.00     0.208 A 
ATOM      3  C   UNL     1      17.670  16.316  10.180  1.00  0.00     0.238 A 
ATOM      4  O   UNL     1      18.803  16.508   9.667  1.00  0.00    -0.285 OA
ATOM      5  C   UNL     1      16.479  16.618   9.477  1.00  0.00     0.111 A 
ATOM      6  C   UNL     1      16.434  17.230   8.187  1.00  0.00     0.134 A 
ATOM      7  C   UNL     1      15.204  17.363   7.530  1.00  0.00     0.093 A 
ATOM      8  C   UNL     1      14.015  16.966   8.139  1.00  0.00     0.123 A 
ATOM      9  C   UNL     1      14.043  16.421   9.423  1.00  0.00     0.094 A 
ATOM     10  C   UNL     1      15.257  16.243  10.091  1.00  0.00     0.146 A 
ATOM     11  O   UNL     1      15.240  15.711  11.307  1.00  0.00    -0.452 OA
ENDROOT
BRANCH   1  12
ATOM     12  C   UNL     1      16.180  14.903  13.375  1.00  0.00     0.025 A 
ATOM     13  C   UNL     1      16.306  13.522  13.604  1.00  0.00     0.016 A 
ATOM     14  C   UNL     1      16.178  13.006  14.896  1.00  0.00     0.051 A 
ATOM     15  C   UNL     1      15.936  13.858  15.978  1.00  0.00     0.157 A 
ATOM     16  C   UNL     1      15.960  15.759  14.467  1.00  0.00     0.062 A 
ATOM     17  C   UNL     1      15.830  15.242  15.764  1.00  0.00     0.158 A 
BRANCH  15  18
ATOM     18  O   UNL     1      15.812  13.313  17.255  1.00  0.00    -0.504 OA
ATOM     19  H   UNL     1      14.911  13.071  17.652  1.00  0.00     0.293 HD
ENDBRANCH  15  18
BRANCH  17  20
ATOM     20  O   UNL     1      15.597  16.099  16.839  1.00  0.00    -0.504 OA
ATOM     21  H   UNL     1      15.008  15.826  17.617  1.00  0.00     0.293 HD
ENDBRANCH  17  20
ENDBRANCH   1  12
BRANCH   2  22
ATOM     22  O   UNL     1      18.762  15.424  12.166  1.00  0.00    -0.502 OA
ATOM     23  H   UNL     1      18.747  15.114  13.130  1.00  0.00     0.293 HD
ENDBRANCH   2  22
BRANCH   6  24
ATOM     24  O   UNL     1      17.553  17.746   7.528  1.00  0.00    -0.507 OA
ATOM     25  H   UNL     1      18.456  17.888   7.954  1.00  0.00     0.293 HD
ENDBRANCH   6  24
BRANCH   8  26
ATOM     26  O   UNL     1      12.808  17.127   7.461  1.00  0.00    -0.508 OA
ATOM     27  H   UNL     1      11.918  17.017   7.932  1.00  0.00     0.293 HD
ENDBRANCH   8  26
TORSDOF 6
ENDMDL
MODEL 9
REMARK VINA RESULT:    -5.926      3.263      4.741
REMARK INTER + INTRA:          -7.363
REMARK INTER:                  -7.029
REMARK INTRA:                  -0.334
REMARK UNBOUND:                -0.224
REMARK SMILES O=c1c(O)c(-c2ccc(O)c(O)c2)oc2cc(O)cc(O)c12
REMARK SMILES IDX 5 1 3 2 2 3 1 4 22 5 20 6 19 7 17 8 16 9 15 10 14 11 6 12
REMARK SMILES IDX 7 13 8 14 9 15 13 16 11 17 10 18 12 20 4 22 21 24 18 26
REMARK H PARENT 10 19 12 21 4 23 21 25 18 27
REMARK Flexibility Score: inf
ROOT
ATOM      1  C   UNL     1      13.851  13.831  11.054  1.00  0.00     0.180 A 
ATOM      2  C   UNL     1      12.632  14.512  10.897  1.00  0.00     0.208 A 
ATOM      3  C   UNL     1      12.573  15.612  10.026  1.00  0.00     0.238 A 
ATOM      4  O   UNL     1      11.493  16.251   9.932  1.00  0.00    -0.285 OA
ATOM      5  C   UNL     1      13.729  16.005   9.310  1.00  0.00     0.111 A 
ATOM      6  C   UNL     1      13.773  17.079   8.370  1.00  0.00     0.134 A 
ATOM      7  C   UNL     1      15.002  17.463   7.818  1.00  0.00     0.093 A 
ATOM      8  C   UNL     1      16.175  16.773   8.121  1.00  0.00     0.123 A 
ATOM      9  C   UNL     1      16.132  15.684   8.992  1.00  0.00     0.094 A 
ATOM     10  C   UNL     1      14.928  15.299   9.587  1.00  0.00     0.146 A 
ATOM     11  O   UNL     1      14.933  14.265  10.418  1.00  0.00    -0.452 OA
ENDROOT
BRANCH   1  12
ATOM     12  C   UNL     1      13.985  12.649  11.936  1.00  0.00     0.025 A 
ATOM     13  C   UNL     1      13.714  11.352  11.467  1.00  0.00     0.016 A 
ATOM     14  C   UNL     1      13.872  10.248  12.309  1.00  0.00     0.051 A 
ATOM     15  C   UNL     1      14.312  10.419  13.625  1.00  0.00     0.157 A 
ATOM     16  C   UNL     1      14.448  12.815  13.251  1.00  0.00     0.062 A 
ATOM     17  C   UNL     1      14.606  11.709  14.098  1.00  0.00     0.158 A 
BRANCH  15  18
ATOM     18  O   UNL     1      14.458   9.299  14.442  1.00  0.00    -0.504 OA
ATOM     19  H   UNL     1      14.872   9.357  15.365  1.00  0.00     0.293 HD
ENDBRANCH  15  18
BRANCH  17  20
ATOM     20  O   UNL     1      15.053  11.887  15.407  1.00  0.00    -0.504 OA
ATOM     21  H   UNL     1      14.782  11.254  16.151  1.00  0.00     0.293 HD
ENDBRANCH  17  20
ENDBRANCH   1  12
BRANCH   2  22
ATOM     22  O   UNL     1      11.508  14.121  11.631  1.00  0.00    -0.502 OA
ATOM     23  H   UNL     1      10.569  14.414  11.387  1.00  0.00     0.293 HD
ENDBRANCH   2  22
BRANCH   6  24
ATOM     24  O   UNL     1      12.646  17.776   7.928  1.00  0.00    -0.507 OA
ATOM     25  H   UNL     1      11.735  17.731   8.361  1.00  0.00     0.293 HD
ENDBRANCH   6  24
BRANCH   8  26
ATOM     26  O   UNL     1      17.377  17.173   7.541  1.00  0.00    -0.508 OA
ATOM     27  H   UNL     1      17.653  18.147   7.513  1.00  0.00     0.293 HD
ENDBRANCH   8  26
TORSDOF 6
ENDMDL
