MODEL 1
REMARK VINA RESULT:    -5.336      0.000      0.000
REMARK INTER + INTRA:          -6.701
REMARK INTER:                  -6.583
REMARK INTRA:                  -0.118
REMARK UNBOUND:                -0.118
REMARK SMILES CCOC(=O)c1ccc(O)c(O)c1
REMARK SMILES IDX 4 1 5 2 3 3 2 4 1 5 6 6 13 7 7 8 11 9 8 10 9 11 12 12 10 14
REMARK H PARENT 12 13 10 15
REMARK Flexibility Score: inf
ROOT
ATOM      1  C   UNL     1      -6.393 -11.040  27.606  1.00  0.00     0.338 C 
ATOM      2  O   UNL     1      -6.039 -10.731  26.435  1.00  0.00    -0.246 OA
ENDROOT
BRANCH   1   3
ATOM      3  O   UNL     1      -5.942 -12.233  28.184  1.00  0.00    -0.462 OA
BRANCH   3   4
ATOM      4  C   UNL     1      -4.816 -12.308  29.057  1.00  0.00     0.230 C 
ATOM      5  C   UNL     1      -3.921 -13.482  28.679  1.00  0.00     0.049 C 
ENDBRANCH   3   4
ENDBRANCH   1   3
BRANCH   1   6
ATOM      6  C   UNL     1      -7.295 -10.147  28.368  1.00  0.00     0.064 A 
ATOM      7  C   UNL     1      -8.672 -10.109  28.090  1.00  0.00     0.065 A 
ATOM      8  C   UNL     1      -6.780  -9.320  29.381  1.00  0.00     0.020 A 
ATOM      9  C   UNL     1      -9.524  -9.263  28.811  1.00  0.00     0.158 A 
ATOM     10  C   UNL     1      -7.627  -8.475  30.103  1.00  0.00     0.051 A 
ATOM     11  C   UNL     1      -9.000  -8.440  29.822  1.00  0.00     0.157 A 
BRANCH   9  12
ATOM     12  O   UNL     1     -10.885  -9.252  28.508  1.00  0.00    -0.504 OA
ATOM     13  H   UNL     1     -11.229  -9.012  27.586  1.00  0.00     0.293 HD
ENDBRANCH   9  12
BRANCH  11  14
ATOM     14  O   UNL     1      -9.842  -7.595  30.543  1.00  0.00    -0.504 OA
ATOM     15  H   UNL     1      -9.480  -6.809  31.071  1.00  0.00     0.293 HD
ENDBRANCH  11  14
ENDBRANCH   1   6
TORSDOF 5
ENDMDL
MODEL 2
REMARK VINA RESULT:    -4.990      0.744      1.857
REMARK INTER + INTRA:          -6.275
REMARK INTER:                  -6.135
REMARK INTRA:                  -0.140
REMARK UNBOUND:                -0.118
REMARK SMILES CCOC(=O)c1ccc(O)c(O)c1
REMARK SMILES IDX 4 1 5 2 3 3 2 4 1 5 6 6 13 7 7 8 11 9 8 10 9 11 12 12 10 14
REMARK H PARENT 12 13 10 15
REMARK Flexibility Score: inf
ROOT
ATOM      1  C   UNL     1      -6.493 -11.030  27.592  1.00  0.00     0.338 C 
ATOM      2  O   UNL     1      -6.098 -10.729  26.431  1.00  0.00    -0.246 OA
ENDROOT
BRANCH   1   3
ATOM      3  O   UNL     1      -6.040 -12.204  28.205  1.00  0.00    -0.462 OA
BRANCH   3   4
ATOM      4  C   UNL     1      -4.883 -12.261  29.038  1.00  0.00     0.230 C 
ATOM      5  C   UNL     1      -3.833 -13.189  28.438  1.00  0.00     0.049 C 
ENDBRANCH   3   4
ENDBRANCH   1   3
BRANCH   1   6
ATOM      6  C   UNL     1      -7.444 -10.146  28.303  1.00  0.00     0.064 A 
ATOM      7  C   UNL     1      -7.033  -9.401  29.422  1.00  0.00     0.065 A 
ATOM      8  C   UNL     1      -8.776 -10.045  27.867  1.00  0.00     0.020 A 
ATOM      9  C   UNL     1      -7.934  -8.566  30.094  1.00  0.00     0.158 A 
ATOM     10  C   UNL     1      -9.678  -9.213  28.537  1.00  0.00     0.051 A 
ATOM     11  C   UNL     1      -9.264  -8.471  29.651  1.00  0.00     0.157 A 
BRANCH   9  12
ATOM     12  O   UNL     1      -7.491  -7.841  31.200  1.00  0.00    -0.504 OA
ATOM     13  H   UNL     1      -7.057  -6.931  31.108  1.00  0.00     0.293 HD
ENDBRANCH   9  12
BRANCH  11  14
ATOM     14  O   UNL     1     -10.166  -7.643  30.317  1.00  0.00    -0.504 OA
ATOM     15  H   UNL     1      -9.871  -7.043  31.080  1.00  0.00     0.293 HD
ENDBRANCH  11  14
ENDBRANCH   1   6
TORSDOF 5
ENDMDL
MODEL 3
REMARK VINA RESULT:    -4.973      1.538      2.488
REMARK INTER + INTRA:          -6.254
REMARK INTER:                  -5.982
REMARK INTRA:                  -0.272
REMARK UNBOUND:                -0.118
REMARK SMILES CCOC(=O)c1ccc(O)c(O)c1
REMARK SMILES IDX 4 1 5 2 3 3 2 4 1 5 6 6 13 7 7 8 11 9 8 10 9 11 12 12 10 14
REMARK H PARENT 12 13 10 15
REMARK Flexibility Score: inf
ROOT
ATOM      1  C   UNL     1      -5.596 -10.234  30.413  1.00  0.00     0.338 C 
ATOM      2  O   UNL     1      -4.822  -9.294  30.744  1.00  0.00    -0.246 OA
ENDROOT
BRANCH   1   3
ATOM      3  O   UNL     1      -5.204 -11.566  30.600  1.00  0.00    -0.462 OA
BRANCH   3   4
ATOM      4  C   UNL     1      -4.090 -12.159  29.935  1.00  0.00     0.230 C 
ATOM      5  C   UNL     1      -4.561 -13.121  28.851  1.00  0.00     0.049 C 
ENDBRANCH   3   4
ENDBRANCH   1   3
BRANCH   1   6
ATOM      6  C   UNL     1      -6.918  -9.933  29.818  1.00  0.00     0.064 A 
ATOM      7  C   UNL     1      -7.778  -8.995  30.416  1.00  0.00     0.065 A 
ATOM      8  C   UNL     1      -7.331 -10.585  28.644  1.00  0.00     0.020 A 
ATOM      9  C   UNL     1      -9.028  -8.711  29.853  1.00  0.00     0.158 A 
ATOM     10  C   UNL     1      -8.578 -10.304  28.080  1.00  0.00     0.051 A 
ATOM     11  C   UNL     1      -9.431  -9.369  28.679  1.00  0.00     0.157 A 
BRANCH   9  12
ATOM     12  O   UNL     1      -9.854  -7.775  30.474  1.00  0.00    -0.504 OA
ATOM     13  H   UNL     1     -10.039  -7.796  31.469  1.00  0.00     0.293 HD
ENDBRANCH   9  12
BRANCH  11  14
ATOM     14  O   UNL     1     -10.675  -9.091  28.114  1.00  0.00    -0.504 OA
ATOM     15  H   UNL     1     -11.390  -9.804  28.028  1.00  0.00     0.293 HD
ENDBRANCH  11  14
ENDBRANCH   1   6
TORSDOF 5
ENDMDL
MODEL 4
REMARK VINA RESULT:    -4.827      2.563      3.440
REMARK INTER + INTRA:          -6.074
REMARK INTER:                  -5.925
REMARK INTRA:                  -0.149
REMARK UNBOUND:                -0.118
REMARK SMILES CCOC(=O)c1ccc(O)c(O)c1
REMARK SMILES IDX 4 1 5 2 3 3 2 4 1 5 6 6 13 7 7 8 11 9 8 10 9 11 12 12 10 14
REMARK H PARENT 12 13 10 15
REMARK Flexibility Score: inf
ROOT
ATOM      1  C   UNL     1      -5.787  -8.770  31.120  1.00  0.00     0.338 C 
ATOM      2  O   UNL     1      -5.644  -7.926  32.048  1.00  0.00    -0.246 OA
ENDROOT
BRANCH   1   3
ATOM      3  O   UNL     1      -4.712  -9.585  30.741  1.00  0.00    -0.462 OA
BRANCH   3   4
ATOM      4  C   UNL     1      -3.590  -9.849  31.581  1.00  0.00     0.230 C 
ATOM      5  C   UNL     1      -2.436  -8.911  31.249  1.00  0.00     0.049 C 
ENDBRANCH   3   4
ENDBRANCH   1   3
BRANCH   1   6
ATOM      6  C   UNL     1      -7.087  -8.894  30.423  1.00  0.00     0.064 A 
ATOM      7  C   UNL     1      -7.204  -9.665  29.253  1.00  0.00     0.065 A 
ATOM      8  C   UNL     1      -8.223  -8.237  30.924  1.00  0.00     0.020 A 
ATOM      9  C   UNL     1      -8.434  -9.781  28.594  1.00  0.00     0.158 A 
ATOM     10  C   UNL     1      -9.452  -8.351  30.269  1.00  0.00     0.051 A 
ATOM     11  C   UNL     1      -9.565  -9.121  29.104  1.00  0.00     0.157 A 
BRANCH   9  12
ATOM     12  O   UNL     1      -8.513 -10.555  27.437  1.00  0.00    -0.504 OA
ATOM     13  H   UNL     1      -7.785 -11.208  27.176  1.00  0.00     0.293 HD
ENDBRANCH   9  12
BRANCH  11  14
ATOM     14  O   UNL     1     -10.792  -9.232  28.452  1.00  0.00    -0.504 OA
ATOM     15  H   UNL     1     -11.247 -10.129  28.327  1.00  0.00     0.293 HD
ENDBRANCH  11  14
ENDBRANCH   1   6
TORSDOF 5
ENDMDL
MODEL 5
REMARK VINA RESULT:    -4.527      2.473      3.869
REMARK INTER + INTRA:          -5.703
REMARK INTER:                  -5.489
REMARK INTRA:                  -0.214
REMARK UNBOUND:                -0.118
REMARK SMILES CCOC(=O)c1ccc(O)c(O)c1
REMARK SMILES IDX 4 1 5 2 3 3 2 4 1 5 6 6 13 7 7 8 11 9 8 10 9 11 12 12 10 14
REMARK H PARENT 12 13 10 15
REMARK Flexibility Score: inf
ROOT
ATOM      1  C   UNL     1      -5.853  -9.344  31.089  1.00  0.00     0.338 C 
ATOM      2  O   UNL     1      -4.826  -9.868  30.576  1.00  0.00    -0.246 OA
ENDROOT
BRANCH   1   3
ATOM      3  O   UNL     1      -5.789  -8.782  32.370  1.00  0.00    -0.462 OA
BRANCH   3   4
ATOM      4  C   UNL     1      -4.585  -8.286  32.953  1.00  0.00     0.230 C 
ATOM      5  C   UNL     1      -4.323  -6.852  32.509  1.00  0.00     0.049 C 
ENDBRANCH   3   4
ENDBRANCH   1   3
BRANCH   1   6
ATOM      6  C   UNL     1      -7.131  -9.332  30.343  1.00  0.00     0.064 A 
ATOM      7  C   UNL     1      -8.310  -8.854  30.943  1.00  0.00     0.065 A 
ATOM      8  C   UNL     1      -7.182  -9.802  29.020  1.00  0.00     0.020 A 
ATOM      9  C   UNL     1      -9.518  -8.844  30.237  1.00  0.00     0.158 A 
ATOM     10  C   UNL     1      -8.387  -9.793  28.311  1.00  0.00     0.051 A 
ATOM     11  C   UNL     1      -9.558  -9.316  28.914  1.00  0.00     0.157 A 
BRANCH   9  12
ATOM     12  O   UNL     1     -10.666  -8.363  30.864  1.00  0.00    -0.504 OA
ATOM     13  H   UNL     1     -10.666  -7.505  31.403  1.00  0.00     0.293 HD
ENDBRANCH   9  12
BRANCH  11  14
ATOM     14  O   UNL     1     -10.759  -9.308  28.205  1.00  0.00    -0.504 OA
ATOM     15  H   UNL     1     -11.112  -8.464  27.768  1.00  0.00     0.293 HD
ENDBRANCH  11  14
ENDBRANCH   1   6
TORSDOF 5
ENDMDL
MODEL 6
REMARK VINA RESULT:    -4.518      6.690      8.105
REMARK INTER + INTRA:          -5.692
REMARK INTER:                  -5.406
REMARK INTRA:                  -0.286
REMARK UNBOUND:                -0.118
REMARK SMILES CCOC(=O)c1ccc(O)c(O)c1
REMARK SMILES IDX 4 1 5 2 3 3 2 4 1 5 6 6 13 7 7 8 11 9 8 10 9 11 12 12 10 14
REMARK H PARENT 12 13 10 15
REMARK Flexibility Score: inf
ROOT
ATOM      1  C   UNL     1      -5.776 -13.875  21.501  1.00  0.00     0.338 C 
ATOM      2  O   UNL     1      -4.813 -13.831  22.316  1.00  0.00    -0.246 OA
ENDROOT
BRANCH   1   3
ATOM      3  O   UNL     1      -5.554 -14.256  20.172  1.00  0.00    -0.462 OA
BRANCH   3   4
ATOM      4  C   UNL     1      -5.302 -13.329  19.117  1.00  0.00     0.230 C 
ATOM      5  C   UNL     1      -6.409 -13.390  18.072  1.00  0.00     0.049 C 
ENDBRANCH   3   4
ENDBRANCH   1   3
BRANCH   1   6
ATOM      6  C   UNL     1      -7.141 -13.515  21.945  1.00  0.00     0.064 A 
ATOM      7  C   UNL     1      -7.371 -12.337  22.678  1.00  0.00     0.065 A 
ATOM      8  C   UNL     1      -8.228 -14.351  21.640  1.00  0.00     0.020 A 
ATOM      9  C   UNL     1      -8.662 -11.998  23.099  1.00  0.00     0.158 A 
ATOM     10  C   UNL     1      -9.518 -14.015  22.059  1.00  0.00     0.051 A 
ATOM     11  C   UNL     1      -9.742 -12.840  22.789  1.00  0.00     0.157 A 
BRANCH   9  12
ATOM     12  O   UNL     1      -8.851 -10.822  23.824  1.00  0.00    -0.504 OA
ATOM     13  H   UNL     1      -8.094 -10.176  24.011  1.00  0.00     0.293 HD
ENDBRANCH   9  12
BRANCH  11  14
ATOM     14  O   UNL     1     -11.031 -12.508  23.206  1.00  0.00    -0.504 OA
ATOM     15  H   UNL     1     -11.460 -12.955  24.008  1.00  0.00     0.293 HD
ENDBRANCH  11  14
ENDBRANCH   1   6
TORSDOF 5
ENDMDL
MODEL 7
REMARK VINA RESULT:    -4.509      8.243      9.588
REMARK INTER + INTRA:          -5.681
REMARK INTER:                  -5.381
REMARK INTRA:                  -0.300
REMARK UNBOUND:                -0.118
REMARK SMILES CCOC(=O)c1ccc(O)c(O)c1
REMARK SMILES IDX 4 1 5 2 3 3 2 4 1 5 6 6 13 7 7 8 11 9 8 10 9 11 12 12 10 14
REMARK H PARENT 12 13 10 15
REMARK Flexibility Score: inf
ROOT
ATOM      1  C   UNL     1      -9.274 -12.975  18.782  1.00  0.00     0.338 C 
ATOM      2  O   UNL     1      -9.932 -11.945  18.463  1.00  0.00    -0.246 OA
ENDROOT
BRANCH   1   3
ATOM      3  O   UNL     1      -8.472 -13.617  17.831  1.00  0.00    -0.462 OA
BRANCH   3   4
ATOM      4  C   UNL     1      -7.292 -13.039  17.276  1.00  0.00     0.230 C 
ATOM      5  C   UNL     1      -6.070 -13.408  18.107  1.00  0.00     0.049 C 
ENDBRANCH   3   4
ENDBRANCH   1   3
BRANCH   1   6
ATOM      6  C   UNL     1      -9.357 -13.510  20.159  1.00  0.00     0.064 A 
ATOM      7  C   UNL     1     -10.113 -12.850  21.143  1.00  0.00     0.065 A 
ATOM      8  C   UNL     1      -8.674 -14.690  20.501  1.00  0.00     0.020 A 
ATOM      9  C   UNL     1     -10.189 -13.357  22.446  1.00  0.00     0.158 A 
ATOM     10  C   UNL     1      -8.748 -15.199  21.801  1.00  0.00     0.051 A 
ATOM     11  C   UNL     1      -9.503 -14.537  22.778  1.00  0.00     0.157 A 
BRANCH   9  12
ATOM     12  O   UNL     1     -10.949 -12.675  23.395  1.00  0.00    -0.504 OA
ATOM     13  H   UNL     1     -11.175 -11.693  23.300  1.00  0.00     0.293 HD
ENDBRANCH   9  12
BRANCH  11  14
ATOM     14  O   UNL     1      -9.575 -15.047  24.074  1.00  0.00    -0.504 OA
ATOM     15  H   UNL     1     -10.437 -15.427  24.447  1.00  0.00     0.293 HD
ENDBRANCH  11  14
ENDBRANCH   1   6
TORSDOF 5
ENDMDL
MODEL 8
REMARK VINA RESULT:    -4.475      7.427      8.470
REMARK INTER + INTRA:          -5.639
REMARK INTER:                  -5.362
REMARK INTRA:                  -0.277
REMARK UNBOUND:                -0.118
REMARK SMILES CCOC(=O)c1ccc(O)c(O)c1
REMARK SMILES IDX 4 1 5 2 3 3 2 4 1 5 6 6 13 7 7 8 11 9 8 10 9 11 12 12 10 14
REMARK H PARENT 12 13 10 15
REMARK Flexibility Score: inf
ROOT
ATOM      1  C   UNL     1      -8.756 -16.326  21.033  1.00  0.00     0.338 C 
ATOM      2  O   UNL     1      -7.989 -16.619  20.075  1.00  0.00    -0.246 OA
ENDROOT
BRANCH   1   3
ATOM      3  O   UNL     1      -9.634 -17.288  21.549  1.00  0.00    -0.462 OA
BRANCH   3   4
ATOM      4  C   UNL     1      -9.206 -18.430  22.288  1.00  0.00     0.230 C 
ATOM      5  C   UNL     1      -9.176 -18.124  23.781  1.00  0.00     0.049 C 
ENDBRANCH   3   4
ENDBRANCH   1   3
BRANCH   1   6
ATOM      6  C   UNL     1      -8.737 -14.963  21.608  1.00  0.00     0.064 A 
ATOM      7  C   UNL     1      -9.892 -14.411  22.188  1.00  0.00     0.065 A 
ATOM      8  C   UNL     1      -7.557 -14.199  21.578  1.00  0.00     0.020 A 
ATOM      9  C   UNL     1      -9.873 -13.121  22.731  1.00  0.00     0.158 A 
ATOM     10  C   UNL     1      -7.535 -12.911  22.119  1.00  0.00     0.051 A 
ATOM     11  C   UNL     1      -8.689 -12.365  22.697  1.00  0.00     0.157 A 
BRANCH   9  12
ATOM     12  O   UNL     1     -11.038 -12.607  23.299  1.00  0.00    -0.504 OA
ATOM     13  H   UNL     1     -11.061 -12.238  24.242  1.00  0.00     0.293 HD
ENDBRANCH   9  12
BRANCH  11  14
ATOM     14  O   UNL     1      -8.664 -11.080  23.235  1.00  0.00    -0.504 OA
ATOM     15  H   UNL     1      -9.478 -10.677  23.685  1.00  0.00     0.293 HD
ENDBRANCH  11  14
ENDBRANCH   1   6
TORSDOF 5
ENDMDL
MODEL 9
REMARK VINA RESULT:    -4.457      9.374     10.555
REMARK INTER + INTRA:          -5.617
REMARK INTER:                  -5.285
REMARK INTRA:                  -0.332
REMARK UNBOUND:                -0.118
REMARK SMILES CCOC(=O)c1ccc(O)c(O)c1
REMARK SMILES IDX 4 1 5 2 3 3 2 4 1 5 6 6 13 7 7 8 11 9 8 10 9 11 12 12 10 14
REMARK H PARENT 12 13 10 15
REMARK Flexibility Score: inf
ROOT
ATOM      1  C   UNL     1      -8.430 -14.382  17.547  1.00  0.00     0.338 C 
ATOM      2  O   UNL     1      -9.184 -14.777  16.615  1.00  0.00    -0.246 OA
ENDROOT
BRANCH   1   3
ATOM      3  O   UNL     1      -7.049 -14.600  17.473  1.00  0.00    -0.462 OA
BRANCH   3   4
ATOM      4  C   UNL     1      -6.086 -13.548  17.437  1.00  0.00     0.230 C 
ATOM      5  C   UNL     1      -6.393 -12.577  16.304  1.00  0.00     0.049 C 
ENDBRANCH   3   4
ENDBRANCH   1   3
BRANCH   1   6
ATOM      6  C   UNL     1      -9.005 -13.695  18.726  1.00  0.00     0.064 A 
ATOM      7  C   UNL     1      -9.778 -12.531  18.573  1.00  0.00     0.065 A 
ATOM      8  C   UNL     1      -8.782 -14.201  20.018  1.00  0.00     0.020 A 
ATOM      9  C   UNL     1     -10.320 -11.881  19.688  1.00  0.00     0.158 A 
ATOM     10  C   UNL     1      -9.323 -13.555  21.133  1.00  0.00     0.051 A 
ATOM     11  C   UNL     1     -10.092 -12.395  20.975  1.00  0.00     0.157 A 
BRANCH   9  12
ATOM     12  O   UNL     1     -11.082 -10.729  19.497  1.00  0.00    -0.504 OA
ATOM     13  H   UNL     1     -11.107  -9.981  20.179  1.00  0.00     0.293 HD
ENDBRANCH   9  12
BRANCH  11  14
ATOM     14  O   UNL     1     -10.629 -11.752  22.090  1.00  0.00    -0.504 OA
ATOM     15  H   UNL     1     -11.024 -12.274  22.864  1.00  0.00     0.293 HD
ENDBRANCH  11  14
ENDBRANCH   1   6
TORSDOF 5
ENDMDL
