MODEL 1
REMARK VINA RESULT:    -3.462      0.000      0.000
REMARK INTER + INTRA:          -5.434
REMARK INTER:                  -5.081
REMARK INTRA:                  -0.352
REMARK UNBOUND:                -0.352
REMARK SMILES O=C([O-])CCCCCCCC(=O)[O-]
REMARK SMILES IDX 7 1 6 2 5 3 4 4 2 5 1 6 3 7 8 8 9 9 10 10 11 11 12 12 13 13
REMARK H PARENT
REMARK Flexibility Score: inf
ROOT
ATOM      1  C   UNL     1       8.977 -20.327  14.250  1.00  0.00     0.000 C 
ENDROOT
BRANCH   1   2
ATOM      2  C   UNL     1       9.034 -19.492  12.955  1.00  0.00     0.000 C 
BRANCH   2   3
ATOM      3  C   UNL     1       8.268 -20.088  11.756  1.00  0.00     0.006 C 
BRANCH   3   4
ATOM      4  C   UNL     1       7.271 -19.121  11.097  1.00  0.00     0.053 C 
BRANCH   4   5
ATOM      5  C   UNL     1       6.913 -19.549   9.707  1.00  0.00     0.041 C 
ATOM      6  O   UNL     1       7.256 -20.686   9.285  1.00  0.00    -0.550 OA
ATOM      7  O   UNL     1       6.172 -18.706   8.889  1.00  0.00    -0.550 OA
ENDBRANCH   4   5
ENDBRANCH   3   4
ENDBRANCH   2   3
ENDBRANCH   1   2
BRANCH   1   8
ATOM      8  C   UNL     1       8.852 -21.847  14.042  1.00  0.00     0.000 C 
BRANCH   8   9
ATOM      9  C   UNL     1       8.562 -22.606  15.348  1.00  0.00     0.006 C 
BRANCH   9  10
ATOM     10  C   UNL     1       7.064 -22.638  15.680  1.00  0.00     0.053 C 
BRANCH  10  11
ATOM     11  C   UNL     1       6.770 -21.975  16.990  1.00  0.00     0.041 C 
ATOM     12  O   UNL     1       7.703 -21.469  17.669  1.00  0.00    -0.550 OA
ATOM     13  O   UNL     1       5.461 -21.890  17.449  1.00  0.00    -0.550 OA
ENDBRANCH  10  11
ENDBRANCH   9  10
ENDBRANCH   8   9
ENDBRANCH   1   8
TORSDOF 8
ENDMDL
MODEL 2
REMARK VINA RESULT:    -3.273      0.488      6.515
REMARK INTER + INTRA:          -5.157
REMARK INTER:                  -4.813
REMARK INTRA:                  -0.344
REMARK UNBOUND:                -0.352
REMARK SMILES O=C([O-])CCCCCCCC(=O)[O-]
REMARK SMILES IDX 7 1 6 2 5 3 4 4 2 5 1 6 3 7 8 8 9 9 10 10 11 11 12 12 13 13
REMARK H PARENT
REMARK Flexibility Score: inf
ROOT
ATOM      1  C   UNL     1       8.959 -20.053  14.175  1.00  0.00     0.000 C 
ENDROOT
BRANCH   1   2
ATOM      2  C   UNL     1       8.922 -21.595  14.183  1.00  0.00     0.000 C 
BRANCH   2   3
ATOM      3  C   UNL     1       7.585 -22.217  14.633  1.00  0.00     0.006 C 
BRANCH   3   4
ATOM      4  C   UNL     1       7.613 -22.827  16.043  1.00  0.00     0.053 C 
BRANCH   4   5
ATOM      5  C   UNL     1       6.855 -21.992  17.029  1.00  0.00     0.041 C 
ATOM      6  O   UNL     1       7.472 -21.256  17.844  1.00  0.00    -0.550 OA
ATOM      7  O   UNL     1       5.466 -22.000  17.024  1.00  0.00    -0.550 OA
ENDBRANCH   4   5
ENDBRANCH   3   4
ENDBRANCH   2   3
ENDBRANCH   1   2
BRANCH   1   8
ATOM      8  C   UNL     1       9.125 -19.411  12.786  1.00  0.00     0.000 C 
BRANCH   8   9
ATOM      9  C   UNL     1       8.323 -20.137  11.693  1.00  0.00     0.006 C 
BRANCH   9  10
ATOM     10  C   UNL     1       7.187 -19.269  11.133  1.00  0.00     0.053 C 
BRANCH  10  11
ATOM     11  C   UNL     1       7.027 -19.447   9.655  1.00  0.00     0.041 C 
ATOM     12  O   UNL     1       6.223 -18.720   9.012  1.00  0.00    -0.550 OA
ATOM     13  O   UNL     1       7.785 -20.397   8.981  1.00  0.00    -0.550 OA
ENDBRANCH  10  11
ENDBRANCH   9  10
ENDBRANCH   8   9
ENDBRANCH   1   8
TORSDOF 8
ENDMDL
MODEL 3
REMARK VINA RESULT:    -3.085      1.991      3.225
REMARK INTER + INTRA:          -4.880
REMARK INTER:                  -4.530
REMARK INTRA:                  -0.349
REMARK UNBOUND:                -0.352
REMARK SMILES O=C([O-])CCCCCCCC(=O)[O-]
REMARK SMILES IDX 7 1 6 2 5 3 4 4 2 5 1 6 3 7 8 8 9 9 10 10 11 11 12 12 13 13
REMARK H PARENT
REMARK Flexibility Score: inf
ROOT
ATOM      1  C   UNL     1       7.455 -19.326  11.184  1.00  0.00     0.000 C 
ENDROOT
BRANCH   1   2
ATOM      2  C   UNL     1       7.182 -19.944   9.798  1.00  0.00     0.000 C 
BRANCH   2   3
ATOM      3  C   UNL     1       8.408 -20.578   9.110  1.00  0.00     0.006 C 
BRANCH   3   4
ATOM      4  C   UNL     1       8.341 -22.108   8.982  1.00  0.00     0.053 C 
BRANCH   4   5
ATOM      5  C   UNL     1       7.003 -22.645   9.387  1.00  0.00     0.041 C 
ATOM      6  O   UNL     1       6.080 -22.755   8.538  1.00  0.00    -0.550 OA
ATOM      7  O   UNL     1       6.787 -23.057  10.696  1.00  0.00    -0.550 OA
ENDBRANCH   4   5
ENDBRANCH   3   4
ENDBRANCH   2   3
ENDBRANCH   1   2
BRANCH   1   8
ATOM      8  C   UNL     1       8.728 -19.832  11.886  1.00  0.00     0.000 C 
BRANCH   8   9
ATOM      9  C   UNL     1       8.446 -20.956  12.897  1.00  0.00     0.006 C 
BRANCH   9  10
ATOM     10  C   UNL     1       8.727 -20.520  14.342  1.00  0.00     0.053 C 
BRANCH  10  11
ATOM     11  C   UNL     1       8.246 -21.534  15.333  1.00  0.00     0.041 C 
ATOM     12  O   UNL     1       7.691 -21.163  16.402  1.00  0.00    -0.550 OA
ATOM     13  O   UNL     1       8.384 -22.891  15.065  1.00  0.00    -0.550 OA
ENDBRANCH  10  11
ENDBRANCH   9  10
ENDBRANCH   8   9
ENDBRANCH   1   8
TORSDOF 8
ENDMDL
MODEL 4
REMARK VINA RESULT:    -2.940      1.571      6.418
REMARK INTER + INTRA:          -4.668
REMARK INTER:                  -4.347
REMARK INTRA:                  -0.321
REMARK UNBOUND:                -0.352
REMARK SMILES O=C([O-])CCCCCCCC(=O)[O-]
REMARK SMILES IDX 7 1 6 2 5 3 4 4 2 5 1 6 3 7 8 8 9 9 10 10 11 11 12 12 13 13
REMARK H PARENT
REMARK Flexibility Score: inf
ROOT
ATOM      1  C   UNL     1       8.396 -21.001  13.024  1.00  0.00     0.000 C 
ENDROOT
BRANCH   1   2
ATOM      2  C   UNL     1       8.765 -20.672  14.485  1.00  0.00     0.000 C 
BRANCH   2   3
ATOM      3  C   UNL     1       8.710 -21.865  15.460  1.00  0.00     0.006 C 
BRANCH   3   4
ATOM      4  C   UNL     1       7.954 -21.581  16.767  1.00  0.00     0.053 C 
BRANCH   4   5
ATOM      5  C   UNL     1       6.546 -22.092  16.721  1.00  0.00     0.041 C 
ATOM      6  O   UNL     1       5.777 -21.920  17.703  1.00  0.00    -0.550 OA
ATOM      7  O   UNL     1       6.074 -22.727  15.579  1.00  0.00    -0.550 OA
ENDBRANCH   4   5
ENDBRANCH   3   4
ENDBRANCH   2   3
ENDBRANCH   1   2
BRANCH   1   8
ATOM      8  C   UNL     1       8.384 -19.796  12.066  1.00  0.00     0.000 C 
BRANCH   8   9
ATOM      9  C   UNL     1       8.785 -20.173  10.629  1.00  0.00     0.006 C 
BRANCH   9  10
ATOM     10  C   UNL     1       7.567 -20.482   9.749  1.00  0.00     0.053 C 
BRANCH  10  11
ATOM     11  C   UNL     1       7.546 -21.914   9.310  1.00  0.00     0.041 C 
ATOM     12  O   UNL     1       8.580 -22.625   9.416  1.00  0.00    -0.550 OA
ATOM     13  O   UNL     1       6.376 -22.472   8.809  1.00  0.00    -0.550 OA
ENDBRANCH  10  11
ENDBRANCH   9  10
ENDBRANCH   8   9
ENDBRANCH   1   8
TORSDOF 8
ENDMDL
MODEL 5
REMARK VINA RESULT:    -2.899      1.826      6.143
REMARK INTER + INTRA:          -4.607
REMARK INTER:                  -4.068
REMARK INTRA:                  -0.539
REMARK UNBOUND:                -0.352
REMARK SMILES O=C([O-])CCCCCCCC(=O)[O-]
REMARK SMILES IDX 7 1 6 2 5 3 4 4 2 5 1 6 3 7 8 8 9 9 10 10 11 11 12 12 13 13
REMARK H PARENT
REMARK Flexibility Score: inf
ROOT
ATOM      1  C   UNL     1       6.680 -22.497  12.829  1.00  0.00     0.000 C 
ENDROOT
BRANCH   1   2
ATOM      2  C   UNL     1       8.102 -22.462  13.424  1.00  0.00     0.000 C 
BRANCH   2   3
ATOM      3  C   UNL     1       8.324 -21.412  14.531  1.00  0.00     0.006 C 
BRANCH   3   4
ATOM      4  C   UNL     1       8.500 -22.003  15.939  1.00  0.00     0.053 C 
BRANCH   4   5
ATOM      5  C   UNL     1       7.246 -21.897  16.751  1.00  0.00     0.041 C 
ATOM      6  O   UNL     1       7.256 -21.302  17.861  1.00  0.00    -0.550 OA
ATOM      7  O   UNL     1       6.057 -22.427  16.265  1.00  0.00    -0.550 OA
ENDBRANCH   4   5
ENDBRANCH   3   4
ENDBRANCH   2   3
ENDBRANCH   1   2
BRANCH   1   8
ATOM      8  C   UNL     1       6.607 -22.853  11.333  1.00  0.00     0.000 C 
BRANCH   8   9
ATOM      9  C   UNL     1       7.751 -22.232  10.515  1.00  0.00     0.006 C 
BRANCH   9  10
ATOM     10  C   UNL     1       7.328 -20.929   9.821  1.00  0.00     0.053 C 
BRANCH  10  11
ATOM     11  C   UNL     1       7.594 -19.730  10.678  1.00  0.00     0.041 C 
ATOM     12  O   UNL     1       6.765 -18.783  10.719  1.00  0.00    -0.550 OA
ATOM     13  O   UNL     1       8.745 -19.670  11.454  1.00  0.00    -0.550 OA
ENDBRANCH  10  11
ENDBRANCH   9  10
ENDBRANCH   8   9
ENDBRANCH   1   8
TORSDOF 8
ENDMDL
MODEL 6
REMARK VINA RESULT:    -2.839     17.510     19.313
REMARK INTER + INTRA:          -4.518
REMARK INTER:                  -4.035
REMARK INTRA:                  -0.484
REMARK UNBOUND:                -0.352
REMARK SMILES O=C([O-])CCCCCCCC(=O)[O-]
REMARK SMILES IDX 7 1 6 2 5 3 4 4 2 5 1 6 3 7 8 8 9 9 10 10 11 11 12 12 13 13
REMARK H PARENT
REMARK Flexibility Score: inf
ROOT
ATOM      1  C   UNL     1      -9.419 -20.757  19.297  1.00  0.00     0.000 C 
ENDROOT
BRANCH   1   2
ATOM      2  C   UNL     1      -9.896 -19.746  20.359  1.00  0.00     0.000 C 
BRANCH   2   3
ATOM      3  C   UNL     1     -10.311 -20.362  21.711  1.00  0.00     0.006 C 
BRANCH   3   4
ATOM      4  C   UNL     1      -9.173 -20.460  22.739  1.00  0.00     0.053 C 
BRANCH   4   5
ATOM      5  C   UNL     1      -8.739 -21.877  22.959  1.00  0.00     0.041 C 
ATOM      6  O   UNL     1      -9.114 -22.504  23.985  1.00  0.00    -0.550 OA
ATOM      7  O   UNL     1      -7.947 -22.516  22.013  1.00  0.00    -0.550 OA
ENDBRANCH   4   5
ENDBRANCH   3   4
ENDBRANCH   2   3
ENDBRANCH   1   2
BRANCH   1   8
ATOM      8  C   UNL     1     -10.428 -21.866  18.951  1.00  0.00     0.000 C 
BRANCH   8   9
ATOM      9  C   UNL     1     -10.696 -21.979  17.441  1.00  0.00     0.006 C 
BRANCH   9  10
ATOM     10  C   UNL     1     -10.724 -20.607  16.753  1.00  0.00     0.053 C 
BRANCH  10  11
ATOM     11  C   UNL     1      -9.927 -20.604  15.484  1.00  0.00     0.041 C 
ATOM     12  O   UNL     1     -10.446 -20.195  14.411  1.00  0.00    -0.550 OA
ATOM     13  O   UNL     1      -8.603 -21.024  15.493  1.00  0.00    -0.550 OA
ENDBRANCH  10  11
ENDBRANCH   9  10
ENDBRANCH   8   9
ENDBRANCH   1   8
TORSDOF 8
ENDMDL
MODEL 7
REMARK VINA RESULT:    -2.777     17.535     18.388
REMARK INTER + INTRA:          -4.428
REMARK INTER:                  -3.913
REMARK INTRA:                  -0.514
REMARK UNBOUND:                -0.352
REMARK SMILES O=C([O-])CCCCCCCC(=O)[O-]
REMARK SMILES IDX 7 1 6 2 5 3 4 4 2 5 1 6 3 7 8 8 9 9 10 10 11 11 12 12 13 13
REMARK H PARENT
REMARK Flexibility Score: inf
ROOT
ATOM      1  C   UNL     1      -9.634 -20.455  19.312  1.00  0.00     0.000 C 
ENDROOT
BRANCH   1   2
ATOM      2  C   UNL     1     -10.440 -21.697  18.881  1.00  0.00     0.000 C 
BRANCH   2   3
ATOM      3  C   UNL     1     -11.124 -21.589  17.503  1.00  0.00     0.006 C 
BRANCH   3   4
ATOM      4  C   UNL     1     -10.798 -20.300  16.733  1.00  0.00     0.053 C 
BRANCH   4   5
ATOM      5  C   UNL     1      -9.820 -20.543  15.624  1.00  0.00     0.041 C 
ATOM      6  O   UNL     1      -8.745 -21.159  15.850  1.00  0.00    -0.550 OA
ATOM      7  O   UNL     1     -10.112 -20.119  14.334  1.00  0.00    -0.550 OA
ENDBRANCH   4   5
ENDBRANCH   3   4
ENDBRANCH   2   3
ENDBRANCH   1   2
BRANCH   1   8
ATOM      8  C   UNL     1     -10.220 -19.677  20.503  1.00  0.00     0.000 C 
BRANCH   8   9
ATOM      9  C   UNL     1     -10.484 -20.569  21.728  1.00  0.00     0.006 C 
BRANCH   9  10
ATOM     10  C   UNL     1      -9.315 -20.549  22.723  1.00  0.00     0.053 C 
BRANCH  10  11
ATOM     11  C   UNL     1      -8.655 -21.889  22.835  1.00  0.00     0.041 C 
ATOM     12  O   UNL     1      -8.582 -22.468  23.951  1.00  0.00    -0.550 OA
ATOM     13  O   UNL     1      -8.146 -22.511  21.701  1.00  0.00    -0.550 OA
ENDBRANCH  10  11
ENDBRANCH   9  10
ENDBRANCH   8   9
ENDBRANCH   1   8
TORSDOF 8
ENDMDL
MODEL 8
REMARK VINA RESULT:    -2.695     15.462     18.324
REMARK INTER + INTRA:          -4.307
REMARK INTER:                  -3.727
REMARK INTRA:                  -0.581
REMARK UNBOUND:                -0.352
REMARK SMILES O=C([O-])CCCCCCCC(=O)[O-]
REMARK SMILES IDX 7 1 6 2 5 3 4 4 2 5 1 6 3 7 8 8 9 9 10 10 11 11 12 12 13 13
REMARK H PARENT
REMARK Flexibility Score: inf
ROOT
ATOM      1  C   UNL     1      -9.346 -20.599  19.297  1.00  0.00     0.000 C 
ENDROOT
BRANCH   1   2
ATOM      2  C   UNL     1     -10.057 -19.769  20.385  1.00  0.00     0.000 C 
BRANCH   2   3
ATOM      3  C   UNL     1     -10.363 -20.527  21.693  1.00  0.00     0.006 C 
BRANCH   3   4
ATOM      4  C   UNL     1      -9.204 -20.542  22.702  1.00  0.00     0.053 C 
BRANCH   4   5
ATOM      5  C   UNL     1      -8.656 -21.922  22.903  1.00  0.00     0.041 C 
ATOM      6  O   UNL     1      -7.892 -22.432  22.042  1.00  0.00    -0.550 OA
ATOM      7  O   UNL     1      -8.962 -22.630  24.058  1.00  0.00    -0.550 OA
ENDBRANCH   4   5
ENDBRANCH   3   4
ENDBRANCH   2   3
ENDBRANCH   1   2
BRANCH   1   8
ATOM      8  C   UNL     1      -9.831 -22.054  19.164  1.00  0.00     0.000 C 
BRANCH   8   9
ATOM      9  C   UNL     1      -8.979 -22.880  18.185  1.00  0.00     0.006 C 
BRANCH   9  10
ATOM     10  C   UNL     1      -7.475 -22.683  18.417  1.00  0.00     0.053 C 
BRANCH  10  11
ATOM     11  C   UNL     1      -6.757 -22.332  17.150  1.00  0.00     0.041 C 
ATOM     12  O   UNL     1      -5.498 -22.326  17.115  1.00  0.00    -0.550 OA
ATOM     13  O   UNL     1      -7.479 -22.040  15.999  1.00  0.00    -0.550 OA
ENDBRANCH  10  11
ENDBRANCH   9  10
ENDBRANCH   8   9
ENDBRANCH   1   8
TORSDOF 8
ENDMDL
MODEL 9
REMARK VINA RESULT:    -2.688     15.780     17.837
REMARK INTER + INTRA:          -4.298
REMARK INTER:                  -3.747
REMARK INTRA:                  -0.551
REMARK UNBOUND:                -0.352
REMARK SMILES O=C([O-])CCCCCCCC(=O)[O-]
REMARK SMILES IDX 7 1 6 2 5 3 4 4 2 5 1 6 3 7 8 8 9 9 10 10 11 11 12 12 13 13
REMARK H PARENT
REMARK Flexibility Score: inf
ROOT
ATOM      1  C   UNL     1     -10.892 -20.364  18.754  1.00  0.00     0.000 C 
ENDROOT
BRANCH   1   2
ATOM      2  C   UNL     1      -9.999 -20.868  17.602  1.00  0.00     0.000 C 
BRANCH   2   3
ATOM      3  C   UNL     1      -9.251 -22.187  17.880  1.00  0.00     0.006 C 
BRANCH   3   4
ATOM      4  C   UNL     1      -7.793 -22.006  18.331  1.00  0.00     0.053 C 
BRANCH   4   5
ATOM      5  C   UNL     1      -6.824 -22.390  17.255  1.00  0.00     0.041 C 
ATOM      6  O   UNL     1      -5.724 -22.927  17.554  1.00  0.00    -0.550 OA
ATOM      7  O   UNL     1      -7.150 -22.187  15.920  1.00  0.00    -0.550 OA
ENDBRANCH   4   5
ENDBRANCH   3   4
ENDBRANCH   2   3
ENDBRANCH   1   2
BRANCH   1   8
ATOM      8  C   UNL     1     -10.147 -19.634  19.886  1.00  0.00     0.000 C 
BRANCH   8   9
ATOM      9  C   UNL     1     -10.474 -20.201  21.278  1.00  0.00     0.006 C 
BRANCH   9  10
ATOM     10  C   UNL     1      -9.764 -21.536  21.541  1.00  0.00     0.053 C 
BRANCH  10  11
ATOM     11  C   UNL     1      -9.151 -21.581  22.907  1.00  0.00     0.041 C 
ATOM     12  O   UNL     1      -8.075 -20.968  23.140  1.00  0.00    -0.550 OA
ATOM     13  O   UNL     1      -9.782 -22.278  23.931  1.00  0.00    -0.550 OA
ENDBRANCH  10  11
ENDBRANCH   9  10
ENDBRANCH   8   9
ENDBRANCH   1   8
TORSDOF 8
ENDMDL
