MODEL 1
REMARK VINA RESULT:    -3.738      0.000      0.000
REMARK INTER + INTRA:          -4.285
REMARK INTER:                  -4.066
REMARK INTRA:                  -0.219
REMARK UNBOUND:                -0.219
REMARK SMILES O=C([O-])c1ccccc1O
REMARK SMILES IDX 4 1 9 2 5 3 8 4 6 5 7 6 2 7 1 8 3 9 10 10
REMARK H PARENT 10 11
REMARK Flexibility Score: inf
ROOT
ATOM      1  C   UNL     1     -95.661 148.883 239.688  1.00  0.00     0.039 A 
ATOM      2  C   UNL     1     -95.160 147.599 240.027  1.00  0.00     0.124 A 
ATOM      3  C   UNL     1     -95.209 149.500 238.508  1.00  0.00     0.014 A 
ATOM      4  C   UNL     1     -94.184 147.002 239.218  1.00  0.00     0.047 A 
ATOM      5  C   UNL     1     -94.251 148.880 237.702  1.00  0.00     0.001 A 
ATOM      6  C   UNL     1     -93.732 147.637 238.062  1.00  0.00     0.004 A 
ENDROOT
BRANCH   1   7
ATOM      7  C   UNL     1     -96.618 149.622 240.543  1.00  0.00     0.075 C 
ATOM      8  O   UNL     1     -96.817 150.854 240.377  1.00  0.00    -0.545 OA
ATOM      9  O   UNL     1     -97.362 148.942 241.500  1.00  0.00    -0.545 OA
ENDBRANCH   1   7
BRANCH   2  10
ATOM     10  O   UNL     1     -95.623 146.875 241.128  1.00  0.00    -0.507 OA
ATOM     11  H   UNL     1     -95.909 145.907 241.080  1.00  0.00     0.293 HD
ENDBRANCH   2  10
TORSDOF 2
ENDMDL
MODEL 2
REMARK VINA RESULT:    -3.539      1.564      2.968
REMARK INTER + INTRA:          -4.068
REMARK INTER:                  -3.817
REMARK INTRA:                  -0.251
REMARK UNBOUND:                -0.219
REMARK SMILES O=C([O-])c1ccccc1O
REMARK SMILES IDX 4 1 9 2 5 3 8 4 6 5 7 6 2 7 1 8 3 9 10 10
REMARK H PARENT 10 11
REMARK Flexibility Score: inf
ROOT
ATOM      1  C   UNL     1     -96.868 148.565 241.066  1.00  0.00     0.039 A 
ATOM      2  C   UNL     1     -96.550 149.812 240.467  1.00  0.00     0.124 A 
ATOM      3  C   UNL     1     -96.064 147.448 240.778  1.00  0.00     0.014 A 
ATOM      4  C   UNL     1     -95.486 149.892 239.559  1.00  0.00     0.047 A 
ATOM      5  C   UNL     1     -94.994 147.551 239.886  1.00  0.00     0.001 A 
ATOM      6  C   UNL     1     -94.712 148.769 239.269  1.00  0.00     0.004 A 
ENDROOT
BRANCH   1   7
ATOM      7  C   UNL     1     -98.034 148.379 241.958  1.00  0.00     0.075 C 
ATOM      8  O   UNL     1     -98.775 147.367 241.852  1.00  0.00    -0.545 OA
ATOM      9  O   UNL     1     -98.285 149.293 242.974  1.00  0.00    -0.545 OA
ENDBRANCH   1   7
BRANCH   2  10
ATOM     10  O   UNL     1     -97.235 150.991 240.770  1.00  0.00    -0.507 OA
ATOM     11  H   UNL     1     -96.777 151.856 241.020  1.00  0.00     0.293 HD
ENDBRANCH   2  10
TORSDOF 2
ENDMDL
MODEL 3
REMARK VINA RESULT:    -3.508      1.487      2.518
REMARK INTER + INTRA:          -4.034
REMARK INTER:                  -3.793
REMARK INTRA:                  -0.241
REMARK UNBOUND:                -0.219
REMARK SMILES O=C([O-])c1ccccc1O
REMARK SMILES IDX 4 1 9 2 5 3 8 4 6 5 7 6 2 7 1 8 3 9 10 10
REMARK H PARENT 10 11
REMARK Flexibility Score: inf
ROOT
ATOM      1  C   UNL     1     -96.271 149.572 239.335  1.00  0.00     0.039 A 
ATOM      2  C   UNL     1     -96.702 149.398 237.993  1.00  0.00     0.124 A 
ATOM      3  C   UNL     1     -94.925 149.319 239.655  1.00  0.00     0.014 A 
ATOM      4  C   UNL     1     -95.800 148.921 237.034  1.00  0.00     0.047 A 
ATOM      5  C   UNL     1     -94.034 148.864 238.680  1.00  0.00     0.001 A 
ATOM      6  C   UNL     1     -94.473 148.656 237.374  1.00  0.00     0.004 A 
ENDROOT
BRANCH   1   7
ATOM      7  C   UNL     1     -97.187 149.977 240.424  1.00  0.00     0.075 C 
ATOM      8  O   UNL     1     -97.225 149.340 241.509  1.00  0.00    -0.545 OA
ATOM      9  O   UNL     1     -97.972 151.117 240.286  1.00  0.00    -0.545 OA
ENDBRANCH   1   7
BRANCH   2  10
ATOM     10  O   UNL     1     -97.993 149.717 237.569  1.00  0.00    -0.507 OA
ATOM     11  H   UNL     1     -98.349 150.661 237.518  1.00  0.00     0.293 HD
ENDBRANCH   2  10
TORSDOF 2
ENDMDL
MODEL 4
REMARK VINA RESULT:    -3.480      1.952      3.480
REMARK INTER + INTRA:          -4.003
REMARK INTER:                  -3.762
REMARK INTRA:                  -0.242
REMARK UNBOUND:                -0.219
REMARK SMILES O=C([O-])c1ccccc1O
REMARK SMILES IDX 4 1 9 2 5 3 8 4 6 5 7 6 2 7 1 8 3 9 10 10
REMARK H PARENT 10 11
REMARK Flexibility Score: inf
ROOT
ATOM      1  C   UNL     1     -95.641 149.106 239.540  1.00  0.00     0.039 A 
ATOM      2  C   UNL     1     -95.776 147.999 240.419  1.00  0.00     0.124 A 
ATOM      3  C   UNL     1     -96.451 150.238 239.744  1.00  0.00     0.014 A 
ATOM      4  C   UNL     1     -96.749 148.031 241.428  1.00  0.00     0.047 A 
ATOM      5  C   UNL     1     -97.401 150.261 240.768  1.00  0.00     0.001 A 
ATOM      6  C   UNL     1     -97.556 149.155 241.602  1.00  0.00     0.004 A 
ENDROOT
BRANCH   1   7
ATOM      7  C   UNL     1     -94.708 149.108 238.393  1.00  0.00     0.075 C 
ATOM      8  O   UNL     1     -93.611 148.492 238.448  1.00  0.00    -0.545 OA
ATOM      9  O   UNL     1     -95.065 149.741 237.207  1.00  0.00    -0.545 OA
ENDBRANCH   1   7
BRANCH   2  10
ATOM     10  O   UNL     1     -94.950 146.876 240.349  1.00  0.00    -0.507 OA
ATOM     11  H   UNL     1     -94.533 146.437 241.158  1.00  0.00     0.293 HD
ENDBRANCH   2  10
TORSDOF 2
ENDMDL
MODEL 5
REMARK VINA RESULT:    -3.479     13.478     14.416
REMARK INTER + INTRA:          -4.002
REMARK INTER:                  -3.783
REMARK INTRA:                  -0.219
REMARK UNBOUND:                -0.219
REMARK SMILES O=C([O-])c1ccccc1O
REMARK SMILES IDX 4 1 9 2 5 3 8 4 6 5 7 6 2 7 1 8 3 9 10 10
REMARK H PARENT 10 11
REMARK Flexibility Score: inf
ROOT
ATOM      1  C   UNL     1     -93.563 161.098 232.995  1.00  0.00     0.039 A 
ATOM      2  C   UNL     1     -92.503 160.162 232.874  1.00  0.00     0.124 A 
ATOM      3  C   UNL     1     -93.257 162.471 233.027  1.00  0.00     0.014 A 
ATOM      4  C   UNL     1     -91.178 160.616 232.851  1.00  0.00     0.047 A 
ATOM      5  C   UNL     1     -91.931 162.907 232.981  1.00  0.00     0.001 A 
ATOM      6  C   UNL     1     -90.892 161.980 232.904  1.00  0.00     0.004 A 
ENDROOT
BRANCH   1   7
ATOM      7  C   UNL     1     -94.980 160.693 233.125  1.00  0.00     0.075 C 
ATOM      8  O   UNL     1     -95.294 159.490 233.324  1.00  0.00    -0.545 OA
ATOM      9  O   UNL     1     -95.984 161.654 233.097  1.00  0.00    -0.545 OA
ENDBRANCH   1   7
BRANCH   2  10
ATOM     10  O   UNL     1     -92.721 158.789 232.740  1.00  0.00    -0.507 OA
ATOM     11  H   UNL     1     -92.250 158.212 232.058  1.00  0.00     0.293 HD
ENDBRANCH   2  10
TORSDOF 2
ENDMDL
MODEL 6
REMARK VINA RESULT:    -3.457      2.628      4.302
REMARK INTER + INTRA:          -3.979
REMARK INTER:                  -3.730
REMARK INTRA:                  -0.249
REMARK UNBOUND:                -0.219
REMARK SMILES O=C([O-])c1ccccc1O
REMARK SMILES IDX 4 1 9 2 5 3 8 4 6 5 7 6 2 7 1 8 3 9 10 10
REMARK H PARENT 10 11
REMARK Flexibility Score: inf
ROOT
ATOM      1  C   UNL     1     -94.377 147.810 238.491  1.00  0.00     0.039 A 
ATOM      2  C   UNL     1     -95.104 148.998 238.215  1.00  0.00     0.124 A 
ATOM      3  C   UNL     1     -94.627 147.125 239.694  1.00  0.00     0.014 A 
ATOM      4  C   UNL     1     -96.005 149.495 239.165  1.00  0.00     0.047 A 
ATOM      5  C   UNL     1     -95.545 147.624 240.621  1.00  0.00     0.001 A 
ATOM      6  C   UNL     1     -96.225 148.813 240.361  1.00  0.00     0.004 A 
ENDROOT
BRANCH   1   7
ATOM      7  C   UNL     1     -93.338 147.276 237.584  1.00  0.00     0.075 C 
ATOM      8  O   UNL     1     -93.524 147.235 236.339  1.00  0.00    -0.545 OA
ATOM      9  O   UNL     1     -92.108 146.875 238.094  1.00  0.00    -0.545 OA
ENDBRANCH   1   7
BRANCH   2  10
ATOM     10  O   UNL     1     -94.988 149.688 237.006  1.00  0.00    -0.507 OA
ATOM     11  H   UNL     1     -95.780 149.982 236.452  1.00  0.00     0.293 HD
ENDBRANCH   2  10
TORSDOF 2
ENDMDL
MODEL 7
REMARK VINA RESULT:    -3.383      2.066      2.721
REMARK INTER + INTRA:          -3.898
REMARK INTER:                  -3.649
REMARK INTRA:                  -0.249
REMARK UNBOUND:                -0.219
REMARK SMILES O=C([O-])c1ccccc1O
REMARK SMILES IDX 4 1 9 2 5 3 8 4 6 5 7 6 2 7 1 8 3 9 10 10
REMARK H PARENT 10 11
REMARK Flexibility Score: inf
ROOT
ATOM      1  C   UNL     1     -97.593 149.361 241.464  1.00  0.00     0.039 A 
ATOM      2  C   UNL     1     -97.070 148.043 241.391  1.00  0.00     0.124 A 
ATOM      3  C   UNL     1     -96.977 150.379 240.713  1.00  0.00     0.014 A 
ATOM      4  C   UNL     1     -95.922 147.795 240.628  1.00  0.00     0.047 A 
ATOM      5  C   UNL     1     -95.845 150.109 239.941  1.00  0.00     0.001 A 
ATOM      6  C   UNL     1     -95.312 148.821 239.907  1.00  0.00     0.004 A 
ENDROOT
BRANCH   1   7
ATOM      7  C   UNL     1     -98.742 149.722 242.324  1.00  0.00     0.075 C 
ATOM      8  O   UNL     1     -98.717 150.759 243.037  1.00  0.00    -0.545 OA
ATOM      9  O   UNL     1     -99.897 148.949 242.301  1.00  0.00    -0.545 OA
ENDBRANCH   1   7
BRANCH   2  10
ATOM     10  O   UNL     1     -97.675 146.956 242.026  1.00  0.00    -0.507 OA
ATOM     11  H   UNL     1     -98.674 146.863 242.146  1.00  0.00     0.293 HD
ENDBRANCH   2  10
TORSDOF 2
ENDMDL
MODEL 8
REMARK VINA RESULT:    -3.282      2.716      4.169
REMARK INTER + INTRA:          -3.789
REMARK INTER:                  -3.552
REMARK INTRA:                  -0.237
REMARK UNBOUND:                -0.219
REMARK SMILES O=C([O-])c1ccccc1O
REMARK SMILES IDX 4 1 9 2 5 3 8 4 6 5 7 6 2 7 1 8 3 9 10 10
REMARK H PARENT 10 11
REMARK Flexibility Score: inf
ROOT
ATOM      1  C   UNL     1     -95.653 149.132 238.409  1.00  0.00     0.039 A 
ATOM      2  C   UNL     1     -96.991 149.148 237.933  1.00  0.00     0.124 A 
ATOM      3  C   UNL     1     -95.376 149.678 239.676  1.00  0.00     0.014 A 
ATOM      4  C   UNL     1     -97.991 149.758 238.701  1.00  0.00     0.047 A 
ATOM      5  C   UNL     1     -96.390 150.263 240.437  1.00  0.00     0.001 A 
ATOM      6  C   UNL     1     -97.694 150.312 239.946  1.00  0.00     0.004 A 
ENDROOT
BRANCH   1   7
ATOM      7  C   UNL     1     -94.526 148.596 237.614  1.00  0.00     0.075 C 
ATOM      8  O   UNL     1     -93.496 148.140 238.177  1.00  0.00    -0.545 OA
ATOM      9  O   UNL     1     -94.623 148.528 236.229  1.00  0.00    -0.545 OA
ENDBRANCH   1   7
BRANCH   2  10
ATOM     10  O   UNL     1     -97.371 148.545 236.732  1.00  0.00    -0.507 OA
ATOM     11  H   UNL     1     -98.258 148.713 236.278  1.00  0.00     0.293 HD
ENDBRANCH   2  10
TORSDOF 2
ENDMDL
MODEL 9
REMARK VINA RESULT:    -3.166      8.289      9.642
REMARK INTER + INTRA:          -3.662
REMARK INTER:                  -3.427
REMARK INTRA:                  -0.236
REMARK UNBOUND:                -0.219
REMARK SMILES O=C([O-])c1ccccc1O
REMARK SMILES IDX 4 1 9 2 5 3 8 4 6 5 7 6 2 7 1 8 3 9 10 10
REMARK H PARENT 10 11
REMARK Flexibility Score: inf
ROOT
ATOM      1  C   UNL     1     -98.369 155.263 233.154  1.00  0.00     0.039 A 
ATOM      2  C   UNL     1     -97.621 154.857 234.290  1.00  0.00     0.124 A 
ATOM      3  C   UNL     1     -98.468 154.388 232.058  1.00  0.00     0.014 A 
ATOM      4  C   UNL     1     -96.950 153.628 234.274  1.00  0.00     0.047 A 
ATOM      5  C   UNL     1     -97.810 153.156 232.067  1.00  0.00     0.001 A 
ATOM      6  C   UNL     1     -97.043 152.781 233.169  1.00  0.00     0.004 A 
ENDROOT
BRANCH   1   7
ATOM      7  C   UNL     1     -99.023 156.587 233.057  1.00  0.00     0.075 C 
ATOM      8  O   UNL     1    -100.247 156.685 232.779  1.00  0.00    -0.545 OA
ATOM      9  O   UNL     1     -98.303 157.741 233.340  1.00  0.00    -0.545 OA
ENDBRANCH   1   7
BRANCH   2  10
ATOM     10  O   UNL     1     -97.548 155.621 235.458  1.00  0.00    -0.507 OA
ATOM     11  H   UNL     1     -97.355 155.231 236.370  1.00  0.00     0.293 HD
ENDBRANCH   2  10
TORSDOF 2
ENDMDL
