MODEL 1
REMARK VINA RESULT:    -6.895      0.000      0.000
REMARK INTER + INTRA:          -9.095
REMARK INTER:                  -8.104
REMARK INTRA:                  -0.991
REMARK UNBOUND:                -0.991
REMARK SMILES C=C(C)[C@H]1CC[C@@]2(CO)CC[C@]3(C)[C@@H](CC[C@@H]4[C@@]5(C)CC[C@H](O)C(C)(C)[C@@H]5CC[C@@]43C)[C@@H]12
REMARK SMILES IDX 4 1 5 2 6 3 7 4 32 5 14 6 15 7 16 8 17 9 18 10 20 11 21 12
REMARK SMILES IDX 22 13 24 14 27 15 28 16 29 17 30 18 12 19 11 20 10 21 13 22
REMARK SMILES IDX 31 23 25 24 26 25 19 26 2 27 3 28 1 29 8 30 9 31 23 33
REMARK H PARENT 9 32 23 34
REMARK Flexibility Score: inf
ROOT
ATOM      1  C   UNL     1     -43.294 -13.155   0.096  1.00  0.00     0.018 C 
ATOM      2  C   UNL     1     -43.708 -14.594  -0.227  1.00  0.00     0.009 C 
ATOM      3  C   UNL     1     -43.374 -14.824  -1.696  1.00  0.00     0.010 C 
ATOM      4  C   UNL     1     -42.189 -13.888  -2.058  1.00  0.00    -0.003 C 
ATOM      5  C   UNL     1     -42.087 -12.887  -0.860  1.00  0.00     0.008 C 
ATOM      6  C   UNL     1     -41.555 -11.444  -1.206  1.00  0.00    -0.000 C 
ATOM      7  C   UNL     1     -41.565 -10.483  -0.026  1.00  0.00     0.005 C 
ATOM      8  C   UNL     1     -40.892  -9.178  -0.439  1.00  0.00     0.005 C 
ATOM      9  C   UNL     1     -41.797  -8.360  -1.396  1.00  0.00     0.002 C 
ATOM     10  C   UNL     1     -42.634  -7.240  -0.592  1.00  0.00    -0.026 C 
ATOM     11  C   UNL     1     -41.648  -6.067  -0.200  1.00  0.00     0.010 C 
ATOM     12  C   UNL     1     -42.094  -4.668  -0.642  1.00  0.00     0.033 C 
ATOM     13  C   UNL     1     -43.560  -4.412  -0.289  1.00  0.00     0.120 C 
ATOM     14  C   UNL     1     -44.520  -5.372  -1.089  1.00  0.00    -0.006 C 
ATOM     15  C   UNL     1     -43.782  -6.722  -1.517  1.00  0.00     0.003 C 
ATOM     16  C   UNL     1     -44.748  -7.872  -1.935  1.00  0.00     0.005 C 
ATOM     17  C   UNL     1     -44.092  -9.265  -2.114  1.00  0.00     0.008 C 
ATOM     18  C   UNL     1     -42.581  -9.261  -2.479  1.00  0.00    -0.024 C 
ATOM     19  C   UNL     1     -41.966 -10.782  -2.598  1.00  0.00    -0.024 C 
ATOM     20  C   UNL     1     -42.954 -11.751  -3.325  1.00  0.00     0.008 C 
ATOM     21  C   UNL     1     -42.439 -13.190  -3.435  1.00  0.00     0.010 C 
ATOM     22  C   UNL     1     -40.665 -10.719  -3.482  1.00  0.00     0.012 C 
ATOM     23  C   UNL     1     -42.496  -8.588  -3.906  1.00  0.00     0.012 C 
ATOM     24  C   UNL     1     -45.829  -5.608  -0.283  1.00  0.00     0.014 C 
ATOM     25  C   UNL     1     -44.950  -4.627  -2.384  1.00  0.00     0.014 C 
ATOM     26  C   UNL     1     -43.261  -7.774   0.738  1.00  0.00     0.012 C 
ENDROOT
BRANCH   1  27
ATOM     27  C   UNL     1     -44.495 -12.202   0.125  1.00  0.00    -0.077 C 
ATOM     28  C   UNL     1     -44.651 -11.268   1.302  1.00  0.00     0.039 C 
ATOM     29  C   UNL     1     -45.562 -12.340  -0.684  1.00  0.00     0.008 C 
ENDBRANCH   1  27
BRANCH   4  30
ATOM     30  C   UNL     1     -40.884 -14.734  -2.186  1.00  0.00     0.163 C 
BRANCH  30  31
ATOM     31  O   UNL     1     -40.282 -14.950  -0.932  1.00  0.00    -0.396 OA
ATOM     32  H   UNL     1     -40.816 -15.637  -0.458  1.00  0.00     0.210 HD
ENDBRANCH  30  31
ENDBRANCH   4  30
BRANCH  13  33
ATOM     33  O   UNL     1     -43.716  -4.541   1.105  1.00  0.00    -0.393 OA
ATOM     34  H   UNL     1     -43.455  -3.677   1.518  1.00  0.00     0.210 HD
ENDBRANCH  13  33
TORSDOF 4
ENDMDL
MODEL 2
REMARK VINA RESULT:    -6.584     17.161     20.811
REMARK INTER + INTRA:          -8.730
REMARK INTER:                  -7.811
REMARK INTRA:                  -0.919
REMARK UNBOUND:                -0.991
REMARK SMILES C=C(C)[C@H]1CC[C@@]2(CO)CC[C@]3(C)[C@@H](CC[C@@H]4[C@@]5(C)CC[C@H](O)C(C)(C)[C@@H]5CC[C@@]43C)[C@@H]12
REMARK SMILES IDX 4 1 5 2 6 3 7 4 32 5 14 6 15 7 16 8 17 9 18 10 20 11 21 12
REMARK SMILES IDX 22 13 24 14 27 15 28 16 29 17 30 18 12 19 11 20 10 21 13 22
REMARK SMILES IDX 31 23 25 24 26 25 19 26 2 27 3 28 1 29 8 30 9 31 23 33
REMARK H PARENT 9 32 23 34
REMARK Flexibility Score: inf
ROOT
ATOM      1  C   UNL     1     -52.746 -14.825  13.653  1.00  0.00     0.018 C 
ATOM      2  C   UNL     1     -51.714 -14.121  14.539  1.00  0.00     0.009 C 
ATOM      3  C   UNL     1     -50.594 -15.125  14.786  1.00  0.00     0.010 C 
ATOM      4  C   UNL     1     -50.559 -16.093  13.573  1.00  0.00    -0.003 C 
ATOM      5  C   UNL     1     -51.895 -15.823  12.804  1.00  0.00     0.008 C 
ATOM      6  C   UNL     1     -52.510 -17.052  12.030  1.00  0.00    -0.000 C 
ATOM      7  C   UNL     1     -53.855 -16.760  11.379  1.00  0.00     0.005 C 
ATOM      8  C   UNL     1     -54.273 -17.963  10.540  1.00  0.00     0.005 C 
ATOM      9  C   UNL     1     -54.716 -19.146  11.439  1.00  0.00     0.002 C 
ATOM     10  C   UNL     1     -56.319 -19.180  11.612  1.00  0.00    -0.026 C 
ATOM     11  C   UNL     1     -56.955 -19.707  10.263  1.00  0.00     0.010 C 
ATOM     12  C   UNL     1     -57.902 -20.903  10.414  1.00  0.00     0.033 C 
ATOM     13  C   UNL     1     -58.905 -20.681  11.548  1.00  0.00     0.120 C 
ATOM     14  C   UNL     1     -58.185 -20.604  12.946  1.00  0.00    -0.006 C 
ATOM     15  C   UNL     1     -56.667 -20.128  12.804  1.00  0.00     0.003 C 
ATOM     16  C   UNL     1     -56.024 -19.638  14.137  1.00  0.00     0.005 C 
ATOM     17  C   UNL     1     -54.648 -18.937  13.998  1.00  0.00     0.008 C 
ATOM     18  C   UNL     1     -53.806 -19.339  12.755  1.00  0.00    -0.024 C 
ATOM     19  C   UNL     1     -52.390 -18.507  12.671  1.00  0.00    -0.024 C 
ATOM     20  C   UNL     1     -51.714 -18.367  14.073  1.00  0.00     0.008 C 
ATOM     21  C   UNL     1     -50.404 -17.573  14.053  1.00  0.00     0.010 C 
ATOM     22  C   UNL     1     -51.391 -19.327  11.770  1.00  0.00     0.012 C 
ATOM     23  C   UNL     1     -53.462 -20.867  12.957  1.00  0.00     0.012 C 
ATOM     24  C   UNL     1     -59.020 -19.734  13.928  1.00  0.00     0.014 C 
ATOM     25  C   UNL     1     -58.185 -22.038  13.549  1.00  0.00     0.014 C 
ATOM     26  C   UNL     1     -56.940 -17.772  11.891  1.00  0.00     0.012 C 
ENDROOT
BRANCH   1  27
ATOM     27  C   UNL     1     -53.956 -15.317  14.456  1.00  0.00    -0.077 C 
ATOM     28  C   UNL     1     -55.341 -14.935  13.988  1.00  0.00     0.039 C 
ATOM     29  C   UNL     1     -53.856 -15.823  15.700  1.00  0.00     0.008 C 
ENDBRANCH   1  27
BRANCH   4  30
ATOM     30  C   UNL     1     -49.327 -15.754  12.677  1.00  0.00     0.163 C 
BRANCH  30  31
ATOM     31  O   UNL     1     -48.130 -15.763  13.418  1.00  0.00    -0.396 OA
ATOM     32  H   UNL     1     -48.076 -16.635  13.887  1.00  0.00     0.210 HD
ENDBRANCH  30  31
ENDBRANCH   4  30
BRANCH  13  33
ATOM     33  O   UNL     1     -59.650 -19.519  11.266  1.00  0.00    -0.393 OA
ATOM     34  H   UNL     1     -60.167 -19.687  10.435  1.00  0.00     0.210 HD
ENDBRANCH  13  33
TORSDOF 4
ENDMDL
MODEL 3
REMARK VINA RESULT:    -6.455     17.045     20.275
REMARK INTER + INTRA:          -8.579
REMARK INTER:                  -7.673
REMARK INTRA:                  -0.905
REMARK UNBOUND:                -0.991
REMARK SMILES C=C(C)[C@H]1CC[C@@]2(CO)CC[C@]3(C)[C@@H](CC[C@@H]4[C@@]5(C)CC[C@H](O)C(C)(C)[C@@H]5CC[C@@]43C)[C@@H]12
REMARK SMILES IDX 4 1 5 2 6 3 7 4 32 5 14 6 15 7 16 8 17 9 18 10 20 11 21 12
REMARK SMILES IDX 22 13 24 14 27 15 28 16 29 17 30 18 12 19 11 20 10 21 13 22
REMARK SMILES IDX 31 23 25 24 26 25 19 26 2 27 3 28 1 29 8 30 9 31 23 33
REMARK H PARENT 9 32 23 34
REMARK Flexibility Score: inf
ROOT
ATOM      1  C   UNL     1     -57.807 -18.609  12.269  1.00  0.00     0.018 C 
ATOM      2  C   UNL     1     -59.096 -19.162  11.654  1.00  0.00     0.009 C 
ATOM      3  C   UNL     1     -58.824 -20.623  11.312  1.00  0.00     0.010 C 
ATOM      4  C   UNL     1     -57.737 -21.137  12.295  1.00  0.00    -0.003 C 
ATOM      5  C   UNL     1     -57.162 -19.848  12.970  1.00  0.00     0.008 C 
ATOM      6  C   UNL     1     -55.649 -19.911  13.408  1.00  0.00    -0.000 C 
ATOM      7  C   UNL     1     -55.115 -18.601  13.972  1.00  0.00     0.005 C 
ATOM      8  C   UNL     1     -53.701 -18.825  14.497  1.00  0.00     0.005 C 
ATOM      9  C   UNL     1     -52.690 -18.991  13.333  1.00  0.00     0.002 C 
ATOM     10  C   UNL     1     -51.948 -17.598  13.002  1.00  0.00    -0.026 C 
ATOM     11  C   UNL     1     -50.890 -17.315  14.144  1.00  0.00     0.010 C 
ATOM     12  C   UNL     1     -49.460 -17.056  13.656  1.00  0.00     0.033 C 
ATOM     13  C   UNL     1     -49.437 -16.051  12.502  1.00  0.00     0.120 C 
ATOM     14  C   UNL     1     -50.161 -16.624  11.226  1.00  0.00    -0.006 C 
ATOM     15  C   UNL     1     -51.248 -17.729  11.611  1.00  0.00     0.003 C 
ATOM     16  C   UNL     1     -52.275 -18.036  10.478  1.00  0.00     0.005 C 
ATOM     17  C   UNL     1     -53.487 -18.910  10.892  1.00  0.00     0.008 C 
ATOM     18  C   UNL     1     -53.256 -19.860  12.099  1.00  0.00    -0.024 C 
ATOM     19  C   UNL     1     -54.612 -20.705  12.492  1.00  0.00    -0.024 C 
ATOM     20  C   UNL     1     -55.371 -21.208  11.221  1.00  0.00     0.008 C 
ATOM     21  C   UNL     1     -56.659 -21.976  11.534  1.00  0.00     0.010 C 
ATOM     22  C   UNL     1     -54.177 -21.989  13.294  1.00  0.00     0.012 C 
ATOM     23  C   UNL     1     -52.162 -20.892  11.617  1.00  0.00     0.012 C 
ATOM     24  C   UNL     1     -50.736 -15.458  10.372  1.00  0.00     0.014 C 
ATOM     25  C   UNL     1     -49.078 -17.303  10.341  1.00  0.00     0.014 C 
ATOM     26  C   UNL     1     -52.919 -16.373  12.964  1.00  0.00     0.012 C 
ENDROOT
BRANCH   1  27
ATOM     27  C   UNL     1     -57.003 -17.771  11.268  1.00  0.00    -0.077 C 
ATOM     28  C   UNL     1     -56.620 -16.359  11.647  1.00  0.00     0.039 C 
ATOM     29  C   UNL     1     -56.862 -18.109   9.973  1.00  0.00     0.008 C 
ENDBRANCH   1  27
BRANCH   4  30
ATOM     30  C   UNL     1     -58.401 -22.069  13.356  1.00  0.00     0.163 C 
BRANCH  30  31
ATOM     31  O   UNL     1     -59.799 -22.112  13.206  1.00  0.00    -0.396 OA
ATOM     32  H   UNL     1     -60.186 -21.423  13.805  1.00  0.00     0.210 HD
ENDBRANCH  30  31
ENDBRANCH   4  30
BRANCH  13  33
ATOM     33  O   UNL     1     -50.012 -14.844  12.946  1.00  0.00    -0.393 OA
ATOM     34  H   UNL     1     -50.941 -14.809  12.599  1.00  0.00     0.210 HD
ENDBRANCH  13  33
TORSDOF 4
ENDMDL
MODEL 4
REMARK VINA RESULT:    -6.455      9.231     12.647
REMARK INTER + INTRA:          -8.578
REMARK INTER:                  -7.582
REMARK INTRA:                  -0.996
REMARK UNBOUND:                -0.991
REMARK SMILES C=C(C)[C@H]1CC[C@@]2(CO)CC[C@]3(C)[C@@H](CC[C@@H]4[C@@]5(C)CC[C@H](O)C(C)(C)[C@@H]5CC[C@@]43C)[C@@H]12
REMARK SMILES IDX 4 1 5 2 6 3 7 4 32 5 14 6 15 7 16 8 17 9 18 10 20 11 21 12
REMARK SMILES IDX 22 13 24 14 27 15 28 16 29 17 30 18 12 19 11 20 10 21 13 22
REMARK SMILES IDX 31 23 25 24 26 25 19 26 2 27 3 28 1 29 8 30 9 31 23 33
REMARK H PARENT 9 32 23 34
REMARK Flexibility Score: inf
ROOT
ATOM      1  C   UNL     1     -52.733 -15.710   7.885  1.00  0.00     0.018 C 
ATOM      2  C   UNL     1     -53.312 -16.341   9.155  1.00  0.00     0.009 C 
ATOM      3  C   UNL     1     -53.418 -15.223  10.188  1.00  0.00     0.010 C 
ATOM      4  C   UNL     1     -53.596 -13.889   9.414  1.00  0.00    -0.003 C 
ATOM      5  C   UNL     1     -53.249 -14.235   7.928  1.00  0.00     0.008 C 
ATOM      6  C   UNL     1     -52.622 -13.069   7.073  1.00  0.00    -0.000 C 
ATOM      7  C   UNL     1     -52.217 -13.485   5.666  1.00  0.00     0.005 C 
ATOM      8  C   UNL     1     -51.770 -12.250   4.890  1.00  0.00     0.005 C 
ATOM      9  C   UNL     1     -50.386 -11.752   5.379  1.00  0.00     0.002 C 
ATOM     10  C   UNL     1     -49.199 -12.313   4.442  1.00  0.00    -0.026 C 
ATOM     11  C   UNL     1     -49.225 -11.515   3.076  1.00  0.00     0.010 C 
ATOM     12  C   UNL     1     -47.896 -10.863   2.678  1.00  0.00     0.033 C 
ATOM     13  C   UNL     1     -46.728 -11.841   2.823  1.00  0.00     0.120 C 
ATOM     14  C   UNL     1     -46.502 -12.247   4.327  1.00  0.00    -0.006 C 
ATOM     15  C   UNL     1     -47.841 -12.104   5.186  1.00  0.00     0.003 C 
ATOM     16  C   UNL     1     -47.809 -12.862   6.549  1.00  0.00     0.005 C 
ATOM     17  C   UNL     1     -49.166 -12.958   7.292  1.00  0.00     0.008 C 
ATOM     18  C   UNL     1     -50.193 -11.834   6.977  1.00  0.00    -0.024 C 
ATOM     19  C   UNL     1     -51.615 -12.051   7.775  1.00  0.00    -0.024 C 
ATOM     20  C   UNL     1     -51.388 -12.528   9.246  1.00  0.00     0.008 C 
ATOM     21  C   UNL     1     -52.686 -12.773  10.023  1.00  0.00     0.010 C 
ATOM     22  C   UNL     1     -52.348 -10.660   7.860  1.00  0.00     0.012 C 
ATOM     23  C   UNL     1     -49.533 -10.502   7.512  1.00  0.00     0.012 C 
ATOM     24  C   UNL     1     -45.861 -13.662   4.406  1.00  0.00     0.014 C 
ATOM     25  C   UNL     1     -45.445 -11.272   4.919  1.00  0.00     0.014 C 
ATOM     26  C   UNL     1     -49.353 -13.829   4.090  1.00  0.00     0.012 C 
ENDROOT
BRANCH   1  27
ATOM     27  C   UNL     1     -51.238 -16.010   7.722  1.00  0.00    -0.077 C 
ATOM     28  C   UNL     1     -50.740 -16.502   6.382  1.00  0.00     0.039 C 
ATOM     29  C   UNL     1     -50.396 -16.136   8.764  1.00  0.00     0.008 C 
ENDBRANCH   1  27
BRANCH   4  30
ATOM     30  C   UNL     1     -55.077 -13.413   9.540  1.00  0.00     0.163 C 
BRANCH  30  31
ATOM     31  O   UNL     1     -55.853 -13.840   8.447  1.00  0.00    -0.396 OA
ATOM     32  H   UNL     1     -55.375 -14.596   8.018  1.00  0.00     0.210 HD
ENDBRANCH  30  31
ENDBRANCH   4  30
BRANCH  13  33
ATOM     33  O   UNL     1     -46.973 -12.957   2.000  1.00  0.00    -0.393 OA
ATOM     34  H   UNL     1     -46.394 -12.872   1.197  1.00  0.00     0.210 HD
ENDBRANCH  13  33
TORSDOF 4
ENDMDL
MODEL 5
REMARK VINA RESULT:    -6.386     16.692     20.471
REMARK INTER + INTRA:          -8.497
REMARK INTER:                  -7.513
REMARK INTRA:                  -0.984
REMARK UNBOUND:                -0.991
REMARK SMILES C=C(C)[C@H]1CC[C@@]2(CO)CC[C@]3(C)[C@@H](CC[C@@H]4[C@@]5(C)CC[C@H](O)C(C)(C)[C@@H]5CC[C@@]43C)[C@@H]12
REMARK SMILES IDX 4 1 5 2 6 3 7 4 32 5 14 6 15 7 16 8 17 9 18 10 20 11 21 12
REMARK SMILES IDX 22 13 24 14 27 15 28 16 29 17 30 18 12 19 11 20 10 21 13 22
REMARK SMILES IDX 31 23 25 24 26 25 19 26 2 27 3 28 1 29 8 30 9 31 23 33
REMARK H PARENT 9 32 23 34
REMARK Flexibility Score: inf
ROOT
ATOM      1  C   UNL     1     -51.745 -14.920  11.813  1.00  0.00     0.018 C 
ATOM      2  C   UNL     1     -51.091 -13.628  12.312  1.00  0.00     0.009 C 
ATOM      3  C   UNL     1     -50.862 -13.805  13.808  1.00  0.00     0.010 C 
ATOM      4  C   UNL     1     -50.696 -15.325  14.078  1.00  0.00    -0.003 C 
ATOM      5  C   UNL     1     -51.173 -16.022  12.761  1.00  0.00     0.008 C 
ATOM      6  C   UNL     1     -51.822 -17.450  12.928  1.00  0.00    -0.000 C 
ATOM      7  C   UNL     1     -52.353 -18.041  11.630  1.00  0.00     0.005 C 
ATOM      8  C   UNL     1     -52.814 -19.472  11.886  1.00  0.00     0.005 C 
ATOM      9  C   UNL     1     -54.135 -19.499  12.696  1.00  0.00     0.002 C 
ATOM     10  C   UNL     1     -55.413 -19.656  11.725  1.00  0.00    -0.026 C 
ATOM     11  C   UNL     1     -55.465 -21.151  11.211  1.00  0.00     0.010 C 
ATOM     12  C   UNL     1     -56.797 -21.874  11.448  1.00  0.00     0.033 C 
ATOM     13  C   UNL     1     -57.985 -21.010  11.019  1.00  0.00     0.120 C 
ATOM     14  C   UNL     1     -58.106 -19.717  11.909  1.00  0.00    -0.006 C 
ATOM     15  C   UNL     1     -56.699 -19.298  12.536  1.00  0.00     0.003 C 
ATOM     16  C   UNL     1     -56.650 -17.834  13.074  1.00  0.00     0.005 C 
ATOM     17  C   UNL     1     -55.243 -17.309  13.458  1.00  0.00     0.008 C 
ATOM     18  C   UNL     1     -54.204 -18.391  13.865  1.00  0.00    -0.024 C 
ATOM     19  C   UNL     1     -52.732 -17.740  14.205  1.00  0.00    -0.024 C 
ATOM     20  C   UNL     1     -52.858 -16.415  15.024  1.00  0.00     0.008 C 
ATOM     21  C   UNL     1     -51.513 -15.753  15.341  1.00  0.00     0.010 C 
ATOM     22  C   UNL     1     -51.942 -18.757  15.113  1.00  0.00     0.012 C 
ATOM     23  C   UNL     1     -54.769 -19.037  15.191  1.00  0.00     0.012 C 
ATOM     24  C   UNL     1     -58.791 -18.577  11.102  1.00  0.00     0.014 C 
ATOM     25  C   UNL     1     -59.075 -20.046  13.079  1.00  0.00     0.014 C 
ATOM     26  C   UNL     1     -55.344 -18.740  10.459  1.00  0.00     0.012 C 
ENDROOT
BRANCH   1  27
ATOM     27  C   UNL     1     -53.258 -14.764  11.620  1.00  0.00    -0.077 C 
ATOM     28  C   UNL     1     -53.867 -15.175  10.300  1.00  0.00     0.039 C 
ATOM     29  C   UNL     1     -54.031 -14.025  12.438  1.00  0.00     0.008 C 
ENDBRANCH   1  27
BRANCH   4  30
ATOM     30  C   UNL     1     -49.193 -15.638  14.358  1.00  0.00     0.163 C 
BRANCH  30  31
ATOM     31  O   UNL     1     -48.450 -15.719  13.165  1.00  0.00    -0.396 OA
ATOM     32  H   UNL     1     -48.056 -16.628  13.120  1.00  0.00     0.210 HD
ENDBRANCH  30  31
ENDBRANCH   4  30
BRANCH  13  33
ATOM     33  O   UNL     1     -57.848 -20.706   9.651  1.00  0.00    -0.393 OA
ATOM     34  H   UNL     1     -57.380 -19.833   9.582  1.00  0.00     0.210 HD
ENDBRANCH  13  33
TORSDOF 4
ENDMDL
MODEL 6
REMARK VINA RESULT:    -6.280      8.135     10.378
REMARK INTER + INTRA:          -8.372
REMARK INTER:                  -7.371
REMARK INTRA:                  -1.001
REMARK UNBOUND:                -0.991
REMARK SMILES C=C(C)[C@H]1CC[C@@]2(CO)CC[C@]3(C)[C@@H](CC[C@@H]4[C@@]5(C)CC[C@H](O)C(C)(C)[C@@H]5CC[C@@]43C)[C@@H]12
REMARK SMILES IDX 4 1 5 2 6 3 7 4 32 5 14 6 15 7 16 8 17 9 18 10 20 11 21 12
REMARK SMILES IDX 22 13 24 14 27 15 28 16 29 17 30 18 12 19 11 20 10 21 13 22
REMARK SMILES IDX 31 23 25 24 26 25 19 26 2 27 3 28 1 29 8 30 9 31 23 33
REMARK H PARENT 9 32 23 34
REMARK Flexibility Score: inf
ROOT
ATOM      1  C   UNL     1     -49.946 -13.662   7.324  1.00  0.00     0.018 C 
ATOM      2  C   UNL     1     -49.618 -15.151   7.181  1.00  0.00     0.009 C 
ATOM      3  C   UNL     1     -48.754 -15.289   5.932  1.00  0.00     0.010 C 
ATOM      4  C   UNL     1     -47.996 -13.948   5.739  1.00  0.00    -0.003 C 
ATOM      5  C   UNL     1     -48.705 -12.941   6.705  1.00  0.00     0.008 C 
ATOM      6  C   UNL     1     -48.712 -11.432   6.250  1.00  0.00    -0.000 C 
ATOM      7  C   UNL     1     -49.496 -10.512   7.177  1.00  0.00     0.005 C 
ATOM      8  C   UNL     1     -49.305  -9.068   6.724  1.00  0.00     0.005 C 
ATOM      9  C   UNL     1     -50.089  -8.783   5.418  1.00  0.00     0.002 C 
ATOM     10  C   UNL     1     -51.519  -8.105   5.731  1.00  0.00    -0.026 C 
ATOM     11  C   UNL     1     -51.274  -6.599   6.148  1.00  0.00     0.010 C 
ATOM     12  C   UNL     1     -52.068  -5.564   5.343  1.00  0.00     0.033 C 
ATOM     13  C   UNL     1     -53.541  -5.960   5.222  1.00  0.00     0.120 C 
ATOM     14  C   UNL     1     -53.713  -7.285   4.387  1.00  0.00    -0.006 C 
ATOM     15  C   UNL     1     -52.401  -8.193   4.445  1.00  0.00     0.003 C 
ATOM     16  C   UNL     1     -52.628  -9.672   4.004  1.00  0.00     0.005 C 
ATOM     17  C   UNL     1     -51.451 -10.642   4.281  1.00  0.00     0.008 C 
ATOM     18  C   UNL     1     -50.041  -9.993   4.353  1.00  0.00    -0.024 C 
ATOM     19  C   UNL     1     -48.868 -11.092   4.700  1.00  0.00    -0.024 C 
ATOM     20  C   UNL     1     -49.084 -12.434   3.928  1.00  0.00     0.008 C 
ATOM     21  C   UNL     1     -48.033 -13.504   4.240  1.00  0.00     0.010 C 
ATOM     22  C   UNL     1     -47.488 -10.511   4.214  1.00  0.00     0.012 C 
ATOM     23  C   UNL     1     -49.765  -9.427   2.904  1.00  0.00     0.012 C 
ATOM     24  C   UNL     1     -55.004  -8.029   4.831  1.00  0.00     0.014 C 
ATOM     25  C   UNL     1     -53.949  -6.875   2.906  1.00  0.00     0.014 C 
ATOM     26  C   UNL     1     -52.281  -8.789   6.913  1.00  0.00     0.012 C 
ENDROOT
BRANCH   1  27
ATOM     27  C   UNL     1     -51.363 -13.334   6.839  1.00  0.00    -0.077 C 
ATOM     28  C   UNL     1     -52.273 -12.536   7.744  1.00  0.00     0.039 C 
ATOM     29  C   UNL     1     -51.941 -13.947   5.789  1.00  0.00     0.008 C 
ENDBRANCH   1  27
BRANCH   4  30
ATOM     30  C   UNL     1     -46.500 -14.138   6.140  1.00  0.00     0.163 C 
BRANCH  30  31
ATOM     31  O   UNL     1     -46.239 -13.632   7.427  1.00  0.00    -0.396 OA
ATOM     32  H   UNL     1     -45.887 -12.711   7.320  1.00  0.00     0.210 HD
ENDBRANCH  30  31
ENDBRANCH   4  30
BRANCH  13  33
ATOM     33  O   UNL     1     -54.083  -6.071   6.517  1.00  0.00    -0.393 OA
ATOM     34  H   UNL     1     -55.069  -6.152   6.424  1.00  0.00     0.210 HD
ENDBRANCH  13  33
TORSDOF 4
ENDMDL
MODEL 7
REMARK VINA RESULT:    -6.257      7.536     10.391
REMARK INTER + INTRA:          -8.345
REMARK INTER:                  -7.387
REMARK INTRA:                  -0.958
REMARK UNBOUND:                -0.991
REMARK SMILES C=C(C)[C@H]1CC[C@@]2(CO)CC[C@]3(C)[C@@H](CC[C@@H]4[C@@]5(C)CC[C@H](O)C(C)(C)[C@@H]5CC[C@@]43C)[C@@H]12
REMARK SMILES IDX 4 1 5 2 6 3 7 4 32 5 14 6 15 7 16 8 17 9 18 10 20 11 21 12
REMARK SMILES IDX 22 13 24 14 27 15 28 16 29 17 30 18 12 19 11 20 10 21 13 22
REMARK SMILES IDX 31 23 25 24 26 25 19 26 2 27 3 28 1 29 8 30 9 31 23 33
REMARK H PARENT 9 32 23 34
REMARK Flexibility Score: inf
ROOT
ATOM      1  C   UNL     1     -48.046 -13.324   4.016  1.00  0.00     0.018 C 
ATOM      2  C   UNL     1     -47.051 -14.363   4.543  1.00  0.00     0.009 C 
ATOM      3  C   UNL     1     -47.570 -14.811   5.905  1.00  0.00     0.010 C 
ATOM      4  C   UNL     1     -49.113 -14.635   5.897  1.00  0.00    -0.003 C 
ATOM      5  C   UNL     1     -49.413 -13.764   4.632  1.00  0.00     0.008 C 
ATOM      6  C   UNL     1     -50.671 -12.819   4.724  1.00  0.00    -0.000 C 
ATOM      7  C   UNL     1     -50.862 -11.927   3.506  1.00  0.00     0.005 C 
ATOM      8  C   UNL     1     -52.183 -11.176   3.641  1.00  0.00     0.005 C 
ATOM      9  C   UNL     1     -52.087 -10.063   4.715  1.00  0.00     0.002 C 
ATOM     10  C   UNL     1     -51.769  -8.631   4.046  1.00  0.00    -0.026 C 
ATOM     11  C   UNL     1     -53.084  -8.110   3.337  1.00  0.00     0.010 C 
ATOM     12  C   UNL     1     -53.536  -6.706   3.757  1.00  0.00     0.033 C 
ATOM     13  C   UNL     1     -52.370  -5.716   3.744  1.00  0.00     0.120 C 
ATOM     14  C   UNL     1     -51.286  -6.090   4.824  1.00  0.00    -0.006 C 
ATOM     15  C   UNL     1     -51.313  -7.648   5.172  1.00  0.00     0.003 C 
ATOM     16  C   UNL     1     -50.033  -8.162   5.899  1.00  0.00     0.005 C 
ATOM     17  C   UNL     1     -49.910  -9.702   6.030  1.00  0.00     0.008 C 
ATOM     18  C   UNL     1     -51.248 -10.492   6.023  1.00  0.00    -0.024 C 
ATOM     19  C   UNL     1     -51.010 -12.117   6.115  1.00  0.00    -0.024 C 
ATOM     20  C   UNL     1     -49.880 -12.481   7.132  1.00  0.00     0.008 C 
ATOM     21  C   UNL     1     -49.600 -13.984   7.233  1.00  0.00     0.010 C 
ATOM     22  C   UNL     1     -52.333 -12.778   6.656  1.00  0.00     0.012 C 
ATOM     23  C   UNL     1     -52.010 -10.036   7.329  1.00  0.00     0.012 C 
ATOM     24  C   UNL     1     -49.888  -5.578   4.374  1.00  0.00     0.014 C 
ATOM     25  C   UNL     1     -51.628  -5.302   6.119  1.00  0.00     0.014 C 
ATOM     26  C   UNL     1     -50.654  -8.694   2.951  1.00  0.00     0.012 C 
ENDROOT
BRANCH   1  27
ATOM     27  C   UNL     1     -47.533 -11.890   4.197  1.00  0.00    -0.077 C 
ATOM     28  C   UNL     1     -47.551 -10.959   3.007  1.00  0.00     0.039 C 
ATOM     29  C   UNL     1     -46.811 -11.497   5.262  1.00  0.00     0.008 C 
ENDBRANCH   1  27
BRANCH   4  30
ATOM     30  C   UNL     1     -49.791 -16.036   5.779  1.00  0.00     0.163 C 
BRANCH  30  31
ATOM     31  O   UNL     1     -49.653 -16.570   4.484  1.00  0.00    -0.396 OA
ATOM     32  H   UNL     1     -50.049 -15.919   3.849  1.00  0.00     0.210 HD
ENDBRANCH  30  31
ENDBRANCH   4  30
BRANCH  13  33
ATOM     33  O   UNL     1     -51.834  -5.671   2.442  1.00  0.00    -0.393 OA
ATOM     34  H   UNL     1     -52.163  -4.840   2.010  1.00  0.00     0.210 HD
ENDBRANCH  13  33
TORSDOF 4
ENDMDL
MODEL 8
REMARK VINA RESULT:    -6.153     15.606     18.434
REMARK INTER + INTRA:          -8.223
REMARK INTER:                  -7.314
REMARK INTRA:                  -0.908
REMARK UNBOUND:                -0.991
REMARK SMILES C=C(C)[C@H]1CC[C@@]2(CO)CC[C@]3(C)[C@@H](CC[C@@H]4[C@@]5(C)CC[C@H](O)C(C)(C)[C@@H]5CC[C@@]43C)[C@@H]12
REMARK SMILES IDX 4 1 5 2 6 3 7 4 32 5 14 6 15 7 16 8 17 9 18 10 20 11 21 12
REMARK SMILES IDX 22 13 24 14 27 15 28 16 29 17 30 18 12 19 11 20 10 21 13 22
REMARK SMILES IDX 31 23 25 24 26 25 19 26 2 27 3 28 1 29 8 30 9 31 23 33
REMARK H PARENT 9 32 23 34
REMARK Flexibility Score: inf
ROOT
ATOM      1  C   UNL     1     -58.034 -17.541  12.402  1.00  0.00     0.018 C 
ATOM      2  C   UNL     1     -59.173 -18.534  12.151  1.00  0.00     0.009 C 
ATOM      3  C   UNL     1     -58.668 -19.519  11.101  1.00  0.00     0.010 C 
ATOM      4  C   UNL     1     -57.123 -19.591  11.234  1.00  0.00    -0.003 C 
ATOM      5  C   UNL     1     -56.740 -18.378  12.146  1.00  0.00     0.008 C 
ATOM      6  C   UNL     1     -55.324 -17.735  11.886  1.00  0.00    -0.000 C 
ATOM      7  C   UNL     1     -55.042 -16.502  12.734  1.00  0.00     0.005 C 
ATOM      8  C   UNL     1     -53.599 -16.063  12.509  1.00  0.00     0.005 C 
ATOM      9  C   UNL     1     -53.423 -15.413  11.112  1.00  0.00     0.002 C 
ATOM     10  C   UNL     1     -53.507 -13.805  11.201  1.00  0.00    -0.026 C 
ATOM     11  C   UNL     1     -52.162 -13.271  11.840  1.00  0.00     0.010 C 
ATOM     12  C   UNL     1     -51.433 -12.201  11.018  1.00  0.00     0.033 C 
ATOM     13  C   UNL     1     -52.393 -11.108  10.546  1.00  0.00     0.120 C 
ATOM     14  C   UNL     1     -53.462 -11.676   9.540  1.00  0.00    -0.006 C 
ATOM     15  C   UNL     1     -53.706 -13.240   9.759  1.00  0.00     0.003 C 
ATOM     16  C   UNL     1     -55.015 -13.779   9.104  1.00  0.00     0.005 C 
ATOM     17  C   UNL     1     -55.415 -15.224   9.501  1.00  0.00     0.008 C 
ATOM     18  C   UNL     1     -54.249 -16.152   9.943  1.00  0.00    -0.024 C 
ATOM     19  C   UNL     1     -54.780 -17.643  10.390  1.00  0.00    -0.024 C 
ATOM     20  C   UNL     1     -55.896 -18.174   9.433  1.00  0.00     0.008 C 
ATOM     21  C   UNL     1     -56.446 -19.549   9.826  1.00  0.00     0.010 C 
ATOM     22  C   UNL     1     -53.574 -18.650  10.276  1.00  0.00     0.012 C 
ATOM     23  C   UNL     1     -53.341 -16.323   8.662  1.00  0.00     0.012 C 
ATOM     24  C   UNL     1     -54.764 -10.829   9.612  1.00  0.00     0.014 C 
ATOM     25  C   UNL     1     -52.905 -11.473   8.103  1.00  0.00     0.014 C 
ATOM     26  C   UNL     1     -54.677 -13.297  12.107  1.00  0.00     0.012 C 
ENDROOT
BRANCH   1  27
ATOM     27  C   UNL     1     -58.260 -16.209  11.676  1.00  0.00    -0.077 C 
ATOM     28  C   UNL     1     -58.088 -14.923  12.450  1.00  0.00     0.039 C 
ATOM     29  C   UNL     1     -58.872 -16.118  10.481  1.00  0.00     0.008 C 
ENDBRANCH   1  27
BRANCH   4  30
ATOM     30  C   UNL     1     -56.725 -20.939  11.911  1.00  0.00     0.163 C 
BRANCH  30  31
ATOM     31  O   UNL     1     -56.600 -21.976  10.967  1.00  0.00    -0.396 OA
ATOM     32  H   UNL     1     -57.349 -22.609  11.118  1.00  0.00     0.210 HD
ENDBRANCH  30  31
ENDBRANCH   4  30
BRANCH  13  33
ATOM     33  O   UNL     1     -52.986 -10.513  11.677  1.00  0.00    -0.393 OA
ATOM     34  H   UNL     1     -52.705  -9.561  11.699  1.00  0.00     0.210 HD
ENDBRANCH  13  33
TORSDOF 4
ENDMDL
MODEL 9
REMARK VINA RESULT:    -6.130      8.421     10.787
REMARK INTER + INTRA:          -8.196
REMARK INTER:                  -7.255
REMARK INTRA:                  -0.941
REMARK UNBOUND:                -0.991
REMARK SMILES C=C(C)[C@H]1CC[C@@]2(CO)CC[C@]3(C)[C@@H](CC[C@@H]4[C@@]5(C)CC[C@H](O)C(C)(C)[C@@H]5CC[C@@]43C)[C@@H]12
REMARK SMILES IDX 4 1 5 2 6 3 7 4 32 5 14 6 15 7 16 8 17 9 18 10 20 11 21 12
REMARK SMILES IDX 22 13 24 14 27 15 28 16 29 17 30 18 12 19 11 20 10 21 13 22
REMARK SMILES IDX 31 23 25 24 26 25 19 26 2 27 3 28 1 29 8 30 9 31 23 33
REMARK H PARENT 9 32 23 34
REMARK Flexibility Score: inf
ROOT
ATOM      1  C   UNL     1     -48.262 -13.009   6.630  1.00  0.00     0.018 C 
ATOM      2  C   UNL     1     -47.380 -14.196   6.230  1.00  0.00     0.009 C 
ATOM      3  C   UNL     1     -47.004 -13.986   4.767  1.00  0.00     0.010 C 
ATOM      4  C   UNL     1     -47.020 -12.457   4.497  1.00  0.00    -0.003 C 
ATOM      5  C   UNL     1     -47.740 -11.836   5.739  1.00  0.00     0.008 C 
ATOM      6  C   UNL     1     -48.557 -10.513   5.477  1.00  0.00    -0.000 C 
ATOM      7  C   UNL     1     -49.314 -10.003   6.695  1.00  0.00     0.005 C 
ATOM      8  C   UNL     1     -49.935  -8.650   6.366  1.00  0.00     0.005 C 
ATOM      9  C   UNL     1     -51.143  -8.807   5.407  1.00  0.00     0.002 C 
ATOM     10  C   UNL     1     -52.535  -8.831   6.221  1.00  0.00    -0.026 C 
ATOM     11  C   UNL     1     -52.855  -7.359   6.703  1.00  0.00     0.010 C 
ATOM     12  C   UNL     1     -54.237  -6.829   6.302  1.00  0.00     0.033 C 
ATOM     13  C   UNL     1     -55.336  -7.850   6.602  1.00  0.00     0.120 C 
ATOM     14  C   UNL     1     -55.171  -9.146   5.722  1.00  0.00    -0.006 C 
ATOM     15  C   UNL     1     -53.655  -9.364   5.270  1.00  0.00     0.003 C 
ATOM     16  C   UNL     1     -53.341 -10.805   4.763  1.00  0.00     0.005 C 
ATOM     17  C   UNL     1     -51.839 -11.128   4.553  1.00  0.00     0.008 C 
ATOM     18  C   UNL     1     -50.919  -9.911   4.254  1.00  0.00    -0.024 C 
ATOM     19  C   UNL     1     -49.342 -10.349   4.098  1.00  0.00    -0.024 C 
ATOM     20  C   UNL     1     -49.186 -11.678   3.289  1.00  0.00     0.008 C 
ATOM     21  C   UNL     1     -47.734 -12.145   3.141  1.00  0.00     0.010 C 
ATOM     22  C   UNL     1     -48.600  -9.231   3.274  1.00  0.00     0.012 C 
ATOM     23  C   UNL     1     -51.409  -9.348   2.862  1.00  0.00     0.012 C 
ATOM     24  C   UNL     1     -55.781 -10.372   6.460  1.00  0.00     0.014 C 
ATOM     25  C   UNL     1     -56.032  -8.953   4.442  1.00  0.00     0.014 C 
ATOM     26  C   UNL     1     -52.489  -9.731   7.499  1.00  0.00     0.012 C 
ENDROOT
BRANCH   1  27
ATOM     27  C   UNL     1     -49.750 -13.375   6.647  1.00  0.00    -0.077 C 
ATOM     28  C   UNL     1     -50.561 -13.060   7.883  1.00  0.00     0.039 C 
ATOM     29  C   UNL     1     -50.312 -14.210   5.752  1.00  0.00     0.008 C 
ENDBRANCH   1  27
BRANCH   4  30
ATOM     30  C   UNL     1     -45.553 -11.937   4.390  1.00  0.00     0.163 C 
BRANCH  30  31
ATOM     31  O   UNL     1     -44.892 -11.990   5.632  1.00  0.00    -0.396 OA
ATOM     32  H   UNL     1     -44.135 -11.351   5.595  1.00  0.00     0.210 HD
ENDBRANCH  30  31
ENDBRANCH   4  30
BRANCH  13  33
ATOM     33  O   UNL     1     -55.320  -8.135   7.981  1.00  0.00    -0.393 OA
ATOM     34  H   UNL     1     -55.710  -9.040   8.106  1.00  0.00     0.210 HD
ENDBRANCH  13  33
TORSDOF 4
ENDMDL
