MODEL 1
REMARK VINA RESULT:    -5.792      0.000      0.000
REMARK INTER + INTRA:          -5.792
REMARK INTER:                  -5.792
REMARK INTRA:                   0.000
REMARK UNBOUND:                 0.000
REMARK SMILES CC1=CC(=O)[C@H]2C[C@@H]1C2(C)C
REMARK SMILES IDX 1 1 2 2 3 3 4 4 5 5 6 6 7 7 8 8 9 9 10 10 11 11
REMARK H PARENT
REMARK Flexibility Score: inf
ROOT
ATOM      1  C   UNL     1      -9.875 -15.216  29.742  1.00  0.00     0.040 C 
ATOM      2  C   UNL     1     -11.021 -16.157  29.540  1.00  0.00    -0.066 C 
ATOM      3  C   UNL     1     -10.924 -17.472  29.877  1.00  0.00     0.047 C 
ATOM      4  C   UNL     1     -12.129 -18.318  29.597  1.00  0.00     0.159 C 
ATOM      5  O   UNL     1     -12.151 -19.556  29.828  1.00  0.00    -0.295 OA
ATOM      6  C   UNL     1     -13.330 -17.573  29.012  1.00  0.00     0.067 C 
ATOM      7  C   UNL     1     -13.446 -16.302  29.880  1.00  0.00     0.021 C 
ATOM      8  C   UNL     1     -12.369 -15.682  28.960  1.00  0.00     0.022 C 
ATOM      9  C   UNL     1     -12.833 -16.669  27.849  1.00  0.00    -0.019 C 
ATOM     10  C   UNL     1     -14.000 -16.101  27.004  1.00  0.00     0.012 C 
ATOM     11  C   UNL     1     -11.759 -17.238  26.878  1.00  0.00     0.012 C 
ENDROOT
TORSDOF 0
ENDMDL
MODEL 2
REMARK VINA RESULT:    -5.751      1.449      3.129
REMARK INTER + INTRA:          -5.751
REMARK INTER:                  -5.751
REMARK INTRA:                   0.000
REMARK UNBOUND:                 0.000
REMARK SMILES CC1=CC(=O)[C@H]2C[C@@H]1C2(C)C
REMARK SMILES IDX 1 1 2 2 3 3 4 4 5 5 6 6 7 7 8 8 9 9 10 10 11 11
REMARK H PARENT
REMARK Flexibility Score: inf
ROOT
ATOM      1  C   UNL     1     -14.012 -19.987  28.992  1.00  0.00     0.040 C 
ATOM      2  C   UNL     1     -13.055 -18.838  29.055  1.00  0.00    -0.066 C 
ATOM      3  C   UNL     1     -11.896 -18.920  29.764  1.00  0.00     0.047 C 
ATOM      4  C   UNL     1     -11.037 -17.692  29.775  1.00  0.00     0.159 C 
ATOM      5  O   UNL     1      -9.961 -17.629  30.426  1.00  0.00    -0.295 OA
ATOM      6  C   UNL     1     -11.560 -16.521  28.942  1.00  0.00     0.067 C 
ATOM      7  C   UNL     1     -11.990 -17.168  27.608  1.00  0.00     0.021 C 
ATOM      8  C   UNL     1     -13.324 -17.515  28.308  1.00  0.00     0.022 C 
ATOM      9  C   UNL     1     -13.067 -16.316  29.266  1.00  0.00    -0.019 C 
ATOM     10  C   UNL     1     -13.615 -14.981  28.703  1.00  0.00     0.012 C 
ATOM     11  C   UNL     1     -13.529 -16.447  30.746  1.00  0.00     0.012 C 
ENDROOT
TORSDOF 0
ENDMDL
MODEL 3
REMARK VINA RESULT:    -5.708      1.877      2.890
REMARK INTER + INTRA:          -5.708
REMARK INTER:                  -5.708
REMARK INTRA:                   0.000
REMARK UNBOUND:                 0.000
REMARK SMILES CC1=CC(=O)[C@H]2C[C@@H]1C2(C)C
REMARK SMILES IDX 1 1 2 2 3 3 4 4 5 5 6 6 7 7 8 8 9 9 10 10 11 11
REMARK H PARENT
REMARK Flexibility Score: inf
ROOT
ATOM      1  C   UNL     1     -13.631 -17.403  31.855  1.00  0.00     0.040 C 
ATOM      2  C   UNL     1     -12.836 -16.998  30.653  1.00  0.00    -0.066 C 
ATOM      3  C   UNL     1     -11.699 -16.260  30.772  1.00  0.00     0.047 C 
ATOM      4  C   UNL     1     -11.010 -15.893  29.492  1.00  0.00     0.159 C 
ATOM      5  O   UNL     1      -9.972 -15.181  29.467  1.00  0.00    -0.295 OA
ATOM      6  C   UNL     1     -11.657 -16.443  28.220  1.00  0.00     0.067 C 
ATOM      7  C   UNL     1     -11.957 -17.920  28.556  1.00  0.00     0.021 C 
ATOM      8  C   UNL     1     -13.254 -17.412  29.226  1.00  0.00     0.022 C 
ATOM      9  C   UNL     1     -13.187 -16.174  28.286  1.00  0.00    -0.019 C 
ATOM     10  C   UNL     1     -13.889 -16.424  26.928  1.00  0.00     0.012 C 
ATOM     11  C   UNL     1     -13.673 -14.804  28.841  1.00  0.00     0.012 C 
ENDROOT
TORSDOF 0
ENDMDL
MODEL 4
REMARK VINA RESULT:    -5.545      2.250      3.617
REMARK INTER + INTRA:          -5.545
REMARK INTER:                  -5.545
REMARK INTRA:                   0.000
REMARK UNBOUND:                 0.000
REMARK SMILES CC1=CC(=O)[C@H]2C[C@@H]1C2(C)C
REMARK SMILES IDX 1 1 2 2 3 3 4 4 5 5 6 6 7 7 8 8 9 9 10 10 11 11
REMARK H PARENT
REMARK Flexibility Score: inf
ROOT
ATOM      1  C   UNL     1     -14.167 -16.948  32.856  1.00  0.00     0.040 C 
ATOM      2  C   UNL     1     -13.218 -17.752  32.025  1.00  0.00    -0.066 C 
ATOM      3  C   UNL     1     -11.924 -17.365  31.853  1.00  0.00     0.047 C 
ATOM      4  C   UNL     1     -11.082 -18.238  30.973  1.00  0.00     0.159 C 
ATOM      5  O   UNL     1      -9.882 -17.965  30.706  1.00  0.00    -0.295 OA
ATOM      6  C   UNL     1     -11.781 -19.481  30.423  1.00  0.00     0.067 C 
ATOM      7  C   UNL     1     -12.518 -20.072  31.644  1.00  0.00     0.021 C 
ATOM      8  C   UNL     1     -13.650 -19.065  31.339  1.00  0.00     0.022 C 
ATOM      9  C   UNL     1     -13.168 -19.061  29.859  1.00  0.00    -0.019 C 
ATOM     10  C   UNL     1     -13.828 -20.183  29.019  1.00  0.00     0.012 C 
ATOM     11  C   UNL     1     -13.267 -17.730  29.058  1.00  0.00     0.012 C 
ENDROOT
TORSDOF 0
ENDMDL
MODEL 5
REMARK VINA RESULT:    -5.525      1.690      3.077
REMARK INTER + INTRA:          -5.525
REMARK INTER:                  -5.525
REMARK INTRA:                   0.000
REMARK UNBOUND:                 0.000
REMARK SMILES CC1=CC(=O)[C@H]2C[C@@H]1C2(C)C
REMARK SMILES IDX 1 1 2 2 3 3 4 4 5 5 6 6 7 7 8 8 9 9 10 10 11 11
REMARK H PARENT
REMARK Flexibility Score: inf
ROOT
ATOM      1  C   UNL     1     -13.910 -14.773  28.628  1.00  0.00     0.040 C 
ATOM      2  C   UNL     1     -12.957 -15.738  29.259  1.00  0.00    -0.066 C 
ATOM      3  C   UNL     1     -11.802 -16.102  28.637  1.00  0.00     0.047 C 
ATOM      4  C   UNL     1     -10.947 -17.100  29.358  1.00  0.00     0.159 C 
ATOM      5  O   UNL     1      -9.875 -17.545  28.870  1.00  0.00    -0.295 OA
ATOM      6  C   UNL     1     -11.468 -17.540  30.727  1.00  0.00     0.067 C 
ATOM      7  C   UNL     1     -11.888 -16.222  31.413  1.00  0.00     0.021 C 
ATOM      8  C   UNL     1     -13.225 -16.352  30.649  1.00  0.00     0.022 C 
ATOM      9  C   UNL     1     -12.978 -17.888  30.594  1.00  0.00    -0.019 C 
ATOM     10  C   UNL     1     -13.526 -18.620  31.845  1.00  0.00     0.012 C 
ATOM     11  C   UNL     1     -13.448 -18.663  29.330  1.00  0.00     0.012 C 
ENDROOT
TORSDOF 0
ENDMDL
MODEL 6
REMARK VINA RESULT:    -5.518      1.835      3.346
REMARK INTER + INTRA:          -5.518
REMARK INTER:                  -5.518
REMARK INTRA:                   0.000
REMARK UNBOUND:                 0.000
REMARK SMILES CC1=CC(=O)[C@H]2C[C@@H]1C2(C)C
REMARK SMILES IDX 1 1 2 2 3 3 4 4 5 5 6 6 7 7 8 8 9 9 10 10 11 11
REMARK H PARENT
REMARK Flexibility Score: inf
ROOT
ATOM      1  C   UNL     1     -14.766 -15.272  32.304  1.00  0.00     0.040 C 
ATOM      2  C   UNL     1     -13.881 -16.313  31.694  1.00  0.00    -0.066 C 
ATOM      3  C   UNL     1     -13.686 -17.518  32.297  1.00  0.00     0.047 C 
ATOM      4  C   UNL     1     -12.752 -18.463  31.603  1.00  0.00     0.159 C 
ATOM      5  O   UNL     1     -12.460 -19.592  32.079  1.00  0.00    -0.295 OA
ATOM      6  C   UNL     1     -12.180 -17.961  30.277  1.00  0.00     0.067 C 
ATOM      7  C   UNL     1     -13.401 -17.375  29.535  1.00  0.00     0.021 C 
ATOM      8  C   UNL     1     -13.163 -16.082  30.348  1.00  0.00     0.022 C 
ATOM      9  C   UNL     1     -11.670 -16.505  30.476  1.00  0.00    -0.019 C 
ATOM     10  C   UNL     1     -10.812 -16.013  29.284  1.00  0.00     0.012 C 
ATOM     11  C   UNL     1     -10.920 -16.160  31.794  1.00  0.00     0.012 C 
ENDROOT
TORSDOF 0
ENDMDL
MODEL 7
REMARK VINA RESULT:    -5.477      1.746      3.222
REMARK INTER + INTRA:          -5.477
REMARK INTER:                  -5.477
REMARK INTRA:                   0.000
REMARK UNBOUND:                 0.000
REMARK SMILES CC1=CC(=O)[C@H]2C[C@@H]1C2(C)C
REMARK SMILES IDX 1 1 2 2 3 3 4 4 5 5 6 6 7 7 8 8 9 9 10 10 11 11
REMARK H PARENT
REMARK Flexibility Score: inf
ROOT
ATOM      1  C   UNL     1     -13.248 -19.521  30.542  1.00  0.00     0.040 C 
ATOM      2  C   UNL     1     -13.161 -18.247  29.763  1.00  0.00    -0.066 C 
ATOM      3  C   UNL     1     -13.739 -18.126  28.536  1.00  0.00     0.047 C 
ATOM      4  C   UNL     1     -13.555 -16.810  27.843  1.00  0.00     0.159 C 
ATOM      5  O   UNL     1     -14.009 -16.588  26.690  1.00  0.00    -0.295 OA
ATOM      6  C   UNL     1     -12.778 -15.757  28.635  1.00  0.00     0.067 C 
ATOM      7  C   UNL     1     -13.389 -15.822  30.051  1.00  0.00     0.021 C 
ATOM      8  C   UNL     1     -12.430 -17.005  30.315  1.00  0.00     0.022 C 
ATOM      9  C   UNL     1     -11.497 -16.420  29.216  1.00  0.00    -0.019 C 
ATOM     10  C   UNL     1     -10.499 -15.378  29.781  1.00  0.00     0.012 C 
ATOM     11  C   UNL     1     -10.707 -17.414  28.317  1.00  0.00     0.012 C 
ENDROOT
TORSDOF 0
ENDMDL
MODEL 8
REMARK VINA RESULT:    -5.443      2.045      3.770
REMARK INTER + INTRA:          -5.443
REMARK INTER:                  -5.443
REMARK INTRA:                   0.000
REMARK UNBOUND:                 0.000
REMARK SMILES CC1=CC(=O)[C@H]2C[C@@H]1C2(C)C
REMARK SMILES IDX 1 1 2 2 3 3 4 4 5 5 6 6 7 7 8 8 9 9 10 10 11 11
REMARK H PARENT
REMARK Flexibility Score: inf
ROOT
ATOM      1  C   UNL     1     -13.224 -15.459  28.737  1.00  0.00     0.040 C 
ATOM      2  C   UNL     1     -12.878 -16.475  29.780  1.00  0.00    -0.066 C 
ATOM      3  C   UNL     1     -13.460 -17.706  29.789  1.00  0.00     0.047 C 
ATOM      4  C   UNL     1     -13.052 -18.623  30.903  1.00  0.00     0.159 C 
ATOM      5  O   UNL     1     -13.548 -19.772  31.043  1.00  0.00    -0.295 OA
ATOM      6  C   UNL     1     -11.994 -18.066  31.855  1.00  0.00     0.067 C 
ATOM      7  C   UNL     1     -10.934 -17.444  30.920  1.00  0.00     0.021 C 
ATOM      8  C   UNL     1     -11.834 -16.188  30.879  1.00  0.00     0.022 C 
ATOM      9  C   UNL     1     -12.403 -16.622  32.261  1.00  0.00    -0.019 C 
ATOM     10  C   UNL     1     -11.561 -16.081  33.444  1.00  0.00     0.012 C 
ATOM     11  C   UNL     1     -13.903 -16.336  32.560  1.00  0.00     0.012 C 
ENDROOT
TORSDOF 0
ENDMDL
MODEL 9
REMARK VINA RESULT:    -5.375      1.734      2.563
REMARK INTER + INTRA:          -5.375
REMARK INTER:                  -5.375
REMARK INTRA:                   0.000
REMARK UNBOUND:                 0.000
REMARK SMILES CC1=CC(=O)[C@H]2C[C@@H]1C2(C)C
REMARK SMILES IDX 1 1 2 2 3 3 4 4 5 5 6 6 7 7 8 8 9 9 10 10 11 11
REMARK H PARENT
REMARK Flexibility Score: inf
ROOT
ATOM      1  C   UNL     1     -10.425 -18.756  30.874  1.00  0.00     0.040 C 
ATOM      2  C   UNL     1     -11.349 -17.696  30.363  1.00  0.00    -0.066 C 
ATOM      3  C   UNL     1     -12.313 -17.154  31.157  1.00  0.00     0.047 C 
ATOM      4  C   UNL     1     -13.195 -16.123  30.520  1.00  0.00     0.159 C 
ATOM      5  O   UNL     1     -14.147 -15.578  31.138  1.00  0.00    -0.295 OA
ATOM      6  C   UNL     1     -12.857 -15.782  29.068  1.00  0.00     0.067 C 
ATOM      7  C   UNL     1     -11.323 -15.615  29.066  1.00  0.00     0.021 C 
ATOM      8  C   UNL     1     -11.243 -17.151  28.924  1.00  0.00     0.022 C 
ATOM      9  C   UNL     1     -12.660 -17.108  28.280  1.00  0.00    -0.019 C 
ATOM     10  C   UNL     1     -12.606 -16.880  26.749  1.00  0.00     0.012 C 
ATOM     11  C   UNL     1     -13.632 -18.288  28.565  1.00  0.00     0.012 C 
ENDROOT
TORSDOF 0
ENDMDL
