MODEL 1
REMARK VINA RESULT:    -4.483      0.000      0.000
REMARK INTER + INTRA:         -15.280
REMARK INTER:                 -11.298
REMARK INTRA:                  -3.982
REMARK UNBOUND:                -3.982
REMARK SMILES CCCCCCCCCCCCCCCCCCCCCCCCCCCC(=O)[O-]
REMARK SMILES IDX 15 1 16 2 17 3 18 4 19 5 20 6 21 7 22 8 23 9 24 10 25 11
REMARK SMILES IDX 26 12 27 13 28 14 29 15 30 16 14 17 13 18 12 19 11 20 10 21
REMARK SMILES IDX 9 22 8 23 7 24 6 25 5 26 4 27 3 28 2 29 1 30
REMARK H PARENT
REMARK Flexibility Score: inf
ROOT
ATOM      1  C   UNL     1      56.608  21.554  53.451  1.00  0.00     0.000 C 
ENDROOT
BRANCH   1   2
ATOM      2  C   UNL     1      55.409  21.607  52.486  1.00  0.00     0.000 C 
BRANCH   2   3
ATOM      3  C   UNL     1      54.023  21.526  53.155  1.00  0.00     0.000 C 
BRANCH   3   4
ATOM      4  C   UNL     1      53.142  22.749  52.864  1.00  0.00     0.000 C 
BRANCH   4   5
ATOM      5  C   UNL     1      53.832  23.697  51.871  1.00  0.00     0.000 C 
BRANCH   5   6
ATOM      6  C   UNL     1      53.012  23.904  50.588  1.00  0.00     0.000 C 
BRANCH   6   7
ATOM      7  C   UNL     1      53.776  24.695  49.514  1.00  0.00     0.000 C 
BRANCH   7   8
ATOM      8  C   UNL     1      53.696  24.022  48.128  1.00  0.00     0.000 C 
BRANCH   8   9
ATOM      9  C   UNL     1      54.824  24.448  47.167  1.00  0.00     0.000 C 
BRANCH   9  10
ATOM     10  C   UNL     1      56.247  24.117  47.652  1.00  0.00     0.000 C 
BRANCH  10  11
ATOM     11  C   UNL     1      56.575  22.612  47.714  1.00  0.00     0.000 C 
BRANCH  11  12
ATOM     12  C   UNL     1      56.405  21.999  49.120  1.00  0.00     0.006 C 
BRANCH  12  13
ATOM     13  C   UNL     1      55.548  20.726  49.097  1.00  0.00     0.053 C 
BRANCH  13  14
ATOM     14  C   UNL     1      56.338  19.572  48.569  1.00  0.00     0.041 C 
ATOM     15  O   UNL     1      55.793  18.719  47.822  1.00  0.00    -0.550 OA
ATOM     16  O   UNL     1      57.690  19.457  48.872  1.00  0.00    -0.550 OA
ENDBRANCH  13  14
ENDBRANCH  12  13
ENDBRANCH  11  12
ENDBRANCH  10  11
ENDBRANCH   9  10
ENDBRANCH   8   9
ENDBRANCH   7   8
ENDBRANCH   6   7
ENDBRANCH   5   6
ENDBRANCH   4   5
ENDBRANCH   3   4
ENDBRANCH   2   3
ENDBRANCH   1   2
BRANCH   1  17
ATOM     17  C   UNL     1      56.310  20.952  54.837  1.00  0.00     0.000 C 
BRANCH  17  18
ATOM     18  C   UNL     1      56.603  21.906  56.014  1.00  0.00     0.000 C 
BRANCH  18  19
ATOM     19  C   UNL     1      56.604  23.384  55.593  1.00  0.00     0.000 C 
BRANCH  19  20
ATOM     20  C   UNL     1      55.193  23.981  55.663  1.00  0.00     0.000 C 
BRANCH  20  21
ATOM     21  C   UNL     1      54.426  23.434  56.875  1.00  0.00     0.000 C 
BRANCH  21  22
ATOM     22  C   UNL     1      52.907  23.406  56.649  1.00  0.00    -0.000 C 
BRANCH  22  23
ATOM     23  C   UNL     1      52.413  24.591  55.801  1.00  0.00    -0.000 C 
BRANCH  23  24
ATOM     24  C   UNL     1      50.924  24.908  56.027  1.00  0.00    -0.000 C 
BRANCH  24  25
ATOM     25  C   UNL     1      50.272  24.153  57.200  1.00  0.00    -0.000 C 
BRANCH  25  26
ATOM     26  C   UNL     1      49.087  23.278  56.765  1.00  0.00    -0.000 C 
BRANCH  26  27
ATOM     27  C   UNL     1      48.887  23.339  55.246  1.00  0.00    -0.000 C 
BRANCH  27  28
ATOM     28  C   UNL     1      48.960  21.936  54.624  1.00  0.00    -0.000 C 
BRANCH  28  29
ATOM     29  C   UNL     1      49.843  21.893  53.367  1.00  0.00    -0.003 C 
ATOM     30  C   UNL     1      49.266  22.710  52.211  1.00  0.00     0.004 C 
ENDBRANCH  28  29
ENDBRANCH  27  28
ENDBRANCH  26  27
ENDBRANCH  25  26
ENDBRANCH  24  25
ENDBRANCH  23  24
ENDBRANCH  22  23
ENDBRANCH  21  22
ENDBRANCH  20  21
ENDBRANCH  19  20
ENDBRANCH  18  19
ENDBRANCH  17  18
ENDBRANCH   1  17
TORSDOF 26
ENDMDL
MODEL 2
REMARK VINA RESULT:    -4.475      3.980      8.606
REMARK INTER + INTRA:         -15.257
REMARK INTER:                 -11.808
REMARK INTRA:                  -3.449
REMARK UNBOUND:                -3.982
REMARK SMILES CCCCCCCCCCCCCCCCCCCCCCCCCCCC(=O)[O-]
REMARK SMILES IDX 15 1 16 2 17 3 18 4 19 5 20 6 21 7 22 8 23 9 24 10 25 11
REMARK SMILES IDX 26 12 27 13 28 14 29 15 30 16 14 17 13 18 12 19 11 20 10 21
REMARK SMILES IDX 9 22 8 23 7 24 6 25 5 26 4 27 3 28 2 29 1 30
REMARK H PARENT
REMARK Flexibility Score: inf
ROOT
ATOM      1  C   UNL     1      56.725  20.949  54.474  1.00  0.00     0.000 C 
ENDROOT
BRANCH   1   2
ATOM      2  C   UNL     1      56.166  21.802  55.628  1.00  0.00     0.000 C 
BRANCH   2   3
ATOM      3  C   UNL     1      56.486  23.307  55.546  1.00  0.00     0.000 C 
BRANCH   3   4
ATOM      4  C   UNL     1      55.247  24.173  55.282  1.00  0.00     0.000 C 
BRANCH   4   5
ATOM      5  C   UNL     1      53.963  23.423  55.667  1.00  0.00     0.000 C 
BRANCH   5   6
ATOM      6  C   UNL     1      52.740  23.899  54.867  1.00  0.00     0.000 C 
BRANCH   6   7
ATOM      7  C   UNL     1      51.537  22.950  54.998  1.00  0.00     0.000 C 
BRANCH   7   8
ATOM      8  C   UNL     1      51.357  22.063  53.748  1.00  0.00     0.000 C 
BRANCH   8   9
ATOM      9  C   UNL     1      50.040  22.321  52.990  1.00  0.00     0.000 C 
BRANCH   9  10
ATOM     10  C   UNL     1      48.877  22.821  53.868  1.00  0.00     0.000 C 
BRANCH  10  11
ATOM     11  C   UNL     1      48.202  21.734  54.726  1.00  0.00     0.000 C 
BRANCH  11  12
ATOM     12  C   UNL     1      47.550  22.278  56.015  1.00  0.00     0.006 C 
BRANCH  12  13
ATOM     13  C   UNL     1      46.058  22.581  55.827  1.00  0.00     0.053 C 
BRANCH  13  14
ATOM     14  C   UNL     1      45.225  21.629  56.624  1.00  0.00     0.041 C 
ATOM     15  O   UNL     1      45.393  20.388  56.506  1.00  0.00    -0.550 OA
ATOM     16  O   UNL     1      44.286  22.113  57.527  1.00  0.00    -0.550 OA
ENDBRANCH  13  14
ENDBRANCH  12  13
ENDBRANCH  11  12
ENDBRANCH  10  11
ENDBRANCH   9  10
ENDBRANCH   8   9
ENDBRANCH   7   8
ENDBRANCH   6   7
ENDBRANCH   5   6
ENDBRANCH   4   5
ENDBRANCH   3   4
ENDBRANCH   2   3
ENDBRANCH   1   2
BRANCH   1  17
ATOM     17  C   UNL     1      57.000  21.712  53.165  1.00  0.00     0.000 C 
BRANCH  17  18
ATOM     18  C   UNL     1      56.025  21.368  52.019  1.00  0.00     0.000 C 
BRANCH  18  19
ATOM     19  C   UNL     1      54.668  22.075  52.162  1.00  0.00     0.000 C 
BRANCH  19  20
ATOM     20  C   UNL     1      54.736  23.515  51.639  1.00  0.00     0.000 C 
BRANCH  20  21
ATOM     21  C   UNL     1      53.340  24.025  51.255  1.00  0.00     0.000 C 
BRANCH  21  22
ATOM     22  C   UNL     1      53.356  24.892  49.986  1.00  0.00    -0.000 C 
BRANCH  22  23
ATOM     23  C   UNL     1      53.608  24.069  48.710  1.00  0.00    -0.000 C 
BRANCH  23  24
ATOM     24  C   UNL     1      54.116  24.927  47.538  1.00  0.00    -0.000 C 
BRANCH  24  25
ATOM     25  C   UNL     1      55.439  24.451  46.912  1.00  0.00    -0.000 C 
BRANCH  25  26
ATOM     26  C   UNL     1      56.450  23.952  47.954  1.00  0.00    -0.000 C 
BRANCH  26  27
ATOM     27  C   UNL     1      56.843  22.494  47.684  1.00  0.00    -0.000 C 
BRANCH  27  28
ATOM     28  C   UNL     1      55.970  21.527  48.498  1.00  0.00    -0.000 C 
BRANCH  28  29
ATOM     29  C   UNL     1      56.650  20.169  48.727  1.00  0.00    -0.003 C 
ATOM     30  C   UNL     1      56.006  19.042  47.921  1.00  0.00     0.004 C 
ENDBRANCH  28  29
ENDBRANCH  27  28
ENDBRANCH  26  27
ENDBRANCH  25  26
ENDBRANCH  24  25
ENDBRANCH  23  24
ENDBRANCH  22  23
ENDBRANCH  21  22
ENDBRANCH  20  21
ENDBRANCH  19  20
ENDBRANCH  18  19
ENDBRANCH  17  18
ENDBRANCH   1  17
TORSDOF 26
ENDMDL
MODEL 3
REMARK VINA RESULT:    -4.369      3.535      8.095
REMARK INTER + INTRA:         -14.991
REMARK INTER:                 -11.136
REMARK INTRA:                  -3.854
REMARK UNBOUND:                -3.982
REMARK SMILES CCCCCCCCCCCCCCCCCCCCCCCCCCCC(=O)[O-]
REMARK SMILES IDX 15 1 16 2 17 3 18 4 19 5 20 6 21 7 22 8 23 9 24 10 25 11
REMARK SMILES IDX 26 12 27 13 28 14 29 15 30 16 14 17 13 18 12 19 11 20 10 21
REMARK SMILES IDX 9 22 8 23 7 24 6 25 5 26 4 27 3 28 2 29 1 30
REMARK H PARENT
REMARK Flexibility Score: inf
ROOT
ATOM      1  C   UNL     1      55.864  21.377  53.145  1.00  0.00     0.000 C 
ENDROOT
BRANCH   1   2
ATOM      2  C   UNL     1      57.106  22.198  53.542  1.00  0.00     0.000 C 
BRANCH   2   3
ATOM      3  C   UNL     1      57.207  23.591  52.893  1.00  0.00     0.000 C 
BRANCH   3   4
ATOM      4  C   UNL     1      57.431  24.716  53.914  1.00  0.00     0.000 C 
BRANCH   4   5
ATOM      5  C   UNL     1      56.895  24.315  55.297  1.00  0.00     0.000 C 
BRANCH   5   6
ATOM      6  C   UNL     1      55.454  24.792  55.530  1.00  0.00     0.000 C 
BRANCH   6   7
ATOM      7  C   UNL     1      54.688  23.904  56.526  1.00  0.00     0.000 C 
BRANCH   7   8
ATOM      8  C   UNL     1      53.436  24.609  57.090  1.00  0.00     0.000 C 
BRANCH   8   9
ATOM      9  C   UNL     1      52.303  24.779  56.058  1.00  0.00     0.000 C 
BRANCH   9  10
ATOM     10  C   UNL     1      51.065  23.897  56.306  1.00  0.00     0.000 C 
BRANCH  10  11
ATOM     11  C   UNL     1      50.450  23.276  55.037  1.00  0.00     0.000 C 
BRANCH  11  12
ATOM     12  C   UNL     1      48.909  23.200  55.070  1.00  0.00     0.006 C 
BRANCH  12  13
ATOM     13  C   UNL     1      48.400  21.752  55.093  1.00  0.00     0.053 C 
BRANCH  13  14
ATOM     14  C   UNL     1      46.960  21.708  55.491  1.00  0.00     0.041 C 
ATOM     15  O   UNL     1      46.274  22.763  55.504  1.00  0.00    -0.550 OA
ATOM     16  O   UNL     1      46.363  20.495  55.814  1.00  0.00    -0.550 OA
ENDBRANCH  13  14
ENDBRANCH  12  13
ENDBRANCH  11  12
ENDBRANCH  10  11
ENDBRANCH   9  10
ENDBRANCH   8   9
ENDBRANCH   7   8
ENDBRANCH   6   7
ENDBRANCH   5   6
ENDBRANCH   4   5
ENDBRANCH   3   4
ENDBRANCH   2   3
ENDBRANCH   1   2
BRANCH   1  17
ATOM     17  C   UNL     1      54.765  21.285  54.219  1.00  0.00     0.000 C 
BRANCH  17  18
ATOM     18  C   UNL     1      53.348  21.609  53.700  1.00  0.00     0.000 C 
BRANCH  18  19
ATOM     19  C   UNL     1      53.365  22.506  52.453  1.00  0.00     0.000 C 
BRANCH  19  20
ATOM     20  C   UNL     1      53.579  23.976  52.831  1.00  0.00     0.000 C 
BRANCH  20  21
ATOM     21  C   UNL     1      53.852  24.829  51.583  1.00  0.00     0.000 C 
BRANCH  21  22
ATOM     22  C   UNL     1      53.161  24.277  50.328  1.00  0.00    -0.000 C 
BRANCH  22  23
ATOM     23  C   UNL     1      53.736  24.865  49.028  1.00  0.00    -0.000 C 
BRANCH  23  24
ATOM     24  C   UNL     1      54.085  23.786  47.987  1.00  0.00    -0.000 C 
BRANCH  24  25
ATOM     25  C   UNL     1      55.576  23.705  47.613  1.00  0.00    -0.000 C 
BRANCH  25  26
ATOM     26  C   UNL     1      56.277  22.473  48.204  1.00  0.00    -0.000 C 
BRANCH  26  27
ATOM     27  C   UNL     1      55.614  22.041  49.518  1.00  0.00    -0.000 C 
BRANCH  27  28
ATOM     28  C   UNL     1      55.773  20.530  49.745  1.00  0.00    -0.000 C 
BRANCH  28  29
ATOM     29  C   UNL     1      56.701  19.872  48.713  1.00  0.00    -0.003 C 
ATOM     30  C   UNL     1      55.964  18.907  47.786  1.00  0.00     0.004 C 
ENDBRANCH  28  29
ENDBRANCH  27  28
ENDBRANCH  26  27
ENDBRANCH  25  26
ENDBRANCH  24  25
ENDBRANCH  23  24
ENDBRANCH  22  23
ENDBRANCH  21  22
ENDBRANCH  20  21
ENDBRANCH  19  20
ENDBRANCH  18  19
ENDBRANCH  17  18
ENDBRANCH   1  17
TORSDOF 26
ENDMDL
MODEL 4
REMARK VINA RESULT:    -4.356      2.752      5.622
REMARK INTER + INTRA:         -14.959
REMARK INTER:                 -11.106
REMARK INTRA:                  -3.854
REMARK UNBOUND:                -3.982
REMARK SMILES CCCCCCCCCCCCCCCCCCCCCCCCCCCC(=O)[O-]
REMARK SMILES IDX 15 1 16 2 17 3 18 4 19 5 20 6 21 7 22 8 23 9 24 10 25 11
REMARK SMILES IDX 26 12 27 13 28 14 29 15 30 16 14 17 13 18 12 19 11 20 10 21
REMARK SMILES IDX 9 22 8 23 7 24 6 25 5 26 4 27 3 28 2 29 1 30
REMARK H PARENT
REMARK Flexibility Score: inf
ROOT
ATOM      1  C   UNL     1      54.416  24.516  47.738  1.00  0.00     0.000 C 
ENDROOT
BRANCH   1   2
ATOM      2  C   UNL     1      55.935  24.758  47.662  1.00  0.00     0.000 C 
BRANCH   2   3
ATOM      3  C   UNL     1      56.804  23.486  47.674  1.00  0.00     0.000 C 
BRANCH   3   4
ATOM      4  C   UNL     1      55.977  22.192  47.691  1.00  0.00     0.000 C 
BRANCH   4   5
ATOM      5  C   UNL     1      56.809  21.019  48.233  1.00  0.00     0.000 C 
BRANCH   5   6
ATOM      6  C   UNL     1      56.038  20.178  49.262  1.00  0.00     0.000 C 
BRANCH   6   7
ATOM      7  C   UNL     1      55.257  21.039  50.269  1.00  0.00     0.000 C 
BRANCH   7   8
ATOM      8  C   UNL     1      56.178  21.666  51.336  1.00  0.00     0.000 C 
BRANCH   8   9
ATOM      9  C   UNL     1      55.716  21.403  52.784  1.00  0.00     0.000 C 
BRANCH   9  10
ATOM     10  C   UNL     1      56.745  21.775  53.868  1.00  0.00     0.000 C 
BRANCH  10  11
ATOM     11  C   UNL     1      57.057  23.280  53.972  1.00  0.00     0.000 C 
BRANCH  11  12
ATOM     12  C   UNL     1      57.240  23.776  55.422  1.00  0.00     0.006 C 
BRANCH  12  13
ATOM     13  C   UNL     1      56.628  22.812  56.447  1.00  0.00     0.053 C 
BRANCH  13  14
ATOM     14  C   UNL     1      57.686  22.264  57.348  1.00  0.00     0.041 C 
ATOM     15  O   UNL     1      58.738  22.920  57.564  1.00  0.00    -0.550 OA
ATOM     16  O   UNL     1      57.496  21.042  57.982  1.00  0.00    -0.550 OA
ENDBRANCH  13  14
ENDBRANCH  12  13
ENDBRANCH  11  12
ENDBRANCH  10  11
ENDBRANCH   9  10
ENDBRANCH   8   9
ENDBRANCH   7   8
ENDBRANCH   6   7
ENDBRANCH   5   6
ENDBRANCH   4   5
ENDBRANCH   3   4
ENDBRANCH   2   3
ENDBRANCH   1   2
BRANCH   1  17
ATOM     17  C   UNL     1      53.739  24.984  49.040  1.00  0.00     0.000 C 
BRANCH  17  18
ATOM     18  C   UNL     1      54.595  24.769  50.306  1.00  0.00     0.000 C 
BRANCH  18  19
ATOM     19  C   UNL     1      53.769  24.846  51.600  1.00  0.00     0.000 C 
BRANCH  19  20
ATOM     20  C   UNL     1      52.933  23.576  51.800  1.00  0.00     0.000 C 
BRANCH  20  21
ATOM     21  C   UNL     1      52.836  23.213  53.289  1.00  0.00     0.000 C 
BRANCH  21  22
ATOM     22  C   UNL     1      53.564  24.222  54.192  1.00  0.00    -0.000 C 
BRANCH  22  23
ATOM     23  C   UNL     1      53.206  24.053  55.678  1.00  0.00    -0.000 C 
BRANCH  23  24
ATOM     24  C   UNL     1      51.813  24.611  56.024  1.00  0.00    -0.000 C 
BRANCH  24  25
ATOM     25  C   UNL     1      50.839  23.588  56.634  1.00  0.00    -0.000 C 
BRANCH  25  26
ATOM     26  C   UNL     1      49.391  24.098  56.691  1.00  0.00    -0.000 C 
BRANCH  26  27
ATOM     27  C   UNL     1      48.416  23.048  56.147  1.00  0.00    -0.000 C 
BRANCH  27  28
ATOM     28  C   UNL     1      48.244  23.190  54.627  1.00  0.00    -0.000 C 
BRANCH  28  29
ATOM     29  C   UNL     1      49.139  22.222  53.839  1.00  0.00    -0.003 C 
ATOM     30  C   UNL     1      49.302  22.627  52.374  1.00  0.00     0.004 C 
ENDBRANCH  28  29
ENDBRANCH  27  28
ENDBRANCH  26  27
ENDBRANCH  25  26
ENDBRANCH  24  25
ENDBRANCH  23  24
ENDBRANCH  22  23
ENDBRANCH  21  22
ENDBRANCH  20  21
ENDBRANCH  19  20
ENDBRANCH  18  19
ENDBRANCH  17  18
ENDBRANCH   1  17
TORSDOF 26
ENDMDL
MODEL 5
REMARK VINA RESULT:    -4.339      4.840      9.637
REMARK INTER + INTRA:         -14.916
REMARK INTER:                 -11.804
REMARK INTRA:                  -3.112
REMARK UNBOUND:                -3.982
REMARK SMILES CCCCCCCCCCCCCCCCCCCCCCCCCCCC(=O)[O-]
REMARK SMILES IDX 15 1 16 2 17 3 18 4 19 5 20 6 21 7 22 8 23 9 24 10 25 11
REMARK SMILES IDX 26 12 27 13 28 14 29 15 30 16 14 17 13 18 12 19 11 20 10 21
REMARK SMILES IDX 9 22 8 23 7 24 6 25 5 26 4 27 3 28 2 29 1 30
REMARK H PARENT
REMARK Flexibility Score: inf
ROOT
ATOM      1  C   UNL     1      53.449  21.189  53.130  1.00  0.00     0.000 C 
ENDROOT
BRANCH   1   2
ATOM      2  C   UNL     1      51.984  21.045  53.585  1.00  0.00     0.000 C 
BRANCH   2   3
ATOM      3  C   UNL     1      51.135  22.325  53.476  1.00  0.00     0.000 C 
BRANCH   3   4
ATOM      4  C   UNL     1      49.657  22.099  53.829  1.00  0.00     0.000 C 
BRANCH   4   5
ATOM      5  C   UNL     1      49.267  22.897  55.083  1.00  0.00     0.000 C 
BRANCH   5   6
ATOM      6  C   UNL     1      48.509  24.190  54.746  1.00  0.00     0.000 C 
BRANCH   6   7
ATOM      7  C   UNL     1      48.065  24.962  56.000  1.00  0.00     0.000 C 
BRANCH   7   8
ATOM      8  C   UNL     1      46.908  24.256  56.739  1.00  0.00     0.000 C 
BRANCH   8   9
ATOM      9  C   UNL     1      45.571  24.290  55.971  1.00  0.00     0.000 C 
BRANCH   9  10
ATOM     10  C   UNL     1      44.965  22.908  55.667  1.00  0.00     0.000 C 
BRANCH  10  11
ATOM     11  C   UNL     1      45.863  21.713  56.040  1.00  0.00     0.000 C 
BRANCH  11  12
ATOM     12  C   UNL     1      45.388  20.949  57.294  1.00  0.00     0.006 C 
BRANCH  12  13
ATOM     13  C   UNL     1      43.938  21.286  57.664  1.00  0.00     0.053 C 
BRANCH  13  14
ATOM     14  C   UNL     1      43.027  20.159  57.295  1.00  0.00     0.041 C 
ATOM     15  O   UNL     1      43.503  19.059  56.912  1.00  0.00    -0.550 OA
ATOM     16  O   UNL     1      41.650  20.311  57.410  1.00  0.00    -0.550 OA
ENDBRANCH  13  14
ENDBRANCH  12  13
ENDBRANCH  11  12
ENDBRANCH  10  11
ENDBRANCH   9  10
ENDBRANCH   8   9
ENDBRANCH   7   8
ENDBRANCH   6   7
ENDBRANCH   5   6
ENDBRANCH   4   5
ENDBRANCH   3   4
ENDBRANCH   2   3
ENDBRANCH   1   2
BRANCH   1  17
ATOM     17  C   UNL     1      54.477  21.349  54.265  1.00  0.00     0.000 C 
BRANCH  17  18
ATOM     18  C   UNL     1      55.204  22.710  54.269  1.00  0.00     0.000 C 
BRANCH  18  19
ATOM     19  C   UNL     1      56.218  22.844  53.122  1.00  0.00     0.000 C 
BRANCH  19  20
ATOM     20  C   UNL     1      55.844  23.998  52.185  1.00  0.00     0.000 C 
BRANCH  20  21
ATOM     21  C   UNL     1      54.568  24.705  52.666  1.00  0.00     0.000 C 
BRANCH  21  22
ATOM     22  C   UNL     1      53.444  24.672  51.620  1.00  0.00    -0.000 C 
BRANCH  22  23
ATOM     23  C   UNL     1      53.967  24.844  50.183  1.00  0.00    -0.000 C 
BRANCH  23  24
ATOM     24  C   UNL     1      53.752  23.591  49.316  1.00  0.00    -0.000 C 
BRANCH  24  25
ATOM     25  C   UNL     1      54.109  23.764  47.829  1.00  0.00    -0.000 C 
BRANCH  25  26
ATOM     26  C   UNL     1      55.620  23.889  47.585  1.00  0.00    -0.000 C 
BRANCH  26  27
ATOM     27  C   UNL     1      56.405  22.947  48.505  1.00  0.00    -0.000 C 
BRANCH  27  28
ATOM     28  C   UNL     1      56.703  21.613  47.804  1.00  0.00    -0.000 C 
BRANCH  28  29
ATOM     29  C   UNL     1      56.354  20.397  48.674  1.00  0.00    -0.003 C 
ATOM     30  C   UNL     1      55.652  20.783  49.975  1.00  0.00     0.004 C 
ENDBRANCH  28  29
ENDBRANCH  27  28
ENDBRANCH  26  27
ENDBRANCH  25  26
ENDBRANCH  24  25
ENDBRANCH  23  24
ENDBRANCH  22  23
ENDBRANCH  21  22
ENDBRANCH  20  21
ENDBRANCH  19  20
ENDBRANCH  18  19
ENDBRANCH  17  18
ENDBRANCH   1  17
TORSDOF 26
ENDMDL
MODEL 6
REMARK VINA RESULT:    -4.271      3.800      8.340
REMARK INTER + INTRA:         -14.745
REMARK INTER:                 -11.067
REMARK INTRA:                  -3.678
REMARK UNBOUND:                -3.982
REMARK SMILES CCCCCCCCCCCCCCCCCCCCCCCCCCCC(=O)[O-]
REMARK SMILES IDX 15 1 16 2 17 3 18 4 19 5 20 6 21 7 22 8 23 9 24 10 25 11
REMARK SMILES IDX 26 12 27 13 28 14 29 15 30 16 14 17 13 18 12 19 11 20 10 21
REMARK SMILES IDX 9 22 8 23 7 24 6 25 5 26 4 27 3 28 2 29 1 30
REMARK H PARENT
REMARK Flexibility Score: inf
ROOT
ATOM      1  C   UNL     1      53.966  23.718  48.092  1.00  0.00     0.000 C 
ENDROOT
BRANCH   1   2
ATOM      2  C   UNL     1      53.375  24.726  49.095  1.00  0.00     0.000 C 
BRANCH   2   3
ATOM      3  C   UNL     1      54.306  25.118  50.258  1.00  0.00     0.000 C 
BRANCH   3   4
ATOM      4  C   UNL     1      53.738  24.745  51.636  1.00  0.00     0.000 C 
BRANCH   4   5
ATOM      5  C   UNL     1      52.655  23.664  51.506  1.00  0.00     0.000 C 
BRANCH   5   6
ATOM      6  C   UNL     1      52.535  22.796  52.768  1.00  0.00     0.000 C 
BRANCH   6   7
ATOM      7  C   UNL     1      53.016  23.521  54.036  1.00  0.00     0.000 C 
BRANCH   7   8
ATOM      8  C   UNL     1      52.224  23.089  55.289  1.00  0.00     0.000 C 
BRANCH   8   9
ATOM      9  C   UNL     1      51.122  24.086  55.698  1.00  0.00     0.000 C 
BRANCH   9  10
ATOM     10  C   UNL     1      49.684  23.607  55.429  1.00  0.00     0.000 C 
BRANCH  10  11
ATOM     11  C   UNL     1      49.580  22.278  54.656  1.00  0.00     0.000 C 
BRANCH  11  12
ATOM     12  C   UNL     1      48.167  21.658  54.676  1.00  0.00     0.006 C 
BRANCH  12  13
ATOM     13  C   UNL     1      47.580  21.598  56.092  1.00  0.00     0.053 C 
BRANCH  13  14
ATOM     14  C   UNL     1      46.118  21.910  56.067  1.00  0.00     0.041 C 
ATOM     15  O   UNL     1      45.696  22.921  55.449  1.00  0.00    -0.550 OA
ATOM     16  O   UNL     1      45.214  21.061  56.696  1.00  0.00    -0.550 OA
ENDBRANCH  13  14
ENDBRANCH  12  13
ENDBRANCH  11  12
ENDBRANCH  10  11
ENDBRANCH   9  10
ENDBRANCH   8   9
ENDBRANCH   7   8
ENDBRANCH   6   7
ENDBRANCH   5   6
ENDBRANCH   4   5
ENDBRANCH   3   4
ENDBRANCH   2   3
ENDBRANCH   1   2
BRANCH   1  17
ATOM     17  C   UNL     1      55.452  23.928  47.747  1.00  0.00     0.000 C 
BRANCH  17  18
ATOM     18  C   UNL     1      56.408  22.940  48.450  1.00  0.00     0.000 C 
BRANCH  18  19
ATOM     19  C   UNL     1      56.040  21.472  48.189  1.00  0.00     0.000 C 
BRANCH  19  20
ATOM     20  C   UNL     1      56.027  20.664  49.491  1.00  0.00     0.000 C 
BRANCH  20  21
ATOM     21  C   UNL     1      55.088  21.303  50.524  1.00  0.00     0.000 C 
BRANCH  21  22
ATOM     22  C   UNL     1      55.712  21.374  51.926  1.00  0.00    -0.000 C 
BRANCH  22  23
ATOM     23  C   UNL     1      56.446  22.702  52.181  1.00  0.00    -0.000 C 
BRANCH  23  24
ATOM     24  C   UNL     1      57.097  22.766  53.574  1.00  0.00    -0.000 C 
BRANCH  24  25
ATOM     25  C   UNL     1      56.949  21.488  54.418  1.00  0.00    -0.000 C 
BRANCH  25  26
ATOM     26  C   UNL     1      55.823  21.582  55.458  1.00  0.00    -0.000 C 
BRANCH  26  27
ATOM     27  C   UNL     1      56.091  22.714  56.458  1.00  0.00    -0.000 C 
BRANCH  27  28
ATOM     28  C   UNL     1      56.734  22.173  57.744  1.00  0.00    -0.000 C 
BRANCH  28  29
ATOM     29  C   UNL     1      58.205  22.590  57.889  1.00  0.00    -0.003 C 
ATOM     30  C   UNL     1      59.141  21.399  58.090  1.00  0.00     0.004 C 
ENDBRANCH  28  29
ENDBRANCH  27  28
ENDBRANCH  26  27
ENDBRANCH  25  26
ENDBRANCH  24  25
ENDBRANCH  23  24
ENDBRANCH  22  23
ENDBRANCH  21  22
ENDBRANCH  20  21
ENDBRANCH  19  20
ENDBRANCH  18  19
ENDBRANCH  17  18
ENDBRANCH   1  17
TORSDOF 26
ENDMDL
MODEL 7
REMARK VINA RESULT:    -4.257      3.951      8.535
REMARK INTER + INTRA:         -14.710
REMARK INTER:                 -11.636
REMARK INTRA:                  -3.074
REMARK UNBOUND:                -3.982
REMARK SMILES CCCCCCCCCCCCCCCCCCCCCCCCCCCC(=O)[O-]
REMARK SMILES IDX 15 1 16 2 17 3 18 4 19 5 20 6 21 7 22 8 23 9 24 10 25 11
REMARK SMILES IDX 26 12 27 13 28 14 29 15 30 16 14 17 13 18 12 19 11 20 10 21
REMARK SMILES IDX 9 22 8 23 7 24 6 25 5 26 4 27 3 28 2 29 1 30
REMARK H PARENT
REMARK Flexibility Score: inf
ROOT
ATOM      1  C   UNL     1      55.672  20.643  49.571  1.00  0.00     0.000 C 
ENDROOT
BRANCH   1   2
ATOM      2  C   UNL     1      55.649  21.401  50.912  1.00  0.00     0.000 C 
BRANCH   2   3
ATOM      3  C   UNL     1      54.387  21.184  51.768  1.00  0.00     0.000 C 
BRANCH   3   4
ATOM      4  C   UNL     1      54.635  21.387  53.270  1.00  0.00     0.000 C 
BRANCH   4   5
ATOM      5  C   UNL     1      53.449  20.864  54.095  1.00  0.00     0.000 C 
BRANCH   5   6
ATOM      6  C   UNL     1      52.107  21.021  53.363  1.00  0.00     0.000 C 
BRANCH   6   7
ATOM      7  C   UNL     1      51.323  22.263  53.818  1.00  0.00     0.000 C 
BRANCH   7   8
ATOM      8  C   UNL     1      50.079  22.519  52.942  1.00  0.00     0.000 C 
BRANCH   8   9
ATOM      9  C   UNL     1      48.745  22.301  53.683  1.00  0.00     0.000 C 
BRANCH   9  10
ATOM     10  C   UNL     1      48.536  23.200  54.916  1.00  0.00     0.000 C 
BRANCH  10  11
ATOM     11  C   UNL     1      47.130  23.120  55.543  1.00  0.00     0.000 C 
BRANCH  11  12
ATOM     12  C   UNL     1      47.143  23.045  57.084  1.00  0.00     0.006 C 
BRANCH  12  13
ATOM     13  C   UNL     1      45.828  22.491  57.649  1.00  0.00     0.053 C 
BRANCH  13  14
ATOM     14  C   UNL     1      45.647  21.062  57.252  1.00  0.00     0.041 C 
ATOM     15  O   UNL     1      44.524  20.508  57.371  1.00  0.00    -0.550 OA
ATOM     16  O   UNL     1      46.712  20.349  56.713  1.00  0.00    -0.550 OA
ENDBRANCH  13  14
ENDBRANCH  12  13
ENDBRANCH  11  12
ENDBRANCH  10  11
ENDBRANCH   9  10
ENDBRANCH   8   9
ENDBRANCH   7   8
ENDBRANCH   6   7
ENDBRANCH   5   6
ENDBRANCH   4   5
ENDBRANCH   3   4
ENDBRANCH   2   3
ENDBRANCH   1   2
BRANCH   1  17
ATOM     17  C   UNL     1      56.259  21.427  48.383  1.00  0.00     0.000 C 
BRANCH  17  18
ATOM     18  C   UNL     1      56.208  22.960  48.553  1.00  0.00     0.000 C 
BRANCH  18  19
ATOM     19  C   UNL     1      55.130  23.618  47.679  1.00  0.00     0.000 C 
BRANCH  19  20
ATOM     20  C   UNL     1      53.786  23.683  48.413  1.00  0.00     0.000 C 
BRANCH  20  21
ATOM     21  C   UNL     1      53.810  24.761  49.507  1.00  0.00     0.000 C 
BRANCH  21  22
ATOM     22  C   UNL     1      53.163  24.287  50.817  1.00  0.00    -0.000 C 
BRANCH  22  23
ATOM     23  C   UNL     1      53.976  24.689  52.059  1.00  0.00    -0.000 C 
BRANCH  23  24
ATOM     24  C   UNL     1      55.447  25.005  51.733  1.00  0.00    -0.000 C 
BRANCH  24  25
ATOM     25  C   UNL     1      56.371  25.124  52.957  1.00  0.00    -0.000 C 
BRANCH  25  26
ATOM     26  C   UNL     1      57.504  24.087  52.957  1.00  0.00    -0.000 C 
BRANCH  26  27
ATOM     27  C   UNL     1      57.218  22.959  53.956  1.00  0.00    -0.000 C 
BRANCH  27  28
ATOM     28  C   UNL     1      57.310  23.468  55.403  1.00  0.00    -0.000 C 
BRANCH  28  29
ATOM     29  C   UNL     1      56.496  22.610  56.383  1.00  0.00    -0.003 C 
ATOM     30  C   UNL     1      57.353  21.584  57.123  1.00  0.00     0.004 C 
ENDBRANCH  28  29
ENDBRANCH  27  28
ENDBRANCH  26  27
ENDBRANCH  25  26
ENDBRANCH  24  25
ENDBRANCH  23  24
ENDBRANCH  22  23
ENDBRANCH  21  22
ENDBRANCH  20  21
ENDBRANCH  19  20
ENDBRANCH  18  19
ENDBRANCH  17  18
ENDBRANCH   1  17
TORSDOF 26
ENDMDL
MODEL 8
REMARK VINA RESULT:    -4.216      2.357      8.059
REMARK INTER + INTRA:         -14.606
REMARK INTER:                 -11.176
REMARK INTRA:                  -3.430
REMARK UNBOUND:                -3.982
REMARK SMILES CCCCCCCCCCCCCCCCCCCCCCCCCCCC(=O)[O-]
REMARK SMILES IDX 15 1 16 2 17 3 18 4 19 5 20 6 21 7 22 8 23 9 24 10 25 11
REMARK SMILES IDX 26 12 27 13 28 14 29 15 30 16 14 17 13 18 12 19 11 20 10 21
REMARK SMILES IDX 9 22 8 23 7 24 6 25 5 26 4 27 3 28 2 29 1 30
REMARK H PARENT
REMARK Flexibility Score: inf
ROOT
ATOM      1  C   UNL     1      53.526  24.034  48.453  1.00  0.00     0.000 C 
ENDROOT
BRANCH   1   2
ATOM      2  C   UNL     1      53.851  24.501  49.884  1.00  0.00     0.000 C 
BRANCH   2   3
ATOM      3  C   UNL     1      52.812  24.112  50.953  1.00  0.00     0.000 C 
BRANCH   3   4
ATOM      4  C   UNL     1      53.441  23.799  52.319  1.00  0.00     0.000 C 
BRANCH   4   5
ATOM      5  C   UNL     1      54.146  25.038  52.892  1.00  0.00     0.000 C 
BRANCH   5   6
ATOM      6  C   UNL     1      54.658  24.815  54.323  1.00  0.00     0.000 C 
BRANCH   6   7
ATOM      7  C   UNL     1      53.815  23.792  55.103  1.00  0.00     0.000 C 
BRANCH   7   8
ATOM      8  C   UNL     1      53.472  24.285  56.525  1.00  0.00     0.000 C 
BRANCH   8   9
ATOM      9  C   UNL     1      52.090  23.819  57.026  1.00  0.00     0.000 C 
BRANCH   9  10
ATOM     10  C   UNL     1      50.983  23.816  55.955  1.00  0.00     0.000 C 
BRANCH  10  11
ATOM     11  C   UNL     1      49.600  23.357  56.457  1.00  0.00     0.000 C 
BRANCH  11  12
ATOM     12  C   UNL     1      48.772  22.607  55.393  1.00  0.00     0.006 C 
BRANCH  12  13
ATOM     13  C   UNL     1      49.023  23.144  53.978  1.00  0.00     0.053 C 
BRANCH  13  14
ATOM     14  C   UNL     1      49.585  22.071  53.101  1.00  0.00     0.041 C 
ATOM     15  O   UNL     1      50.775  21.691  53.248  1.00  0.00    -0.550 OA
ATOM     16  O   UNL     1      48.781  21.463  52.144  1.00  0.00    -0.550 OA
ENDBRANCH  13  14
ENDBRANCH  12  13
ENDBRANCH  11  12
ENDBRANCH  10  11
ENDBRANCH   9  10
ENDBRANCH   8   9
ENDBRANCH   7   8
ENDBRANCH   6   7
ENDBRANCH   5   6
ENDBRANCH   4   5
ENDBRANCH   3   4
ENDBRANCH   2   3
ENDBRANCH   1   2
BRANCH   1  17
ATOM     17  C   UNL     1      54.445  24.597  47.353  1.00  0.00     0.000 C 
BRANCH  17  18
ATOM     18  C   UNL     1      55.894  24.861  47.816  1.00  0.00     0.000 C 
BRANCH  18  19
ATOM     19  C   UNL     1      56.939  24.387  46.794  1.00  0.00     0.000 C 
BRANCH  19  20
ATOM     20  C   UNL     1      57.210  22.885  46.935  1.00  0.00     0.000 C 
BRANCH  20  21
ATOM     21  C   UNL     1      56.634  22.344  48.252  1.00  0.00     0.000 C 
BRANCH  21  22
ATOM     22  C   UNL     1      56.558  20.810  48.278  1.00  0.00    -0.000 C 
BRANCH  22  23
ATOM     23  C   UNL     1      55.612  20.282  49.370  1.00  0.00    -0.000 C 
BRANCH  23  24
ATOM     24  C   UNL     1      55.351  21.313  50.483  1.00  0.00    -0.000 C 
BRANCH  24  25
ATOM     25  C   UNL     1      56.411  21.346  51.598  1.00  0.00    -0.000 C 
BRANCH  25  26
ATOM     26  C   UNL     1      55.801  21.320  53.007  1.00  0.00    -0.000 C 
BRANCH  26  27
ATOM     27  C   UNL     1      56.806  21.825  54.050  1.00  0.00    -0.000 C 
BRANCH  27  28
ATOM     28  C   UNL     1      56.524  21.212  55.430  1.00  0.00    -0.000 C 
BRANCH  28  29
ATOM     29  C   UNL     1      57.011  22.102  56.582  1.00  0.00    -0.003 C 
ATOM     30  C   UNL     1      57.604  23.425  56.098  1.00  0.00     0.004 C 
ENDBRANCH  28  29
ENDBRANCH  27  28
ENDBRANCH  26  27
ENDBRANCH  25  26
ENDBRANCH  24  25
ENDBRANCH  23  24
ENDBRANCH  22  23
ENDBRANCH  21  22
ENDBRANCH  20  21
ENDBRANCH  19  20
ENDBRANCH  18  19
ENDBRANCH  17  18
ENDBRANCH   1  17
TORSDOF 26
ENDMDL
MODEL 9
REMARK VINA RESULT:    -4.172      2.912      5.175
REMARK INTER + INTRA:         -14.494
REMARK INTER:                 -10.329
REMARK INTRA:                  -4.165
REMARK UNBOUND:                -3.982
REMARK SMILES CCCCCCCCCCCCCCCCCCCCCCCCCCCC(=O)[O-]
REMARK SMILES IDX 15 1 16 2 17 3 18 4 19 5 20 6 21 7 22 8 23 9 24 10 25 11
REMARK SMILES IDX 26 12 27 13 28 14 29 15 30 16 14 17 13 18 12 19 11 20 10 21
REMARK SMILES IDX 9 22 8 23 7 24 6 25 5 26 4 27 3 28 2 29 1 30
REMARK H PARENT
REMARK Flexibility Score: inf
ROOT
ATOM      1  C   UNL     1      52.548  23.241  53.194  1.00  0.00     0.000 C 
ENDROOT
BRANCH   1   2
ATOM      2  C   UNL     1      52.689  23.635  51.712  1.00  0.00     0.000 C 
BRANCH   2   3
ATOM      3  C   UNL     1      53.681  24.779  51.428  1.00  0.00     0.000 C 
BRANCH   3   4
ATOM      4  C   UNL     1      54.039  24.911  49.941  1.00  0.00     0.000 C 
BRANCH   4   5
ATOM      5  C   UNL     1      53.705  23.617  49.182  1.00  0.00     0.000 C 
BRANCH   5   6
ATOM      6  C   UNL     1      54.897  23.087  48.370  1.00  0.00     0.000 C 
BRANCH   6   7
ATOM      7  C   UNL     1      55.866  22.245  49.217  1.00  0.00     0.000 C 
BRANCH   7   8
ATOM      8  C   UNL     1      55.126  21.216  50.096  1.00  0.00     0.000 C 
BRANCH   8   9
ATOM      9  C   UNL     1      55.395  21.384  51.605  1.00  0.00     0.000 C 
BRANCH   9  10
ATOM     10  C   UNL     1      56.437  22.461  51.960  1.00  0.00     0.000 C 
BRANCH  10  11
ATOM     11  C   UNL     1      56.469  22.864  53.447  1.00  0.00     0.000 C 
BRANCH  11  12
ATOM     12  C   UNL     1      55.874  21.797  54.390  1.00  0.00     0.006 C 
BRANCH  12  13
ATOM     13  C   UNL     1      56.941  21.156  55.288  1.00  0.00     0.053 C 
BRANCH  13  14
ATOM     14  C   UNL     1      56.873  21.722  56.670  1.00  0.00     0.041 C 
ATOM     15  O   UNL     1      56.373  22.859  56.865  1.00  0.00    -0.550 OA
ATOM     16  O   UNL     1      57.329  20.976  57.750  1.00  0.00    -0.550 OA
ENDBRANCH  13  14
ENDBRANCH  12  13
ENDBRANCH  11  12
ENDBRANCH  10  11
ENDBRANCH   9  10
ENDBRANCH   8   9
ENDBRANCH   7   8
ENDBRANCH   6   7
ENDBRANCH   5   6
ENDBRANCH   4   5
ENDBRANCH   3   4
ENDBRANCH   2   3
ENDBRANCH   1   2
BRANCH   1  17
ATOM     17  C   UNL     1      53.291  24.151  54.190  1.00  0.00     0.000 C 
BRANCH  17  18
ATOM     18  C   UNL     1      52.405  24.687  55.335  1.00  0.00     0.000 C 
BRANCH  18  19
ATOM     19  C   UNL     1      52.071  23.611  56.380  1.00  0.00     0.000 C 
BRANCH  19  20
ATOM     20  C   UNL     1      50.601  23.690  56.806  1.00  0.00     0.000 C 
BRANCH  20  21
ATOM     21  C   UNL     1      49.829  24.687  55.930  1.00  0.00     0.000 C 
BRANCH  21  22
ATOM     22  C   UNL     1      48.579  24.066  55.288  1.00  0.00    -0.000 C 
BRANCH  22  23
ATOM     23  C   UNL     1      48.894  23.321  53.979  1.00  0.00    -0.000 C 
BRANCH  23  24
ATOM     24  C   UNL     1      48.679  21.802  54.090  1.00  0.00    -0.000 C 
BRANCH  24  25
ATOM     25  C   UNL     1      48.055  21.330  55.415  1.00  0.00    -0.000 C 
BRANCH  25  26
ATOM     26  C   UNL     1      46.680  20.672  55.231  1.00  0.00    -0.000 C 
BRANCH  26  27
ATOM     27  C   UNL     1      45.819  20.834  56.489  1.00  0.00    -0.000 C 
BRANCH  27  28
ATOM     28  C   UNL     1      45.594  22.318  56.816  1.00  0.00    -0.000 C 
BRANCH  28  29
ATOM     29  C   UNL     1      44.684  23.016  55.794  1.00  0.00    -0.003 C 
ATOM     30  C   UNL     1      45.048  24.486  55.584  1.00  0.00     0.004 C 
ENDBRANCH  28  29
ENDBRANCH  27  28
ENDBRANCH  26  27
ENDBRANCH  25  26
ENDBRANCH  24  25
ENDBRANCH  23  24
ENDBRANCH  22  23
ENDBRANCH  21  22
ENDBRANCH  20  21
ENDBRANCH  19  20
ENDBRANCH  18  19
ENDBRANCH  17  18
ENDBRANCH   1  17
TORSDOF 26
ENDMDL
