MODEL 1
REMARK VINA RESULT:     6.897      0.000      0.000
REMARK INTER + INTRA:          10.768
REMARK INTER:                  10.929
REMARK INTRA:                  -0.160
REMARK UNBOUND:                -0.160
REMARK SMILES CCCCCCCCCCCC(=O)[O-]
REMARK SMILES IDX 7 1 8 2 9 3 10 4 11 5 12 6 13 7 14 8 6 9 5 10 4 11 3 12 2 13
REMARK SMILES IDX 1 14
REMARK H PARENT
REMARK Flexibility Score: inf
ROOT
ATOM      1  C   UNL     1       9.588  17.950  29.124  1.00  0.00     0.000 C 
ENDROOT
BRANCH   1   2
ATOM      2  C   UNL     1      10.003  16.767  28.227  1.00  0.00     0.000 C 
BRANCH   2   3
ATOM      3  C   UNL     1       9.013  16.466  27.084  1.00  0.00     0.000 C 
BRANCH   3   4
ATOM      4  C   UNL     1       8.012  17.604  26.799  1.00  0.00     0.006 C 
BRANCH   4   5
ATOM      5  C   UNL     1       6.655  17.378  27.478  1.00  0.00     0.053 C 
BRANCH   5   6
ATOM      6  C   UNL     1       5.573  18.097  26.737  1.00  0.00     0.041 C 
ATOM      7  O   UNL     1       4.374  17.986  27.104  1.00  0.00    -0.550 OA
ATOM      8  O   UNL     1       5.895  18.930  25.672  1.00  0.00    -0.550 OA
ENDBRANCH   5   6
ENDBRANCH   4   5
ENDBRANCH   3   4
ENDBRANCH   2   3
ENDBRANCH   1   2
BRANCH   1   9
ATOM      9  C   UNL     1       8.658  17.515  30.272  1.00  0.00     0.000 C 
BRANCH   9  10
ATOM     10  C   UNL     1       9.373  17.476  31.630  1.00  0.00    -0.000 C 
BRANCH  10  11
ATOM     11  C   UNL     1       8.459  16.988  32.768  1.00  0.00    -0.000 C 
BRANCH  11  12
ATOM     12  C   UNL     1       7.373  18.024  33.125  1.00  0.00    -0.000 C 
BRANCH  12  13
ATOM     13  C   UNL     1       7.782  19.476  32.824  1.00  0.00    -0.003 C 
ATOM     14  C   UNL     1       6.643  20.474  33.025  1.00  0.00     0.004 C 
ENDBRANCH  12  13
ENDBRANCH  11  12
ENDBRANCH  10  11
ENDBRANCH   9  10
ENDBRANCH   1   9
TORSDOF 10
ENDMDL
MODEL 2
REMARK VINA RESULT:     7.314      0.607      1.027
REMARK INTER + INTRA:          11.430
REMARK INTER:                  11.789
REMARK INTRA:                  -0.359
REMARK UNBOUND:                -0.160
REMARK SMILES CCCCCCCCCCCC(=O)[O-]
REMARK SMILES IDX 7 1 8 2 9 3 10 4 11 5 12 6 13 7 14 8 6 9 5 10 4 11 3 12 2 13
REMARK SMILES IDX 1 14
REMARK H PARENT
REMARK Flexibility Score: inf
ROOT
ATOM      1  C   UNL     1       9.129  18.171  29.071  1.00  0.00     0.000 C 
ENDROOT
BRANCH   1   2
ATOM      2  C   UNL     1       9.990  17.135  28.322  1.00  0.00     0.000 C 
BRANCH   2   3
ATOM      3  C   UNL     1       9.291  16.499  27.104  1.00  0.00     0.000 C 
BRANCH   3   4
ATOM      4  C   UNL     1       7.773  16.760  27.038  1.00  0.00     0.006 C 
BRANCH   4   5
ATOM      5  C   UNL     1       7.399  17.788  25.962  1.00  0.00     0.053 C 
BRANCH   5   6
ATOM      6  C   UNL     1       6.025  18.325  26.206  1.00  0.00     0.041 C 
ATOM      7  O   UNL     1       5.499  19.115  25.379  1.00  0.00    -0.550 OA
ATOM      8  O   UNL     1       5.306  17.913  27.321  1.00  0.00    -0.550 OA
ENDBRANCH   5   6
ENDBRANCH   4   5
ENDBRANCH   3   4
ENDBRANCH   2   3
ENDBRANCH   1   2
BRANCH   1   9
ATOM      9  C   UNL     1       8.342  17.544  30.237  1.00  0.00     0.000 C 
BRANCH   9  10
ATOM     10  C   UNL     1       9.182  17.418  31.517  1.00  0.00    -0.000 C 
BRANCH  10  11
ATOM     11  C   UNL     1       8.347  16.982  32.734  1.00  0.00    -0.000 C 
BRANCH  11  12
ATOM     12  C   UNL     1       7.293  18.039  33.125  1.00  0.00    -0.000 C 
BRANCH  12  13
ATOM     13  C   UNL     1       7.793  19.488  32.987  1.00  0.00    -0.003 C 
ATOM     14  C   UNL     1       6.665  20.490  32.744  1.00  0.00     0.004 C 
ENDBRANCH  12  13
ENDBRANCH  11  12
ENDBRANCH  10  11
ENDBRANCH   9  10
ENDBRANCH   1   9
TORSDOF 10
ENDMDL
MODEL 3
REMARK VINA RESULT:     8.185      2.797      5.721
REMARK INTER + INTRA:          12.809
REMARK INTER:                  13.151
REMARK INTRA:                  -0.342
REMARK UNBOUND:                -0.160
REMARK SMILES CCCCCCCCCCCC(=O)[O-]
REMARK SMILES IDX 7 1 8 2 9 3 10 4 11 5 12 6 13 7 14 8 6 9 5 10 4 11 3 12 2 13
REMARK SMILES IDX 1 14
REMARK H PARENT
REMARK Flexibility Score: inf
ROOT
ATOM      1  C   UNL     1       9.198  18.086  28.243  1.00  0.00     0.000 C 
ENDROOT
BRANCH   1   2
ATOM      2  C   UNL     1       9.473  17.891  29.747  1.00  0.00     0.000 C 
BRANCH   2   3
ATOM      3  C   UNL     1       8.237  17.457  30.561  1.00  0.00     0.000 C 
BRANCH   3   4
ATOM      4  C   UNL     1       8.547  17.062  32.019  1.00  0.00     0.006 C 
BRANCH   4   5
ATOM      5  C   UNL     1       7.649  17.787  33.029  1.00  0.00     0.053 C 
BRANCH   5   6
ATOM      6  C   UNL     1       7.725  19.267  32.829  1.00  0.00     0.041 C 
ATOM      7  O   UNL     1       8.769  19.789  32.357  1.00  0.00    -0.550 OA
ATOM      8  O   UNL     1       6.624  20.065  33.116  1.00  0.00    -0.550 OA
ENDBRANCH   5   6
ENDBRANCH   4   5
ENDBRANCH   3   4
ENDBRANCH   2   3
ENDBRANCH   1   2
BRANCH   1   9
ATOM      9  C   UNL     1       8.884  16.758  27.529  1.00  0.00     0.000 C 
BRANCH   9  10
ATOM     10  C   UNL     1       7.560  16.803  26.752  1.00  0.00    -0.000 C 
BRANCH  10  11
ATOM     11  C   UNL     1       7.287  18.181  26.123  1.00  0.00    -0.000 C 
BRANCH  11  12
ATOM     12  C   UNL     1       5.781  18.515  26.085  1.00  0.00    -0.000 C 
BRANCH  12  13
ATOM     13  C   UNL     1       4.990  17.927  27.266  1.00  0.00    -0.003 C 
ATOM     14  C   UNL     1       3.492  17.813  26.986  1.00  0.00     0.004 C 
ENDBRANCH  12  13
ENDBRANCH  11  12
ENDBRANCH  10  11
ENDBRANCH   9  10
ENDBRANCH   1   9
TORSDOF 10
ENDMDL
MODEL 4
REMARK VINA RESULT:     8.220      3.534      7.007
REMARK INTER + INTRA:          12.864
REMARK INTER:                  13.131
REMARK INTRA:                  -0.267
REMARK UNBOUND:                -0.160
REMARK SMILES CCCCCCCCCCCC(=O)[O-]
REMARK SMILES IDX 7 1 8 2 9 3 10 4 11 5 12 6 13 7 14 8 6 9 5 10 4 11 3 12 2 13
REMARK SMILES IDX 1 14
REMARK H PARENT
REMARK Flexibility Score: inf
ROOT
ATOM      1  C   UNL     1       7.557  17.090  27.123  1.00  0.00     0.000 C 
ENDROOT
BRANCH   1   2
ATOM      2  C   UNL     1       8.814  17.846  27.599  1.00  0.00     0.000 C 
BRANCH   2   3
ATOM      3  C   UNL     1       9.372  17.350  28.948  1.00  0.00     0.000 C 
BRANCH   3   4
ATOM      4  C   UNL     1       8.558  17.806  30.175  1.00  0.00     0.006 C 
BRANCH   4   5
ATOM      5  C   UNL     1       9.126  17.264  31.493  1.00  0.00     0.053 C 
BRANCH   5   6
ATOM      6  C   UNL     1       8.075  17.267  32.557  1.00  0.00     0.041 C 
ATOM      7  O   UNL     1       7.747  16.193  33.125  1.00  0.00    -0.550 OA
ATOM      8  O   UNL     1       7.494  18.464  32.957  1.00  0.00    -0.550 OA
ENDBRANCH   5   6
ENDBRANCH   4   5
ENDBRANCH   3   4
ENDBRANCH   2   3
ENDBRANCH   1   2
BRANCH   1   9
ATOM      9  C   UNL     1       6.400  18.043  26.771  1.00  0.00     0.000 C 
BRANCH   9  10
ATOM     10  C   UNL     1       6.211  18.210  25.256  1.00  0.00    -0.000 C 
BRANCH  10  11
ATOM     11  C   UNL     1       5.208  19.322  24.902  1.00  0.00    -0.000 C 
BRANCH  11  12
ATOM     12  C   UNL     1       4.785  19.273  23.419  1.00  0.00    -0.000 C 
BRANCH  12  13
ATOM     13  C   UNL     1       4.287  20.623  22.874  1.00  0.00    -0.003 C 
ATOM     14  C   UNL     1       2.846  20.571  22.370  1.00  0.00     0.004 C 
ENDBRANCH  12  13
ENDBRANCH  11  12
ENDBRANCH  10  11
ENDBRANCH   9  10
ENDBRANCH   1   9
TORSDOF 10
ENDMDL
MODEL 5
REMARK VINA RESULT:     8.602      3.083      6.012
REMARK INTER + INTRA:          13.471
REMARK INTER:                  14.087
REMARK INTRA:                  -0.616
REMARK UNBOUND:                -0.160
REMARK SMILES CCCCCCCCCCCC(=O)[O-]
REMARK SMILES IDX 7 1 8 2 9 3 10 4 11 5 12 6 13 7 14 8 6 9 5 10 4 11 3 12 2 13
REMARK SMILES IDX 1 14
REMARK H PARENT
REMARK Flexibility Score: inf
ROOT
ATOM      1  C   UNL     1       7.781  16.828  26.825  1.00  0.00     0.000 C 
ENDROOT
BRANCH   1   2
ATOM      2  C   UNL     1       9.037  16.819  27.719  1.00  0.00     0.000 C 
BRANCH   2   3
ATOM      3  C   UNL     1       9.008  17.861  28.855  1.00  0.00     0.000 C 
BRANCH   3   4
ATOM      4  C   UNL     1       8.215  17.417  30.101  1.00  0.00     0.006 C 
BRANCH   4   5
ATOM      5  C   UNL     1       9.037  17.528  31.392  1.00  0.00     0.053 C 
BRANCH   5   6
ATOM      6  C   UNL     1       8.150  17.398  32.589  1.00  0.00     0.041 C 
ATOM      7  O   UNL     1       7.607  18.419  33.087  1.00  0.00    -0.550 OA
ATOM      8  O   UNL     1       7.884  16.144  33.125  1.00  0.00    -0.550 OA
ENDBRANCH   5   6
ENDBRANCH   4   5
ENDBRANCH   3   4
ENDBRANCH   2   3
ENDBRANCH   1   2
BRANCH   1   9
ATOM      9  C   UNL     1       7.404  18.247  26.361  1.00  0.00     0.000 C 
BRANCH   9  10
ATOM     10  C   UNL     1       5.886  18.447  26.244  1.00  0.00    -0.000 C 
BRANCH  10  11
ATOM     11  C   UNL     1       5.102  17.692  27.332  1.00  0.00    -0.000 C 
BRANCH  11  12
ATOM     12  C   UNL     1       3.610  18.084  27.350  1.00  0.00    -0.000 C 
BRANCH  12  13
ATOM     13  C   UNL     1       2.823  17.576  26.130  1.00  0.00    -0.003 C 
ATOM     14  C   UNL     1       1.419  18.171  26.031  1.00  0.00     0.004 C 
ENDBRANCH  12  13
ENDBRANCH  11  12
ENDBRANCH  10  11
ENDBRANCH   9  10
ENDBRANCH   1   9
TORSDOF 10
ENDMDL
MODEL 6
REMARK VINA RESULT:     8.887      1.085      1.441
REMARK INTER + INTRA:          13.923
REMARK INTER:                  14.532
REMARK INTRA:                  -0.609
REMARK UNBOUND:                -0.160
REMARK SMILES CCCCCCCCCCCC(=O)[O-]
REMARK SMILES IDX 7 1 8 2 9 3 10 4 11 5 12 6 13 7 14 8 6 9 5 10 4 11 3 12 2 13
REMARK SMILES IDX 1 14
REMARK H PARENT
REMARK Flexibility Score: inf
ROOT
ATOM      1  C   UNL     1       9.396  17.767  28.409  1.00  0.00     0.000 C 
ENDROOT
BRANCH   1   2
ATOM      2  C   UNL     1       8.942  16.604  27.504  1.00  0.00     0.000 C 
BRANCH   2   3
ATOM      3  C   UNL     1       7.783  16.962  26.553  1.00  0.00     0.000 C 
BRANCH   3   4
ATOM      4  C   UNL     1       6.669  17.807  27.204  1.00  0.00     0.006 C 
BRANCH   4   5
ATOM      5  C   UNL     1       5.418  17.910  26.323  1.00  0.00     0.053 C 
BRANCH   5   6
ATOM      6  C   UNL     1       5.550  19.042  25.355  1.00  0.00     0.041 C 
ATOM      7  O   UNL     1       6.206  20.070  25.670  1.00  0.00    -0.550 OA
ATOM      8  O   UNL     1       4.990  18.942  24.087  1.00  0.00    -0.550 OA
ENDBRANCH   5   6
ENDBRANCH   4   5
ENDBRANCH   3   4
ENDBRANCH   2   3
ENDBRANCH   1   2
BRANCH   1   9
ATOM      9  C   UNL     1       9.581  17.330  29.874  1.00  0.00     0.000 C 
BRANCH   9  10
ATOM     10  C   UNL     1       8.304  17.506  30.709  1.00  0.00    -0.000 C 
BRANCH  10  11
ATOM     11  C   UNL     1       8.519  17.176  32.197  1.00  0.00    -0.000 C 
BRANCH  11  12
ATOM     12  C   UNL     1       7.792  18.172  33.124  1.00  0.00    -0.000 C 
BRANCH  12  13
ATOM     13  C   UNL     1       7.718  19.600  32.558  1.00  0.00    -0.003 C 
ATOM     14  C   UNL     1       6.553  20.411  33.124  1.00  0.00     0.004 C 
ENDBRANCH  12  13
ENDBRANCH  11  12
ENDBRANCH  10  11
ENDBRANCH   9  10
ENDBRANCH   1   9
TORSDOF 10
ENDMDL
MODEL 7
REMARK VINA RESULT:     9.341      1.052      1.897
REMARK INTER + INTRA:          14.642
REMARK INTER:                  15.206
REMARK INTRA:                  -0.564
REMARK UNBOUND:                -0.160
REMARK SMILES CCCCCCCCCCCC(=O)[O-]
REMARK SMILES IDX 7 1 8 2 9 3 10 4 11 5 12 6 13 7 14 8 6 9 5 10 4 11 3 12 2 13
REMARK SMILES IDX 1 14
REMARK H PARENT
REMARK Flexibility Score: inf
ROOT
ATOM      1  C   UNL     1       9.568  18.275  28.699  1.00  0.00     0.000 C 
ENDROOT
BRANCH   1   2
ATOM      2  C   UNL     1       9.822  16.867  28.123  1.00  0.00     0.000 C 
BRANCH   2   3
ATOM      3  C   UNL     1       8.770  16.410  27.093  1.00  0.00     0.000 C 
BRANCH   3   4
ATOM      4  C   UNL     1       7.787  17.516  26.660  1.00  0.00     0.006 C 
BRANCH   4   5
ATOM      5  C   UNL     1       6.497  17.514  27.490  1.00  0.00     0.053 C 
BRANCH   5   6
ATOM      6  C   UNL     1       5.378  18.140  26.720  1.00  0.00     0.041 C 
ATOM      7  O   UNL     1       5.622  18.813  25.684  1.00  0.00    -0.550 OA
ATOM      8  O   UNL     1       4.062  17.938  27.117  1.00  0.00    -0.550 OA
ENDBRANCH   5   6
ENDBRANCH   4   5
ENDBRANCH   3   4
ENDBRANCH   2   3
ENDBRANCH   1   2
BRANCH   1   9
ATOM      9  C   UNL     1       9.087  18.231  30.161  1.00  0.00     0.000 C 
BRANCH   9  10
ATOM     10  C   UNL     1      10.055  17.471  31.080  1.00  0.00    -0.000 C 
BRANCH  10  11
ATOM     11  C   UNL     1       9.597  17.463  32.548  1.00  0.00    -0.000 C 
BRANCH  11  12
ATOM     12  C   UNL     1       8.125  17.900  32.700  1.00  0.00    -0.000 C 
BRANCH  12  13
ATOM     13  C   UNL     1       7.161  16.733  32.974  1.00  0.00    -0.003 C 
ATOM     14  C   UNL     1       7.873  15.389  33.125  1.00  0.00     0.004 C 
ENDBRANCH  12  13
ENDBRANCH  11  12
ENDBRANCH  10  11
ENDBRANCH   9  10
ENDBRANCH   1   9
TORSDOF 10
ENDMDL
