MODEL 1
REMARK VINA RESULT:    -4.470      0.000      0.000
REMARK INTER + INTRA:          -4.470
REMARK INTER:                  -4.470
REMARK INTRA:                   0.000
REMARK UNBOUND:                 0.000
REMARK SMILES CC(C)=C1CC[C@H](C)CC1=O
REMARK SMILES IDX 8 1 7 2 6 3 5 4 4 5 2 6 1 7 3 8 10 9 11 10 9 11
REMARK H PARENT
REMARK Flexibility Score: inf
ROOT
ATOM      1  C   UNL     1      14.357  29.991  30.057  1.00  0.00     0.008 C 
ATOM      2  C   UNL     1      15.455  30.911  29.512  1.00  0.00    -0.006 C 
ATOM      3  C   UNL     1      15.350  32.310  30.141  1.00  0.00     0.008 C 
ATOM      4  C   UNL     1      16.377  33.274  29.531  1.00  0.00     0.039 C 
ATOM      5  C   UNL     1      17.795  32.720  29.572  1.00  0.00    -0.006 C 
ATOM      6  C   UNL     1      18.875  33.542  29.705  1.00  0.00    -0.070 C 
ATOM      7  C   UNL     1      18.711  35.043  29.799  1.00  0.00     0.039 C 
ATOM      8  C   UNL     1      20.283  33.001  29.803  1.00  0.00     0.039 C 
ATOM      9  C   UNL     1      17.930  31.249  29.342  1.00  0.00     0.159 C 
ATOM     10  O   UNL     1      18.945  30.767  28.772  1.00  0.00    -0.295 OA
ATOM     11  C   UNL     1      16.843  30.315  29.788  1.00  0.00     0.084 C 
ENDROOT
TORSDOF 0
ENDMDL
MODEL 2
REMARK VINA RESULT:    -4.279      1.132      4.156
REMARK INTER + INTRA:          -4.279
REMARK INTER:                  -4.279
REMARK INTRA:                   0.000
REMARK UNBOUND:                 0.000
REMARK SMILES CC(C)=C1CC[C@H](C)CC1=O
REMARK SMILES IDX 8 1 7 2 6 3 5 4 4 5 2 6 1 7 3 8 10 9 11 10 9 11
REMARK H PARENT
REMARK Flexibility Score: inf
ROOT
ATOM      1  C   UNL     1      18.382  34.519  29.381  1.00  0.00     0.008 C 
ATOM      2  C   UNL     1      17.631  33.299  29.925  1.00  0.00    -0.006 C 
ATOM      3  C   UNL     1      16.187  33.273  29.399  1.00  0.00     0.008 C 
ATOM      4  C   UNL     1      15.390  32.115  30.014  1.00  0.00     0.039 C 
ATOM      5  C   UNL     1      16.093  30.773  29.857  1.00  0.00    -0.006 C 
ATOM      6  C   UNL     1      15.387  29.613  29.720  1.00  0.00    -0.070 C 
ATOM      7  C   UNL     1      13.875  29.609  29.737  1.00  0.00     0.039 C 
ATOM      8  C   UNL     1      16.073  28.283  29.507  1.00  0.00     0.039 C 
ATOM      9  C   UNL     1      17.582  30.796  29.978  1.00  0.00     0.159 C 
ATOM     10  O   UNL     1      18.214  29.817  30.457  1.00  0.00    -0.295 OA
ATOM     11  C   UNL     1      18.355  32.003  29.532  1.00  0.00     0.084 C 
ENDROOT
TORSDOF 0
ENDMDL
MODEL 3
REMARK VINA RESULT:    -4.234      6.668      8.318
REMARK INTER + INTRA:          -4.234
REMARK INTER:                  -4.234
REMARK INTRA:                   0.000
REMARK UNBOUND:                 0.000
REMARK SMILES CC(C)=C1CC[C@H](C)CC1=O
REMARK SMILES IDX 8 1 7 2 6 3 5 4 4 5 2 6 1 7 3 8 10 9 11 10 9 11
REMARK H PARENT
REMARK Flexibility Score: inf
ROOT
ATOM      1  C   UNL     1      21.575  27.661  28.634  1.00  0.00     0.008 C 
ATOM      2  C   UNL     1      23.054  27.957  28.906  1.00  0.00    -0.006 C 
ATOM      3  C   UNL     1      23.793  28.265  27.594  1.00  0.00     0.008 C 
ATOM      4  C   UNL     1      25.296  28.463  27.834  1.00  0.00     0.039 C 
ATOM      5  C   UNL     1      25.583  29.490  28.921  1.00  0.00    -0.006 C 
ATOM      6  C   UNL     1      26.699  30.275  28.880  1.00  0.00    -0.070 C 
ATOM      7  C   UNL     1      27.707  30.146  27.760  1.00  0.00     0.039 C 
ATOM      8  C   UNL     1      26.966  31.335  29.923  1.00  0.00     0.039 C 
ATOM      9  C   UNL     1      24.639  29.498  30.080  1.00  0.00     0.159 C 
ATOM     10  O   UNL     1      25.030  29.800  31.240  1.00  0.00    -0.295 OA
ATOM     11  C   UNL     1      23.197  29.137  29.877  1.00  0.00     0.084 C 
ENDROOT
TORSDOF 0
ENDMDL
MODEL 4
REMARK VINA RESULT:    -4.214      5.543      6.737
REMARK INTER + INTRA:          -4.214
REMARK INTER:                  -4.214
REMARK INTRA:                   0.000
REMARK UNBOUND:                 0.000
REMARK SMILES CC(C)=C1CC[C@H](C)CC1=O
REMARK SMILES IDX 8 1 7 2 6 3 5 4 4 5 2 6 1 7 3 8 10 9 11 10 9 11
REMARK H PARENT
REMARK Flexibility Score: inf
ROOT
ATOM      1  C   UNL     1      19.864  23.514  26.619  1.00  0.00     0.008 C 
ATOM      2  C   UNL     1      20.016  24.954  27.120  1.00  0.00    -0.006 C 
ATOM      3  C   UNL     1      18.755  25.399  27.878  1.00  0.00     0.008 C 
ATOM      4  C   UNL     1      18.847  26.872  28.298  1.00  0.00     0.039 C 
ATOM      5  C   UNL     1      20.127  27.182  29.063  1.00  0.00    -0.006 C 
ATOM      6  C   UNL     1      20.159  28.139  30.035  1.00  0.00    -0.070 C 
ATOM      7  C   UNL     1      18.928  28.945  30.382  1.00  0.00     0.039 C 
ATOM      8  C   UNL     1      21.408  28.417  30.839  1.00  0.00     0.039 C 
ATOM      9  C   UNL     1      21.354  26.463  28.604  1.00  0.00     0.159 C 
ATOM     10  O   UNL     1      22.492  26.998  28.682  1.00  0.00    -0.295 OA
ATOM     11  C   UNL     1      21.246  25.080  28.031  1.00  0.00     0.084 C 
ENDROOT
TORSDOF 0
ENDMDL
MODEL 5
REMARK VINA RESULT:    -4.204      1.562      4.669
REMARK INTER + INTRA:          -4.204
REMARK INTER:                  -4.204
REMARK INTRA:                   0.000
REMARK UNBOUND:                 0.000
REMARK SMILES CC(C)=C1CC[C@H](C)CC1=O
REMARK SMILES IDX 8 1 7 2 6 3 5 4 4 5 2 6 1 7 3 8 10 9 11 10 9 11
REMARK H PARENT
REMARK Flexibility Score: inf
ROOT
ATOM      1  C   UNL     1      20.665  34.967  29.879  1.00  0.00     0.008 C 
ATOM      2  C   UNL     1      19.623  33.954  29.392  1.00  0.00    -0.006 C 
ATOM      3  C   UNL     1      19.971  32.540  29.884  1.00  0.00     0.008 C 
ATOM      4  C   UNL     1      18.996  31.498  29.320  1.00  0.00     0.039 C 
ATOM      5  C   UNL     1      17.540  31.862  29.575  1.00  0.00    -0.006 C 
ATOM      6  C   UNL     1      16.590  30.901  29.764  1.00  0.00    -0.070 C 
ATOM      7  C   UNL     1      16.941  29.431  29.711  1.00  0.00     0.039 C 
ATOM      8  C   UNL     1      15.152  31.251  30.073  1.00  0.00     0.039 C 
ATOM      9  C   UNL     1      17.204  33.316  29.488  1.00  0.00     0.159 C 
ATOM     10  O   UNL     1      16.075  33.703  29.084  1.00  0.00    -0.295 OA
ATOM     11  C   UNL     1      18.221  34.348  29.879  1.00  0.00     0.084 C 
ENDROOT
TORSDOF 0
ENDMDL
MODEL 6
REMARK VINA RESULT:    -4.181      5.643      7.407
REMARK INTER + INTRA:          -4.181
REMARK INTER:                  -4.181
REMARK INTRA:                   0.000
REMARK UNBOUND:                 0.000
REMARK SMILES CC(C)=C1CC[C@H](C)CC1=O
REMARK SMILES IDX 8 1 7 2 6 3 5 4 4 5 2 6 1 7 3 8 10 9 11 10 9 11
REMARK H PARENT
REMARK Flexibility Score: inf
ROOT
ATOM      1  C   UNL     1      16.995  28.787  29.190  1.00  0.00     0.008 C 
ATOM      2  C   UNL     1      17.655  27.409  29.066  1.00  0.00    -0.006 C 
ATOM      3  C   UNL     1      17.026  26.611  27.912  1.00  0.00     0.008 C 
ATOM      4  C   UNL     1      17.602  25.190  27.838  1.00  0.00     0.039 C 
ATOM      5  C   UNL     1      19.124  25.179  27.794  1.00  0.00    -0.006 C 
ATOM      6  C   UNL     1      19.808  24.210  27.120  1.00  0.00    -0.070 C 
ATOM      7  C   UNL     1      19.083  23.094  26.402  1.00  0.00     0.039 C 
ATOM      8  C   UNL     1      21.317  24.219  27.023  1.00  0.00     0.039 C 
ATOM      9  C   UNL     1      19.811  26.216  28.623  1.00  0.00     0.159 C 
ATOM     10  O   UNL     1      20.930  25.991  29.156  1.00  0.00    -0.295 OA
ATOM     11  C   UNL     1      19.166  27.554  28.839  1.00  0.00     0.084 C 
ENDROOT
TORSDOF 0
ENDMDL
MODEL 7
REMARK VINA RESULT:    -4.135      2.120      3.482
REMARK INTER + INTRA:          -4.135
REMARK INTER:                  -4.135
REMARK INTRA:                   0.000
REMARK UNBOUND:                 0.000
REMARK SMILES CC(C)=C1CC[C@H](C)CC1=O
REMARK SMILES IDX 8 1 7 2 6 3 5 4 4 5 2 6 1 7 3 8 10 9 11 10 9 11
REMARK H PARENT
REMARK Flexibility Score: inf
ROOT
ATOM      1  C   UNL     1      18.393  26.902  28.384  1.00  0.00     0.008 C 
ATOM      2  C   UNL     1      18.265  28.260  29.084  1.00  0.00    -0.006 C 
ATOM      3  C   UNL     1      19.018  29.346  28.299  1.00  0.00     0.008 C 
ATOM      4  C   UNL     1      18.988  30.690  29.039  1.00  0.00     0.039 C 
ATOM      5  C   UNL     1      17.576  31.116  29.418  1.00  0.00    -0.006 C 
ATOM      6  C   UNL     1      17.222  32.433  29.473  1.00  0.00    -0.070 C 
ATOM      7  C   UNL     1      18.224  33.527  29.176  1.00  0.00     0.039 C 
ATOM      8  C   UNL     1      15.810  32.867  29.793  1.00  0.00     0.039 C 
ATOM      9  C   UNL     1      16.650  30.020  29.834  1.00  0.00     0.159 C 
ATOM     10  O   UNL     1      15.748  30.216  30.692  1.00  0.00    -0.295 OA
ATOM     11  C   UNL     1      16.788  28.651  29.234  1.00  0.00     0.084 C 
ENDROOT
TORSDOF 0
ENDMDL
MODEL 8
REMARK VINA RESULT:    -4.111      4.837      6.194
REMARK INTER + INTRA:          -4.111
REMARK INTER:                  -4.111
REMARK INTRA:                   0.000
REMARK UNBOUND:                 0.000
REMARK SMILES CC(C)=C1CC[C@H](C)CC1=O
REMARK SMILES IDX 8 1 7 2 6 3 5 4 4 5 2 6 1 7 3 8 10 9 11 10 9 11
REMARK H PARENT
REMARK Flexibility Score: inf
ROOT
ATOM      1  C   UNL     1      19.917  23.881  27.087  1.00  0.00     0.008 C 
ATOM      2  C   UNL     1      19.840  25.114  27.995  1.00  0.00    -0.006 C 
ATOM      3  C   UNL     1      21.200  25.827  28.053  1.00  0.00     0.008 C 
ATOM      4  C   UNL     1      21.170  27.004  29.038  1.00  0.00     0.039 C 
ATOM      5  C   UNL     1      20.019  27.963  28.767  1.00  0.00    -0.006 C 
ATOM      6  C   UNL     1      20.131  29.299  29.024  1.00  0.00    -0.070 C 
ATOM      7  C   UNL     1      21.400  29.880  29.607  1.00  0.00     0.039 C 
ATOM      8  C   UNL     1      19.016  30.269  28.707  1.00  0.00     0.039 C 
ATOM      9  C   UNL     1      18.737  27.338  28.318  1.00  0.00     0.159 C 
ATOM     10  O   UNL     1      17.623  27.841  28.623  1.00  0.00    -0.295 OA
ATOM     11  C   UNL     1      18.760  26.084  27.494  1.00  0.00     0.084 C 
ENDROOT
TORSDOF 0
ENDMDL
MODEL 9
REMARK VINA RESULT:    -4.111      5.367      7.389
REMARK INTER + INTRA:          -4.111
REMARK INTER:                  -4.111
REMARK INTRA:                   0.000
REMARK UNBOUND:                 0.000
REMARK SMILES CC(C)=C1CC[C@H](C)CC1=O
REMARK SMILES IDX 8 1 7 2 6 3 5 4 4 5 2 6 1 7 3 8 10 9 11 10 9 11
REMARK H PARENT
REMARK Flexibility Score: inf
ROOT
ATOM      1  C   UNL     1      22.262  29.834  29.948  1.00  0.00     0.008 C 
ATOM      2  C   UNL     1      21.512  28.502  29.838  1.00  0.00    -0.006 C 
ATOM      3  C   UNL     1      20.077  28.729  29.334  1.00  0.00     0.008 C 
ATOM      4  C   UNL     1      19.279  27.418  29.316  1.00  0.00     0.039 C 
ATOM      5  C   UNL     1      19.996  26.309  28.558  1.00  0.00    -0.006 C 
ATOM      6  C   UNL     1      19.302  25.351  27.877  1.00  0.00    -0.070 C 
ATOM      7  C   UNL     1      17.790  25.341  27.861  1.00  0.00     0.039 C 
ATOM      8  C   UNL     1      20.001  24.278  27.075  1.00  0.00     0.039 C 
ATOM      9  C   UNL     1      21.482  26.270  28.704  1.00  0.00     0.159 C 
ATOM     10  O   UNL     1      22.114  25.179  28.677  1.00  0.00    -0.295 OA
ATOM     11  C   UNL     1      22.253  27.543  28.895  1.00  0.00     0.084 C 
ENDROOT
TORSDOF 0
ENDMDL
