MODEL 1
REMARK VINA RESULT:    -4.458      0.000      0.000
REMARK INTER + INTRA:          -4.458
REMARK INTER:                  -4.458
REMARK INTRA:                   0.000
REMARK UNBOUND:                 0.000
REMARK SMILES CC1=CC(=O)[C@H]2C[C@@H]1C2(C)C
REMARK SMILES IDX 1 1 2 2 3 3 4 4 5 5 6 6 7 7 8 8 9 9 10 10 11 11
REMARK H PARENT
REMARK Flexibility Score: inf
ROOT
ATOM      1  C   UNL     1     -40.854  12.513  16.123  1.00  0.00     0.040 C 
ATOM      2  C   UNL     1     -40.024  13.666  15.656  1.00  0.00    -0.066 C 
ATOM      3  C   UNL     1     -38.708  13.775  15.990  1.00  0.00     0.047 C 
ATOM      4  C   UNL     1     -37.993  14.991  15.487  1.00  0.00     0.159 C 
ATOM      5  O   UNL     1     -36.787  15.224  15.762  1.00  0.00    -0.295 OA
ATOM      6  C   UNL     1     -38.831  15.931  14.618  1.00  0.00     0.067 C 
ATOM      7  C   UNL     1     -39.564  14.987  13.640  1.00  0.00     0.021 C 
ATOM      8  C   UNL     1     -40.609  14.780  14.760  1.00  0.00     0.022 C 
ATOM      9  C   UNL     1     -40.196  16.169  15.324  1.00  0.00    -0.019 C 
ATOM     10  C   UNL     1     -40.998  17.329  14.680  1.00  0.00     0.012 C 
ATOM     11  C   UNL     1     -40.207  16.369  16.866  1.00  0.00     0.012 C 
ENDROOT
TORSDOF 0
ENDMDL
MODEL 2
REMARK VINA RESULT:    -4.401     10.220     11.750
REMARK INTER + INTRA:          -4.401
REMARK INTER:                  -4.401
REMARK INTRA:                   0.000
REMARK UNBOUND:                 0.000
REMARK SMILES CC1=CC(=O)[C@H]2C[C@@H]1C2(C)C
REMARK SMILES IDX 1 1 2 2 3 3 4 4 5 5 6 6 7 7 8 8 9 9 10 10 11 11
REMARK H PARENT
REMARK Flexibility Score: inf
ROOT
ATOM      1  C   UNL     1     -32.384  20.010   7.075  1.00  0.00     0.040 C 
ATOM      2  C   UNL     1     -33.255  19.105   6.263  1.00  0.00    -0.066 C 
ATOM      3  C   UNL     1     -33.881  19.546   5.136  1.00  0.00     0.047 C 
ATOM      4  C   UNL     1     -34.750  18.553   4.427  1.00  0.00     0.159 C 
ATOM      5  O   UNL     1     -35.411  18.851   3.398  1.00  0.00    -0.295 OA
ATOM      6  C   UNL     1     -34.780  17.153   5.042  1.00  0.00     0.067 C 
ATOM      7  C   UNL     1     -33.297  16.835   5.332  1.00  0.00     0.021 C 
ATOM      8  C   UNL     1     -33.475  17.625   6.648  1.00  0.00     0.022 C 
ATOM      9  C   UNL     1     -34.993  17.292   6.577  1.00  0.00    -0.019 C 
ATOM     10  C   UNL     1     -35.331  15.937   7.250  1.00  0.00     0.012 C 
ATOM     11  C   UNL     1     -36.004  18.355   7.090  1.00  0.00     0.012 C 
ENDROOT
TORSDOF 0
ENDMDL
MODEL 3
REMARK VINA RESULT:    -4.199      4.420      5.717
REMARK INTER + INTRA:          -4.199
REMARK INTER:                  -4.199
REMARK INTRA:                   0.000
REMARK UNBOUND:                 0.000
REMARK SMILES CC1=CC(=O)[C@H]2C[C@@H]1C2(C)C
REMARK SMILES IDX 1 1 2 2 3 3 4 4 5 5 6 6 7 7 8 8 9 9 10 10 11 11
REMARK H PARENT
REMARK Flexibility Score: inf
ROOT
ATOM      1  C   UNL     1     -42.277  18.235  14.554  1.00  0.00     0.040 C 
ATOM      2  C   UNL     1     -42.442  18.028  16.026  1.00  0.00    -0.066 C 
ATOM      3  C   UNL     1     -43.670  18.066  16.615  1.00  0.00     0.047 C 
ATOM      4  C   UNL     1     -43.700  17.875  18.101  1.00  0.00     0.159 C 
ATOM      5  O   UNL     1     -44.769  17.928  18.764  1.00  0.00    -0.295 OA
ATOM      6  C   UNL     1     -42.342  17.614  18.755  1.00  0.00     0.067 C 
ATOM      7  C   UNL     1     -41.678  16.562  17.840  1.00  0.00     0.021 C 
ATOM      8  C   UNL     1     -41.235  17.745  16.949  1.00  0.00     0.022 C 
ATOM      9  C   UNL     1     -41.323  18.653  18.209  1.00  0.00    -0.019 C 
ATOM     10  C   UNL     1     -40.001  18.665  19.019  1.00  0.00     0.012 C 
ATOM     11  C   UNL     1     -41.793  20.124  18.024  1.00  0.00     0.012 C 
ENDROOT
TORSDOF 0
ENDMDL
MODEL 4
REMARK VINA RESULT:    -4.135     16.883     17.989
REMARK INTER + INTRA:          -4.135
REMARK INTER:                  -4.135
REMARK INTRA:                   0.000
REMARK UNBOUND:                 0.000
REMARK SMILES CC1=CC(=O)[C@H]2C[C@@H]1C2(C)C
REMARK SMILES IDX 1 1 2 2 3 3 4 4 5 5 6 6 7 7 8 8 9 9 10 10 11 11
REMARK H PARENT
REMARK Flexibility Score: inf
ROOT
ATOM      1  C   UNL     1     -29.977   0.243   9.114  1.00  0.00     0.040 C 
ATOM      2  C   UNL     1     -30.873   1.039   8.220  1.00  0.00    -0.066 C 
ATOM      3  C   UNL     1     -32.226   1.030   8.381  1.00  0.00     0.047 C 
ATOM      4  C   UNL     1     -33.016   1.843   7.402  1.00  0.00     0.159 C 
ATOM      5  O   UNL     1     -34.274   1.884   7.422  1.00  0.00    -0.295 OA
ATOM      6  C   UNL     1     -32.188   2.618   6.375  1.00  0.00     0.067 C 
ATOM      7  C   UNL     1     -31.062   3.266   7.209  1.00  0.00     0.021 C 
ATOM      8  C   UNL     1     -30.312   1.921   7.083  1.00  0.00     0.022 C 
ATOM      9  C   UNL     1     -31.119   1.659   5.778  1.00  0.00    -0.019 C 
ATOM     10  C   UNL     1     -30.425   2.255   4.526  1.00  0.00     0.012 C 
ATOM     11  C   UNL     1     -31.536   0.197   5.453  1.00  0.00     0.012 C 
ENDROOT
TORSDOF 0
ENDMDL
MODEL 5
REMARK VINA RESULT:    -4.116      4.079      5.624
REMARK INTER + INTRA:          -4.116
REMARK INTER:                  -4.116
REMARK INTRA:                   0.000
REMARK UNBOUND:                 0.000
REMARK SMILES CC1=CC(=O)[C@H]2C[C@@H]1C2(C)C
REMARK SMILES IDX 1 1 2 2 3 3 4 4 5 5 6 6 7 7 8 8 9 9 10 10 11 11
REMARK H PARENT
REMARK Flexibility Score: inf
ROOT
ATOM      1  C   UNL     1     -40.984  16.306  17.013  1.00  0.00     0.040 C 
ATOM      2  C   UNL     1     -41.887  17.465  16.731  1.00  0.00    -0.066 C 
ATOM      3  C   UNL     1     -41.766  18.196  15.589  1.00  0.00     0.047 C 
ATOM      4  C   UNL     1     -42.709  19.351  15.436  1.00  0.00     0.159 C 
ATOM      5  O   UNL     1     -42.670  20.125  14.444  1.00  0.00    -0.295 OA
ATOM      6  C   UNL     1     -43.720  19.524  16.571  1.00  0.00     0.067 C 
ATOM      7  C   UNL     1     -44.256  18.097  16.820  1.00  0.00     0.021 C 
ATOM      8  C   UNL     1     -43.010  17.878  17.708  1.00  0.00     0.022 C 
ATOM      9  C   UNL     1     -42.965  19.418  17.926  1.00  0.00    -0.019 C 
ATOM     10  C   UNL     1     -43.838  19.869  19.125  1.00  0.00     0.012 C 
ATOM     11  C   UNL     1     -41.574  20.102  18.053  1.00  0.00     0.012 C 
ENDROOT
TORSDOF 0
ENDMDL
MODEL 6
REMARK VINA RESULT:    -4.076      4.188      5.877
REMARK INTER + INTRA:          -4.076
REMARK INTER:                  -4.076
REMARK INTRA:                   0.000
REMARK UNBOUND:                 0.000
REMARK SMILES CC1=CC(=O)[C@H]2C[C@@H]1C2(C)C
REMARK SMILES IDX 1 1 2 2 3 3 4 4 5 5 6 6 7 7 8 8 9 9 10 10 11 11
REMARK H PARENT
REMARK Flexibility Score: inf
ROOT
ATOM      1  C   UNL     1     -42.433  18.847  14.651  1.00  0.00     0.040 C 
ATOM      2  C   UNL     1     -42.335  18.741  16.139  1.00  0.00    -0.066 C 
ATOM      3  C   UNL     1     -41.698  17.696  16.736  1.00  0.00     0.047 C 
ATOM      4  C   UNL     1     -41.695  17.687  18.234  1.00  0.00     0.159 C 
ATOM      5  O   UNL     1     -41.174  16.755  18.901  1.00  0.00    -0.295 OA
ATOM      6  C   UNL     1     -42.372  18.888  18.897  1.00  0.00     0.067 C 
ATOM      7  C   UNL     1     -41.830  20.105  18.115  1.00  0.00     0.021 C 
ATOM      8  C   UNL     1     -42.934  19.817  17.072  1.00  0.00     0.022 C 
ATOM      9  C   UNL     1     -43.745  19.125  18.206  1.00  0.00    -0.019 C 
ATOM     10  C   UNL     1     -44.634  20.125  18.989  1.00  0.00     0.012 C 
ATOM     11  C   UNL     1     -44.612  17.887  17.840  1.00  0.00     0.012 C 
ENDROOT
TORSDOF 0
ENDMDL
MODEL 7
REMARK VINA RESULT:    -4.015      2.609      3.718
REMARK INTER + INTRA:          -4.015
REMARK INTER:                  -4.015
REMARK INTRA:                   0.000
REMARK UNBOUND:                 0.000
REMARK SMILES CC1=CC(=O)[C@H]2C[C@@H]1C2(C)C
REMARK SMILES IDX 1 1 2 2 3 3 4 4 5 5 6 6 7 7 8 8 9 9 10 10 11 11
REMARK H PARENT
REMARK Flexibility Score: inf
ROOT
ATOM      1  C   UNL     1     -40.307  16.258  15.772  1.00  0.00     0.040 C 
ATOM      2  C   UNL     1     -40.104  16.340  14.293  1.00  0.00    -0.066 C 
ATOM      3  C   UNL     1     -39.746  15.246  13.564  1.00  0.00     0.047 C 
ATOM      4  C   UNL     1     -39.544  15.463  12.095  1.00  0.00     0.159 C 
ATOM      5  O   UNL     1     -39.174  14.541  11.323  1.00  0.00    -0.295 OA
ATOM      6  C   UNL     1     -39.816  16.885  11.601  1.00  0.00     0.067 C 
ATOM      7  C   UNL     1     -41.149  17.272  12.278  1.00  0.00     0.021 C 
ATOM      8  C   UNL     1     -40.308  17.659  13.515  1.00  0.00     0.022 C 
ATOM      9  C   UNL     1     -39.104  17.885  12.556  1.00  0.00    -0.019 C 
ATOM     10  C   UNL     1     -39.070  19.325  11.983  1.00  0.00     0.012 C 
ATOM     11  C   UNL     1     -37.679  17.532  13.068  1.00  0.00     0.012 C 
ENDROOT
TORSDOF 0
ENDMDL
MODEL 8
REMARK VINA RESULT:    -3.963     17.073     18.169
REMARK INTER + INTRA:          -3.963
REMARK INTER:                  -3.963
REMARK INTRA:                   0.000
REMARK UNBOUND:                 0.000
REMARK SMILES CC1=CC(=O)[C@H]2C[C@@H]1C2(C)C
REMARK SMILES IDX 1 1 2 2 3 3 4 4 5 5 6 6 7 7 8 8 9 9 10 10 11 11
REMARK H PARENT
REMARK Flexibility Score: inf
ROOT
ATOM      1  C   UNL     1     -30.355   2.108   4.309  1.00  0.00     0.040 C 
ATOM      2  C   UNL     1     -30.738   1.788   5.719  1.00  0.00    -0.066 C 
ATOM      3  C   UNL     1     -29.977   0.962   6.490  1.00  0.00     0.047 C 
ATOM      4  C   UNL     1     -30.482   0.695   7.875  1.00  0.00     0.159 C 
ATOM      5  O   UNL     1     -29.889  -0.081   8.669  1.00  0.00    -0.295 OA
ATOM      6  C   UNL     1     -31.769   1.428   8.255  1.00  0.00     0.067 C 
ATOM      7  C   UNL     1     -31.537   2.875   7.767  1.00  0.00     0.021 C 
ATOM      8  C   UNL     1     -32.000   2.388   6.375  1.00  0.00     0.022 C 
ATOM      9  C   UNL     1     -32.793   1.261   7.097  1.00  0.00    -0.019 C 
ATOM     10  C   UNL     1     -34.221   1.711   7.502  1.00  0.00     0.012 C 
ATOM     11  C   UNL     1     -32.901  -0.125   6.400  1.00  0.00     0.012 C 
ENDROOT
TORSDOF 0
ENDMDL
