MODEL 1
REMARK VINA RESULT:    -4.698      0.000      0.000
REMARK INTER + INTRA:          -9.810
REMARK INTER:                  -8.818
REMARK INTRA:                  -0.992
REMARK UNBOUND:                -0.992
REMARK SMILES O=C([O-])CCCCCCCCCCCCCCC(=O)[O-]
REMARK SMILES IDX 10 1 9 2 8 3 7 4 6 5 5 6 4 7 2 8 1 9 3 10 11 11 12 12 13 13
REMARK SMILES IDX 14 14 15 15 16 16 17 17 18 18 19 19 20 20
REMARK H PARENT
REMARK Flexibility Score: inf
ROOT
ATOM      1  C   UNL     1      -5.342  36.455  21.551  1.00  0.00     0.000 C 
ENDROOT
BRANCH   1   2
ATOM      2  C   UNL     1      -6.115  35.783  22.699  1.00  0.00     0.000 C 
BRANCH   2   3
ATOM      3  C   UNL     1      -5.433  35.844  24.082  1.00  0.00     0.000 C 
BRANCH   3   4
ATOM      4  C   UNL     1      -5.886  37.002  24.990  1.00  0.00     0.000 C 
BRANCH   4   5
ATOM      5  C   UNL     1      -4.718  37.886  25.459  1.00  0.00     0.000 C 
BRANCH   5   6
ATOM      6  C   UNL     1      -4.652  39.231  24.710  1.00  0.00     0.006 C 
BRANCH   6   7
ATOM      7  C   UNL     1      -5.709  39.396  23.607  1.00  0.00     0.053 C 
BRANCH   7   8
ATOM      8  C   UNL     1      -5.135  40.002  22.363  1.00  0.00     0.041 C 
ATOM      9  O   UNL     1      -5.789  40.866  21.719  1.00  0.00    -0.550 OA
ATOM     10  O   UNL     1      -3.894  39.589  21.895  1.00  0.00    -0.550 OA
ENDBRANCH   7   8
ENDBRANCH   6   7
ENDBRANCH   5   6
ENDBRANCH   4   5
ENDBRANCH   3   4
ENDBRANCH   2   3
ENDBRANCH   1   2
BRANCH   1  11
ATOM     11  C   UNL     1      -5.818  35.998  20.161  1.00  0.00     0.000 C 
BRANCH  11  12
ATOM     12  C   UNL     1      -4.874  36.437  19.028  1.00  0.00     0.000 C 
BRANCH  12  13
ATOM     13  C   UNL     1      -3.485  36.924  19.478  1.00  0.00     0.000 C 
BRANCH  13  14
ATOM     14  C   UNL     1      -2.989  38.144  18.681  1.00  0.00     0.000 C 
BRANCH  14  15
ATOM     15  C   UNL     1      -1.607  37.915  18.050  1.00  0.00     0.000 C 
BRANCH  15  16
ATOM     16  C   UNL     1      -1.667  37.016  16.803  1.00  0.00     0.006 C 
BRANCH  16  17
ATOM     17  C   UNL     1      -3.012  37.125  16.073  1.00  0.00     0.053 C 
BRANCH  17  18
ATOM     18  C   UNL     1      -2.837  37.533  14.642  1.00  0.00     0.041 C 
ATOM     19  O   UNL     1      -1.714  37.425  14.084  1.00  0.00    -0.550 OA
ATOM     20  O   UNL     1      -3.923  38.006  13.918  1.00  0.00    -0.550 OA
ENDBRANCH  17  18
ENDBRANCH  16  17
ENDBRANCH  15  16
ENDBRANCH  14  15
ENDBRANCH  13  14
ENDBRANCH  12  13
ENDBRANCH  11  12
ENDBRANCH   1  11
TORSDOF 15
ENDMDL
MODEL 2
REMARK VINA RESULT:    -4.512      1.976      2.574
REMARK INTER + INTRA:          -9.461
REMARK INTER:                  -7.984
REMARK INTRA:                  -1.477
REMARK UNBOUND:                -0.992
REMARK SMILES O=C([O-])CCCCCCCCCCCCCCC(=O)[O-]
REMARK SMILES IDX 10 1 9 2 8 3 7 4 6 5 5 6 4 7 2 8 1 9 3 10 11 11 12 12 13 13
REMARK SMILES IDX 14 14 15 15 16 16 17 17 18 18 19 19 20 20
REMARK H PARENT
REMARK Flexibility Score: inf
ROOT
ATOM      1  C   UNL     1      -5.810  36.610  21.309  1.00  0.00     0.000 C 
ENDROOT
BRANCH   1   2
ATOM      2  C   UNL     1      -4.811  35.994  22.305  1.00  0.00     0.000 C 
BRANCH   2   3
ATOM      3  C   UNL     1      -5.415  35.530  23.648  1.00  0.00     0.000 C 
BRANCH   3   4
ATOM      4  C   UNL     1      -5.980  36.652  24.538  1.00  0.00     0.000 C 
BRANCH   4   5
ATOM      5  C   UNL     1      -4.882  37.453  25.258  1.00  0.00     0.000 C 
BRANCH   5   6
ATOM      6  C   UNL     1      -4.829  38.926  24.809  1.00  0.00     0.006 C 
BRANCH   6   7
ATOM      7  C   UNL     1      -5.820  39.286  23.690  1.00  0.00     0.053 C 
BRANCH   7   8
ATOM      8  C   UNL     1      -5.142  39.939  22.526  1.00  0.00     0.041 C 
ATOM      9  O   UNL     1      -3.939  39.673  22.262  1.00  0.00    -0.550 OA
ATOM     10  O   UNL     1      -5.827  40.868  21.753  1.00  0.00    -0.550 OA
ENDBRANCH   7   8
ENDBRANCH   6   7
ENDBRANCH   5   6
ENDBRANCH   4   5
ENDBRANCH   3   4
ENDBRANCH   2   3
ENDBRANCH   1   2
BRANCH   1  11
ATOM     11  C   UNL     1      -5.205  36.824  19.911  1.00  0.00     0.000 C 
BRANCH  11  12
ATOM     12  C   UNL     1      -4.110  35.798  19.567  1.00  0.00     0.000 C 
BRANCH  12  13
ATOM     13  C   UNL     1      -3.989  35.439  18.074  1.00  0.00     0.000 C 
BRANCH  13  14
ATOM     14  C   UNL     1      -3.933  36.677  17.162  1.00  0.00     0.000 C 
BRANCH  14  15
ATOM     15  C   UNL     1      -2.839  36.568  16.087  1.00  0.00     0.000 C 
BRANCH  15  16
ATOM     16  C   UNL     1      -1.444  36.937  16.621  1.00  0.00     0.006 C 
BRANCH  16  17
ATOM     17  C   UNL     1      -1.404  38.357  17.202  1.00  0.00     0.053 C 
BRANCH  17  18
ATOM     18  C   UNL     1      -1.213  38.344  18.688  1.00  0.00     0.041 C 
ATOM     19  O   UNL     1      -2.178  38.601  19.455  1.00  0.00    -0.550 OA
ATOM     20  O   UNL     1       0.026  38.019  19.226  1.00  0.00    -0.550 OA
ENDBRANCH  17  18
ENDBRANCH  16  17
ENDBRANCH  15  16
ENDBRANCH  14  15
ENDBRANCH  13  14
ENDBRANCH  12  13
ENDBRANCH  11  12
ENDBRANCH   1  11
TORSDOF 15
ENDMDL
MODEL 3
REMARK VINA RESULT:    -4.496      0.589      7.203
REMARK INTER + INTRA:          -9.430
REMARK INTER:                  -8.337
REMARK INTRA:                  -1.093
REMARK UNBOUND:                -0.992
REMARK SMILES O=C([O-])CCCCCCCCCCCCCCC(=O)[O-]
REMARK SMILES IDX 10 1 9 2 8 3 7 4 6 5 5 6 4 7 2 8 1 9 3 10 11 11 12 12 13 13
REMARK SMILES IDX 14 14 15 15 16 16 17 17 18 18 19 19 20 20
REMARK H PARENT
REMARK Flexibility Score: inf
ROOT
ATOM      1  C   UNL     1      -4.709  36.301  21.588  1.00  0.00     0.000 C 
ENDROOT
BRANCH   1   2
ATOM      2  C   UNL     1      -4.952  35.875  20.130  1.00  0.00     0.000 C 
BRANCH   2   3
ATOM      3  C   UNL     1      -4.476  36.878  19.058  1.00  0.00     0.000 C 
BRANCH   3   4
ATOM      4  C   UNL     1      -3.123  37.554  19.342  1.00  0.00     0.000 C 
BRANCH   4   5
ATOM      5  C   UNL     1      -2.531  38.250  18.105  1.00  0.00     0.000 C 
BRANCH   5   6
ATOM      6  C   UNL     1      -1.845  37.265  17.139  1.00  0.00     0.006 C 
BRANCH   6   7
ATOM      7  C   UNL     1      -2.751  36.747  16.010  1.00  0.00     0.053 C 
BRANCH   7   8
ATOM      8  C   UNL     1      -2.685  37.615  14.791  1.00  0.00     0.041 C 
ATOM      9  O   UNL     1      -1.730  37.496  13.980  1.00  0.00    -0.550 OA
ATOM     10  O   UNL     1      -3.661  38.579  14.569  1.00  0.00    -0.550 OA
ENDBRANCH   7   8
ENDBRANCH   6   7
ENDBRANCH   5   6
ENDBRANCH   4   5
ENDBRANCH   3   4
ENDBRANCH   2   3
ENDBRANCH   1   2
BRANCH   1  11
ATOM     11  C   UNL     1      -6.000  36.346  22.422  1.00  0.00     0.000 C 
BRANCH  11  12
ATOM     12  C   UNL     1      -6.104  35.190  23.432  1.00  0.00     0.000 C 
BRANCH  12  13
ATOM     13  C   UNL     1      -6.124  35.608  24.914  1.00  0.00     0.000 C 
BRANCH  13  14
ATOM     14  C   UNL     1      -6.122  37.135  25.107  1.00  0.00     0.000 C 
BRANCH  14  15
ATOM     15  C   UNL     1      -4.726  37.686  25.439  1.00  0.00     0.000 C 
BRANCH  15  16
ATOM     16  C   UNL     1      -4.443  39.034  24.753  1.00  0.00     0.006 C 
BRANCH  16  17
ATOM     17  C   UNL     1      -5.561  39.438  23.784  1.00  0.00     0.053 C 
BRANCH  17  18
ATOM     18  C   UNL     1      -5.015  40.020  22.516  1.00  0.00     0.041 C 
ATOM     19  O   UNL     1      -3.848  39.738  22.139  1.00  0.00    -0.550 OA
ATOM     20  O   UNL     1      -5.809  40.851  21.736  1.00  0.00    -0.550 OA
ENDBRANCH  17  18
ENDBRANCH  16  17
ENDBRANCH  15  16
ENDBRANCH  14  15
ENDBRANCH  13  14
ENDBRANCH  12  13
ENDBRANCH  11  12
ENDBRANCH   1  11
TORSDOF 15
ENDMDL
MODEL 4
REMARK VINA RESULT:    -4.435      2.010      6.751
REMARK INTER + INTRA:          -9.317
REMARK INTER:                  -7.725
REMARK INTRA:                  -1.592
REMARK UNBOUND:                -0.992
REMARK SMILES O=C([O-])CCCCCCCCCCCCCCC(=O)[O-]
REMARK SMILES IDX 10 1 9 2 8 3 7 4 6 5 5 6 4 7 2 8 1 9 3 10 11 11 12 12 13 13
REMARK SMILES IDX 14 14 15 15 16 16 17 17 18 18 19 19 20 20
REMARK H PARENT
REMARK Flexibility Score: inf
ROOT
ATOM      1  C   UNL     1      -4.123  36.784  20.940  1.00  0.00     0.000 C 
ENDROOT
BRANCH   1   2
ATOM      2  C   UNL     1      -5.386  37.065  20.108  1.00  0.00     0.000 C 
BRANCH   2   3
ATOM      3  C   UNL     1      -5.467  36.326  18.755  1.00  0.00     0.000 C 
BRANCH   3   4
ATOM      4  C   UNL     1      -4.319  35.339  18.475  1.00  0.00     0.000 C 
BRANCH   4   5
ATOM      5  C   UNL     1      -3.476  35.736  17.252  1.00  0.00     0.000 C 
BRANCH   5   6
ATOM      6  C   UNL     1      -3.102  37.231  17.246  1.00  0.00     0.006 C 
BRANCH   6   7
ATOM      7  C   UNL     1      -1.592  37.509  17.328  1.00  0.00     0.053 C 
BRANCH   7   8
ATOM      8  C   UNL     1      -1.219  38.231  18.586  1.00  0.00     0.041 C 
ATOM      9  O   UNL     1      -0.012  38.313  18.935  1.00  0.00    -0.550 OA
ATOM     10  O   UNL     1      -2.207  38.784  19.391  1.00  0.00    -0.550 OA
ENDBRANCH   7   8
ENDBRANCH   6   7
ENDBRANCH   5   6
ENDBRANCH   4   5
ENDBRANCH   3   4
ENDBRANCH   2   3
ENDBRANCH   1   2
BRANCH   1  11
ATOM     11  C   UNL     1      -4.375  35.802  22.097  1.00  0.00     0.000 C 
BRANCH  11  12
ATOM     12  C   UNL     1      -5.822  35.846  22.618  1.00  0.00     0.000 C 
BRANCH  12  13
ATOM     13  C   UNL     1      -6.002  35.463  24.098  1.00  0.00     0.000 C 
BRANCH  13  14
ATOM     14  C   UNL     1      -6.124  36.686  25.024  1.00  0.00     0.000 C 
BRANCH  14  15
ATOM     15  C   UNL     1      -4.798  37.449  25.171  1.00  0.00     0.000 C 
BRANCH  15  16
ATOM     16  C   UNL     1      -4.938  38.948  24.853  1.00  0.00     0.006 C 
BRANCH  16  17
ATOM     17  C   UNL     1      -5.785  39.197  23.599  1.00  0.00     0.053 C 
BRANCH  17  18
ATOM     18  C   UNL     1      -5.046  40.015  22.583  1.00  0.00     0.041 C 
ATOM     19  O   UNL     1      -3.794  39.928  22.486  1.00  0.00    -0.550 OA
ATOM     20  O   UNL     1      -5.747  40.853  21.725  1.00  0.00    -0.550 OA
ENDBRANCH  17  18
ENDBRANCH  16  17
ENDBRANCH  15  16
ENDBRANCH  14  15
ENDBRANCH  13  14
ENDBRANCH  12  13
ENDBRANCH  11  12
ENDBRANCH   1  11
TORSDOF 15
ENDMDL
MODEL 5
REMARK VINA RESULT:    -4.200      1.011      7.336
REMARK INTER + INTRA:          -8.875
REMARK INTER:                  -8.192
REMARK INTRA:                  -0.684
REMARK UNBOUND:                -0.992
REMARK SMILES O=C([O-])CCCCCCCCCCCCCCC(=O)[O-]
REMARK SMILES IDX 10 1 9 2 8 3 7 4 6 5 5 6 4 7 2 8 1 9 3 10 11 11 12 12 13 13
REMARK SMILES IDX 14 14 15 15 16 16 17 17 18 18 19 19 20 20
REMARK H PARENT
REMARK Flexibility Score: inf
ROOT
ATOM      1  C   UNL     1      -4.791  37.316  19.193  1.00  0.00     0.000 C 
ENDROOT
BRANCH   1   2
ATOM      2  C   UNL     1      -3.307  36.926  19.069  1.00  0.00     0.000 C 
BRANCH   2   3
ATOM      3  C   UNL     1      -2.323  38.104  18.915  1.00  0.00     0.000 C 
BRANCH   3   4
ATOM      4  C   UNL     1      -1.326  37.982  17.748  1.00  0.00     0.000 C 
BRANCH   4   5
ATOM      5  C   UNL     1      -1.613  36.774  16.842  1.00  0.00     0.000 C 
BRANCH   5   6
ATOM      6  C   UNL     1      -2.648  37.086  15.743  1.00  0.00     0.006 C 
BRANCH   6   7
ATOM      7  C   UNL     1      -2.986  38.579  15.595  1.00  0.00     0.053 C 
BRANCH   7   8
ATOM      8  C   UNL     1      -3.877  38.841  14.419  1.00  0.00     0.041 C 
ATOM      9  O   UNL     1      -3.967  40.002  13.940  1.00  0.00    -0.550 OA
ATOM     10  O   UNL     1      -4.632  37.811  13.875  1.00  0.00    -0.550 OA
ENDBRANCH   7   8
ENDBRANCH   6   7
ENDBRANCH   5   6
ENDBRANCH   4   5
ENDBRANCH   3   4
ENDBRANCH   2   3
ENDBRANCH   1   2
BRANCH   1  11
ATOM     11  C   UNL     1      -5.694  36.125  19.555  1.00  0.00     0.000 C 
BRANCH  11  12
ATOM     12  C   UNL     1      -5.965  36.013  21.065  1.00  0.00     0.000 C 
BRANCH  12  13
ATOM     13  C   UNL     1      -4.725  36.140  21.969  1.00  0.00     0.000 C 
BRANCH  13  14
ATOM     14  C   UNL     1      -5.069  36.097  23.469  1.00  0.00     0.000 C 
BRANCH  14  15
ATOM     15  C   UNL     1      -5.780  37.374  23.948  1.00  0.00     0.000 C 
BRANCH  15  16
ATOM     16  C   UNL     1      -4.849  38.307  24.742  1.00  0.00     0.006 C 
BRANCH  16  17
ATOM     17  C   UNL     1      -4.957  39.765  24.278  1.00  0.00     0.053 C 
BRANCH  17  18
ATOM     18  C   UNL     1      -4.888  39.879  22.785  1.00  0.00     0.041 C 
ATOM     19  O   UNL     1      -5.747  40.554  22.160  1.00  0.00    -0.550 OA
ATOM     20  O   UNL     1      -3.856  39.263  22.089  1.00  0.00    -0.550 OA
ENDBRANCH  17  18
ENDBRANCH  16  17
ENDBRANCH  15  16
ENDBRANCH  14  15
ENDBRANCH  13  14
ENDBRANCH  12  13
ENDBRANCH  11  12
ENDBRANCH   1  11
TORSDOF 15
ENDMDL
MODEL 6
REMARK VINA RESULT:    -4.027      1.752      2.647
REMARK INTER + INTRA:          -8.551
REMARK INTER:                  -7.039
REMARK INTRA:                  -1.511
REMARK UNBOUND:                -0.992
REMARK SMILES O=C([O-])CCCCCCCCCCCCCCC(=O)[O-]
REMARK SMILES IDX 10 1 9 2 8 3 7 4 6 5 5 6 4 7 2 8 1 9 3 10 11 11 12 12 13 13
REMARK SMILES IDX 14 14 15 15 16 16 17 17 18 18 19 19 20 20
REMARK H PARENT
REMARK Flexibility Score: inf
ROOT
ATOM      1  C   UNL     1      -4.653  35.620  23.026  1.00  0.00     0.000 C 
ENDROOT
BRANCH   1   2
ATOM      2  C   UNL     1      -5.971  35.638  23.819  1.00  0.00     0.000 C 
BRANCH   2   3
ATOM      3  C   UNL     1      -6.063  36.707  24.929  1.00  0.00     0.000 C 
BRANCH   3   4
ATOM      4  C   UNL     1      -4.780  37.525  25.162  1.00  0.00     0.000 C 
BRANCH   4   5
ATOM      5  C   UNL     1      -4.993  39.036  24.972  1.00  0.00     0.000 C 
BRANCH   5   6
ATOM      6  C   UNL     1      -5.742  39.372  23.668  1.00  0.00     0.006 C 
BRANCH   6   7
ATOM      7  C   UNL     1      -4.859  39.374  22.410  1.00  0.00     0.053 C 
BRANCH   7   8
ATOM      8  C   UNL     1      -5.530  40.044  21.250  1.00  0.00     0.041 C 
ATOM      9  O   UNL     1      -5.530  39.496  20.116  1.00  0.00    -0.550 OA
ATOM     10  O   UNL     1      -6.124  41.288  21.414  1.00  0.00    -0.550 OA
ENDBRANCH   7   8
ENDBRANCH   6   7
ENDBRANCH   5   6
ENDBRANCH   4   5
ENDBRANCH   3   4
ENDBRANCH   2   3
ENDBRANCH   1   2
BRANCH   1  11
ATOM     11  C   UNL     1      -4.755  36.357  21.680  1.00  0.00     0.000 C 
BRANCH  11  12
ATOM     12  C   UNL     1      -6.027  35.998  20.892  1.00  0.00     0.000 C 
BRANCH  12  13
ATOM     13  C   UNL     1      -5.972  36.287  19.381  1.00  0.00     0.000 C 
BRANCH  13  14
ATOM     14  C   UNL     1      -5.199  35.215  18.593  1.00  0.00     0.000 C 
BRANCH  14  15
ATOM     15  C   UNL     1      -3.871  35.742  18.026  1.00  0.00     0.000 C 
BRANCH  15  16
ATOM     16  C   UNL     1      -3.685  37.252  18.258  1.00  0.00     0.006 C 
BRANCH  16  17
ATOM     17  C   UNL     1      -2.445  37.559  19.107  1.00  0.00     0.053 C 
BRANCH  17  18
ATOM     18  C   UNL     1      -1.277  37.962  18.260  1.00  0.00     0.041 C 
ATOM     19  O   UNL     1      -0.352  38.664  18.746  1.00  0.00    -0.550 OA
ATOM     20  O   UNL     1      -1.197  37.536  16.940  1.00  0.00    -0.550 OA
ENDBRANCH  17  18
ENDBRANCH  16  17
ENDBRANCH  15  16
ENDBRANCH  14  15
ENDBRANCH  13  14
ENDBRANCH  12  13
ENDBRANCH  11  12
ENDBRANCH   1  11
TORSDOF 15
ENDMDL
MODEL 7
REMARK VINA RESULT:    -3.932      2.458      7.142
REMARK INTER + INTRA:          -8.372
REMARK INTER:                  -7.344
REMARK INTRA:                  -1.029
REMARK UNBOUND:                -0.992
REMARK SMILES O=C([O-])CCCCCCCCCCCCCCC(=O)[O-]
REMARK SMILES IDX 10 1 9 2 8 3 7 4 6 5 5 6 4 7 2 8 1 9 3 10 11 11 12 12 13 13
REMARK SMILES IDX 14 14 15 15 16 16 17 17 18 18 19 19 20 20
REMARK H PARENT
REMARK Flexibility Score: inf
ROOT
ATOM      1  C   UNL     1      -5.708  37.009  20.477  1.00  0.00     0.000 C 
ENDROOT
BRANCH   1   2
ATOM      2  C   UNL     1      -5.317  36.137  19.271  1.00  0.00     0.000 C 
BRANCH   2   3
ATOM      3  C   UNL     1      -3.970  36.491  18.607  1.00  0.00     0.000 C 
BRANCH   3   4
ATOM      4  C   UNL     1      -3.654  35.726  17.309  1.00  0.00     0.000 C 
BRANCH   4   5
ATOM      5  C   UNL     1      -2.987  36.609  16.242  1.00  0.00     0.000 C 
BRANCH   5   6
ATOM      6  C   UNL     1      -2.344  37.877  16.836  1.00  0.00     0.006 C 
BRANCH   6   7
ATOM      7  C   UNL     1      -0.904  37.683  17.338  1.00  0.00     0.053 C 
BRANCH   7   8
ATOM      8  C   UNL     1      -0.688  38.303  18.684  1.00  0.00     0.041 C 
ATOM      9  O   UNL     1       0.381  38.090  19.315  1.00  0.00    -0.550 OA
ATOM     10  O   UNL     1      -1.681  39.088  19.257  1.00  0.00    -0.550 OA
ENDBRANCH   7   8
ENDBRANCH   6   7
ENDBRANCH   5   6
ENDBRANCH   4   5
ENDBRANCH   3   4
ENDBRANCH   2   3
ENDBRANCH   1   2
BRANCH   1  11
ATOM     11  C   UNL     1      -5.099  38.420  20.419  1.00  0.00     0.000 C 
BRANCH  11  12
ATOM     12  C   UNL     1      -3.957  38.623  21.430  1.00  0.00     0.000 C 
BRANCH  12  13
ATOM     13  C   UNL     1      -4.202  39.711  22.492  1.00  0.00     0.000 C 
BRANCH  13  14
ATOM     14  C   UNL     1      -5.441  39.433  23.362  1.00  0.00     0.000 C 
BRANCH  14  15
ATOM     15  C   UNL     1      -5.073  39.025  24.798  1.00  0.00     0.000 C 
BRANCH  15  16
ATOM     16  C   UNL     1      -5.159  37.505  25.023  1.00  0.00     0.006 C 
BRANCH  16  17
ATOM     17  C   UNL     1      -6.019  36.810  23.960  1.00  0.00     0.053 C 
BRANCH  17  18
ATOM     18  C   UNL     1      -5.527  35.426  23.665  1.00  0.00     0.041 C 
ATOM     19  O   UNL     1      -4.565  35.249  22.873  1.00  0.00    -0.550 OA
ATOM     20  O   UNL     1      -6.115  34.333  24.290  1.00  0.00    -0.550 OA
ENDBRANCH  17  18
ENDBRANCH  16  17
ENDBRANCH  15  16
ENDBRANCH  14  15
ENDBRANCH  13  14
ENDBRANCH  12  13
ENDBRANCH  11  12
ENDBRANCH   1  11
TORSDOF 15
ENDMDL
MODEL 8
REMARK VINA RESULT:    -3.915      2.000      2.926
REMARK INTER + INTRA:          -8.340
REMARK INTER:                  -7.264
REMARK INTRA:                  -1.075
REMARK UNBOUND:                -0.992
REMARK SMILES O=C([O-])CCCCCCCCCCCCCCC(=O)[O-]
REMARK SMILES IDX 10 1 9 2 8 3 7 4 6 5 5 6 4 7 2 8 1 9 3 10 11 11 12 12 13 13
REMARK SMILES IDX 14 14 15 15 16 16 17 17 18 18 19 19 20 20
REMARK H PARENT
REMARK Flexibility Score: inf
ROOT
ATOM      1  C   UNL     1      -5.026  36.460  21.952  1.00  0.00     0.000 C 
ENDROOT
BRANCH   1   2
ATOM      2  C   UNL     1      -3.841  37.102  21.208  1.00  0.00     0.000 C 
BRANCH   2   3
ATOM      3  C   UNL     1      -3.863  38.643  21.131  1.00  0.00     0.000 C 
BRANCH   3   4
ATOM      4  C   UNL     1      -5.238  39.294  21.362  1.00  0.00     0.000 C 
BRANCH   4   5
ATOM      5  C   UNL     1      -5.231  40.309  22.517  1.00  0.00     0.000 C 
BRANCH   5   6
ATOM      6  C   UNL     1      -4.488  39.788  23.763  1.00  0.00     0.006 C 
BRANCH   6   7
ATOM      7  C   UNL     1      -5.404  39.206  24.851  1.00  0.00     0.053 C 
BRANCH   7   8
ATOM      8  C   UNL     1      -4.842  37.953  25.449  1.00  0.00     0.041 C 
ATOM      9  O   UNL     1      -3.849  38.010  26.222  1.00  0.00    -0.550 OA
ATOM     10  O   UNL     1      -5.392  36.719  25.126  1.00  0.00    -0.550 OA
ENDBRANCH   7   8
ENDBRANCH   6   7
ENDBRANCH   5   6
ENDBRANCH   4   5
ENDBRANCH   3   4
ENDBRANCH   2   3
ENDBRANCH   1   2
BRANCH   1  11
ATOM     11  C   UNL     1      -6.124  35.953  21.003  1.00  0.00     0.000 C 
BRANCH  11  12
ATOM     12  C   UNL     1      -5.881  36.348  19.536  1.00  0.00     0.000 C 
BRANCH  12  13
ATOM     13  C   UNL     1      -5.641  35.175  18.568  1.00  0.00     0.000 C 
BRANCH  13  14
ATOM     14  C   UNL     1      -4.246  35.206  17.920  1.00  0.00     0.000 C 
BRANCH  14  15
ATOM     15  C   UNL     1      -3.615  36.608  17.945  1.00  0.00     0.000 C 
BRANCH  15  16
ATOM     16  C   UNL     1      -2.600  36.821  16.809  1.00  0.00     0.006 C 
BRANCH  16  17
ATOM     17  C   UNL     1      -2.666  38.241  16.231  1.00  0.00     0.053 C 
BRANCH  17  18
ATOM     18  C   UNL     1      -3.319  38.263  14.883  1.00  0.00     0.041 C 
ATOM     19  O   UNL     1      -3.762  39.342  14.409  1.00  0.00    -0.550 OA
ATOM     20  O   UNL     1      -3.413  37.094  14.138  1.00  0.00    -0.550 OA
ENDBRANCH  17  18
ENDBRANCH  16  17
ENDBRANCH  15  16
ENDBRANCH  14  15
ENDBRANCH  13  14
ENDBRANCH  12  13
ENDBRANCH  11  12
ENDBRANCH   1  11
TORSDOF 15
ENDMDL
