MODEL 1
REMARK VINA RESULT:    -3.143      0.000      0.000
REMARK INTER + INTRA:          -4.471
REMARK INTER:                  -4.154
REMARK INTRA:                  -0.317
REMARK UNBOUND:                -0.317
REMARK SMILES CCCCCCCO
REMARK SMILES IDX 5 1 4 2 3 3 2 4 1 5 6 6 7 7 8 8
REMARK H PARENT 8 9
REMARK Flexibility Score: inf
ROOT
ATOM      1  C   UNL     1     175.233 174.226 152.501  1.00  0.00     0.002 C 
ENDROOT
BRANCH   1   2
ATOM      2  C   UNL     1     174.207 174.236 151.355  1.00  0.00     0.000 C 
BRANCH   2   3
ATOM      3  C   UNL     1     174.645 173.382 150.151  1.00  0.00    -0.000 C 
BRANCH   3   4
ATOM      4  C   UNL     1     174.047 171.964 150.109  1.00  0.00    -0.003 C 
ATOM      5  C   UNL     1     175.011 170.891 150.613  1.00  0.00     0.004 C 
ENDBRANCH   3   4
ENDBRANCH   2   3
ENDBRANCH   1   2
BRANCH   1   6
ATOM      6  C   UNL     1     174.731 173.458 153.734  1.00  0.00     0.028 C 
BRANCH   6   7
ATOM      7  C   UNL     1     173.200 173.404 153.819  1.00  0.00     0.156 C 
BRANCH   7   8
ATOM      8  O   UNL     1     172.724 174.450 154.620  1.00  0.00    -0.396 OA
ATOM      9  H   UNL     1     171.954 174.088 155.133  1.00  0.00     0.210 HD
ENDBRANCH   7   8
ENDBRANCH   6   7
ENDBRANCH   1   6
TORSDOF 6
ENDMDL
MODEL 2
REMARK VINA RESULT:    -3.142      2.549      3.889
REMARK INTER + INTRA:          -4.469
REMARK INTER:                  -4.168
REMARK INTRA:                  -0.301
REMARK UNBOUND:                -0.317
REMARK SMILES CCCCCCCO
REMARK SMILES IDX 5 1 4 2 3 3 2 4 1 5 6 6 7 7 8 8
REMARK H PARENT 8 9
REMARK Flexibility Score: inf
ROOT
ATOM      1  C   UNL     1     173.705 172.077 150.146  1.00  0.00     0.002 C 
ENDROOT
BRANCH   1   2
ATOM      2  C   UNL     1     174.159 173.501 149.781  1.00  0.00     0.000 C 
BRANCH   2   3
ATOM      3  C   UNL     1     175.038 174.146 150.869  1.00  0.00    -0.000 C 
BRANCH   3   4
ATOM      4  C   UNL     1     174.431 174.137 152.284  1.00  0.00    -0.003 C 
ATOM      5  C   UNL     1     175.409 173.655 153.353  1.00  0.00     0.004 C 
ENDBRANCH   3   4
ENDBRANCH   2   3
ENDBRANCH   1   2
BRANCH   1   6
ATOM      6  C   UNL     1     174.884 171.101 150.284  1.00  0.00     0.028 C 
BRANCH   6   7
ATOM      7  C   UNL     1     174.849 170.308 151.597  1.00  0.00     0.156 C 
BRANCH   7   8
ATOM      8  O   UNL     1     175.912 169.395 151.637  1.00  0.00    -0.396 OA
ATOM      9  H   UNL     1     175.658 168.638 151.045  1.00  0.00     0.210 HD
ENDBRANCH   7   8
ENDBRANCH   6   7
ENDBRANCH   1   6
TORSDOF 6
ENDMDL
MODEL 3
REMARK VINA RESULT:    -3.141      1.303      1.868
REMARK INTER + INTRA:          -4.468
REMARK INTER:                  -4.190
REMARK INTRA:                  -0.278
REMARK UNBOUND:                -0.317
REMARK SMILES CCCCCCCO
REMARK SMILES IDX 5 1 4 2 3 3 2 4 1 5 6 6 7 7 8 8
REMARK H PARENT 8 9
REMARK Flexibility Score: inf
ROOT
ATOM      1  C   UNL     1     175.057 173.191 152.563  1.00  0.00     0.002 C 
ENDROOT
BRANCH   1   2
ATOM      2  C   UNL     1     174.966 174.209 151.413  1.00  0.00     0.000 C 
BRANCH   2   3
ATOM      3  C   UNL     1     174.298 173.630 150.152  1.00  0.00    -0.000 C 
BRANCH   3   4
ATOM      4  C   UNL     1     172.790 173.349 150.288  1.00  0.00    -0.003 C 
ATOM      5  C   UNL     1     172.032 174.474 150.991  1.00  0.00     0.004 C 
ENDBRANCH   3   4
ENDBRANCH   2   3
ENDBRANCH   1   2
BRANCH   1   6
ATOM      6  C   UNL     1     174.737 173.818 153.930  1.00  0.00     0.028 C 
BRANCH   6   7
ATOM      7  C   UNL     1     173.356 173.415 154.462  1.00  0.00     0.156 C 
BRANCH   7   8
ATOM      8  O   UNL     1     172.612 174.558 154.786  1.00  0.00    -0.396 OA
ATOM      9  H   UNL     1     172.504 175.075 153.945  1.00  0.00     0.210 HD
ENDBRANCH   7   8
ENDBRANCH   6   7
ENDBRANCH   1   6
TORSDOF 6
ENDMDL
MODEL 4
REMARK VINA RESULT:    -3.126      1.714      1.752
REMARK INTER + INTRA:          -4.448
REMARK INTER:                  -4.154
REMARK INTRA:                  -0.295
REMARK UNBOUND:                -0.317
REMARK SMILES CCCCCCCO
REMARK SMILES IDX 5 1 4 2 3 3 2 4 1 5 6 6 7 7 8 8
REMARK H PARENT 8 9
REMARK Flexibility Score: inf
ROOT
ATOM      1  C   UNL     1     174.417 174.100 152.114  1.00  0.00     0.002 C 
ENDROOT
BRANCH   1   2
ATOM      2  C   UNL     1     174.979 174.002 150.684  1.00  0.00     0.000 C 
BRANCH   2   3
ATOM      3  C   UNL     1     174.079 173.179 149.743  1.00  0.00    -0.000 C 
BRANCH   3   4
ATOM      4  C   UNL     1     173.848 171.721 150.177  1.00  0.00    -0.003 C 
ATOM      5  C   UNL     1     175.131 170.893 150.210  1.00  0.00     0.004 C 
ENDBRANCH   3   4
ENDBRANCH   2   3
ENDBRANCH   1   2
BRANCH   1   6
ATOM      6  C   UNL     1     175.512 173.975 153.185  1.00  0.00     0.028 C 
BRANCH   6   7
ATOM      7  C   UNL     1     175.216 172.875 154.214  1.00  0.00     0.156 C 
BRANCH   7   8
ATOM      8  O   UNL     1     175.389 171.612 153.633  1.00  0.00    -0.396 OA
ATOM      9  H   UNL     1     174.492 171.185 153.611  1.00  0.00     0.210 HD
ENDBRANCH   7   8
ENDBRANCH   6   7
ENDBRANCH   1   6
TORSDOF 6
ENDMDL
MODEL 5
REMARK VINA RESULT:    -3.067      1.020      1.390
REMARK INTER + INTRA:          -4.369
REMARK INTER:                  -4.211
REMARK INTRA:                  -0.159
REMARK UNBOUND:                -0.317
REMARK SMILES CCCCCCCO
REMARK SMILES IDX 5 1 4 2 3 3 2 4 1 5 6 6 7 7 8 8
REMARK H PARENT 8 9
REMARK Flexibility Score: inf
ROOT
ATOM      1  C   UNL     1     174.095 174.135 152.024  1.00  0.00     0.002 C 
ENDROOT
BRANCH   1   2
ATOM      2  C   UNL     1     174.634 173.805 150.621  1.00  0.00     0.000 C 
BRANCH   2   3
ATOM      3  C   UNL     1     174.184 172.421 150.118  1.00  0.00    -0.000 C 
BRANCH   3   4
ATOM      4  C   UNL     1     174.681 171.232 150.961  1.00  0.00    -0.003 C 
ATOM      5  C   UNL     1     175.500 170.226 150.154  1.00  0.00     0.004 C 
ENDBRANCH   3   4
ENDBRANCH   2   3
ENDBRANCH   1   2
BRANCH   1   6
ATOM      6  C   UNL     1     172.561 174.068 152.097  1.00  0.00     0.028 C 
BRANCH   6   7
ATOM      7  C   UNL     1     172.050 173.561 153.452  1.00  0.00     0.156 C 
BRANCH   7   8
ATOM      8  O   UNL     1     172.480 174.413 154.478  1.00  0.00    -0.396 OA
ATOM      9  H   UNL     1     172.927 173.838 155.155  1.00  0.00     0.210 HD
ENDBRANCH   7   8
ENDBRANCH   6   7
ENDBRANCH   1   6
TORSDOF 6
ENDMDL
MODEL 6
REMARK VINA RESULT:    -3.040      1.349      2.106
REMARK INTER + INTRA:          -4.335
REMARK INTER:                  -4.151
REMARK INTRA:                  -0.184
REMARK UNBOUND:                -0.317
REMARK SMILES CCCCCCCO
REMARK SMILES IDX 5 1 4 2 3 3 2 4 1 5 6 6 7 7 8 8
REMARK H PARENT 8 9
REMARK Flexibility Score: inf
ROOT
ATOM      1  C   UNL     1     174.682 173.738 150.471  1.00  0.00     0.002 C 
ENDROOT
BRANCH   1   2
ATOM      2  C   UNL     1     173.591 172.864 149.829  1.00  0.00     0.000 C 
BRANCH   2   3
ATOM      3  C   UNL     1     173.722 171.375 150.199  1.00  0.00    -0.000 C 
BRANCH   3   4
ATOM      4  C   UNL     1     175.165 170.841 150.239  1.00  0.00    -0.003 C 
ATOM      5  C   UNL     1     175.283 169.481 150.926  1.00  0.00     0.004 C 
ENDBRANCH   3   4
ENDBRANCH   2   3
ENDBRANCH   1   2
BRANCH   1   6
ATOM      6  C   UNL     1     174.303 174.209 151.885  1.00  0.00     0.028 C 
BRANCH   6   7
ATOM      7  C   UNL     1     175.488 174.186 152.859  1.00  0.00     0.156 C 
BRANCH   7   8
ATOM      8  O   UNL     1     175.067 174.571 154.139  1.00  0.00    -0.396 OA
ATOM      9  H   UNL     1     174.997 173.739 154.677  1.00  0.00     0.210 HD
ENDBRANCH   7   8
ENDBRANCH   6   7
ENDBRANCH   1   6
TORSDOF 6
ENDMDL
MODEL 7
REMARK VINA RESULT:    -3.035      2.333      2.760
REMARK INTER + INTRA:          -4.328
REMARK INTER:                  -4.236
REMARK INTRA:                  -0.092
REMARK UNBOUND:                -0.317
REMARK SMILES CCCCCCCO
REMARK SMILES IDX 5 1 4 2 3 3 2 4 1 5 6 6 7 7 8 8
REMARK H PARENT 8 9
REMARK Flexibility Score: inf
ROOT
ATOM      1  C   UNL     1     172.825 174.127 151.325  1.00  0.00     0.002 C 
ENDROOT
BRANCH   1   2
ATOM      2  C   UNL     1     173.297 173.700 149.924  1.00  0.00     0.000 C 
BRANCH   2   3
ATOM      3  C   UNL     1     174.592 172.866 149.958  1.00  0.00    -0.000 C 
BRANCH   3   4
ATOM      4  C   UNL     1     174.520 171.590 150.815  1.00  0.00    -0.003 C 
ATOM      5  C   UNL     1     175.358 170.443 150.254  1.00  0.00     0.004 C 
ENDBRANCH   3   4
ENDBRANCH   2   3
ENDBRANCH   1   2
BRANCH   1   6
ATOM      6  C   UNL     1     171.546 174.979 151.279  1.00  0.00     0.028 C 
BRANCH   6   7
ATOM      7  C   UNL     1     170.272 174.156 151.508  1.00  0.00     0.156 C 
BRANCH   7   8
ATOM      8  O   UNL     1     169.418 174.824 152.395  1.00  0.00    -0.396 OA
ATOM      9  H   UNL     1     169.593 175.795 152.280  1.00  0.00     0.210 HD
ENDBRANCH   7   8
ENDBRANCH   6   7
ENDBRANCH   1   6
TORSDOF 6
ENDMDL
MODEL 8
REMARK VINA RESULT:    -3.015      2.059      3.197
REMARK INTER + INTRA:          -4.302
REMARK INTER:                  -4.057
REMARK INTRA:                  -0.244
REMARK UNBOUND:                -0.317
REMARK SMILES CCCCCCCO
REMARK SMILES IDX 5 1 4 2 3 3 2 4 1 5 6 6 7 7 8 8
REMARK H PARENT 8 9
REMARK Flexibility Score: inf
ROOT
ATOM      1  C   UNL     1     172.652 172.656 150.462  1.00  0.00     0.002 C 
ENDROOT
BRANCH   1   2
ATOM      2  C   UNL     1     173.610 173.616 149.735  1.00  0.00     0.000 C 
BRANCH   2   3
ATOM      3  C   UNL     1     174.939 173.816 150.487  1.00  0.00    -0.000 C 
BRANCH   3   4
ATOM      4  C   UNL     1     174.971 173.242 151.915  1.00  0.00    -0.003 C 
ATOM      5  C   UNL     1     175.389 174.269 152.965  1.00  0.00     0.004 C 
ENDBRANCH   3   4
ENDBRANCH   2   3
ENDBRANCH   1   2
BRANCH   1   6
ATOM      6  C   UNL     1     171.330 173.333 150.858  1.00  0.00     0.028 C 
BRANCH   6   7
ATOM      7  C   UNL     1     171.522 174.776 151.343  1.00  0.00     0.156 C 
BRANCH   7   8
ATOM      8  O   UNL     1     170.487 175.133 152.218  1.00  0.00    -0.396 OA
ATOM      9  H   UNL     1     170.741 174.785 153.114  1.00  0.00     0.210 HD
ENDBRANCH   7   8
ENDBRANCH   6   7
ENDBRANCH   1   6
TORSDOF 6
ENDMDL
MODEL 9
REMARK VINA RESULT:    -2.993      1.921      3.046
REMARK INTER + INTRA:          -4.272
REMARK INTER:                  -3.903
REMARK INTRA:                  -0.370
REMARK UNBOUND:                -0.317
REMARK SMILES CCCCCCCO
REMARK SMILES IDX 5 1 4 2 3 3 2 4 1 5 6 6 7 7 8 8
REMARK H PARENT 8 9
REMARK Flexibility Score: inf
ROOT
ATOM      1  C   UNL     1     174.688 173.108 150.366  1.00  0.00     0.002 C 
ENDROOT
BRANCH   1   2
ATOM      2  C   UNL     1     173.290 173.347 149.771  1.00  0.00     0.000 C 
BRANCH   2   3
ATOM      3  C   UNL     1     172.176 172.623 150.551  1.00  0.00    -0.000 C 
BRANCH   3   4
ATOM      4  C   UNL     1     171.022 173.525 151.024  1.00  0.00    -0.003 C 
ATOM      5  C   UNL     1     171.425 174.993 151.158  1.00  0.00     0.004 C 
ENDBRANCH   3   4
ENDBRANCH   2   3
ENDBRANCH   1   2
BRANCH   1   6
ATOM      6  C   UNL     1     175.127 174.238 151.310  1.00  0.00     0.028 C 
BRANCH   6   7
ATOM      7  C   UNL     1     175.154 173.809 152.783  1.00  0.00     0.156 C 
BRANCH   7   8
ATOM      8  O   UNL     1     174.014 174.285 153.445  1.00  0.00    -0.396 OA
ATOM      9  H   UNL     1     173.613 174.978 152.856  1.00  0.00     0.210 HD
ENDBRANCH   7   8
ENDBRANCH   6   7
ENDBRANCH   1   6
TORSDOF 6
ENDMDL
