MODEL 1
REMARK VINA RESULT:    -2.157      0.000      0.000
REMARK INTER + INTRA:          -2.157
REMARK INTER:                  -2.157
REMARK INTRA:                   0.000
REMARK UNBOUND:                 0.000
REMARK SMILES CC(=O)[O-]
REMARK SMILES IDX 1 1 2 2 3 3 4 4
REMARK H PARENT
REMARK Flexibility Score: inf
ROOT
ATOM      1  C   UNL     1      51.902   3.436  19.059  1.00  0.00     0.063 C 
ATOM      2  C   UNL     1      53.039   2.551  19.443  1.00  0.00     0.038 C 
ATOM      3  O   UNL     1      53.024   1.331  19.130  1.00  0.00    -0.550 OA
ATOM      4  O   UNL     1      54.142   3.081  20.100  1.00  0.00    -0.550 OA
ENDROOT
TORSDOF 0
ENDMDL
MODEL 2
REMARK VINA RESULT:    -2.151      4.903      5.377
REMARK INTER + INTRA:          -2.151
REMARK INTER:                  -2.151
REMARK INTRA:                   0.000
REMARK UNBOUND:                 0.000
REMARK SMILES CC(=O)[O-]
REMARK SMILES IDX 1 1 2 2 3 3 4 4
REMARK H PARENT
REMARK Flexibility Score: inf
ROOT
ATOM      1  C   UNL     1      54.470  -3.466  18.466  1.00  0.00     0.063 C 
ATOM      2  C   UNL     1      54.533  -2.140  19.147  1.00  0.00     0.038 C 
ATOM      3  O   UNL     1      55.286  -1.235  18.698  1.00  0.00    -0.550 OA
ATOM      4  O   UNL     1      53.723  -1.882  20.244  1.00  0.00    -0.550 OA
ENDROOT
TORSDOF 0
ENDMDL
MODEL 3
REMARK VINA RESULT:    -2.132      4.787      5.135
REMARK INTER + INTRA:          -2.132
REMARK INTER:                  -2.132
REMARK INTRA:                   0.000
REMARK UNBOUND:                 0.000
REMARK SMILES CC(=O)[O-]
REMARK SMILES IDX 1 1 2 2 3 3 4 4
REMARK H PARENT
REMARK Flexibility Score: inf
ROOT
ATOM      1  C   UNL     1      55.542  -1.118  18.773  1.00  0.00     0.063 C 
ATOM      2  C   UNL     1      54.489  -2.111  19.135  1.00  0.00     0.038 C 
ATOM      3  O   UNL     1      54.343  -3.155  18.446  1.00  0.00    -0.550 OA
ATOM      4  O   UNL     1      53.703  -1.912  20.262  1.00  0.00    -0.550 OA
ENDROOT
TORSDOF 0
ENDMDL
MODEL 4
REMARK VINA RESULT:    -2.124      4.867      5.422
REMARK INTER + INTRA:          -2.124
REMARK INTER:                  -2.124
REMARK INTRA:                   0.000
REMARK UNBOUND:                 0.000
REMARK SMILES CC(=O)[O-]
REMARK SMILES IDX 1 1 2 2 3 3 4 4
REMARK H PARENT
REMARK Flexibility Score: inf
ROOT
ATOM      1  C   UNL     1      55.376  -1.132  18.807  1.00  0.00     0.063 C 
ATOM      2  C   UNL     1      54.488  -2.271  19.177  1.00  0.00     0.038 C 
ATOM      3  O   UNL     1      53.776  -2.205  20.214  1.00  0.00    -0.550 OA
ATOM      4  O   UNL     1      54.404  -3.385  18.352  1.00  0.00    -0.550 OA
ENDROOT
TORSDOF 0
ENDMDL
MODEL 5
REMARK VINA RESULT:    -2.118      1.726      2.134
REMARK INTER + INTRA:          -2.118
REMARK INTER:                  -2.118
REMARK INTRA:                   0.000
REMARK UNBOUND:                 0.000
REMARK SMILES CC(=O)[O-]
REMARK SMILES IDX 1 1 2 2 3 3 4 4
REMARK H PARENT
REMARK Flexibility Score: inf
ROOT
ATOM      1  C   UNL     1      50.692   2.960  20.157  1.00  0.00     0.063 C 
ATOM      2  C   UNL     1      51.820   3.075  19.189  1.00  0.00     0.038 C 
ATOM      3  O   UNL     1      51.977   4.134  18.524  1.00  0.00    -0.550 OA
ATOM      4  O   UNL     1      52.732   2.036  19.055  1.00  0.00    -0.550 OA
ENDROOT
TORSDOF 0
ENDMDL
MODEL 6
REMARK VINA RESULT:    -2.118     11.394     11.817
REMARK INTER + INTRA:          -2.118
REMARK INTER:                  -2.118
REMARK INTRA:                   0.000
REMARK UNBOUND:                 0.000
REMARK SMILES CC(=O)[O-]
REMARK SMILES IDX 1 1 2 2 3 3 4 4
REMARK H PARENT
REMARK Flexibility Score: inf
ROOT
ATOM      1  C   UNL     1      49.978  15.103  18.789  1.00  0.00     0.063 C 
ATOM      2  C   UNL     1      49.592  13.714  18.407  1.00  0.00     0.038 C 
ATOM      3  O   UNL     1      48.623  13.148  18.979  1.00  0.00    -0.550 OA
ATOM      4  O   UNL     1      50.264  13.062  17.382  1.00  0.00    -0.550 OA
ENDROOT
TORSDOF 0
ENDMDL
MODEL 7
REMARK VINA RESULT:    -2.112      5.567      6.110
REMARK INTER + INTRA:          -2.112
REMARK INTER:                  -2.112
REMARK INTRA:                   0.000
REMARK UNBOUND:                 0.000
REMARK SMILES CC(=O)[O-]
REMARK SMILES IDX 1 1 2 2 3 3 4 4
REMARK H PARENT
REMARK Flexibility Score: inf
ROOT
ATOM      1  C   UNL     1      50.066   7.694  20.666  1.00  0.00     0.063 C 
ATOM      2  C   UNL     1      50.992   8.149  19.589  1.00  0.00     0.038 C 
ATOM      3  O   UNL     1      51.847   7.355  19.115  1.00  0.00    -0.550 OA
ATOM      4  O   UNL     1      50.879   9.432  19.070  1.00  0.00    -0.550 OA
ENDROOT
TORSDOF 0
ENDMDL
MODEL 8
REMARK VINA RESULT:    -2.076     11.536     11.937
REMARK INTER + INTRA:          -2.076
REMARK INTER:                  -2.076
REMARK INTRA:                   0.000
REMARK UNBOUND:                 0.000
REMARK SMILES CC(=O)[O-]
REMARK SMILES IDX 1 1 2 2 3 3 4 4
REMARK H PARENT
REMARK Flexibility Score: inf
ROOT
ATOM      1  C   UNL     1      50.083  13.052  17.369  1.00  0.00     0.063 C 
ATOM      2  C   UNL     1      49.537  13.892  18.475  1.00  0.00     0.038 C 
ATOM      3  O   UNL     1      48.514  13.516  19.107  1.00  0.00    -0.550 OA
ATOM      4  O   UNL     1      50.187  15.062  18.847  1.00  0.00    -0.550 OA
ENDROOT
TORSDOF 0
ENDMDL
MODEL 9
REMARK VINA RESULT:    -2.071      6.093      6.587
REMARK INTER + INTRA:          -2.071
REMARK INTER:                  -2.071
REMARK INTRA:                   0.000
REMARK UNBOUND:                 0.000
REMARK SMILES CC(=O)[O-]
REMARK SMILES IDX 1 1 2 2 3 3 4 4
REMARK H PARENT
REMARK Flexibility Score: inf
ROOT
ATOM      1  C   UNL     1      51.564   7.081  18.805  1.00  0.00     0.063 C 
ATOM      2  C   UNL     1      50.770   8.294  18.455  1.00  0.00     0.038 C 
ATOM      3  O   UNL     1      50.835   9.322  19.179  1.00  0.00    -0.550 OA
ATOM      4  O   UNL     1      49.997   8.311  17.301  1.00  0.00    -0.550 OA
ENDROOT
TORSDOF 0
ENDMDL
