MODEL 1
REMARK VINA RESULT:    -3.663      0.000      0.000
REMARK INTER + INTRA:         -14.185
REMARK INTER:                  -9.230
REMARK INTRA:                  -4.955
REMARK UNBOUND:                -4.955
REMARK SMILES CCCCCCCCCCCCCCCCCCCCCCCCCCCC(=O)[O-]
REMARK SMILES IDX 15 1 16 2 17 3 18 4 19 5 20 6 21 7 22 8 23 9 24 10 25 11
REMARK SMILES IDX 26 12 27 13 28 14 29 15 30 16 14 17 13 18 12 19 11 20 10 21
REMARK SMILES IDX 9 22 8 23 7 24 6 25 5 26 4 27 3 28 2 29 1 30
REMARK H PARENT
REMARK Flexibility Score: inf
ROOT
ATOM      1  C   UNL     1     129.924 121.646 119.829  1.00  0.00     0.000 C 
ENDROOT
BRANCH   1   2
ATOM      2  C   UNL     1     131.023 122.554 120.411  1.00  0.00     0.000 C 
BRANCH   2   3
ATOM      3  C   UNL     1     132.297 121.779 120.776  1.00  0.00     0.000 C 
BRANCH   3   4
ATOM      4  C   UNL     1     132.195 120.282 120.433  1.00  0.00     0.000 C 
BRANCH   4   5
ATOM      5  C   UNL     1     133.253 119.848 119.404  1.00  0.00     0.000 C 
BRANCH   5   6
ATOM      6  C   UNL     1     132.673 118.918 118.323  1.00  0.00     0.000 C 
BRANCH   6   7
ATOM      7  C   UNL     1     131.575 119.606 117.487  1.00  0.00     0.000 C 
BRANCH   7   8
ATOM      8  C   UNL     1     130.264 118.805 117.397  1.00  0.00     0.000 C 
BRANCH   8   9
ATOM      9  C   UNL     1     130.249 117.574 118.319  1.00  0.00     0.000 C 
BRANCH   9  10
ATOM     10  C   UNL     1     129.595 117.868 119.688  1.00  0.00     0.000 C 
BRANCH  10  11
ATOM     11  C   UNL     1     130.230 117.101 120.862  1.00  0.00     0.000 C 
BRANCH  11  12
ATOM     12  C   UNL     1     131.306 116.079 120.460  1.00  0.00     0.006 C 
BRANCH  12  13
ATOM     13  C   UNL     1     132.654 116.335 121.148  1.00  0.00     0.053 C 
BRANCH  13  14
ATOM     14  C   UNL     1     133.180 115.081 121.775  1.00  0.00     0.041 C 
ATOM     15  O   UNL     1     133.233 114.012 121.111  1.00  0.00    -0.550 OA
ATOM     16  O   UNL     1     133.620 115.096 123.093  1.00  0.00    -0.550 OA
ENDBRANCH  13  14
ENDBRANCH  12  13
ENDBRANCH  11  12
ENDBRANCH  10  11
ENDBRANCH   9  10
ENDBRANCH   8   9
ENDBRANCH   7   8
ENDBRANCH   6   7
ENDBRANCH   5   6
ENDBRANCH   4   5
ENDBRANCH   3   4
ENDBRANCH   2   3
ENDBRANCH   1   2
BRANCH   1  17
ATOM     17  C   UNL     1     128.695 121.554 120.756  1.00  0.00     0.000 C 
BRANCH  17  18
ATOM     18  C   UNL     1     127.463 120.915 120.091  1.00  0.00     0.000 C 
BRANCH  18  19
ATOM     19  C   UNL     1     127.573 120.854 118.558  1.00  0.00     0.000 C 
BRANCH  19  20
ATOM     20  C   UNL     1     126.586 119.858 117.922  1.00  0.00     0.000 C 
BRANCH  20  21
ATOM     21  C   UNL     1     125.723 119.056 118.917  1.00  0.00     0.000 C 
BRANCH  21  22
ATOM     22  C   UNL     1     124.241 118.894 118.523  1.00  0.00    -0.000 C 
BRANCH  22  23
ATOM     23  C   UNL     1     123.843 119.580 117.202  1.00  0.00    -0.000 C 
BRANCH  23  24
ATOM     24  C   UNL     1     122.909 120.793 117.365  1.00  0.00    -0.000 C 
BRANCH  24  25
ATOM     25  C   UNL     1     123.662 122.138 117.476  1.00  0.00    -0.000 C 
BRANCH  25  26
ATOM     26  C   UNL     1     123.327 122.892 118.775  1.00  0.00    -0.000 C 
BRANCH  26  27
ATOM     27  C   UNL     1     124.015 122.288 120.013  1.00  0.00    -0.000 C 
BRANCH  27  28
ATOM     28  C   UNL     1     123.064 121.918 121.166  1.00  0.00    -0.000 C 
BRANCH  28  29
ATOM     29  C   UNL     1     121.601 121.799 120.719  1.00  0.00    -0.003 C 
ATOM     30  C   UNL     1     121.170 120.337 120.632  1.00  0.00     0.004 C 
ENDBRANCH  28  29
ENDBRANCH  27  28
ENDBRANCH  26  27
ENDBRANCH  25  26
ENDBRANCH  24  25
ENDBRANCH  23  24
ENDBRANCH  22  23
ENDBRANCH  21  22
ENDBRANCH  20  21
ENDBRANCH  19  20
ENDBRANCH  18  19
ENDBRANCH  17  18
ENDBRANCH   1  17
TORSDOF 26
ENDMDL
MODEL 2
REMARK VINA RESULT:    -3.654      4.269      8.293
REMARK INTER + INTRA:         -14.162
REMARK INTER:                  -9.225
REMARK INTRA:                  -4.937
REMARK UNBOUND:                -4.955
REMARK SMILES CCCCCCCCCCCCCCCCCCCCCCCCCCCC(=O)[O-]
REMARK SMILES IDX 15 1 16 2 17 3 18 4 19 5 20 6 21 7 22 8 23 9 24 10 25 11
REMARK SMILES IDX 26 12 27 13 28 14 29 15 30 16 14 17 13 18 12 19 11 20 10 21
REMARK SMILES IDX 9 22 8 23 7 24 6 25 5 26 4 27 3 28 2 29 1 30
REMARK H PARENT
REMARK Flexibility Score: inf
ROOT
ATOM      1  C   UNL     1     128.485 121.149 120.054  1.00  0.00     0.000 C 
ENDROOT
BRANCH   1   2
ATOM      2  C   UNL     1     128.772 120.975 118.551  1.00  0.00     0.000 C 
BRANCH   2   3
ATOM      3  C   UNL     1     127.517 120.594 117.752  1.00  0.00     0.000 C 
BRANCH   3   4
ATOM      4  C   UNL     1     126.225 120.746 118.574  1.00  0.00     0.000 C 
BRANCH   4   5
ATOM      5  C   UNL     1     125.061 119.934 117.983  1.00  0.00     0.000 C 
BRANCH   5   6
ATOM      6  C   UNL     1     124.174 120.774 117.046  1.00  0.00     0.000 C 
BRANCH   6   7
ATOM      7  C   UNL     1     124.297 122.286 117.325  1.00  0.00     0.000 C 
BRANCH   7   8
ATOM      8  C   UNL     1     123.010 122.927 117.871  1.00  0.00     0.000 C 
BRANCH   8   9
ATOM      9  C   UNL     1     122.384 122.128 119.027  1.00  0.00     0.000 C 
BRANCH   9  10
ATOM     10  C   UNL     1     123.227 122.201 120.321  1.00  0.00     0.000 C 
BRANCH  10  11
ATOM     11  C   UNL     1     123.231 120.897 121.138  1.00  0.00     0.000 C 
BRANCH  11  12
ATOM     12  C   UNL     1     122.762 121.044 122.594  1.00  0.00     0.006 C 
BRANCH  12  13
ATOM     13  C   UNL     1     121.893 122.291 122.815  1.00  0.00     0.053 C 
BRANCH  13  14
ATOM     14  C   UNL     1     120.439 121.935 122.815  1.00  0.00     0.041 C 
ATOM     15  O   UNL     1     119.946 121.276 123.768  1.00  0.00    -0.550 OA
ATOM     16  O   UNL     1     119.625 122.339 121.764  1.00  0.00    -0.550 OA
ENDBRANCH  13  14
ENDBRANCH  12  13
ENDBRANCH  11  12
ENDBRANCH  10  11
ENDBRANCH   9  10
ENDBRANCH   8   9
ENDBRANCH   7   8
ENDBRANCH   6   7
ENDBRANCH   5   6
ENDBRANCH   4   5
ENDBRANCH   3   4
ENDBRANCH   2   3
ENDBRANCH   1   2
BRANCH   1  17
ATOM     17  C   UNL     1     129.498 122.093 120.733  1.00  0.00     0.000 C 
BRANCH  17  18
ATOM     18  C   UNL     1     130.822 122.240 119.961  1.00  0.00     0.000 C 
BRANCH  18  19
ATOM     19  C   UNL     1     132.057 121.945 120.829  1.00  0.00     0.000 C 
BRANCH  19  20
ATOM     20  C   UNL     1     132.880 120.748 120.318  1.00  0.00     0.000 C 
BRANCH  20  21
ATOM     21  C   UNL     1     132.063 119.491 119.955  1.00  0.00     0.000 C 
BRANCH  21  22
ATOM     22  C   UNL     1     131.367 118.791 121.141  1.00  0.00    -0.000 C 
BRANCH  22  23
ATOM     23  C   UNL     1     130.264 117.792 120.745  1.00  0.00    -0.000 C 
BRANCH  23  24
ATOM     24  C   UNL     1     130.030 117.661 119.228  1.00  0.00    -0.000 C 
BRANCH  24  25
ATOM     25  C   UNL     1     128.587 117.248 118.862  1.00  0.00    -0.000 C 
BRANCH  25  26
ATOM     26  C   UNL     1     127.782 116.782 120.087  1.00  0.00    -0.000 C 
BRANCH  26  27
ATOM     27  C   UNL     1     126.360 117.371 120.130  1.00  0.00    -0.000 C 
BRANCH  27  28
ATOM     28  C   UNL     1     125.914 117.887 121.510  1.00  0.00    -0.000 C 
BRANCH  28  29
ATOM     29  C   UNL     1     126.966 118.778 122.184  1.00  0.00    -0.003 C 
ATOM     30  C   UNL     1     126.321 120.010 122.812  1.00  0.00     0.004 C 
ENDBRANCH  28  29
ENDBRANCH  27  28
ENDBRANCH  26  27
ENDBRANCH  25  26
ENDBRANCH  24  25
ENDBRANCH  23  24
ENDBRANCH  22  23
ENDBRANCH  21  22
ENDBRANCH  20  21
ENDBRANCH  19  20
ENDBRANCH  18  19
ENDBRANCH  17  18
ENDBRANCH   1  17
TORSDOF 26
ENDMDL
MODEL 3
REMARK VINA RESULT:    -3.624      3.560      8.052
REMARK INTER + INTRA:         -14.089
REMARK INTER:                  -9.267
REMARK INTRA:                  -4.822
REMARK UNBOUND:                -4.955
REMARK SMILES CCCCCCCCCCCCCCCCCCCCCCCCCCCC(=O)[O-]
REMARK SMILES IDX 15 1 16 2 17 3 18 4 19 5 20 6 21 7 22 8 23 9 24 10 25 11
REMARK SMILES IDX 26 12 27 13 28 14 29 15 30 16 14 17 13 18 12 19 11 20 10 21
REMARK SMILES IDX 9 22 8 23 7 24 6 25 5 26 4 27 3 28 2 29 1 30
REMARK H PARENT
REMARK Flexibility Score: inf
ROOT
ATOM      1  C   UNL     1     132.122 119.829 119.841  1.00  0.00     0.000 C 
ENDROOT
BRANCH   1   2
ATOM      2  C   UNL     1     132.748 119.535 118.466  1.00  0.00     0.000 C 
BRANCH   2   3
ATOM      3  C   UNL     1     131.833 119.943 117.302  1.00  0.00     0.000 C 
BRANCH   3   4
ATOM      4  C   UNL     1     130.358 119.588 117.558  1.00  0.00     0.000 C 
BRANCH   4   5
ATOM      5  C   UNL     1     129.987 118.205 116.996  1.00  0.00     0.000 C 
BRANCH   5   6
ATOM      6  C   UNL     1     128.552 117.788 117.364  1.00  0.00     0.000 C 
BRANCH   6   7
ATOM      7  C   UNL     1     127.623 119.003 117.565  1.00  0.00     0.000 C 
BRANCH   7   8
ATOM      8  C   UNL     1     126.125 118.660 117.508  1.00  0.00     0.000 C 
BRANCH   8   9
ATOM      9  C   UNL     1     125.237 119.737 118.156  1.00  0.00     0.000 C 
BRANCH   9  10
ATOM     10  C   UNL     1     125.606 121.164 117.692  1.00  0.00     0.000 C 
BRANCH  10  11
ATOM     11  C   UNL     1     124.488 121.874 116.906  1.00  0.00     0.000 C 
BRANCH  11  12
ATOM     12  C   UNL     1     123.202 122.136 117.706  1.00  0.00     0.006 C 
BRANCH  12  13
ATOM     13  C   UNL     1     123.473 122.774 119.075  1.00  0.00     0.053 C 
BRANCH  13  14
ATOM     14  C   UNL     1     122.855 121.967 120.173  1.00  0.00     0.041 C 
ATOM     15  O   UNL     1     121.614 122.023 120.383  1.00  0.00    -0.550 OA
ATOM     16  O   UNL     1     123.649 121.144 120.962  1.00  0.00    -0.550 OA
ENDBRANCH  13  14
ENDBRANCH  12  13
ENDBRANCH  11  12
ENDBRANCH  10  11
ENDBRANCH   9  10
ENDBRANCH   8   9
ENDBRANCH   7   8
ENDBRANCH   6   7
ENDBRANCH   5   6
ENDBRANCH   4   5
ENDBRANCH   3   4
ENDBRANCH   2   3
ENDBRANCH   1   2
BRANCH   1  17
ATOM     17  C   UNL     1     132.873 120.945 120.595  1.00  0.00     0.000 C 
BRANCH  17  18
ATOM     18  C   UNL     1     132.041 122.225 120.797  1.00  0.00     0.000 C 
BRANCH  18  19
ATOM     19  C   UNL     1     130.748 122.237 119.965  1.00  0.00     0.000 C 
BRANCH  19  20
ATOM     20  C   UNL     1     129.475 122.252 120.831  1.00  0.00     0.000 C 
BRANCH  20  21
ATOM     21  C   UNL     1     128.283 121.452 120.268  1.00  0.00     0.000 C 
BRANCH  21  22
ATOM     22  C   UNL     1     127.429 120.713 121.318  1.00  0.00    -0.000 C 
BRANCH  22  23
ATOM     23  C   UNL     1     127.578 119.180 121.310  1.00  0.00    -0.000 C 
BRANCH  23  24
ATOM     24  C   UNL     1     128.992 118.674 120.968  1.00  0.00    -0.000 C 
BRANCH  24  25
ATOM     25  C   UNL     1     129.144 117.142 121.094  1.00  0.00    -0.000 C 
BRANCH  25  26
ATOM     26  C   UNL     1     130.614 116.692 121.028  1.00  0.00    -0.000 C 
BRANCH  26  27
ATOM     27  C   UNL     1     131.017 116.157 119.642  1.00  0.00    -0.000 C 
BRANCH  27  28
ATOM     28  C   UNL     1     132.394 115.472 119.587  1.00  0.00    -0.000 C 
BRANCH  28  29
ATOM     29  C   UNL     1     133.430 116.138 120.502  1.00  0.00    -0.003 C 
ATOM     30  C   UNL     1     134.731 116.409 119.752  1.00  0.00     0.004 C 
ENDBRANCH  28  29
ENDBRANCH  27  28
ENDBRANCH  26  27
ENDBRANCH  25  26
ENDBRANCH  24  25
ENDBRANCH  23  24
ENDBRANCH  22  23
ENDBRANCH  21  22
ENDBRANCH  20  21
ENDBRANCH  19  20
ENDBRANCH  18  19
ENDBRANCH  17  18
ENDBRANCH   1  17
TORSDOF 26
ENDMDL
MODEL 4
REMARK VINA RESULT:    -3.605      3.762      5.703
REMARK INTER + INTRA:         -14.041
REMARK INTER:                  -8.635
REMARK INTRA:                  -5.406
REMARK UNBOUND:                -4.955
REMARK SMILES CCCCCCCCCCCCCCCCCCCCCCCCCCCC(=O)[O-]
REMARK SMILES IDX 15 1 16 2 17 3 18 4 19 5 20 6 21 7 22 8 23 9 24 10 25 11
REMARK SMILES IDX 26 12 27 13 28 14 29 15 30 16 14 17 13 18 12 19 11 20 10 21
REMARK SMILES IDX 9 22 8 23 7 24 6 25 5 26 4 27 3 28 2 29 1 30
REMARK H PARENT
REMARK Flexibility Score: inf
ROOT
ATOM      1  C   UNL     1     130.238 118.274 121.123  1.00  0.00     0.000 C 
ENDROOT
BRANCH   1   2
ATOM      2  C   UNL     1     131.731 118.282 120.750  1.00  0.00     0.000 C 
BRANCH   2   3
ATOM      3  C   UNL     1     132.326 119.697 120.729  1.00  0.00     0.000 C 
BRANCH   3   4
ATOM      4  C   UNL     1     132.097 120.413 119.387  1.00  0.00     0.000 C 
BRANCH   4   5
ATOM      5  C   UNL     1     130.982 121.469 119.474  1.00  0.00     0.000 C 
BRANCH   5   6
ATOM      6  C   UNL     1     129.809 121.163 118.525  1.00  0.00     0.000 C 
BRANCH   6   7
ATOM      7  C   UNL     1     128.460 121.083 119.270  1.00  0.00     0.000 C 
BRANCH   7   8
ATOM      8  C   UNL     1     128.509 121.623 120.710  1.00  0.00     0.000 C 
BRANCH   8   9
ATOM      9  C   UNL     1     127.600 120.843 121.675  1.00  0.00     0.000 C 
BRANCH   9  10
ATOM     10  C   UNL     1     126.643 119.879 120.938  1.00  0.00     0.000 C 
BRANCH  10  11
ATOM     11  C   UNL     1     125.220 119.841 121.525  1.00  0.00     0.000 C 
BRANCH  11  12
ATOM     12  C   UNL     1     124.640 121.213 121.906  1.00  0.00     0.006 C 
BRANCH  12  13
ATOM     13  C   UNL     1     123.850 121.179 123.221  1.00  0.00     0.053 C 
BRANCH  13  14
ATOM     14  C   UNL     1     123.157 122.484 123.462  1.00  0.00     0.041 C 
ATOM     15  O   UNL     1     121.979 122.664 123.053  1.00  0.00    -0.550 OA
ATOM     16  O   UNL     1     123.812 123.502 124.145  1.00  0.00    -0.550 OA
ENDBRANCH  13  14
ENDBRANCH  12  13
ENDBRANCH  11  12
ENDBRANCH  10  11
ENDBRANCH   9  10
ENDBRANCH   8   9
ENDBRANCH   7   8
ENDBRANCH   6   7
ENDBRANCH   5   6
ENDBRANCH   4   5
ENDBRANCH   3   4
ENDBRANCH   2   3
ENDBRANCH   1   2
BRANCH   1  17
ATOM     17  C   UNL     1     129.384 117.514 120.087  1.00  0.00     0.000 C 
BRANCH  17  18
ATOM     18  C   UNL     1     130.139 117.180 118.788  1.00  0.00     0.000 C 
BRANCH  18  19
ATOM     19  C   UNL     1     129.408 117.670 117.527  1.00  0.00     0.000 C 
BRANCH  19  20
ATOM     20  C   UNL     1     127.896 117.379 117.555  1.00  0.00     0.000 C 
BRANCH  20  21
ATOM     21  C   UNL     1     126.983 118.606 117.356  1.00  0.00     0.000 C 
BRANCH  21  22
ATOM     22  C   UNL     1     125.497 118.386 117.704  1.00  0.00    -0.000 C 
BRANCH  22  23
ATOM     23  C   UNL     1     124.571 119.571 117.369  1.00  0.00    -0.000 C 
BRANCH  23  24
ATOM     24  C   UNL     1     125.160 120.957 117.693  1.00  0.00    -0.000 C 
BRANCH  24  25
ATOM     25  C   UNL     1     124.194 122.122 117.387  1.00  0.00    -0.000 C 
BRANCH  25  26
ATOM     26  C   UNL     1     122.750 121.817 117.823  1.00  0.00    -0.000 C 
BRANCH  26  27
ATOM     27  C   UNL     1     122.474 122.192 119.289  1.00  0.00    -0.000 C 
BRANCH  27  28
ATOM     28  C   UNL     1     121.503 121.253 120.027  1.00  0.00    -0.000 C 
BRANCH  28  29
ATOM     29  C   UNL     1     121.342 119.894 119.332  1.00  0.00    -0.003 C 
ATOM     30  C   UNL     1     122.165 118.817 120.032  1.00  0.00     0.004 C 
ENDBRANCH  28  29
ENDBRANCH  27  28
ENDBRANCH  26  27
ENDBRANCH  25  26
ENDBRANCH  24  25
ENDBRANCH  23  24
ENDBRANCH  22  23
ENDBRANCH  21  22
ENDBRANCH  20  21
ENDBRANCH  19  20
ENDBRANCH  18  19
ENDBRANCH  17  18
ENDBRANCH   1  17
TORSDOF 26
ENDMDL
MODEL 5
REMARK VINA RESULT:    -3.579     10.897     14.169
REMARK INTER + INTRA:         -13.974
REMARK INTER:                  -8.592
REMARK INTRA:                  -5.381
REMARK UNBOUND:                -4.955
REMARK SMILES CCCCCCCCCCCCCCCCCCCCCCCCCCCC(=O)[O-]
REMARK SMILES IDX 15 1 16 2 17 3 18 4 19 5 20 6 21 7 22 8 23 9 24 10 25 11
REMARK SMILES IDX 26 12 27 13 28 14 29 15 30 16 14 17 13 18 12 19 11 20 10 21
REMARK SMILES IDX 9 22 8 23 7 24 6 25 5 26 4 27 3 28 2 29 1 30
REMARK H PARENT
REMARK Flexibility Score: inf
ROOT
ATOM      1  C   UNL     1     124.736 126.527 125.640  1.00  0.00     0.000 C 
ENDROOT
BRANCH   1   2
ATOM      2  C   UNL     1     124.430 126.836 127.117  1.00  0.00     0.000 C 
BRANCH   2   3
ATOM      3  C   UNL     1     123.125 127.627 127.295  1.00  0.00     0.000 C 
BRANCH   3   4
ATOM      4  C   UNL     1     122.395 127.868 125.963  1.00  0.00     0.000 C 
BRANCH   4   5
ATOM      5  C   UNL     1     121.732 129.255 125.906  1.00  0.00     0.000 C 
BRANCH   5   6
ATOM      6  C   UNL     1     121.873 129.916 124.523  1.00  0.00     0.000 C 
BRANCH   6   7
ATOM      7  C   UNL     1     122.803 129.119 123.586  1.00  0.00     0.000 C 
BRANCH   7   8
ATOM      8  C   UNL     1     123.401 129.955 122.440  1.00  0.00     0.000 C 
BRANCH   8   9
ATOM      9  C   UNL     1     123.449 131.460 122.757  1.00  0.00     0.000 C 
BRANCH   9  10
ATOM     10  C   UNL     1     124.715 132.143 122.190  1.00  0.00     0.000 C 
BRANCH  10  11
ATOM     11  C   UNL     1     126.010 131.340 122.410  1.00  0.00     0.000 C 
BRANCH  11  12
ATOM     12  C   UNL     1     126.809 131.040 121.131  1.00  0.00     0.006 C 
BRANCH  12  13
ATOM     13  C   UNL     1     126.057 131.438 119.854  1.00  0.00     0.053 C 
BRANCH  13  14
ATOM     14  C   UNL     1     125.684 130.227 119.055  1.00  0.00     0.041 C 
ATOM     15  O   UNL     1     126.540 129.654 118.331  1.00  0.00    -0.550 OA
ATOM     16  O   UNL     1     124.389 129.727 119.117  1.00  0.00    -0.550 OA
ENDBRANCH  13  14
ENDBRANCH  12  13
ENDBRANCH  11  12
ENDBRANCH  10  11
ENDBRANCH   9  10
ENDBRANCH   8   9
ENDBRANCH   7   8
ENDBRANCH   6   7
ENDBRANCH   5   6
ENDBRANCH   4   5
ENDBRANCH   3   4
ENDBRANCH   2   3
ENDBRANCH   1   2
BRANCH   1  17
ATOM     17  C   UNL     1     126.124 127.048 125.213  1.00  0.00     0.000 C 
BRANCH  17  18
ATOM     18  C   UNL     1     126.198 128.580 125.086  1.00  0.00     0.000 C 
BRANCH  18  19
ATOM     19  C   UNL     1     127.010 129.237 126.215  1.00  0.00     0.000 C 
BRANCH  19  20
ATOM     20  C   UNL     1     126.322 130.482 126.806  1.00  0.00     0.000 C 
BRANCH  20  21
ATOM     21  C   UNL     1     125.073 130.970 126.045  1.00  0.00     0.000 C 
BRANCH  21  22
ATOM     22  C   UNL     1     124.123 131.880 126.851  1.00  0.00    -0.000 C 
BRANCH  22  23
ATOM     23  C   UNL     1     124.288 131.794 128.380  1.00  0.00    -0.000 C 
BRANCH  23  24
ATOM     24  C   UNL     1     123.344 130.792 129.072  1.00  0.00    -0.000 C 
BRANCH  24  25
ATOM     25  C   UNL     1     124.052 129.901 130.117  1.00  0.00    -0.000 C 
BRANCH  25  26
ATOM     26  C   UNL     1     123.073 128.972 130.855  1.00  0.00    -0.000 C 
BRANCH  26  27
ATOM     27  C   UNL     1     123.583 127.524 130.959  1.00  0.00    -0.000 C 
BRANCH  27  28
ATOM     28  C   UNL     1     124.943 127.365 131.661  1.00  0.00    -0.000 C 
BRANCH  28  29
ATOM     29  C   UNL     1     125.936 126.516 130.856  1.00  0.00    -0.003 C 
ATOM     30  C   UNL     1     126.653 127.359 129.805  1.00  0.00     0.004 C 
ENDBRANCH  28  29
ENDBRANCH  27  28
ENDBRANCH  26  27
ENDBRANCH  25  26
ENDBRANCH  24  25
ENDBRANCH  23  24
ENDBRANCH  22  23
ENDBRANCH  21  22
ENDBRANCH  20  21
ENDBRANCH  19  20
ENDBRANCH  18  19
ENDBRANCH  17  18
ENDBRANCH   1  17
TORSDOF 26
ENDMDL
MODEL 6
REMARK VINA RESULT:    -3.559      3.388      7.557
REMARK INTER + INTRA:         -13.925
REMARK INTER:                  -8.832
REMARK INTRA:                  -5.093
REMARK UNBOUND:                -4.955
REMARK SMILES CCCCCCCCCCCCCCCCCCCCCCCCCCCC(=O)[O-]
REMARK SMILES IDX 15 1 16 2 17 3 18 4 19 5 20 6 21 7 22 8 23 9 24 10 25 11
REMARK SMILES IDX 26 12 27 13 28 14 29 15 30 16 14 17 13 18 12 19 11 20 10 21
REMARK SMILES IDX 9 22 8 23 7 24 6 25 5 26 4 27 3 28 2 29 1 30
REMARK H PARENT
REMARK Flexibility Score: inf
ROOT
ATOM      1  C   UNL     1     132.168 121.019 120.922  1.00  0.00     0.000 C 
ENDROOT
BRANCH   1   2
ATOM      2  C   UNL     1     131.997 122.539 120.749  1.00  0.00     0.000 C 
BRANCH   2   3
ATOM      3  C   UNL     1     130.522 122.966 120.718  1.00  0.00     0.000 C 
BRANCH   3   4
ATOM      4  C   UNL     1     129.592 121.841 120.229  1.00  0.00     0.000 C 
BRANCH   4   5
ATOM      5  C   UNL     1     128.292 121.765 121.047  1.00  0.00     0.000 C 
BRANCH   5   6
ATOM      6  C   UNL     1     127.130 121.148 120.248  1.00  0.00     0.000 C 
BRANCH   6   7
ATOM      7  C   UNL     1     127.600 120.533 118.914  1.00  0.00     0.000 C 
BRANCH   7   8
ATOM      8  C   UNL     1     126.909 121.128 117.674  1.00  0.00     0.000 C 
BRANCH   8   9
ATOM      9  C   UNL     1     125.402 120.825 117.624  1.00  0.00     0.000 C 
BRANCH   9  10
ATOM     10  C   UNL     1     124.606 121.909 116.863  1.00  0.00     0.000 C 
BRANCH  10  11
ATOM     11  C   UNL     1     123.599 122.676 117.739  1.00  0.00     0.000 C 
BRANCH  11  12
ATOM     12  C   UNL     1     122.942 121.841 118.851  1.00  0.00     0.006 C 
BRANCH  12  13
ATOM     13  C   UNL     1     123.250 122.377 120.256  1.00  0.00     0.053 C 
BRANCH  13  14
ATOM     14  C   UNL     1     123.005 121.326 121.293  1.00  0.00     0.041 C 
ATOM     15  O   UNL     1     123.971 120.806 121.914  1.00  0.00    -0.550 OA
ATOM     16  O   UNL     1     121.706 120.924 121.581  1.00  0.00    -0.550 OA
ENDBRANCH  13  14
ENDBRANCH  12  13
ENDBRANCH  11  12
ENDBRANCH  10  11
ENDBRANCH   9  10
ENDBRANCH   8   9
ENDBRANCH   7   8
ENDBRANCH   6   7
ENDBRANCH   5   6
ENDBRANCH   4   5
ENDBRANCH   3   4
ENDBRANCH   2   3
ENDBRANCH   1   2
BRANCH   1  17
ATOM     17  C   UNL     1     133.229 120.441 119.962  1.00  0.00     0.000 C 
BRANCH  17  18
ATOM     18  C   UNL     1     132.649 119.495 118.896  1.00  0.00     0.000 C 
BRANCH  18  19
ATOM     19  C   UNL     1     131.943 120.241 117.752  1.00  0.00     0.000 C 
BRANCH  19  20
ATOM     20  C   UNL     1     130.581 119.626 117.382  1.00  0.00     0.000 C 
BRANCH  20  21
ATOM     21  C   UNL     1     130.524 118.085 117.402  1.00  0.00     0.000 C 
BRANCH  21  22
ATOM     22  C   UNL     1     129.108 117.476 117.343  1.00  0.00    -0.000 C 
BRANCH  22  23
ATOM     23  C   UNL     1     129.015 116.010 117.805  1.00  0.00    -0.000 C 
BRANCH  23  24
ATOM     24  C   UNL     1     128.232 115.797 119.114  1.00  0.00    -0.000 C 
BRANCH  24  25
ATOM     25  C   UNL     1     127.701 117.110 119.732  1.00  0.00    -0.000 C 
BRANCH  25  26
ATOM     26  C   UNL     1     128.349 117.421 121.092  1.00  0.00    -0.000 C 
BRANCH  26  27
ATOM     27  C   UNL     1     129.652 118.232 120.965  1.00  0.00    -0.000 C 
BRANCH  27  28
ATOM     28  C   UNL     1     130.895 117.560 121.575  1.00  0.00    -0.000 C 
BRANCH  28  29
ATOM     29  C   UNL     1     131.530 116.519 120.644  1.00  0.00    -0.003 C 
ATOM     30  C   UNL     1     131.294 115.103 121.162  1.00  0.00     0.004 C 
ENDBRANCH  28  29
ENDBRANCH  27  28
ENDBRANCH  26  27
ENDBRANCH  25  26
ENDBRANCH  24  25
ENDBRANCH  23  24
ENDBRANCH  22  23
ENDBRANCH  21  22
ENDBRANCH  20  21
ENDBRANCH  19  20
ENDBRANCH  18  19
ENDBRANCH  17  18
ENDBRANCH   1  17
TORSDOF 26
ENDMDL
MODEL 7
REMARK VINA RESULT:    -3.539     10.662     12.916
REMARK INTER + INTRA:         -13.874
REMARK INTER:                  -9.375
REMARK INTRA:                  -4.499
REMARK UNBOUND:                -4.955
REMARK SMILES CCCCCCCCCCCCCCCCCCCCCCCCCCCC(=O)[O-]
REMARK SMILES IDX 15 1 16 2 17 3 18 4 19 5 20 6 21 7 22 8 23 9 24 10 25 11
REMARK SMILES IDX 26 12 27 13 28 14 29 15 30 16 14 17 13 18 12 19 11 20 10 21
REMARK SMILES IDX 9 22 8 23 7 24 6 25 5 26 4 27 3 28 2 29 1 30
REMARK H PARENT
REMARK Flexibility Score: inf
ROOT
ATOM      1  C   UNL     1     123.507 131.741 121.480  1.00  0.00     0.000 C 
ENDROOT
BRANCH   1   2
ATOM      2  C   UNL     1     123.801 130.588 122.457  1.00  0.00     0.000 C 
BRANCH   2   3
ATOM      3  C   UNL     1     122.801 130.532 123.621  1.00  0.00     0.000 C 
BRANCH   3   4
ATOM      4  C   UNL     1     122.627 129.111 124.182  1.00  0.00     0.000 C 
BRANCH   4   5
ATOM      5  C   UNL     1     122.413 129.109 125.705  1.00  0.00     0.000 C 
BRANCH   5   6
ATOM      6  C   UNL     1     123.486 128.293 126.448  1.00  0.00     0.000 C 
BRANCH   6   7
ATOM      7  C   UNL     1     123.778 126.945 125.757  1.00  0.00     0.000 C 
BRANCH   7   8
ATOM      8  C   UNL     1     125.274 126.671 125.528  1.00  0.00     0.000 C 
BRANCH   8   9
ATOM      9  C   UNL     1     125.935 125.928 126.702  1.00  0.00     0.000 C 
BRANCH   9  10
ATOM     10  C   UNL     1     127.138 126.699 127.290  1.00  0.00     0.000 C 
BRANCH  10  11
ATOM     11  C   UNL     1     126.747 127.977 128.055  1.00  0.00     0.000 C 
BRANCH  11  12
ATOM     12  C   UNL     1     125.953 127.738 129.350  1.00  0.00     0.006 C 
BRANCH  12  13
ATOM     13  C   UNL     1     126.644 126.746 130.296  1.00  0.00     0.053 C 
BRANCH  13  14
ATOM     14  C   UNL     1     125.671 125.731 130.810  1.00  0.00     0.041 C 
ATOM     15  O   UNL     1     125.431 125.648 132.043  1.00  0.00    -0.550 OA
ATOM     16  O   UNL     1     125.021 124.881 129.923  1.00  0.00    -0.550 OA
ENDBRANCH  13  14
ENDBRANCH  12  13
ENDBRANCH  11  12
ENDBRANCH  10  11
ENDBRANCH   9  10
ENDBRANCH   8   9
ENDBRANCH   7   8
ENDBRANCH   6   7
ENDBRANCH   5   6
ENDBRANCH   4   5
ENDBRANCH   3   4
ENDBRANCH   2   3
ENDBRANCH   1   2
BRANCH   1  17
ATOM     17  C   UNL     1     123.562 131.283 120.008  1.00  0.00     0.000 C 
BRANCH  17  18
ATOM     18  C   UNL     1     123.941 129.801 119.833  1.00  0.00     0.000 C 
BRANCH  18  19
ATOM     19  C   UNL     1     124.641 129.515 118.495  1.00  0.00     0.000 C 
BRANCH  19  20
ATOM     20  C   UNL     1     125.629 130.622 118.083  1.00  0.00     0.000 C 
BRANCH  20  21
ATOM     21  C   UNL     1     127.083 130.420 118.558  1.00  0.00     0.000 C 
BRANCH  21  22
ATOM     22  C   UNL     1     127.746 131.658 119.197  1.00  0.00    -0.000 C 
BRANCH  22  23
ATOM     23  C   UNL     1     127.199 132.041 120.585  1.00  0.00    -0.000 C 
BRANCH  23  24
ATOM     24  C   UNL     1     127.134 130.877 121.593  1.00  0.00    -0.000 C 
BRANCH  24  25
ATOM     25  C   UNL     1     127.672 131.245 122.992  1.00  0.00    -0.000 C 
BRANCH  25  26
ATOM     26  C   UNL     1     127.788 130.021 123.917  1.00  0.00    -0.000 C 
BRANCH  26  27
ATOM     27  C   UNL     1     126.600 129.887 124.886  1.00  0.00    -0.000 C 
BRANCH  27  28
ATOM     28  C   UNL     1     125.993 131.221 125.356  1.00  0.00    -0.000 C 
BRANCH  28  29
ATOM     29  C   UNL     1     126.125 131.436 126.870  1.00  0.00    -0.003 C 
ATOM     30  C   UNL     1     127.591 131.488 127.292  1.00  0.00     0.004 C 
ENDBRANCH  28  29
ENDBRANCH  27  28
ENDBRANCH  26  27
ENDBRANCH  25  26
ENDBRANCH  24  25
ENDBRANCH  23  24
ENDBRANCH  22  23
ENDBRANCH  21  22
ENDBRANCH  20  21
ENDBRANCH  19  20
ENDBRANCH  18  19
ENDBRANCH  17  18
ENDBRANCH   1  17
TORSDOF 26
ENDMDL
MODEL 8
REMARK VINA RESULT:    -3.534      3.733      8.610
REMARK INTER + INTRA:         -13.861
REMARK INTER:                  -8.676
REMARK INTRA:                  -5.185
REMARK UNBOUND:                -4.955
REMARK SMILES CCCCCCCCCCCCCCCCCCCCCCCCCCCC(=O)[O-]
REMARK SMILES IDX 15 1 16 2 17 3 18 4 19 5 20 6 21 7 22 8 23 9 24 10 25 11
REMARK SMILES IDX 26 12 27 13 28 14 29 15 30 16 14 17 13 18 12 19 11 20 10 21
REMARK SMILES IDX 9 22 8 23 7 24 6 25 5 26 4 27 3 28 2 29 1 30
REMARK H PARENT
REMARK Flexibility Score: inf
ROOT
ATOM      1  C   UNL     1     125.416 118.537 121.087  1.00  0.00     0.000 C 
ENDROOT
BRANCH   1   2
ATOM      2  C   UNL     1     125.460 117.761 119.758  1.00  0.00     0.000 C 
BRANCH   2   3
ATOM      3  C   UNL     1     124.375 118.221 118.772  1.00  0.00     0.000 C 
BRANCH   3   4
ATOM      4  C   UNL     1     124.964 118.764 117.459  1.00  0.00     0.000 C 
BRANCH   4   5
ATOM      5  C   UNL     1     126.170 119.687 117.701  1.00  0.00     0.000 C 
BRANCH   5   6
ATOM      6  C   UNL     1     125.756 121.157 117.894  1.00  0.00     0.000 C 
BRANCH   6   7
ATOM      7  C   UNL     1     124.764 121.631 116.812  1.00  0.00     0.000 C 
BRANCH   7   8
ATOM      8  C   UNL     1     123.540 122.377 117.371  1.00  0.00     0.000 C 
BRANCH   8   9
ATOM      9  C   UNL     1     122.391 121.434 117.766  1.00  0.00     0.000 C 
BRANCH   9  10
ATOM     10  C   UNL     1     122.323 121.191 119.291  1.00  0.00     0.000 C 
BRANCH  10  11
ATOM     11  C   UNL     1     122.790 122.390 120.136  1.00  0.00     0.000 C 
BRANCH  11  12
ATOM     12  C   UNL     1     123.820 122.051 121.226  1.00  0.00     0.006 C 
BRANCH  12  13
ATOM     13  C   UNL     1     123.353 122.456 122.631  1.00  0.00     0.053 C 
BRANCH  13  14
ATOM     14  C   UNL     1     122.148 121.668 123.041  1.00  0.00     0.041 C 
ATOM     15  O   UNL     1     121.014 122.214 123.083  1.00  0.00    -0.550 OA
ATOM     16  O   UNL     1     122.277 120.324 123.372  1.00  0.00    -0.550 OA
ENDBRANCH  13  14
ENDBRANCH  12  13
ENDBRANCH  11  12
ENDBRANCH  10  11
ENDBRANCH   9  10
ENDBRANCH   8   9
ENDBRANCH   7   8
ENDBRANCH   6   7
ENDBRANCH   5   6
ENDBRANCH   4   5
ENDBRANCH   3   4
ENDBRANCH   2   3
ENDBRANCH   1   2
BRANCH   1  17
ATOM     17  C   UNL     1     126.827 118.920 121.582  1.00  0.00     0.000 C 
BRANCH  17  18
ATOM     18  C   UNL     1     126.916 120.344 122.158  1.00  0.00     0.000 C 
BRANCH  18  19
ATOM     19  C   UNL     1     127.284 121.397 121.099  1.00  0.00     0.000 C 
BRANCH  19  20
ATOM     20  C   UNL     1     128.790 121.430 120.780  1.00  0.00     0.000 C 
BRANCH  20  21
ATOM     21  C   UNL     1     129.153 121.268 119.290  1.00  0.00     0.000 C 
BRANCH  21  22
ATOM     22  C   UNL     1     130.663 121.286 118.973  1.00  0.00    -0.000 C 
BRANCH  22  23
ATOM     23  C   UNL     1     131.560 121.773 120.127  1.00  0.00    -0.000 C 
BRANCH  23  24
ATOM     24  C   UNL     1     132.523 120.708 120.684  1.00  0.00    -0.000 C 
BRANCH  24  25
ATOM     25  C   UNL     1     132.756 119.525 119.719  1.00  0.00    -0.000 C 
BRANCH  25  26
ATOM     26  C   UNL     1     132.507 118.163 120.391  1.00  0.00    -0.000 C 
BRANCH  26  27
ATOM     27  C   UNL     1     131.423 117.333 119.681  1.00  0.00    -0.000 C 
BRANCH  27  28
ATOM     28  C   UNL     1     129.976 117.689 120.069  1.00  0.00    -0.000 C 
BRANCH  28  29
ATOM     29  C   UNL     1     129.023 117.711 118.866  1.00  0.00    -0.003 C 
ATOM     30  C   UNL     1     129.788 117.933 117.564  1.00  0.00     0.004 C 
ENDBRANCH  28  29
ENDBRANCH  27  28
ENDBRANCH  26  27
ENDBRANCH  25  26
ENDBRANCH  24  25
ENDBRANCH  23  24
ENDBRANCH  22  23
ENDBRANCH  21  22
ENDBRANCH  20  21
ENDBRANCH  19  20
ENDBRANCH  18  19
ENDBRANCH  17  18
ENDBRANCH   1  17
TORSDOF 26
ENDMDL
MODEL 9
REMARK VINA RESULT:    -3.517      1.878      4.510
REMARK INTER + INTRA:         -13.817
REMARK INTER:                  -8.504
REMARK INTRA:                  -5.313
REMARK UNBOUND:                -4.955
REMARK SMILES CCCCCCCCCCCCCCCCCCCCCCCCCCCC(=O)[O-]
REMARK SMILES IDX 15 1 16 2 17 3 18 4 19 5 20 6 21 7 22 8 23 9 24 10 25 11
REMARK SMILES IDX 26 12 27 13 28 14 29 15 30 16 14 17 13 18 12 19 11 20 10 21
REMARK SMILES IDX 9 22 8 23 7 24 6 25 5 26 4 27 3 28 2 29 1 30
REMARK H PARENT
REMARK Flexibility Score: inf
ROOT
ATOM      1  C   UNL     1     127.016 118.451 117.136  1.00  0.00     0.000 C 
ENDROOT
BRANCH   1   2
ATOM      2  C   UNL     1     128.223 117.594 117.560  1.00  0.00     0.000 C 
BRANCH   2   3
ATOM      3  C   UNL     1     128.046 116.978 118.956  1.00  0.00     0.000 C 
BRANCH   3   4
ATOM      4  C   UNL     1     129.043 117.545 119.982  1.00  0.00     0.000 C 
BRANCH   4   5
ATOM      5  C   UNL     1     128.352 117.975 121.287  1.00  0.00     0.000 C 
BRANCH   5   6
ATOM      6  C   UNL     1     127.203 118.969 121.043  1.00  0.00     0.000 C 
BRANCH   6   7
ATOM      7  C   UNL     1     127.434 120.317 121.758  1.00  0.00     0.000 C 
BRANCH   7   8
ATOM      8  C   UNL     1     127.816 121.468 120.812  1.00  0.00     0.000 C 
BRANCH   8   9
ATOM      9  C   UNL     1     127.799 121.058 119.330  1.00  0.00     0.000 C 
BRANCH   9  10
ATOM     10  C   UNL     1     129.208 121.071 118.696  1.00  0.00     0.000 C 
BRANCH  10  11
ATOM     11  C   UNL     1     130.315 121.565 119.645  1.00  0.00     0.000 C 
BRANCH  11  12
ATOM     12  C   UNL     1     131.321 120.488 120.082  1.00  0.00     0.006 C 
BRANCH  12  13
ATOM     13  C   UNL     1     131.871 119.676 118.901  1.00  0.00     0.053 C 
BRANCH  13  14
ATOM     14  C   UNL     1     132.943 118.733 119.355  1.00  0.00     0.041 C 
ATOM     15  O   UNL     1     134.080 118.755 118.813  1.00  0.00    -0.550 OA
ATOM     16  O   UNL     1     132.687 117.834 120.382  1.00  0.00    -0.550 OA
ENDBRANCH  13  14
ENDBRANCH  12  13
ENDBRANCH  11  12
ENDBRANCH  10  11
ENDBRANCH   9  10
ENDBRANCH   8   9
ENDBRANCH   7   8
ENDBRANCH   6   7
ENDBRANCH   5   6
ENDBRANCH   4   5
ENDBRANCH   3   4
ENDBRANCH   2   3
ENDBRANCH   1   2
BRANCH   1  17
ATOM     17  C   UNL     1     125.695 117.937 117.745  1.00  0.00     0.000 C 
BRANCH  17  18
ATOM     18  C   UNL     1     124.765 119.056 118.245  1.00  0.00     0.000 C 
BRANCH  18  19
ATOM     19  C   UNL     1     124.248 119.957 117.112  1.00  0.00     0.000 C 
BRANCH  19  20
ATOM     20  C   UNL     1     124.667 121.430 117.273  1.00  0.00     0.000 C 
BRANCH  20  21
ATOM     21  C   UNL     1     123.513 122.421 117.530  1.00  0.00     0.000 C 
BRANCH  21  22
ATOM     22  C   UNL     1     122.928 122.397 118.958  1.00  0.00    -0.000 C 
BRANCH  22  23
ATOM     23  C   UNL     1     123.976 122.434 120.086  1.00  0.00    -0.000 C 
BRANCH  23  24
ATOM     24  C   UNL     1     123.957 121.209 121.020  1.00  0.00    -0.000 C 
BRANCH  24  25
ATOM     25  C   UNL     1     123.906 121.580 122.519  1.00  0.00    -0.000 C 
BRANCH  25  26
ATOM     26  C   UNL     1     122.794 122.596 122.834  1.00  0.00    -0.000 C 
BRANCH  26  27
ATOM     27  C   UNL     1     121.415 121.938 123.016  1.00  0.00    -0.000 C 
BRANCH  27  28
ATOM     28  C   UNL     1     120.479 122.048 121.799  1.00  0.00    -0.000 C 
BRANCH  28  29
ATOM     29  C   UNL     1     120.229 120.698 121.114  1.00  0.00    -0.003 C 
ATOM     30  C   UNL     1     120.737 119.544 121.974  1.00  0.00     0.004 C 
ENDBRANCH  28  29
ENDBRANCH  27  28
ENDBRANCH  26  27
ENDBRANCH  25  26
ENDBRANCH  24  25
ENDBRANCH  23  24
ENDBRANCH  22  23
ENDBRANCH  21  22
ENDBRANCH  20  21
ENDBRANCH  19  20
ENDBRANCH  18  19
ENDBRANCH  17  18
ENDBRANCH   1  17
TORSDOF 26
ENDMDL
