MODEL 1
REMARK VINA RESULT:    -3.381      0.000      0.000
REMARK INTER + INTRA:          -3.917
REMARK INTER:                  -3.876
REMARK INTRA:                  -0.041
REMARK UNBOUND:                -0.041
REMARK SMILES CC(C)[C@@H]([NH3+])C(=O)[O-]
REMARK SMILES IDX 4 1 5 2 6 6 7 7 8 8 2 9 1 10 3 11
REMARK H PARENT 5 3 5 4 5 5
REMARK Flexibility Score: inf
ROOT
ATOM      1  C   UNL     1     128.466 127.873 125.379  1.00  0.00     0.230 C 
ENDROOT
BRANCH   1   2
ATOM      2  N   UNL     1     127.114 127.844 125.959  1.00  0.00    -0.350 N 
ATOM      3  H   UNL     1     126.393 127.821 125.204  1.00  0.00     0.345 HD
ATOM      4  H   UNL     1     126.985 127.019 126.588  1.00  0.00     0.345 HD
ATOM      5  H   UNL     1     126.958 128.715 126.518  1.00  0.00     0.345 HD
ENDBRANCH   1   2
BRANCH   1   6
ATOM      6  C   UNL     1     129.511 128.057 126.454  1.00  0.00     0.099 C 
ATOM      7  O   UNL     1     130.125 127.068 126.935  1.00  0.00    -0.544 OA
ATOM      8  O   UNL     1     129.836 129.338 126.883  1.00  0.00    -0.544 OA
ENDBRANCH   1   6
BRANCH   1   9
ATOM      9  C   UNL     1     128.783 126.621 124.505  1.00  0.00     0.047 C 
ATOM     10  C   UNL     1     127.889 125.410 124.818  1.00  0.00     0.014 C 
ATOM     11  C   UNL     1     128.730 126.944 123.004  1.00  0.00     0.014 C 
ENDBRANCH   1   9
TORSDOF 3
ENDMDL
MODEL 2
REMARK VINA RESULT:    -3.381     22.962     23.771
REMARK INTER + INTRA:          -3.917
REMARK INTER:                  -3.867
REMARK INTRA:                  -0.050
REMARK UNBOUND:                -0.041
REMARK SMILES CC(C)[C@@H]([NH3+])C(=O)[O-]
REMARK SMILES IDX 4 1 5 2 6 6 7 7 8 8 2 9 1 10 3 11
REMARK H PARENT 5 3 5 4 5 5
REMARK Flexibility Score: inf
ROOT
ATOM      1  C   UNL     1     114.315 119.550 109.325  1.00  0.00     0.230 C 
ENDROOT
BRANCH   1   2
ATOM      2  N   UNL     1     115.211 119.044 110.377  1.00  0.00    -0.350 N 
ATOM      3  H   UNL     1     115.106 119.611 111.249  1.00  0.00     0.345 HD
ATOM      4  H   UNL     1     115.021 118.039 110.591  1.00  0.00     0.345 HD
ATOM      5  H   UNL     1     116.204 119.134 110.060  1.00  0.00     0.345 HD
ENDBRANCH   1   2
BRANCH   1   6
ATOM      6  C   UNL     1     115.079 119.822 108.051  1.00  0.00     0.099 C 
ATOM      7  O   UNL     1     116.066 120.604 108.043  1.00  0.00    -0.544 OA
ATOM      8  O   UNL     1     114.720 119.163 106.881  1.00  0.00    -0.544 OA
ENDBRANCH   1   6
BRANCH   1   9
ATOM      9  C   UNL     1     113.099 118.612 109.054  1.00  0.00     0.047 C 
ATOM     10  C   UNL     1     113.361 117.143 109.423  1.00  0.00     0.014 C 
ATOM     11  C   UNL     1     111.825 119.113 109.749  1.00  0.00     0.014 C 
ENDBRANCH   1   9
TORSDOF 3
ENDMDL
MODEL 3
REMARK VINA RESULT:    -3.370     14.574     15.633
REMARK INTER + INTRA:          -3.904
REMARK INTER:                  -3.844
REMARK INTRA:                  -0.060
REMARK UNBOUND:                -0.041
REMARK SMILES CC(C)[C@@H]([NH3+])C(=O)[O-]
REMARK SMILES IDX 4 1 5 2 6 6 7 7 8 8 2 9 1 10 3 11
REMARK H PARENT 5 3 5 4 5 5
REMARK Flexibility Score: inf
ROOT
ATOM      1  C   UNL     1     123.154 126.451 111.434  1.00  0.00     0.230 C 
ENDROOT
BRANCH   1   2
ATOM      2  N   UNL     1     121.763 126.241 111.865  1.00  0.00    -0.350 N 
ATOM      3  H   UNL     1     121.439 125.283 111.602  1.00  0.00     0.345 HD
ATOM      4  H   UNL     1     121.658 126.372 112.897  1.00  0.00     0.345 HD
ATOM      5  H   UNL     1     121.142 126.928 111.379  1.00  0.00     0.345 HD
ENDBRANCH   1   2
BRANCH   1   6
ATOM      6  C   UNL     1     124.038 125.317 111.895  1.00  0.00     0.099 C 
ATOM      7  O   UNL     1     124.368 124.391 111.106  1.00  0.00    -0.544 OA
ATOM      8  O   UNL     1     124.537 125.318 113.192  1.00  0.00    -0.544 OA
ENDBRANCH   1   6
BRANCH   1   9
ATOM      9  C   UNL     1     123.291 126.672 109.897  1.00  0.00     0.047 C 
ATOM     10  C   UNL     1     121.942 126.720 109.159  1.00  0.00     0.014 C 
ATOM     11  C   UNL     1     124.116 127.926 109.571  1.00  0.00     0.014 C 
ENDBRANCH   1   9
TORSDOF 3
ENDMDL
MODEL 4
REMARK VINA RESULT:    -3.350     23.211     23.993
REMARK INTER + INTRA:          -3.881
REMARK INTER:                  -3.815
REMARK INTRA:                  -0.066
REMARK UNBOUND:                -0.041
REMARK SMILES CC(C)[C@@H]([NH3+])C(=O)[O-]
REMARK SMILES IDX 4 1 5 2 6 6 7 7 8 8 2 9 1 10 3 11
REMARK H PARENT 5 3 5 4 5 5
REMARK Flexibility Score: inf
ROOT
ATOM      1  C   UNL     1     114.148 117.433 110.384  1.00  0.00     0.230 C 
ENDROOT
BRANCH   1   2
ATOM      2  N   UNL     1     113.926 118.197 111.622  1.00  0.00    -0.350 N 
ATOM      3  H   UNL     1     113.469 119.112 111.409  1.00  0.00     0.345 HD
ATOM      4  H   UNL     1     113.336 117.663 112.300  1.00  0.00     0.345 HD
ATOM      5  H   UNL     1     114.847 118.402 112.073  1.00  0.00     0.345 HD
ENDBRANCH   1   2
BRANCH   1   6
ATOM      6  C   UNL     1     113.956 115.954 110.620  1.00  0.00     0.099 C 
ATOM      7  O   UNL     1     113.235 115.264 109.851  1.00  0.00    -0.544 OA
ATOM      8  O   UNL     1     114.622 115.334 111.671  1.00  0.00    -0.544 OA
ENDBRANCH   1   6
BRANCH   1   9
ATOM      9  C   UNL     1     113.266 117.925 109.196  1.00  0.00     0.047 C 
ATOM     10  C   UNL     1     112.152 118.898 109.617  1.00  0.00     0.014 C 
ATOM     11  C   UNL     1     114.111 118.544 108.073  1.00  0.00     0.014 C 
ENDBRANCH   1   9
TORSDOF 3
ENDMDL
MODEL 5
REMARK VINA RESULT:    -3.339     20.431     20.943
REMARK INTER + INTRA:          -3.868
REMARK INTER:                  -3.792
REMARK INTRA:                  -0.076
REMARK UNBOUND:                -0.041
REMARK SMILES CC(C)[C@@H]([NH3+])C(=O)[O-]
REMARK SMILES IDX 4 1 5 2 6 6 7 7 8 8 2 9 1 10 3 11
REMARK H PARENT 5 3 5 4 5 5
REMARK Flexibility Score: inf
ROOT
ATOM      1  C   UNL     1     123.243 115.006 110.293  1.00  0.00     0.230 C 
ENDROOT
BRANCH   1   2
ATOM      2  N   UNL     1     122.614 115.462 109.043  1.00  0.00    -0.350 N 
ATOM      3  H   UNL     1     122.042 116.320 109.215  1.00  0.00     0.345 HD
ATOM      4  H   UNL     1     123.327 115.661 108.305  1.00  0.00     0.345 HD
ATOM      5  H   UNL     1     121.968 114.720 108.689  1.00  0.00     0.345 HD
ENDBRANCH   1   2
BRANCH   1   6
ATOM      6  C   UNL     1     122.277 114.189 111.116  1.00  0.00     0.099 C 
ATOM      7  O   UNL     1     121.171 113.819 110.639  1.00  0.00    -0.544 OA
ATOM      8  O   UNL     1     122.631 113.796 112.402  1.00  0.00    -0.544 OA
ENDBRANCH   1   6
BRANCH   1   9
ATOM      9  C   UNL     1     124.572 114.225 110.058  1.00  0.00     0.047 C 
ATOM     10  C   UNL     1     124.396 112.949 109.217  1.00  0.00     0.014 C 
ATOM     11  C   UNL     1     125.659 115.118 109.442  1.00  0.00     0.014 C 
ENDBRANCH   1   9
TORSDOF 3
ENDMDL
MODEL 6
REMARK VINA RESULT:    -3.328     16.846     17.398
REMARK INTER + INTRA:          -3.855
REMARK INTER:                  -3.792
REMARK INTRA:                  -0.064
REMARK UNBOUND:                -0.041
REMARK SMILES CC(C)[C@@H]([NH3+])C(=O)[O-]
REMARK SMILES IDX 4 1 5 2 6 6 7 7 8 8 2 9 1 10 3 11
REMARK H PARENT 5 3 5 4 5 5
REMARK Flexibility Score: inf
ROOT
ATOM      1  C   UNL     1     120.673 126.761 110.721  1.00  0.00     0.230 C 
ENDROOT
BRANCH   1   2
ATOM      2  N   UNL     1     121.510 126.784 111.931  1.00  0.00    -0.350 N 
ATOM      3  H   UNL     1     121.863 125.825 112.148  1.00  0.00     0.345 HD
ATOM      4  H   UNL     1     122.321 127.436 111.824  1.00  0.00     0.345 HD
ATOM      5  H   UNL     1     120.935 127.101 112.745  1.00  0.00     0.345 HD
ENDBRANCH   1   2
BRANCH   1   6
ATOM      6  C   UNL     1     119.505 127.709 110.855  1.00  0.00     0.099 C 
ATOM      7  O   UNL     1     119.362 128.676 110.062  1.00  0.00    -0.544 OA
ATOM      8  O   UNL     1     118.547 127.483 111.837  1.00  0.00    -0.544 OA
ENDBRANCH   1   6
BRANCH   1   9
ATOM      9  C   UNL     1     121.476 127.051 109.416  1.00  0.00     0.047 C 
ATOM     10  C   UNL     1     122.989 127.202 109.645  1.00  0.00     0.014 C 
ATOM     11  C   UNL     1     121.207 125.996 108.333  1.00  0.00     0.014 C 
ENDBRANCH   1   9
TORSDOF 3
ENDMDL
MODEL 7
REMARK VINA RESULT:    -3.273     16.583     17.327
REMARK INTER + INTRA:          -3.793
REMARK INTER:                  -3.739
REMARK INTRA:                  -0.054
REMARK UNBOUND:                -0.041
REMARK SMILES CC(C)[C@@H]([NH3+])C(=O)[O-]
REMARK SMILES IDX 4 1 5 2 6 6 7 7 8 8 2 9 1 10 3 11
REMARK H PARENT 5 3 5 4 5 5
REMARK Flexibility Score: inf
ROOT
ATOM      1  C   UNL     1     121.821 126.797 109.260  1.00  0.00     0.230 C 
ENDROOT
BRANCH   1   2
ATOM      2  N   UNL     1     121.527 125.457 108.727  1.00  0.00    -0.350 N 
ATOM      3  H   UNL     1     121.124 125.527 107.766  1.00  0.00     0.345 HD
ATOM      4  H   UNL     1     122.384 124.859 108.702  1.00  0.00     0.345 HD
ATOM      5  H   UNL     1     120.815 124.991 109.335  1.00  0.00     0.345 HD
ENDBRANCH   1   2
BRANCH   1   6
ATOM      6  C   UNL     1     120.650 127.333 110.048  1.00  0.00     0.099 C 
ATOM      7  O   UNL     1     119.699 127.925 109.473  1.00  0.00    -0.544 OA
ATOM      8  O   UNL     1     120.596 127.129 111.422  1.00  0.00    -0.544 OA
ENDBRANCH   1   6
BRANCH   1   9
ATOM      9  C   UNL     1     123.130 126.846 110.106  1.00  0.00     0.047 C 
ATOM     10  C   UNL     1     123.825 125.481 110.243  1.00  0.00     0.014 C 
ATOM     11  C   UNL     1     124.119 127.891 109.570  1.00  0.00     0.014 C 
ENDBRANCH   1   9
TORSDOF 3
ENDMDL
MODEL 8
REMARK VINA RESULT:    -3.255     19.807     20.572
REMARK INTER + INTRA:          -3.772
REMARK INTER:                  -3.712
REMARK INTRA:                  -0.060
REMARK UNBOUND:                -0.041
REMARK SMILES CC(C)[C@@H]([NH3+])C(=O)[O-]
REMARK SMILES IDX 4 1 5 2 6 6 7 7 8 8 2 9 1 10 3 11
REMARK H PARENT 5 3 5 4 5 5
REMARK Flexibility Score: inf
ROOT
ATOM      1  C   UNL     1     123.953 114.471 111.211  1.00  0.00     0.230 C 
ENDROOT
BRANCH   1   2
ATOM      2  N   UNL     1     124.194 115.861 111.629  1.00  0.00    -0.350 N 
ATOM      3  H   UNL     1     123.686 116.524 111.001  1.00  0.00     0.345 HD
ATOM      4  H   UNL     1     123.895 116.021 112.618  1.00  0.00     0.345 HD
ATOM      5  H   UNL     1     125.215 116.074 111.552  1.00  0.00     0.345 HD
ENDBRANCH   1   2
BRANCH   1   6
ATOM      6  C   UNL     1     122.549 114.039 111.560  1.00  0.00     0.099 C 
ATOM      7  O   UNL     1     122.258 113.664 112.727  1.00  0.00    -0.544 OA
ATOM      8  O   UNL     1     121.551 114.101 110.595  1.00  0.00    -0.544 OA
ENDBRANCH   1   6
BRANCH   1   9
ATOM      9  C   UNL     1     124.250 114.226 109.700  1.00  0.00     0.047 C 
ATOM     10  C   UNL     1     125.226 115.247 109.092  1.00  0.00     0.014 C 
ATOM     11  C   UNL     1     124.749 112.797 109.440  1.00  0.00     0.014 C 
ENDBRANCH   1   9
TORSDOF 3
ENDMDL
MODEL 9
REMARK VINA RESULT:    -3.247     20.282     20.969
REMARK INTER + INTRA:          -3.763
REMARK INTER:                  -3.688
REMARK INTRA:                  -0.075
REMARK UNBOUND:                -0.041
REMARK SMILES CC(C)[C@@H]([NH3+])C(=O)[O-]
REMARK SMILES IDX 4 1 5 2 6 6 7 7 8 8 2 9 1 10 3 11
REMARK H PARENT 5 3 5 4 5 5
REMARK Flexibility Score: inf
ROOT
ATOM      1  C   UNL     1     123.102 114.460 109.897  1.00  0.00     0.230 C 
ENDROOT
BRANCH   1   2
ATOM      2  N   UNL     1     123.211 114.274 111.352  1.00  0.00    -0.350 N 
ATOM      3  H   UNL     1     124.026 114.807 111.729  1.00  0.00     0.345 HD
ATOM      4  H   UNL     1     122.340 114.578 111.844  1.00  0.00     0.345 HD
ATOM      5  H   UNL     1     123.373 113.262 111.562  1.00  0.00     0.345 HD
ENDBRANCH   1   2
BRANCH   1   6
ATOM      6  C   UNL     1     122.661 115.865 109.565  1.00  0.00     0.099 C 
ATOM      7  O   UNL     1     122.613 116.756 110.454  1.00  0.00    -0.544 OA
ATOM      8  O   UNL     1     122.351 116.196 108.251  1.00  0.00    -0.544 OA
ENDBRANCH   1   6
BRANCH   1   9
ATOM      9  C   UNL     1     124.412 114.094 109.134  1.00  0.00     0.047 C 
ATOM     10  C   UNL     1     125.559 115.091 109.367  1.00  0.00     0.014 C 
ATOM     11  C   UNL     1     124.879 112.666 109.453  1.00  0.00     0.014 C 
ENDBRANCH   1   9
TORSDOF 3
ENDMDL
