MODEL 1
REMARK VINA RESULT:    -6.415      0.000      0.000
REMARK INTER + INTRA:          -7.402
REMARK INTER:                  -6.977
REMARK INTRA:                  -0.425
REMARK UNBOUND:                -0.425
REMARK SMILES C=C1C[C@]2(O)O[C@]3(C[C@@H]2C(C)C)[C@H](C)CC[C@@H]13
REMARK SMILES IDX 14 1 13 2 15 3 16 4 17 5 7 6 8 7 9 8 4 9 6 10 3 11 2 12 1 13
REMARK SMILES IDX 10 14 11 15 12 16 5 17
REMARK H PARENT 5 18
REMARK Flexibility Score: inf
ROOT
ATOM      1  C   UNL     1       6.966  19.159  29.955  1.00  0.00     0.011 C 
ATOM      2  C   UNL     1       8.286  19.604  30.606  1.00  0.00     0.019 C 
ATOM      3  C   UNL     1       8.297  21.128  30.895  1.00  0.00     0.007 C 
ATOM      4  C   UNL     1       9.268  21.783  29.892  1.00  0.00     0.011 C 
ATOM      5  C   UNL     1       9.545  20.686  28.874  1.00  0.00     0.047 C 
ATOM      6  C   UNL     1       9.506  19.394  29.691  1.00  0.00     0.081 C 
ATOM      7  C   UNL     1      10.803  19.152  30.513  1.00  0.00     0.046 C 
ATOM      8  C   UNL     1      11.570  18.140  29.670  1.00  0.00     0.054 C 
ATOM      9  C   UNL     1      10.771  18.169  28.350  1.00  0.00     0.173 C 
ATOM     10  O   UNL     1       9.423  18.329  28.771  1.00  0.00    -0.342 OA
ATOM     11  C   UNL     1      11.171  19.364  27.406  1.00  0.00     0.096 C 
ATOM     12  C   UNL     1      10.798  20.699  28.032  1.00  0.00    -0.066 C 
ATOM     13  C   UNL     1      11.416  21.833  27.676  1.00  0.00     0.008 C 
ENDROOT
BRANCH   8  14
ATOM     14  C   UNL     1      13.105  18.407  29.597  1.00  0.00    -0.009 C 
ATOM     15  C   UNL     1      13.910  17.204  30.117  1.00  0.00     0.008 C 
ATOM     16  C   UNL     1      13.483  19.648  30.425  1.00  0.00     0.008 C 
ENDBRANCH   8  14
BRANCH   9  17
ATOM     17  O   UNL     1      10.918  16.945  27.678  1.00  0.00    -0.365 OA
ATOM     18  H   UNL     1      10.730  17.116  26.718  1.00  0.00     0.214 HD
ENDBRANCH   9  17
TORSDOF 2
ENDMDL
MODEL 2
REMARK VINA RESULT:    -6.384      6.828      9.524
REMARK INTER + INTRA:          -7.369
REMARK INTER:                  -6.980
REMARK INTRA:                  -0.389
REMARK UNBOUND:                -0.425
REMARK SMILES C=C1C[C@]2(O)O[C@]3(C[C@@H]2C(C)C)[C@H](C)CC[C@@H]13
REMARK SMILES IDX 14 1 13 2 15 3 16 4 17 5 7 6 8 7 9 8 4 9 6 10 3 11 2 12 1 13
REMARK SMILES IDX 10 14 11 15 12 16 5 17
REMARK H PARENT 5 18
REMARK Flexibility Score: inf
ROOT
ATOM      1  C   UNL     1      10.953  29.183  24.705  1.00  0.00     0.011 C 
ATOM      2  C   UNL     1      11.417  28.911  26.146  1.00  0.00     0.019 C 
ATOM      3  C   UNL     1      12.611  27.923  26.187  1.00  0.00     0.007 C 
ATOM      4  C   UNL     1      12.086  26.583  26.742  1.00  0.00     0.011 C 
ATOM      5  C   UNL     1      10.573  26.737  26.711  1.00  0.00     0.047 C 
ATOM      6  C   UNL     1      10.338  28.221  27.001  1.00  0.00     0.081 C 
ATOM      7  C   UNL     1      10.486  28.579  28.507  1.00  0.00     0.046 C 
ATOM      8  C   UNL     1       9.044  28.654  28.994  1.00  0.00     0.054 C 
ATOM      9  C   UNL     1       8.284  28.035  27.801  1.00  0.00     0.173 C 
ATOM     10  O   UNL     1       8.998  28.498  26.664  1.00  0.00    -0.342 OA
ATOM     11  C   UNL     1       8.280  26.461  27.814  1.00  0.00     0.096 C 
ATOM     12  C   UNL     1       9.685  25.914  27.613  1.00  0.00    -0.066 C 
ATOM     13  C   UNL     1      10.021  24.685  28.029  1.00  0.00     0.008 C 
ENDROOT
BRANCH   8  14
ATOM     14  C   UNL     1       8.816  28.029  30.404  1.00  0.00    -0.009 C 
ATOM     15  C   UNL     1       8.400  29.096  31.431  1.00  0.00     0.008 C 
ATOM     16  C   UNL     1      10.094  27.333  30.906  1.00  0.00     0.008 C 
ENDBRANCH   8  14
BRANCH   9  17
ATOM     17  O   UNL     1       6.969  28.526  27.770  1.00  0.00    -0.365 OA
ATOM     18  H   UNL     1       6.687  28.665  28.712  1.00  0.00     0.214 HD
ENDBRANCH   9  17
TORSDOF 2
ENDMDL
MODEL 3
REMARK VINA RESULT:    -5.717      5.928      8.234
REMARK INTER + INTRA:          -6.643
REMARK INTER:                  -6.310
REMARK INTRA:                  -0.332
REMARK UNBOUND:                -0.425
REMARK SMILES C=C1C[C@]2(O)O[C@]3(C[C@@H]2C(C)C)[C@H](C)CC[C@@H]13
REMARK SMILES IDX 14 1 13 2 15 3 16 4 17 5 7 6 8 7 9 8 4 9 6 10 3 11 2 12 1 13
REMARK SMILES IDX 10 14 11 15 12 16 5 17
REMARK H PARENT 5 18
REMARK Flexibility Score: inf
ROOT
ATOM      1  C   UNL     1       5.253  11.878  25.460  1.00  0.00     0.011 C 
ATOM      2  C   UNL     1       4.321  12.622  26.431  1.00  0.00     0.019 C 
ATOM      3  C   UNL     1       2.892  12.776  25.848  1.00  0.00     0.007 C 
ATOM      4  C   UNL     1       2.700  14.259  25.474  1.00  0.00     0.011 C 
ATOM      5  C   UNL     1       4.101  14.846  25.560  1.00  0.00     0.047 C 
ATOM      6  C   UNL     1       4.767  14.071  26.697  1.00  0.00     0.081 C 
ATOM      7  C   UNL     1       4.325  14.555  28.107  1.00  0.00     0.046 C 
ATOM      8  C   UNL     1       5.483  15.441  28.553  1.00  0.00     0.054 C 
ATOM      9  C   UNL     1       6.277  15.595  27.239  1.00  0.00     0.173 C 
ATOM     10  O   UNL     1       6.151  14.326  26.613  1.00  0.00    -0.342 OA
ATOM     11  C   UNL     1       5.698  16.709  26.288  1.00  0.00     0.096 C 
ATOM     12  C   UNL     1       4.317  16.324  25.780  1.00  0.00    -0.066 C 
ATOM     13  C   UNL     1       3.448  17.252  25.356  1.00  0.00     0.008 C 
ENDROOT
BRANCH   8  14
ATOM     14  C   UNL     1       5.039  16.741  29.291  1.00  0.00    -0.009 C 
ATOM     15  C   UNL     1       6.052  17.146  30.376  1.00  0.00     0.008 C 
ATOM     16  C   UNL     1       3.661  16.552  29.950  1.00  0.00     0.008 C 
ENDBRANCH   8  14
BRANCH   9  17
ATOM     17  O   UNL     1       7.627  15.852  27.527  1.00  0.00    -0.365 OA
ATOM     18  H   UNL     1       7.861  16.709  27.083  1.00  0.00     0.214 HD
ENDBRANCH   9  17
TORSDOF 2
ENDMDL
MODEL 4
REMARK VINA RESULT:    -5.716      8.195      9.696
REMARK INTER + INTRA:          -6.642
REMARK INTER:                  -6.333
REMARK INTRA:                  -0.309
REMARK UNBOUND:                -0.425
REMARK SMILES C=C1C[C@]2(O)O[C@]3(C[C@@H]2C(C)C)[C@H](C)CC[C@@H]13
REMARK SMILES IDX 14 1 13 2 15 3 16 4 17 5 7 6 8 7 9 8 4 9 6 10 3 11 2 12 1 13
REMARK SMILES IDX 10 14 11 15 12 16 5 17
REMARK H PARENT 5 18
REMARK Flexibility Score: inf
ROOT
ATOM      1  C   UNL     1       8.669  26.915  28.143  1.00  0.00     0.011 C 
ATOM      2  C   UNL     1       9.085  28.145  27.318  1.00  0.00     0.019 C 
ATOM      3  C   UNL     1       8.041  28.477  26.220  1.00  0.00     0.007 C 
ATOM      4  C   UNL     1       8.662  28.102  24.860  1.00  0.00     0.011 C 
ATOM      5  C   UNL     1       9.897  27.292  25.228  1.00  0.00     0.047 C 
ATOM      6  C   UNL     1      10.389  27.924  26.530  1.00  0.00     0.081 C 
ATOM      7  C   UNL     1      11.157  29.258  26.310  1.00  0.00     0.046 C 
ATOM      8  C   UNL     1      12.620  28.842  26.412  1.00  0.00     0.054 C 
ATOM      9  C   UNL     1      12.507  27.304  26.368  1.00  0.00     0.173 C 
ATOM     10  O   UNL     1      11.319  27.028  27.096  1.00  0.00    -0.342 OA
ATOM     11  C   UNL     1      12.373  26.731  24.908  1.00  0.00     0.096 C 
ATOM     12  C   UNL     1      11.060  27.163  24.274  1.00  0.00    -0.066 C 
ATOM     13  C   UNL     1      10.910  27.206  22.943  1.00  0.00     0.008 C 
ENDROOT
BRANCH   8  14
ATOM     14  C   UNL     1      13.550  29.534  25.369  1.00  0.00    -0.009 C 
ATOM     15  C   UNL     1      14.979  29.700  25.913  1.00  0.00     0.008 C 
ATOM     16  C   UNL     1      13.004  30.920  24.984  1.00  0.00     0.008 C 
ENDBRANCH   8  14
BRANCH   9  17
ATOM     17  O   UNL     1      13.609  26.728  27.019  1.00  0.00    -0.365 OA
ATOM     18  H   UNL     1      13.422  25.756  27.106  1.00  0.00     0.214 HD
ENDBRANCH   9  17
TORSDOF 2
ENDMDL
MODEL 5
REMARK VINA RESULT:    -5.695      3.795      5.839
REMARK INTER + INTRA:          -6.619
REMARK INTER:                  -6.262
REMARK INTRA:                  -0.358
REMARK UNBOUND:                -0.425
REMARK SMILES C=C1C[C@]2(O)O[C@]3(C[C@@H]2C(C)C)[C@H](C)CC[C@@H]13
REMARK SMILES IDX 14 1 13 2 15 3 16 4 17 5 7 6 8 7 9 8 4 9 6 10 3 11 2 12 1 13
REMARK SMILES IDX 10 14 11 15 12 16 5 17
REMARK H PARENT 5 18
REMARK Flexibility Score: inf
ROOT
ATOM      1  C   UNL     1       4.114  16.671  25.926  1.00  0.00     0.011 C 
ATOM      2  C   UNL     1       4.722  15.620  26.870  1.00  0.00     0.019 C 
ATOM      3  C   UNL     1       3.665  15.055  27.854  1.00  0.00     0.007 C 
ATOM      4  C   UNL     1       3.983  15.621  29.253  1.00  0.00     0.011 C 
ATOM      5  C   UNL     1       5.003  16.718  28.984  1.00  0.00     0.047 C 
ATOM      6  C   UNL     1       5.810  16.201  27.792  1.00  0.00     0.081 C 
ATOM      7  C   UNL     1       6.860  15.125  28.185  1.00  0.00     0.046 C 
ATOM      8  C   UNL     1       8.166  15.910  28.233  1.00  0.00     0.054 C 
ATOM      9  C   UNL     1       7.654  17.364  28.166  1.00  0.00     0.173 C 
ATOM     10  O   UNL     1       6.541  17.295  27.286  1.00  0.00    -0.342 OA
ATOM     11  C   UNL     1       7.185  17.924  29.562  1.00  0.00     0.096 C 
ATOM     12  C   UNL     1       5.957  17.178  30.060  1.00  0.00    -0.066 C 
ATOM     13  C   UNL     1       5.650  17.135  31.364  1.00  0.00     0.008 C 
ENDROOT
BRANCH   8  14
ATOM     14  C   UNL     1       9.098  15.520  29.420  1.00  0.00    -0.009 C 
ATOM     15  C   UNL     1      10.578  15.532  29.001  1.00  0.00     0.008 C 
ATOM     16  C   UNL     1       8.747  14.120  29.954  1.00  0.00     0.008 C 
ENDBRANCH   8  14
BRANCH   9  17
ATOM     17  O   UNL     1       8.645  18.192  27.616  1.00  0.00    -0.365 OA
ATOM     18  H   UNL     1       9.491  17.671  27.610  1.00  0.00     0.214 HD
ENDBRANCH   9  17
TORSDOF 2
ENDMDL
MODEL 6
REMARK VINA RESULT:    -5.656      2.085      3.284
REMARK INTER + INTRA:          -6.577
REMARK INTER:                  -6.239
REMARK INTRA:                  -0.338
REMARK UNBOUND:                -0.425
REMARK SMILES C=C1C[C@]2(O)O[C@]3(C[C@@H]2C(C)C)[C@H](C)CC[C@@H]13
REMARK SMILES IDX 14 1 13 2 15 3 16 4 17 5 7 6 8 7 9 8 4 9 6 10 3 11 2 12 1 13
REMARK SMILES IDX 10 14 11 15 12 16 5 17
REMARK H PARENT 5 18
REMARK Flexibility Score: inf
ROOT
ATOM      1  C   UNL     1       9.018  20.866  31.391  1.00  0.00     0.011 C 
ATOM      2  C   UNL     1       9.868  20.900  30.109  1.00  0.00     0.019 C 
ATOM      3  C   UNL     1       9.038  20.501  28.861  1.00  0.00     0.007 C 
ATOM      4  C   UNL     1       9.509  19.101  28.419  1.00  0.00     0.011 C 
ATOM      5  C   UNL     1      10.358  18.611  29.583  1.00  0.00     0.047 C 
ATOM      6  C   UNL     1      11.020  19.878  30.128  1.00  0.00     0.081 C 
ATOM      7  C   UNL     1      12.223  20.357  29.267  1.00  0.00     0.046 C 
ATOM      8  C   UNL     1      13.433  19.856  30.047  1.00  0.00     0.054 C 
ATOM      9  C   UNL     1      12.771  18.906  31.067  1.00  0.00     0.173 C 
ATOM     10  O   UNL     1      11.550  19.553  31.393  1.00  0.00    -0.342 OA
ATOM     11  C   UNL     1      12.468  17.476  30.482  1.00  0.00     0.096 C 
ATOM     12  C   UNL     1      11.414  17.550  29.388  1.00  0.00    -0.066 C 
ATOM     13  C   UNL     1      11.317  16.600  28.448  1.00  0.00     0.008 C 
ENDROOT
BRANCH   8  14
ATOM     14  C   UNL     1      14.572  19.281  29.150  1.00  0.00    -0.009 C 
ATOM     15  C   UNL     1      15.811  20.193  29.161  1.00  0.00     0.008 C 
ATOM     16  C   UNL     1      14.093  19.118  27.697  1.00  0.00     0.008 C 
ENDBRANCH   8  14
BRANCH   9  17
ATOM     17  O   UNL     1      13.577  18.804  32.213  1.00  0.00    -0.365 OA
ATOM     18  H   UNL     1      13.879  19.723  32.439  1.00  0.00     0.214 HD
ENDBRANCH   9  17
TORSDOF 2
ENDMDL
MODEL 7
REMARK VINA RESULT:    -5.638      6.999      9.180
REMARK INTER + INTRA:          -6.557
REMARK INTER:                  -6.205
REMARK INTRA:                  -0.352
REMARK UNBOUND:                -0.425
REMARK SMILES C=C1C[C@]2(O)O[C@]3(C[C@@H]2C(C)C)[C@H](C)CC[C@@H]13
REMARK SMILES IDX 14 1 13 2 15 3 16 4 17 5 7 6 8 7 9 8 4 9 6 10 3 11 2 12 1 13
REMARK SMILES IDX 10 14 11 15 12 16 5 17
REMARK H PARENT 5 18
REMARK Flexibility Score: inf
ROOT
ATOM      1  C   UNL     1       9.715  24.890  28.364  1.00  0.00     0.011 C 
ATOM      2  C   UNL     1      10.105  26.378  28.392  1.00  0.00     0.019 C 
ATOM      3  C   UNL     1       8.945  27.264  28.918  1.00  0.00     0.007 C 
ATOM      4  C   UNL     1       8.383  28.052  27.718  1.00  0.00     0.011 C 
ATOM      5  C   UNL     1       9.013  27.381  26.506  1.00  0.00     0.047 C 
ATOM      6  C   UNL     1      10.397  26.946  26.991  1.00  0.00     0.081 C 
ATOM      7  C   UNL     1      11.418  28.116  27.051  1.00  0.00     0.046 C 
ATOM      8  C   UNL     1      12.235  27.935  25.776  1.00  0.00     0.054 C 
ATOM      9  C   UNL     1      11.390  26.892  25.015  1.00  0.00     0.173 C 
ATOM     10  O   UNL     1      10.899  26.037  26.038  1.00  0.00    -0.342 OA
ATOM     11  C   UNL     1      10.178  27.523  24.232  1.00  0.00     0.096 C 
ATOM     12  C   UNL     1       9.160  28.114  25.195  1.00  0.00    -0.066 C 
ATOM     13  C   UNL     1       8.311  29.076  24.807  1.00  0.00     0.008 C 
ENDROOT
BRANCH   8  14
ATOM     14  C   UNL     1      12.575  29.269  25.045  1.00  0.00    -0.009 C 
ATOM     15  C   UNL     1      14.080  29.582  25.117  1.00  0.00     0.008 C 
ATOM     16  C   UNL     1      11.797  30.445  25.663  1.00  0.00     0.008 C 
ENDBRANCH   8  14
BRANCH   9  17
ATOM     17  O   UNL     1      12.211  26.164  24.139  1.00  0.00    -0.365 OA
ATOM     18  H   UNL     1      13.147  26.445  24.315  1.00  0.00     0.214 HD
ENDBRANCH   9  17
TORSDOF 2
ENDMDL
MODEL 8
REMARK VINA RESULT:    -5.577      1.739      4.823
REMARK INTER + INTRA:          -6.491
REMARK INTER:                  -6.276
REMARK INTRA:                  -0.215
REMARK UNBOUND:                -0.425
REMARK SMILES C=C1C[C@]2(O)O[C@]3(C[C@@H]2C(C)C)[C@H](C)CC[C@@H]13
REMARK SMILES IDX 14 1 13 2 15 3 16 4 17 5 7 6 8 7 9 8 4 9 6 10 3 11 2 12 1 13
REMARK SMILES IDX 10 14 11 15 12 16 5 17
REMARK H PARENT 5 18
REMARK Flexibility Score: inf
ROOT
ATOM      1  C   UNL     1      15.403  19.143  29.134  1.00  0.00     0.011 C 
ATOM      2  C   UNL     1      14.285  19.068  30.188  1.00  0.00     0.019 C 
ATOM      3  C   UNL     1      14.285  17.704  30.927  1.00  0.00     0.007 C 
ATOM      4  C   UNL     1      13.055  16.913  30.439  1.00  0.00     0.011 C 
ATOM      5  C   UNL     1      12.566  17.696  29.230  1.00  0.00     0.047 C 
ATOM      6  C   UNL     1      12.876  19.154  29.573  1.00  0.00     0.081 C 
ATOM      7  C   UNL     1      11.856  19.778  30.566  1.00  0.00     0.046 C 
ATOM      8  C   UNL     1      10.937  20.591  29.662  1.00  0.00     0.054 C 
ATOM      9  C   UNL     1      11.355  20.087  28.264  1.00  0.00     0.173 C 
ATOM     10  O   UNL     1      12.758  19.892  28.377  1.00  0.00    -0.342 OA
ATOM     11  C   UNL     1      10.667  18.730  27.860  1.00  0.00     0.096 C 
ATOM     12  C   UNL     1      11.135  17.596  28.759  1.00  0.00    -0.066 C 
ATOM     13  C   UNL     1      10.395  16.491  28.930  1.00  0.00     0.008 C 
ENDROOT
BRANCH   8  14
ATOM     14  C   UNL     1       9.429  20.504  30.045  1.00  0.00    -0.009 C 
ATOM     15  C   UNL     1       8.624  21.663  29.433  1.00  0.00     0.008 C 
ATOM     16  C   UNL     1       9.251  20.533  31.574  1.00  0.00     0.008 C 
ENDBRANCH   8  14
BRANCH   9  17
ATOM     17  O   UNL     1      11.088  21.075  27.303  1.00  0.00    -0.365 OA
ATOM     18  H   UNL     1      10.108  21.069  27.144  1.00  0.00     0.214 HD
ENDBRANCH   9  17
TORSDOF 2
ENDMDL
MODEL 9
REMARK VINA RESULT:    -5.429      2.446      4.060
REMARK INTER + INTRA:          -6.330
REMARK INTER:                  -5.949
REMARK INTRA:                  -0.382
REMARK UNBOUND:                -0.425
REMARK SMILES C=C1C[C@]2(O)O[C@]3(C[C@@H]2C(C)C)[C@H](C)CC[C@@H]13
REMARK SMILES IDX 14 1 13 2 15 3 16 4 17 5 7 6 8 7 9 8 4 9 6 10 3 11 2 12 1 13
REMARK SMILES IDX 10 14 11 15 12 16 5 17
REMARK H PARENT 5 18
REMARK Flexibility Score: inf
ROOT
ATOM      1  C   UNL     1      11.035  22.018  27.903  1.00  0.00     0.011 C 
ATOM      2  C   UNL     1      11.104  20.494  28.102  1.00  0.00     0.019 C 
ATOM      3  C   UNL     1      10.143  20.019  29.223  1.00  0.00     0.007 C 
ATOM      4  C   UNL     1      11.008  19.613  30.434  1.00  0.00     0.011 C 
ATOM      5  C   UNL     1      12.392  20.148  30.096  1.00  0.00     0.047 C 
ATOM      6  C   UNL     1      12.488  20.015  28.576  1.00  0.00     0.081 C 
ATOM      7  C   UNL     1      12.781  18.562  28.107  1.00  0.00     0.046 C 
ATOM      8  C   UNL     1      14.277  18.583  27.812  1.00  0.00     0.054 C 
ATOM      9  C   UNL     1      14.695  19.932  28.434  1.00  0.00     0.173 C 
ATOM     10  O   UNL     1      13.594  20.788  28.165  1.00  0.00    -0.342 OA
ATOM     11  C   UNL     1      14.932  19.854  29.989  1.00  0.00     0.096 C 
ATOM     12  C   UNL     1      13.632  19.557  30.721  1.00  0.00    -0.066 C 
ATOM     13  C   UNL     1      13.631  19.001  31.940  1.00  0.00     0.008 C 
ENDROOT
BRANCH   8  14
ATOM     14  C   UNL     1      15.033  17.301  28.277  1.00  0.00    -0.009 C 
ATOM     15  C   UNL     1      15.582  16.507  27.080  1.00  0.00     0.008 C 
ATOM     16  C   UNL     1      14.105  16.385  29.093  1.00  0.00     0.008 C 
ENDBRANCH   8  14
BRANCH   9  17
ATOM     17  O   UNL     1      15.844  20.417  27.789  1.00  0.00    -0.365 OA
ATOM     18  H   UNL     1      16.277  19.642  27.344  1.00  0.00     0.214 HD
ENDBRANCH   9  17
TORSDOF 2
ENDMDL
