MODEL 1
REMARK VINA RESULT:    -8.252      0.000      0.000
REMARK INTER + INTRA:          -9.896
REMARK INTER:                 -10.182
REMARK INTRA:                   0.286
REMARK UNBOUND:                 0.286
REMARK SMILES COc1ccc(-c2cc3cc(O)c(OC)cc3o2)c(O)c1
REMARK SMILES IDX 7 1 8 2 9 3 10 4 11 5 13 6 16 7 17 8 18 9 6 10 3 11 21 12
REMARK SMILES IDX 4 13 19 14 5 15 2 16 1 17 20 18 12 20 14 22 15 23
REMARK H PARENT 20 19 12 21
REMARK Flexibility Score: inf
ROOT
ATOM      1  C   UNL     1     -29.114  57.603   1.691  1.00  0.00     0.139 A 
ATOM      2  C   UNL     1     -29.881  57.780   0.538  1.00  0.00     0.060 A 
ATOM      3  C   UNL     1     -29.016  57.505  -0.494  1.00  0.00     0.025 A 
ATOM      4  C   UNL     1     -29.207  57.518  -1.871  1.00  0.00     0.062 A 
ATOM      5  C   UNL     1     -28.114  57.185  -2.694  1.00  0.00     0.158 A 
ATOM      6  C   UNL     1     -26.857  56.846  -2.122  1.00  0.00     0.164 A 
ATOM      7  C   UNL     1     -26.708  56.845  -0.711  1.00  0.00     0.098 A 
ATOM      8  C   UNL     1     -27.812  57.181   0.065  1.00  0.00     0.138 A 
ATOM      9  O   UNL     1     -27.883  57.240   1.373  1.00  0.00    -0.456 OA
ENDROOT
BRANCH   1  10
ATOM     10  C   UNL     1     -29.599  57.759   3.081  1.00  0.00     0.059 A 
ATOM     11  C   UNL     1     -30.534  57.888   5.743  1.00  0.00     0.122 A 
ATOM     12  C   UNL     1     -29.285  58.416   5.406  1.00  0.00     0.093 A 
ATOM     13  C   UNL     1     -31.325  57.305   4.740  1.00  0.00     0.047 A 
ATOM     14  C   UNL     1     -28.815  58.376   4.087  1.00  0.00     0.130 A 
ATOM     15  C   UNL     1     -30.861  57.242   3.425  1.00  0.00     0.020 A 
BRANCH  11  16
ATOM     16  O   UNL     1     -30.951  57.967   7.080  1.00  0.00    -0.497 OA
ATOM     17  C   UNL     1     -30.130  58.418   8.154  1.00  0.00     0.278 C 
ENDBRANCH  11  16
BRANCH  14  18
ATOM     18  O   UNL     1     -27.588  58.986   3.816  1.00  0.00    -0.507 OA
ATOM     19  H   UNL     1     -27.359  59.403   2.924  1.00  0.00     0.293 HD
ENDBRANCH  14  18
ENDBRANCH   1  10
BRANCH   5  20
ATOM     20  O   UNL     1     -28.292  57.194  -4.078  1.00  0.00    -0.504 OA
ATOM     21  H   UNL     1     -27.529  57.373  -4.718  1.00  0.00     0.293 HD
ENDBRANCH   5  20
BRANCH   6  22
ATOM     22  O   UNL     1     -25.793  56.518  -2.975  1.00  0.00    -0.493 OA
ATOM     23  C   UNL     1     -25.754  56.818  -4.367  1.00  0.00     0.278 C 
ENDBRANCH   6  22
TORSDOF 5
ENDMDL
MODEL 2
REMARK VINA RESULT:    -8.161      0.943      7.744
REMARK INTER + INTRA:          -9.784
REMARK INTER:                  -9.988
REMARK INTRA:                   0.205
REMARK UNBOUND:                 0.286
REMARK SMILES COc1ccc(-c2cc3cc(O)c(OC)cc3o2)c(O)c1
REMARK SMILES IDX 7 1 8 2 9 3 10 4 11 5 13 6 16 7 17 8 18 9 6 10 3 11 21 12
REMARK SMILES IDX 4 13 19 14 5 15 2 16 1 17 20 18 12 20 14 22 15 23
REMARK H PARENT 20 19 12 21
REMARK Flexibility Score: inf
ROOT
ATOM      1  C   UNL     1     -28.963  57.449   1.131  1.00  0.00     0.139 A 
ATOM      2  C   UNL     1     -30.223  57.044   1.574  1.00  0.00     0.060 A 
ATOM      3  C   UNL     1     -30.258  57.421   2.895  1.00  0.00     0.025 A 
ATOM      4  C   UNL     1     -31.252  57.280   3.857  1.00  0.00     0.062 A 
ATOM      5  C   UNL     1     -30.997  57.774   5.150  1.00  0.00     0.158 A 
ATOM      6  C   UNL     1     -29.755  58.399   5.452  1.00  0.00     0.164 A 
ATOM      7  C   UNL     1     -28.770  58.522   4.439  1.00  0.00     0.098 A 
ATOM      8  C   UNL     1     -29.062  58.020   3.175  1.00  0.00     0.138 A 
ATOM      9  O   UNL     1     -28.296  58.033   2.112  1.00  0.00    -0.456 OA
ENDROOT
BRANCH   1  10
ATOM     10  C   UNL     1     -28.441  57.288  -0.245  1.00  0.00     0.059 A 
ATOM     11  C   UNL     1     -27.482  57.145  -2.899  1.00  0.00     0.122 A 
ATOM     12  C   UNL     1     -26.628  56.886  -1.823  1.00  0.00     0.093 A 
ATOM     13  C   UNL     1     -28.827  57.464  -2.645  1.00  0.00     0.047 A 
ATOM     14  C   UNL     1     -27.093  56.936  -0.503  1.00  0.00     0.130 A 
ATOM     15  C   UNL     1     -29.298  57.534  -1.333  1.00  0.00     0.020 A 
BRANCH  11  16
ATOM     16  O   UNL     1     -26.959  57.071  -4.198  1.00  0.00    -0.497 OA
ATOM     17  C   UNL     1     -25.585  56.846  -4.500  1.00  0.00     0.278 C 
ENDBRANCH  11  16
BRANCH  14  18
ATOM     18  O   UNL     1     -26.197  56.597   0.513  1.00  0.00    -0.507 OA
ATOM     19  H   UNL     1     -26.152  55.678   0.934  1.00  0.00     0.293 HD
ENDBRANCH  14  18
ENDBRANCH   1  10
BRANCH   5  20
ATOM     20  O   UNL     1     -31.986  57.639   6.125  1.00  0.00    -0.504 OA
ATOM     21  H   UNL     1     -32.674  56.897   6.095  1.00  0.00     0.293 HD
ENDBRANCH   5  20
BRANCH   6  22
ATOM     22  O   UNL     1     -29.539  58.880   6.752  1.00  0.00    -0.493 OA
ATOM     23  C   UNL     1     -30.205  58.392   7.913  1.00  0.00     0.278 C 
ENDBRANCH   6  22
TORSDOF 5
ENDMDL
MODEL 3
REMARK VINA RESULT:    -7.775      9.323     13.574
REMARK INTER + INTRA:          -9.307
REMARK INTER:                  -8.695
REMARK INTRA:                  -0.613
REMARK UNBOUND:                 0.286
REMARK SMILES COc1ccc(-c2cc3cc(O)c(OC)cc3o2)c(O)c1
REMARK SMILES IDX 7 1 8 2 9 3 10 4 11 5 13 6 16 7 17 8 18 9 6 10 3 11 21 12
REMARK SMILES IDX 4 13 19 14 5 15 2 16 1 17 20 18 12 20 14 22 15 23
REMARK H PARENT 20 19 12 21
REMARK Flexibility Score: inf
ROOT
ATOM      1  C   UNL     1     -17.737  60.142  -0.744  1.00  0.00     0.139 A 
ATOM      2  C   UNL     1     -17.298  59.675   0.496  1.00  0.00     0.060 A 
ATOM      3  C   UNL     1     -18.426  59.675   1.281  1.00  0.00     0.025 A 
ATOM      4  C   UNL     1     -18.611  59.317   2.612  1.00  0.00     0.062 A 
ATOM      5  C   UNL     1     -19.906  59.424   3.153  1.00  0.00     0.158 A 
ATOM      6  C   UNL     1     -20.986  59.887   2.352  1.00  0.00     0.164 A 
ATOM      7  C   UNL     1     -20.752  60.242   0.998  1.00  0.00     0.098 A 
ATOM      8  C   UNL     1     -19.458  60.121   0.504  1.00  0.00     0.138 A 
ATOM      9  O   UNL     1     -19.035  60.395  -0.707  1.00  0.00    -0.456 OA
ENDROOT
BRANCH   1  10
ATOM     10  C   UNL     1     -16.896  60.304  -1.951  1.00  0.00     0.059 A 
ATOM     11  C   UNL     1     -15.168  60.526  -4.174  1.00  0.00     0.122 A 
ATOM     12  C   UNL     1     -16.405  59.889  -4.301  1.00  0.00     0.093 A 
ATOM     13  C   UNL     1     -14.799  61.067  -2.931  1.00  0.00     0.047 A 
ATOM     14  C   UNL     1     -17.280  59.787  -3.212  1.00  0.00     0.130 A 
ATOM     15  C   UNL     1     -15.655  60.955  -1.834  1.00  0.00     0.020 A 
BRANCH  11  16
ATOM     16  O   UNL     1     -14.339  60.603  -5.304  1.00  0.00    -0.497 OA
ATOM     17  C   UNL     1     -13.071  61.252  -5.328  1.00  0.00     0.278 C 
ENDBRANCH  11  16
BRANCH  14  18
ATOM     18  O   UNL     1     -18.527  59.198  -3.435  1.00  0.00    -0.507 OA
ATOM     19  H   UNL     1     -18.755  58.675  -4.270  1.00  0.00     0.293 HD
ENDBRANCH  14  18
ENDBRANCH   1  10
BRANCH   5  20
ATOM     20  O   UNL     1     -20.105  59.067   4.487  1.00  0.00    -0.504 OA
ATOM     21  H   UNL     1     -20.626  59.650   5.129  1.00  0.00     0.293 HD
ENDBRANCH   5  20
BRANCH   6  22
ATOM     22  O   UNL     1     -22.263  59.979   2.927  1.00  0.00    -0.493 OA
ATOM     23  C   UNL     1     -23.351  59.116   2.616  1.00  0.00     0.278 C 
ENDBRANCH   6  22
TORSDOF 5
ENDMDL
MODEL 4
REMARK VINA RESULT:    -7.693      9.091     12.453
REMARK INTER + INTRA:          -9.206
REMARK INTER:                  -8.618
REMARK INTRA:                  -0.588
REMARK UNBOUND:                 0.286
REMARK SMILES COc1ccc(-c2cc3cc(O)c(OC)cc3o2)c(O)c1
REMARK SMILES IDX 7 1 8 2 9 3 10 4 11 5 13 6 16 7 17 8 18 9 6 10 3 11 21 12
REMARK SMILES IDX 4 13 19 14 5 15 2 16 1 17 20 18 12 20 14 22 15 23
REMARK H PARENT 20 19 12 21
REMARK Flexibility Score: inf
ROOT
ATOM      1  C   UNL     1     -20.074  58.710   5.180  1.00  0.00     0.139 A 
ATOM      2  C   UNL     1     -21.139  57.957   5.674  1.00  0.00     0.060 A 
ATOM      3  C   UNL     1     -20.928  57.914   7.032  1.00  0.00     0.025 A 
ATOM      4  C   UNL     1     -21.655  57.306   8.049  1.00  0.00     0.062 A 
ATOM      5  C   UNL     1     -21.185  57.438   9.369  1.00  0.00     0.158 A 
ATOM      6  C   UNL     1     -19.999  58.174   9.642  1.00  0.00     0.164 A 
ATOM      7  C   UNL     1     -19.288  58.778   8.573  1.00  0.00     0.098 A 
ATOM      8  C   UNL     1     -19.788  58.624   7.284  1.00  0.00     0.138 A 
ATOM      9  O   UNL     1     -19.286  59.097   6.169  1.00  0.00    -0.456 OA
ENDROOT
BRANCH   1  10
ATOM     10  C   UNL     1     -19.855  59.066   3.760  1.00  0.00     0.059 A 
ATOM     11  C   UNL     1     -19.481  59.905   1.088  1.00  0.00     0.122 A 
ATOM     12  C   UNL     1     -18.420  59.355   1.813  1.00  0.00     0.093 A 
ATOM     13  C   UNL     1     -20.740  60.022   1.701  1.00  0.00     0.047 A 
ATOM     14  C   UNL     1     -18.594  58.918   3.132  1.00  0.00     0.130 A 
ATOM     15  C   UNL     1     -20.922  59.608   3.021  1.00  0.00     0.020 A 
BRANCH  11  16
ATOM     16  O   UNL     1     -19.245  60.316  -0.232  1.00  0.00    -0.497 OA
ATOM     17  C   UNL     1     -18.149  59.875  -1.027  1.00  0.00     0.278 C 
ENDBRANCH  11  16
BRANCH  14  18
ATOM     18  O   UNL     1     -17.505  58.317   3.766  1.00  0.00    -0.507 OA
ATOM     19  H   UNL     1     -16.609  58.771   3.883  1.00  0.00     0.293 HD
ENDBRANCH  14  18
ENDBRANCH   1  10
BRANCH   5  20
ATOM     20  O   UNL     1     -21.905  56.832  10.399  1.00  0.00    -0.504 OA
ATOM     21  H   UNL     1     -22.697  56.228  10.220  1.00  0.00     0.293 HD
ENDBRANCH   5  20
BRANCH   6  22
ATOM     22  O   UNL     1     -19.562  58.283  10.971  1.00  0.00    -0.493 OA
ATOM     23  C   UNL     1     -18.646  57.389  11.595  1.00  0.00     0.278 C 
ENDBRANCH   6  22
TORSDOF 5
ENDMDL
MODEL 5
REMARK VINA RESULT:    -7.651      5.156      6.909
REMARK INTER + INTRA:          -9.154
REMARK INTER:                  -8.746
REMARK INTRA:                  -0.408
REMARK UNBOUND:                 0.286
REMARK SMILES COc1ccc(-c2cc3cc(O)c(OC)cc3o2)c(O)c1
REMARK SMILES IDX 7 1 8 2 9 3 10 4 11 5 13 6 16 7 17 8 18 9 6 10 3 11 21 12
REMARK SMILES IDX 4 13 19 14 5 15 2 16 1 17 20 18 12 20 14 22 15 23
REMARK H PARENT 20 19 12 21
REMARK Flexibility Score: inf
ROOT
ATOM      1  C   UNL     1     -24.466  58.015   2.898  1.00  0.00     0.139 A 
ATOM      2  C   UNL     1     -24.689  57.401   1.664  1.00  0.00     0.060 A 
ATOM      3  C   UNL     1     -26.055  57.418   1.516  1.00  0.00     0.025 A 
ATOM      4  C   UNL     1     -26.866  56.945   0.490  1.00  0.00     0.062 A 
ATOM      5  C   UNL     1     -28.259  57.107   0.618  1.00  0.00     0.158 A 
ATOM      6  C   UNL     1     -28.808  57.737   1.769  1.00  0.00     0.164 A 
ATOM      7  C   UNL     1     -27.943  58.205   2.791  1.00  0.00     0.098 A 
ATOM      8  C   UNL     1     -26.574  58.025   2.625  1.00  0.00     0.138 A 
ATOM      9  O   UNL     1     -25.614  58.380   3.444  1.00  0.00    -0.456 OA
ENDROOT
BRANCH   1  10
ATOM     10  C   UNL     1     -23.141  58.264   3.510  1.00  0.00     0.059 A 
ATOM     11  C   UNL     1     -20.566  58.583   4.625  1.00  0.00     0.122 A 
ATOM     12  C   UNL     1     -21.019  59.453   3.630  1.00  0.00     0.093 A 
ATOM     13  C   UNL     1     -21.412  57.555   5.074  1.00  0.00     0.047 A 
ATOM     14  C   UNL     1     -22.300  59.319   3.080  1.00  0.00     0.130 A 
ATOM     15  C   UNL     1     -22.684  57.399   4.520  1.00  0.00     0.020 A 
BRANCH  11  16
ATOM     16  O   UNL     1     -19.276  58.774   5.142  1.00  0.00    -0.497 OA
ATOM     17  C   UNL     1     -18.985  58.990   6.520  1.00  0.00     0.278 C 
ENDBRANCH  11  16
BRANCH  14  18
ATOM     18  O   UNL     1     -22.705  60.269   2.140  1.00  0.00    -0.507 OA
ATOM     19  H   UNL     1     -23.657  60.600   2.058  1.00  0.00     0.293 HD
ENDBRANCH  14  18
ENDBRANCH   1  10
BRANCH   5  20
ATOM     20  O   UNL     1     -29.084  56.637  -0.403  1.00  0.00    -0.504 OA
ATOM     21  H   UNL     1     -29.453  57.247  -1.122  1.00  0.00     0.293 HD
ENDBRANCH   5  20
BRANCH   6  22
ATOM     22  O   UNL     1     -30.201  57.880   1.860  1.00  0.00    -0.493 OA
ATOM     23  C   UNL     1     -31.028  57.161   2.769  1.00  0.00     0.278 C 
ENDBRANCH   6  22
TORSDOF 5
ENDMDL
MODEL 6
REMARK VINA RESULT:    -7.648      9.049      9.994
REMARK INTER + INTRA:          -9.151
REMARK INTER:                  -8.570
REMARK INTRA:                  -0.581
REMARK UNBOUND:                 0.286
REMARK SMILES COc1ccc(-c2cc3cc(O)c(OC)cc3o2)c(O)c1
REMARK SMILES IDX 7 1 8 2 9 3 10 4 11 5 13 6 16 7 17 8 18 9 6 10 3 11 21 12
REMARK SMILES IDX 4 13 19 14 5 15 2 16 1 17 20 18 12 20 14 22 15 23
REMARK H PARENT 20 19 12 21
REMARK Flexibility Score: inf
ROOT
ATOM      1  C   UNL     1     -19.733  58.816   4.104  1.00  0.00     0.139 A 
ATOM      2  C   UNL     1     -20.377  59.363   2.994  1.00  0.00     0.060 A 
ATOM      3  C   UNL     1     -19.369  59.575   2.083  1.00  0.00     0.025 A 
ATOM      4  C   UNL     1     -19.399  60.103   0.797  1.00  0.00     0.062 A 
ATOM      5  C   UNL     1     -18.184  60.198   0.092  1.00  0.00     0.158 A 
ATOM      6  C   UNL     1     -16.968  59.763   0.689  1.00  0.00     0.164 A 
ATOM      7  C   UNL     1     -16.985  59.231   2.004  1.00  0.00     0.098 A 
ATOM      8  C   UNL     1     -18.206  59.155   2.665  1.00  0.00     0.138 A 
ATOM      9  O   UNL     1     -18.436  58.701   3.873  1.00  0.00    -0.456 OA
ENDROOT
BRANCH   1  10
ATOM     10  C   UNL     1     -20.392  58.387   5.358  1.00  0.00     0.059 A 
ATOM     11  C   UNL     1     -21.618  57.407   7.707  1.00  0.00     0.122 A 
ATOM     12  C   UNL     1     -20.515  58.261   7.788  1.00  0.00     0.093 A 
ATOM     13  C   UNL     1     -22.118  57.052   6.443  1.00  0.00     0.047 A 
ATOM     14  C   UNL     1     -19.908  58.769   6.632  1.00  0.00     0.130 A 
ATOM     15  C   UNL     1     -21.511  57.537   5.284  1.00  0.00     0.020 A 
BRANCH  11  16
ATOM     16  O   UNL     1     -22.187  56.938   8.900  1.00  0.00    -0.497 OA
ATOM     17  C   UNL     1     -22.260  57.692  10.107  1.00  0.00     0.278 C 
ENDBRANCH  11  16
BRANCH  14  18
ATOM     18  O   UNL     1     -18.854  59.672   6.797  1.00  0.00    -0.507 OA
ATOM     19  H   UNL     1     -18.987  60.664   6.937  1.00  0.00     0.293 HD
ENDBRANCH  14  18
ENDBRANCH   1  10
BRANCH   5  20
ATOM     20  O   UNL     1     -18.200  60.725  -1.199  1.00  0.00    -0.504 OA
ATOM     21  H   UNL     1     -18.821  61.478  -1.466  1.00  0.00     0.293 HD
ENDBRANCH   5  20
BRANCH   6  22
ATOM     22  O   UNL     1     -15.778  59.873  -0.046  1.00  0.00    -0.493 OA
ATOM     23  C   UNL     1     -14.902  60.995   0.002  1.00  0.00     0.278 C 
ENDBRANCH   6  22
TORSDOF 5
ENDMDL
MODEL 7
REMARK VINA RESULT:    -7.646     10.123     13.607
REMARK INTER + INTRA:          -9.147
REMARK INTER:                  -8.560
REMARK INTRA:                  -0.588
REMARK UNBOUND:                 0.286
REMARK SMILES COc1ccc(-c2cc3cc(O)c(OC)cc3o2)c(O)c1
REMARK SMILES IDX 7 1 8 2 9 3 10 4 11 5 13 6 16 7 17 8 18 9 6 10 3 11 21 12
REMARK SMILES IDX 4 13 19 14 5 15 2 16 1 17 20 18 12 20 14 22 15 23
REMARK H PARENT 20 19 12 21
REMARK Flexibility Score: inf
ROOT
ATOM      1  C   UNL     1     -16.655  60.143  -3.140  1.00  0.00     0.139 A 
ATOM      2  C   UNL     1     -16.602  59.925  -4.517  1.00  0.00     0.060 A 
ATOM      3  C   UNL     1     -17.700  59.141  -4.782  1.00  0.00     0.025 A 
ATOM      4  C   UNL     1     -18.169  58.603  -5.975  1.00  0.00     0.062 A 
ATOM      5  C   UNL     1     -19.343  57.826  -5.935  1.00  0.00     0.158 A 
ATOM      6  C   UNL     1     -20.019  57.604  -4.703  1.00  0.00     0.164 A 
ATOM      7  C   UNL     1     -19.504  58.173  -3.510  1.00  0.00     0.098 A 
ATOM      8  C   UNL     1     -18.343  58.934  -3.594  1.00  0.00     0.138 A 
ATOM      9  O   UNL     1     -17.710  59.540  -2.619  1.00  0.00    -0.456 OA
ENDROOT
BRANCH   1  10
ATOM     10  C   UNL     1     -15.696  60.956  -2.359  1.00  0.00     0.059 A 
ATOM     11  C   UNL     1     -13.833  62.597  -1.012  1.00  0.00     0.122 A 
ATOM     12  C   UNL     1     -15.170  62.566  -0.607  1.00  0.00     0.093 A 
ATOM     13  C   UNL     1     -13.423  61.793  -2.088  1.00  0.00     0.047 A 
ATOM     14  C   UNL     1     -16.102  61.744  -1.254  1.00  0.00     0.130 A 
ATOM     15  C   UNL     1     -14.346  60.984  -2.753  1.00  0.00     0.020 A 
BRANCH  11  16
ATOM     16  O   UNL     1     -12.946  63.435  -0.318  1.00  0.00    -0.497 OA
ATOM     17  C   UNL     1     -13.282  64.160   0.861  1.00  0.00     0.278 C 
ENDBRANCH  11  16
BRANCH  14  18
ATOM     18  O   UNL     1     -17.403  61.715  -0.747  1.00  0.00    -0.507 OA
ATOM     19  H   UNL     1     -18.209  62.037  -1.265  1.00  0.00     0.293 HD
ENDBRANCH  14  18
ENDBRANCH   1  10
BRANCH   5  20
ATOM     20  O   UNL     1     -19.825  57.280  -7.124  1.00  0.00    -0.504 OA
ATOM     21  H   UNL     1     -20.010  56.291  -7.228  1.00  0.00     0.293 HD
ENDBRANCH   5  20
BRANCH   6  22
ATOM     22  O   UNL     1     -21.185  56.825  -4.704  1.00  0.00    -0.493 OA
ATOM     23  C   UNL     1     -22.488  57.323  -4.994  1.00  0.00     0.278 C 
ENDBRANCH   6  22
TORSDOF 5
ENDMDL
MODEL 8
REMARK VINA RESULT:    -7.641      9.440     11.561
REMARK INTER + INTRA:          -9.141
REMARK INTER:                  -8.575
REMARK INTRA:                  -0.566
REMARK UNBOUND:                 0.286
REMARK SMILES COc1ccc(-c2cc3cc(O)c(OC)cc3o2)c(O)c1
REMARK SMILES IDX 7 1 8 2 9 3 10 4 11 5 13 6 16 7 17 8 18 9 6 10 3 11 21 12
REMARK SMILES IDX 4 13 19 14 5 15 2 16 1 17 20 18 12 20 14 22 15 23
REMARK H PARENT 20 19 12 21
REMARK Flexibility Score: inf
ROOT
ATOM      1  C   UNL     1     -18.173  59.766  -0.862  1.00  0.00     0.139 A 
ATOM      2  C   UNL     1     -18.665  59.151  -2.013  1.00  0.00     0.060 A 
ATOM      3  C   UNL     1     -17.748  59.465  -2.988  1.00  0.00     0.025 A 
ATOM      4  C   UNL     1     -17.705  59.136  -4.338  1.00  0.00     0.062 A 
ATOM      5  C   UNL     1     -16.620  59.610  -5.101  1.00  0.00     0.158 A 
ATOM      6  C   UNL     1     -15.604  60.401  -4.496  1.00  0.00     0.164 A 
ATOM      7  C   UNL     1     -15.689  60.712  -3.114  1.00  0.00     0.098 A 
ATOM      8  C   UNL     1     -16.777  60.224  -2.398  1.00  0.00     0.138 A 
ATOM      9  O   UNL     1     -17.040  60.396  -1.125  1.00  0.00    -0.456 OA
ENDROOT
BRANCH   1  10
ATOM     10  C   UNL     1     -18.795  59.707   0.480  1.00  0.00     0.059 A 
ATOM     11  C   UNL     1     -20.102  59.492   2.975  1.00  0.00     0.122 A 
ATOM     12  C   UNL     1     -18.782  59.059   2.829  1.00  0.00     0.093 A 
ATOM     13  C   UNL     1     -20.767  60.048   1.869  1.00  0.00     0.047 A 
ATOM     14  C   UNL     1     -18.114  59.176   1.603  1.00  0.00     0.130 A 
ATOM     15  C   UNL     1     -20.119  60.153   0.638  1.00  0.00     0.020 A 
BRANCH  11  16
ATOM     16  O   UNL     1     -20.713  59.356   4.231  1.00  0.00    -0.497 OA
ATOM     17  C   UNL     1     -20.134  58.669   5.336  1.00  0.00     0.278 C 
ENDBRANCH  11  16
BRANCH  14  18
ATOM     18  O   UNL     1     -16.774  58.785   1.554  1.00  0.00    -0.507 OA
ATOM     19  H   UNL     1     -16.012  59.428   1.386  1.00  0.00     0.293 HD
ENDBRANCH  14  18
ENDBRANCH   1  10
BRANCH   5  20
ATOM     20  O   UNL     1     -16.564  59.287  -6.457  1.00  0.00    -0.504 OA
ATOM     21  H   UNL     1     -15.716  59.387  -7.000  1.00  0.00     0.293 HD
ENDBRANCH   5  20
BRANCH   6  22
ATOM     22  O   UNL     1     -14.539  60.854  -5.289  1.00  0.00    -0.493 OA
ATOM     23  C   UNL     1     -13.438  61.614  -4.802  1.00  0.00     0.278 C 
ENDBRANCH   6  22
TORSDOF 5
ENDMDL
MODEL 9
REMARK VINA RESULT:    -7.561      8.391     11.745
REMARK INTER + INTRA:          -9.042
REMARK INTER:                  -8.458
REMARK INTRA:                  -0.585
REMARK UNBOUND:                 0.286
REMARK SMILES COc1ccc(-c2cc3cc(O)c(OC)cc3o2)c(O)c1
REMARK SMILES IDX 7 1 8 2 9 3 10 4 11 5 13 6 16 7 17 8 18 9 6 10 3 11 21 12
REMARK SMILES IDX 4 13 19 14 5 15 2 16 1 17 20 18 12 20 14 22 15 23
REMARK H PARENT 20 19 12 21
REMARK Flexibility Score: inf
ROOT
ATOM      1  C   UNL     1     -20.520  58.456   4.490  1.00  0.00     0.139 A 
ATOM      2  C   UNL     1     -21.653  57.643   4.553  1.00  0.00     0.060 A 
ATOM      3  C   UNL     1     -21.802  57.368   5.892  1.00  0.00     0.025 A 
ATOM      4  C   UNL     1     -22.750  56.605   6.565  1.00  0.00     0.062 A 
ATOM      5  C   UNL     1     -22.645  56.504   7.965  1.00  0.00     0.158 A 
ATOM      6  C   UNL     1     -21.596  57.168   8.660  1.00  0.00     0.164 A 
ATOM      7  C   UNL     1     -20.651  57.936   7.932  1.00  0.00     0.098 A 
ATOM      8  C   UNL     1     -20.791  58.009   6.550  1.00  0.00     0.138 A 
ATOM      9  O   UNL     1     -20.032  58.659   5.701  1.00  0.00    -0.456 OA
ENDROOT
BRANCH   1  10
ATOM     10  C   UNL     1     -19.950  59.045   3.257  1.00  0.00     0.059 A 
ATOM     11  C   UNL     1     -18.924  60.319   0.955  1.00  0.00     0.122 A 
ATOM     12  C   UNL     1     -18.064  59.678   1.851  1.00  0.00     0.093 A 
ATOM     13  C   UNL     1     -20.306  60.311   1.206  1.00  0.00     0.047 A 
ATOM     14  C   UNL     1     -18.560  59.026   2.987  1.00  0.00     0.130 A 
ATOM     15  C   UNL     1     -20.811  59.681   2.345  1.00  0.00     0.020 A 
BRANCH  11  16
ATOM     16  O   UNL     1     -18.367  60.947  -0.170  1.00  0.00    -0.497 OA
ATOM     17  C   UNL     1     -17.453  60.325  -1.068  1.00  0.00     0.278 C 
ENDBRANCH  11  16
BRANCH  14  18
ATOM     18  O   UNL     1     -17.646  58.349   3.797  1.00  0.00    -0.507 OA
ATOM     19  H   UNL     1     -17.915  57.657   4.483  1.00  0.00     0.293 HD
ENDBRANCH  14  18
ENDBRANCH   1  10
BRANCH   5  20
ATOM     20  O   UNL     1     -23.590  55.742   8.653  1.00  0.00    -0.504 OA
ATOM     21  H   UNL     1     -24.115  55.001   8.205  1.00  0.00     0.293 HD
ENDBRANCH   5  20
BRANCH   6  22
ATOM     22  O   UNL     1     -21.526  57.044  10.056  1.00  0.00    -0.493 OA
ATOM     23  C   UNL     1     -22.139  57.942  10.976  1.00  0.00     0.278 C 
ENDBRANCH   6  22
TORSDOF 5
ENDMDL
