MODEL 1
REMARK VINA RESULT:    -5.282      0.000      0.000
REMARK INTER + INTRA:         -12.044
REMARK INTER:                  -9.604
REMARK INTRA:                  -2.440
REMARK UNBOUND:                -2.440
REMARK SMILES CCCCCCCCCCCCCC[C@@H](C)C(=O)[O-]
REMARK SMILES IDX 9 1 10 2 11 3 12 4 13 5 14 6 15 7 16 8 17 9 18 10 19 11 8 12
REMARK SMILES IDX 7 13 6 14 5 15 4 16 3 17 2 18 1 19
REMARK H PARENT
REMARK Flexibility Score: inf
ROOT
ATOM      1  C   UNL     1     123.015 177.448 129.158  1.00  0.00     0.000 C 
ENDROOT
BRANCH   1   2
ATOM      2  C   UNL     1     122.124 178.704 129.131  1.00  0.00     0.000 C 
BRANCH   2   3
ATOM      3  C   UNL     1     121.675 179.089 127.710  1.00  0.00     0.000 C 
BRANCH   3   4
ATOM      4  C   UNL     1     122.510 178.397 126.620  1.00  0.00     0.000 C 
BRANCH   4   5
ATOM      5  C   UNL     1     121.963 178.644 125.205  1.00  0.00     0.001 C 
BRANCH   5   6
ATOM      6  C   UNL     1     120.559 179.265 125.260  1.00  0.00     0.009 C 
BRANCH   6   7
ATOM      7  C   UNL     1     119.994 179.590 123.861  1.00  0.00     0.032 C 
ATOM      8  C   UNL     1     120.910 179.093 122.734  1.00  0.00     0.014 C 
BRANCH   7   9
ATOM      9  C   UNL     1     118.630 178.972 123.709  1.00  0.00     0.044 C 
ATOM     10  O   UNL     1     117.982 178.611 124.726  1.00  0.00    -0.550 OA
ATOM     11  O   UNL     1     118.077 178.797 122.445  1.00  0.00    -0.550 OA
ENDBRANCH   7   9
ENDBRANCH   6   7
ENDBRANCH   5   6
ENDBRANCH   4   5
ENDBRANCH   3   4
ENDBRANCH   2   3
ENDBRANCH   1   2
BRANCH   1  12
ATOM     12  C   UNL     1     122.478 176.286 130.014  1.00  0.00     0.000 C 
BRANCH  12  13
ATOM     13  C   UNL     1     121.337 176.714 130.954  1.00  0.00    -0.000 C 
BRANCH  13  14
ATOM     14  C   UNL     1     120.267 175.622 131.113  1.00  0.00    -0.000 C 
BRANCH  14  15
ATOM     15  C   UNL     1     118.864 176.109 130.711  1.00  0.00    -0.000 C 
BRANCH  15  16
ATOM     16  C   UNL     1     118.500 175.741 129.264  1.00  0.00    -0.000 C 
BRANCH  16  17
ATOM     17  C   UNL     1     118.927 176.822 128.256  1.00  0.00    -0.000 C 
BRANCH  17  18
ATOM     18  C   UNL     1     119.402 176.227 126.922  1.00  0.00    -0.003 C 
ATOM     19  C   UNL     1     120.562 175.244 127.090  1.00  0.00     0.004 C 
ENDBRANCH  17  18
ENDBRANCH  16  17
ENDBRANCH  15  16
ENDBRANCH  14  15
ENDBRANCH  13  14
ENDBRANCH  12  13
ENDBRANCH   1  12
TORSDOF 14
ENDMDL
MODEL 2
REMARK VINA RESULT:    -5.093      2.955      4.658
REMARK INTER + INTRA:         -11.701
REMARK INTER:                  -9.506
REMARK INTRA:                  -2.195
REMARK UNBOUND:                -2.440
REMARK SMILES CCCCCCCCCCCCCC[C@@H](C)C(=O)[O-]
REMARK SMILES IDX 9 1 10 2 11 3 12 4 13 5 14 6 15 7 16 8 17 9 18 10 19 11 8 12
REMARK SMILES IDX 7 13 6 14 5 15 4 16 3 17 2 18 1 19
REMARK H PARENT
REMARK Flexibility Score: inf
ROOT
ATOM      1  C   UNL     1     121.514 178.294 128.849  1.00  0.00     0.000 C 
ENDROOT
BRANCH   1   2
ATOM      2  C   UNL     1     122.953 177.882 128.489  1.00  0.00     0.000 C 
BRANCH   2   3
ATOM      3  C   UNL     1     123.625 178.854 127.503  1.00  0.00     0.000 C 
BRANCH   3   4
ATOM      4  C   UNL     1     123.350 178.486 126.035  1.00  0.00     0.000 C 
BRANCH   4   5
ATOM      5  C   UNL     1     122.985 177.005 125.852  1.00  0.00     0.001 C 
BRANCH   5   6
ATOM      6  C   UNL     1     123.823 176.367 124.733  1.00  0.00     0.009 C 
BRANCH   6   7
ATOM      7  C   UNL     1     124.773 177.374 124.050  1.00  0.00     0.032 C 
ATOM      8  C   UNL     1     126.249 177.085 124.360  1.00  0.00     0.014 C 
BRANCH   7   9
ATOM      9  C   UNL     1     124.558 177.345 122.561  1.00  0.00     0.044 C 
ATOM     10  O   UNL     1     123.391 177.302 122.091  1.00  0.00    -0.550 OA
ATOM     11  O   UNL     1     125.646 177.368 121.695  1.00  0.00    -0.550 OA
ENDBRANCH   7   9
ENDBRANCH   6   7
ENDBRANCH   5   6
ENDBRANCH   4   5
ENDBRANCH   3   4
ENDBRANCH   2   3
ENDBRANCH   1   2
BRANCH   1  12
ATOM     12  C   UNL     1     120.525 177.125 129.021  1.00  0.00     0.000 C 
BRANCH  12  13
ATOM     13  C   UNL     1     119.246 177.297 128.183  1.00  0.00    -0.000 C 
BRANCH  13  14
ATOM     14  C   UNL     1     119.495 177.088 126.680  1.00  0.00    -0.000 C 
BRANCH  14  15
ATOM     15  C   UNL     1     118.902 178.220 125.823  1.00  0.00    -0.000 C 
BRANCH  15  16
ATOM     16  C   UNL     1     119.570 179.578 126.088  1.00  0.00    -0.000 C 
BRANCH  16  17
ATOM     17  C   UNL     1     120.361 180.093 124.873  1.00  0.00    -0.000 C 
BRANCH  17  18
ATOM     18  C   UNL     1     120.524 179.023 123.782  1.00  0.00    -0.003 C 
ATOM     19  C   UNL     1     120.723 179.621 122.389  1.00  0.00     0.004 C 
ENDBRANCH  17  18
ENDBRANCH  16  17
ENDBRANCH  15  16
ENDBRANCH  14  15
ENDBRANCH  13  14
ENDBRANCH  12  13
ENDBRANCH   1  12
TORSDOF 14
ENDMDL
MODEL 3
REMARK VINA RESULT:    -4.992      1.187      2.098
REMARK INTER + INTRA:         -11.518
REMARK INTER:                  -9.209
REMARK INTRA:                  -2.310
REMARK UNBOUND:                -2.440
REMARK SMILES CCCCCCCCCCCCCC[C@@H](C)C(=O)[O-]
REMARK SMILES IDX 9 1 10 2 11 3 12 4 13 5 14 6 15 7 16 8 17 9 18 10 19 11 8 12
REMARK SMILES IDX 7 13 6 14 5 15 4 16 3 17 2 18 1 19
REMARK H PARENT
REMARK Flexibility Score: inf
ROOT
ATOM      1  C   UNL     1     123.726 178.749 129.312  1.00  0.00     0.000 C 
ENDROOT
BRANCH   1   2
ATOM      2  C   UNL     1     124.076 179.382 127.953  1.00  0.00     0.000 C 
BRANCH   2   3
ATOM      3  C   UNL     1     122.895 179.372 126.966  1.00  0.00     0.000 C 
BRANCH   3   4
ATOM      4  C   UNL     1     122.808 178.061 126.165  1.00  0.00     0.000 C 
BRANCH   4   5
ATOM      5  C   UNL     1     121.406 177.810 125.588  1.00  0.00     0.001 C 
BRANCH   5   6
ATOM      6  C   UNL     1     120.421 178.897 126.045  1.00  0.00     0.009 C 
BRANCH   6   7
ATOM      7  C   UNL     1     119.815 179.688 124.867  1.00  0.00     0.032 C 
ATOM      8  C   UNL     1     120.511 179.374 123.535  1.00  0.00     0.014 C 
BRANCH   7   9
ATOM      9  C   UNL     1     118.347 179.379 124.750  1.00  0.00     0.044 C 
ATOM     10  O   UNL     1     117.925 178.659 123.807  1.00  0.00    -0.550 OA
ATOM     11  O   UNL     1     117.447 179.884 125.682  1.00  0.00    -0.550 OA
ENDBRANCH   7   9
ENDBRANCH   6   7
ENDBRANCH   5   6
ENDBRANCH   4   5
ENDBRANCH   3   4
ENDBRANCH   2   3
ENDBRANCH   1   2
BRANCH   1  12
ATOM     12  C   UNL     1     122.254 178.898 129.741  1.00  0.00     0.000 C 
BRANCH  12  13
ATOM     13  C   UNL     1     121.654 177.589 130.283  1.00  0.00    -0.000 C 
BRANCH  13  14
ATOM     14  C   UNL     1     122.573 176.380 130.047  1.00  0.00    -0.000 C 
BRANCH  14  15
ATOM     15  C   UNL     1     122.166 175.564 128.807  1.00  0.00    -0.000 C 
BRANCH  15  16
ATOM     16  C   UNL     1     120.768 174.940 128.941  1.00  0.00    -0.000 C 
BRANCH  16  17
ATOM     17  C   UNL     1     119.783 175.471 127.885  1.00  0.00    -0.000 C 
BRANCH  17  18
ATOM     18  C   UNL     1     118.736 176.423 128.484  1.00  0.00    -0.003 C 
ATOM     19  C   UNL     1     118.379 176.077 129.931  1.00  0.00     0.004 C 
ENDBRANCH  17  18
ENDBRANCH  16  17
ENDBRANCH  15  16
ENDBRANCH  14  15
ENDBRANCH  13  14
ENDBRANCH  12  13
ENDBRANCH   1  12
TORSDOF 14
ENDMDL
MODEL 4
REMARK VINA RESULT:    -4.969      1.487      3.549
REMARK INTER + INTRA:         -11.475
REMARK INTER:                  -9.029
REMARK INTRA:                  -2.446
REMARK UNBOUND:                -2.440
REMARK SMILES CCCCCCCCCCCCCC[C@@H](C)C(=O)[O-]
REMARK SMILES IDX 9 1 10 2 11 3 12 4 13 5 14 6 15 7 16 8 17 9 18 10 19 11 8 12
REMARK SMILES IDX 7 13 6 14 5 15 4 16 3 17 2 18 1 19
REMARK H PARENT
REMARK Flexibility Score: inf
ROOT
ATOM      1  C   UNL     1     122.326 176.515 129.997  1.00  0.00     0.000 C 
ENDROOT
BRANCH   1   2
ATOM      2  C   UNL     1     120.824 176.184 130.058  1.00  0.00     0.000 C 
BRANCH   2   3
ATOM      3  C   UNL     1     120.172 176.099 128.666  1.00  0.00     0.000 C 
BRANCH   3   4
ATOM      4  C   UNL     1     119.305 177.328 128.346  1.00  0.00     0.000 C 
BRANCH   4   5
ATOM      5  C   UNL     1     119.445 177.791 126.887  1.00  0.00     0.001 C 
BRANCH   5   6
ATOM      6  C   UNL     1     119.588 179.318 126.806  1.00  0.00     0.009 C 
BRANCH   6   7
ATOM      7  C   UNL     1     119.443 179.857 125.367  1.00  0.00     0.032 C 
ATOM      8  C   UNL     1     120.473 179.242 124.409  1.00  0.00     0.014 C 
BRANCH   7   9
ATOM      9  C   UNL     1     118.055 179.578 124.858  1.00  0.00     0.044 C 
ATOM     10  O   UNL     1     117.053 179.855 125.569  1.00  0.00    -0.550 OA
ATOM     11  O   UNL     1     117.869 179.015 123.601  1.00  0.00    -0.550 OA
ENDBRANCH   7   9
ENDBRANCH   6   7
ENDBRANCH   5   6
ENDBRANCH   4   5
ENDBRANCH   3   4
ENDBRANCH   2   3
ENDBRANCH   1   2
BRANCH   1  12
ATOM     12  C   UNL     1     122.700 177.937 130.458  1.00  0.00     0.000 C 
BRANCH  12  13
ATOM     13  C   UNL     1     122.499 178.994 129.359  1.00  0.00    -0.000 C 
BRANCH  13  14
ATOM     14  C   UNL     1     123.659 179.020 128.350  1.00  0.00    -0.000 C 
BRANCH  14  15
ATOM     15  C   UNL     1     123.170 179.034 126.891  1.00  0.00    -0.000 C 
BRANCH  15  16
ATOM     16  C   UNL     1     124.071 178.213 125.955  1.00  0.00    -0.000 C 
BRANCH  16  17
ATOM     17  C   UNL     1     123.303 177.092 125.234  1.00  0.00    -0.000 C 
BRANCH  17  18
ATOM     18  C   UNL     1     122.639 176.110 126.212  1.00  0.00    -0.003 C 
ATOM     19  C   UNL     1     121.944 174.946 125.504  1.00  0.00     0.004 C 
ENDBRANCH  17  18
ENDBRANCH  16  17
ENDBRANCH  15  16
ENDBRANCH  14  15
ENDBRANCH  13  14
ENDBRANCH  12  13
ENDBRANCH   1  12
TORSDOF 14
ENDMDL
MODEL 5
REMARK VINA RESULT:    -4.966      1.291      2.372
REMARK INTER + INTRA:         -11.470
REMARK INTER:                  -9.544
REMARK INTRA:                  -1.926
REMARK UNBOUND:                -2.440
REMARK SMILES CCCCCCCCCCCCCC[C@@H](C)C(=O)[O-]
REMARK SMILES IDX 9 1 10 2 11 3 12 4 13 5 14 6 15 7 16 8 17 9 18 10 19 11 8 12
REMARK SMILES IDX 7 13 6 14 5 15 4 16 3 17 2 18 1 19
REMARK H PARENT
REMARK Flexibility Score: inf
ROOT
ATOM      1  C   UNL     1     123.752 179.506 128.020  1.00  0.00     0.000 C 
ENDROOT
BRANCH   1   2
ATOM      2  C   UNL     1     123.192 179.130 126.636  1.00  0.00     0.000 C 
BRANCH   2   3
ATOM      3  C   UNL     1     121.828 178.421 126.714  1.00  0.00     0.000 C 
BRANCH   3   4
ATOM      4  C   UNL     1     120.687 179.379 127.096  1.00  0.00     0.000 C 
BRANCH   4   5
ATOM      5  C   UNL     1     120.046 180.055 125.875  1.00  0.00     0.001 C 
BRANCH   5   6
ATOM      6  C   UNL     1     119.707 179.022 124.789  1.00  0.00     0.009 C 
BRANCH   6   7
ATOM      7  C   UNL     1     118.190 178.764 124.663  1.00  0.00     0.032 C 
ATOM      8  C   UNL     1     117.363 179.713 125.541  1.00  0.00     0.014 C 
BRANCH   7   9
ATOM      9  C   UNL     1     117.768 178.914 123.226  1.00  0.00     0.044 C 
ATOM     10  O   UNL     1     116.558 179.111 122.940  1.00  0.00    -0.550 OA
ATOM     11  O   UNL     1     118.710 178.837 122.207  1.00  0.00    -0.550 OA
ENDBRANCH   7   9
ENDBRANCH   6   7
ENDBRANCH   5   6
ENDBRANCH   4   5
ENDBRANCH   3   4
ENDBRANCH   2   3
ENDBRANCH   1   2
BRANCH   1  12
ATOM     12  C   UNL     1     123.708 178.380 129.069  1.00  0.00     0.000 C 
BRANCH  12  13
ATOM     13  C   UNL     1     123.134 178.844 130.420  1.00  0.00    -0.000 C 
BRANCH  13  14
ATOM     14  C   UNL     1     122.244 177.776 131.078  1.00  0.00    -0.000 C 
BRANCH  14  15
ATOM     15  C   UNL     1     122.193 176.470 130.265  1.00  0.00    -0.000 C 
BRANCH  15  16
ATOM     16  C   UNL     1     120.786 175.853 130.222  1.00  0.00    -0.000 C 
BRANCH  16  17
ATOM     17  C   UNL     1     119.769 176.756 129.503  1.00  0.00    -0.000 C 
BRANCH  17  18
ATOM     18  C   UNL     1     118.862 175.970 128.543  1.00  0.00    -0.003 C 
ATOM     19  C   UNL     1     119.443 175.861 127.133  1.00  0.00     0.004 C 
ENDBRANCH  17  18
ENDBRANCH  16  17
ENDBRANCH  15  16
ENDBRANCH  14  15
ENDBRANCH  13  14
ENDBRANCH  12  13
ENDBRANCH   1  12
TORSDOF 14
ENDMDL
MODEL 6
REMARK VINA RESULT:    -4.958      3.354      6.453
REMARK INTER + INTRA:         -11.456
REMARK INTER:                  -9.152
REMARK INTRA:                  -2.303
REMARK UNBOUND:                -2.440
REMARK SMILES CCCCCCCCCCCCCC[C@@H](C)C(=O)[O-]
REMARK SMILES IDX 9 1 10 2 11 3 12 4 13 5 14 6 15 7 16 8 17 9 18 10 19 11 8 12
REMARK SMILES IDX 7 13 6 14 5 15 4 16 3 17 2 18 1 19
REMARK H PARENT
REMARK Flexibility Score: inf
ROOT
ATOM      1  C   UNL     1     118.971 176.735 127.065  1.00  0.00     0.000 C 
ENDROOT
BRANCH   1   2
ATOM      2  C   UNL     1     119.218 177.128 128.534  1.00  0.00     0.000 C 
BRANCH   2   3
ATOM      3  C   UNL     1     118.377 176.304 129.524  1.00  0.00     0.000 C 
BRANCH   3   4
ATOM      4  C   UNL     1     119.129 176.007 130.832  1.00  0.00     0.000 C 
BRANCH   4   5
ATOM      5  C   UNL     1     120.501 175.356 130.594  1.00  0.00     0.001 C 
BRANCH   5   6
ATOM      6  C   UNL     1     120.347 173.973 129.942  1.00  0.00     0.009 C 
BRANCH   6   7
ATOM      7  C   UNL     1     121.090 173.861 128.594  1.00  0.00     0.032 C 
ATOM      8  C   UNL     1     122.208 174.905 128.457  1.00  0.00     0.014 C 
BRANCH   7   9
ATOM      9  C   UNL     1     121.672 172.481 128.449  1.00  0.00     0.044 C 
ATOM     10  O   UNL     1     122.883 172.335 128.137  1.00  0.00    -0.550 OA
ATOM     11  O   UNL     1     120.878 171.360 128.658  1.00  0.00    -0.550 OA
ENDBRANCH   7   9
ENDBRANCH   6   7
ENDBRANCH   5   6
ENDBRANCH   4   5
ENDBRANCH   3   4
ENDBRANCH   2   3
ENDBRANCH   1   2
BRANCH   1  12
ATOM     12  C   UNL     1     119.219 177.857 126.039  1.00  0.00     0.000 C 
BRANCH  12  13
ATOM     13  C   UNL     1     119.582 179.199 126.698  1.00  0.00    -0.000 C 
BRANCH  13  14
ATOM     14  C   UNL     1     120.925 179.755 126.197  1.00  0.00    -0.000 C 
BRANCH  14  15
ATOM     15  C   UNL     1     121.750 178.702 125.436  1.00  0.00    -0.000 C 
BRANCH  15  16
ATOM     16  C   UNL     1     123.018 178.281 126.194  1.00  0.00    -0.000 C 
BRANCH  16  17
ATOM     17  C   UNL     1     123.381 179.259 127.325  1.00  0.00    -0.000 C 
BRANCH  17  18
ATOM     18  C   UNL     1     123.491 178.564 128.691  1.00  0.00    -0.003 C 
ATOM     19  C   UNL     1     122.271 178.806 129.580  1.00  0.00     0.004 C 
ENDBRANCH  17  18
ENDBRANCH  16  17
ENDBRANCH  15  16
ENDBRANCH  14  15
ENDBRANCH  13  14
ENDBRANCH  12  13
ENDBRANCH   1  12
TORSDOF 14
ENDMDL
MODEL 7
REMARK VINA RESULT:    -4.956      1.566      4.135
REMARK INTER + INTRA:         -11.452
REMARK INTER:                  -9.578
REMARK INTRA:                  -1.875
REMARK UNBOUND:                -2.440
REMARK SMILES CCCCCCCCCCCCCC[C@@H](C)C(=O)[O-]
REMARK SMILES IDX 9 1 10 2 11 3 12 4 13 5 14 6 15 7 16 8 17 9 18 10 19 11 8 12
REMARK SMILES IDX 7 13 6 14 5 15 4 16 3 17 2 18 1 19
REMARK H PARENT
REMARK Flexibility Score: inf
ROOT
ATOM      1  C   UNL     1     121.887 177.189 130.886  1.00  0.00     0.000 C 
ENDROOT
BRANCH   1   2
ATOM      2  C   UNL     1     121.128 176.143 130.048  1.00  0.00     0.000 C 
BRANCH   2   3
ATOM      3  C   UNL     1     119.604 176.201 130.257  1.00  0.00     0.000 C 
BRANCH   3   4
ATOM      4  C   UNL     1     118.838 176.437 128.944  1.00  0.00     0.000 C 
BRANCH   4   5
ATOM      5  C   UNL     1     119.748 176.926 127.806  1.00  0.00     0.001 C 
BRANCH   5   6
ATOM      6  C   UNL     1     118.931 177.220 126.538  1.00  0.00     0.009 C 
BRANCH   6   7
ATOM      7  C   UNL     1     118.790 178.731 126.255  1.00  0.00     0.032 C 
ATOM      8  C   UNL     1     119.814 179.568 127.035  1.00  0.00     0.014 C 
BRANCH   7   9
ATOM      9  C   UNL     1     118.949 178.988 124.781  1.00  0.00     0.044 C 
ATOM     10  O   UNL     1     120.066 179.336 124.317  1.00  0.00    -0.550 OA
ATOM     11  O   UNL     1     117.865 178.842 123.922  1.00  0.00    -0.550 OA
ENDBRANCH   7   9
ENDBRANCH   6   7
ENDBRANCH   5   6
ENDBRANCH   4   5
ENDBRANCH   3   4
ENDBRANCH   2   3
ENDBRANCH   1   2
BRANCH   1  12
ATOM     12  C   UNL     1     122.332 178.445 130.113  1.00  0.00     0.000 C 
BRANCH  12  13
ATOM     13  C   UNL     1     123.450 178.156 129.096  1.00  0.00    -0.000 C 
BRANCH  13  14
ATOM     14  C   UNL     1     123.748 179.362 128.191  1.00  0.00    -0.000 C 
BRANCH  14  15
ATOM     15  C   UNL     1     123.336 179.116 126.729  1.00  0.00    -0.000 C 
BRANCH  15  16
ATOM     16  C   UNL     1     123.090 177.630 126.423  1.00  0.00    -0.000 C 
BRANCH  16  17
ATOM     17  C   UNL     1     123.740 177.185 125.102  1.00  0.00    -0.000 C 
BRANCH  17  18
ATOM     18  C   UNL     1     122.702 176.862 124.016  1.00  0.00    -0.003 C 
ATOM     19  C   UNL     1     123.101 177.391 122.638  1.00  0.00     0.004 C 
ENDBRANCH  17  18
ENDBRANCH  16  17
ENDBRANCH  15  16
ENDBRANCH  14  15
ENDBRANCH  13  14
ENDBRANCH  12  13
ENDBRANCH   1  12
TORSDOF 14
ENDMDL
MODEL 8
REMARK VINA RESULT:    -4.951      2.638      3.977
REMARK INTER + INTRA:         -11.443
REMARK INTER:                  -8.858
REMARK INTRA:                  -2.585
REMARK UNBOUND:                -2.440
REMARK SMILES CCCCCCCCCCCCCC[C@@H](C)C(=O)[O-]
REMARK SMILES IDX 9 1 10 2 11 3 12 4 13 5 14 6 15 7 16 8 17 9 18 10 19 11 8 12
REMARK SMILES IDX 7 13 6 14 5 15 4 16 3 17 2 18 1 19
REMARK H PARENT
REMARK Flexibility Score: inf
ROOT
ATOM      1  C   UNL     1     122.642 176.871 129.601  1.00  0.00     0.000 C 
ENDROOT
BRANCH   1   2
ATOM      2  C   UNL     1     122.464 178.399 129.671  1.00  0.00     0.000 C 
BRANCH   2   3
ATOM      3  C   UNL     1     123.551 179.164 128.895  1.00  0.00     0.000 C 
BRANCH   3   4
ATOM      4  C   UNL     1     123.752 178.619 127.471  1.00  0.00     0.000 C 
BRANCH   4   5
ATOM      5  C   UNL     1     122.806 179.266 126.447  1.00  0.00     0.001 C 
BRANCH   5   6
ATOM      6  C   UNL     1     122.300 178.227 125.434  1.00  0.00     0.009 C 
BRANCH   6   7
ATOM      7  C   UNL     1     123.137 176.931 125.438  1.00  0.00     0.032 C 
ATOM      8  C   UNL     1     122.268 175.676 125.605  1.00  0.00     0.014 C 
BRANCH   7   9
ATOM      9  C   UNL     1     123.923 176.830 124.159  1.00  0.00     0.044 C 
ATOM     10  O   UNL     1     123.504 177.392 123.113  1.00  0.00    -0.550 OA
ATOM     11  O   UNL     1     125.117 176.117 124.123  1.00  0.00    -0.550 OA
ENDBRANCH   7   9
ENDBRANCH   6   7
ENDBRANCH   5   6
ENDBRANCH   4   5
ENDBRANCH   3   4
ENDBRANCH   2   3
ENDBRANCH   1   2
BRANCH   1  12
ATOM     12  C   UNL     1     121.382 176.086 129.188  1.00  0.00     0.000 C 
BRANCH  12  13
ATOM     13  C   UNL     1     120.184 177.001 128.877  1.00  0.00    -0.000 C 
BRANCH  13  14
ATOM     14  C   UNL     1     119.216 176.374 127.861  1.00  0.00    -0.000 C 
BRANCH  14  15
ATOM     15  C   UNL     1     118.964 177.288 126.648  1.00  0.00    -0.000 C 
BRANCH  15  16
ATOM     16  C   UNL     1     119.075 178.781 126.996  1.00  0.00    -0.000 C 
BRANCH  16  17
ATOM     17  C   UNL     1     118.482 179.686 125.903  1.00  0.00    -0.000 C 
BRANCH  17  18
ATOM     18  C   UNL     1     118.627 179.083 124.497  1.00  0.00    -0.003 C 
ATOM     19  C   UNL     1     117.300 179.012 123.741  1.00  0.00     0.004 C 
ENDBRANCH  17  18
ENDBRANCH  16  17
ENDBRANCH  15  16
ENDBRANCH  14  15
ENDBRANCH  13  14
ENDBRANCH  12  13
ENDBRANCH   1  12
TORSDOF 14
ENDMDL
MODEL 9
REMARK VINA RESULT:    -4.907      2.562      4.261
REMARK INTER + INTRA:         -11.364
REMARK INTER:                  -9.392
REMARK INTRA:                  -1.972
REMARK UNBOUND:                -2.440
REMARK SMILES CCCCCCCCCCCCCC[C@@H](C)C(=O)[O-]
REMARK SMILES IDX 9 1 10 2 11 3 12 4 13 5 14 6 15 7 16 8 17 9 18 10 19 11 8 12
REMARK SMILES IDX 7 13 6 14 5 15 4 16 3 17 2 18 1 19
REMARK H PARENT
REMARK Flexibility Score: inf
ROOT
ATOM      1  C   UNL     1     118.826 176.871 126.718  1.00  0.00     0.000 C 
ENDROOT
BRANCH   1   2
ATOM      2  C   UNL     1     118.310 178.108 125.960  1.00  0.00     0.000 C 
BRANCH   2   3
ATOM      3  C   UNL     1     119.032 179.405 126.368  1.00  0.00     0.000 C 
BRANCH   3   4
ATOM      4  C   UNL     1     120.063 179.859 125.321  1.00  0.00     0.000 C 
BRANCH   4   5
ATOM      5  C   UNL     1     121.477 179.332 125.613  1.00  0.00     0.001 C 
BRANCH   5   6
ATOM      6  C   UNL     1     121.835 178.170 124.673  1.00  0.00     0.009 C 
BRANCH   6   7
ATOM      7  C   UNL     1     123.032 177.338 125.181  1.00  0.00     0.032 C 
ATOM      8  C   UNL     1     122.593 176.004 125.800  1.00  0.00     0.014 C 
BRANCH   7   9
ATOM      9  C   UNL     1     123.985 177.075 124.046  1.00  0.00     0.044 C 
ATOM     10  O   UNL     1     125.156 176.681 124.283  1.00  0.00    -0.550 OA
ATOM     11  O   UNL     1     123.578 177.265 122.730  1.00  0.00    -0.550 OA
ENDBRANCH   7   9
ENDBRANCH   6   7
ENDBRANCH   5   6
ENDBRANCH   4   5
ENDBRANCH   3   4
ENDBRANCH   2   3
ENDBRANCH   1   2
BRANCH   1  12
ATOM     12  C   UNL     1     119.288 177.138 128.162  1.00  0.00     0.000 C 
BRANCH  12  13
ATOM     13  C   UNL     1     118.542 176.277 129.197  1.00  0.00    -0.000 C 
BRANCH  13  14
ATOM     14  C   UNL     1     119.388 176.000 130.450  1.00  0.00    -0.000 C 
BRANCH  14  15
ATOM     15  C   UNL     1     120.899 176.088 130.172  1.00  0.00    -0.000 C 
BRANCH  15  16
ATOM     16  C   UNL     1     121.619 177.069 131.111  1.00  0.00    -0.000 C 
BRANCH  16  17
ATOM     17  C   UNL     1     122.873 177.688 130.468  1.00  0.00    -0.000 C 
BRANCH  17  18
ATOM     18  C   UNL     1     122.533 178.601 129.280  1.00  0.00    -0.003 C 
ATOM     19  C   UNL     1     123.772 179.050 128.504  1.00  0.00     0.004 C 
ENDBRANCH  17  18
ENDBRANCH  16  17
ENDBRANCH  15  16
ENDBRANCH  14  15
ENDBRANCH  13  14
ENDBRANCH  12  13
ENDBRANCH   1  12
TORSDOF 14
ENDMDL
