MODEL 1
REMARK VINA RESULT:    -7.853      0.000      0.000
REMARK INTER + INTRA:          -9.166
REMARK INTER:                  -9.460
REMARK INTRA:                   0.295
REMARK UNBOUND:                 0.295
REMARK SMILES O=c1c(O)c(-c2ccc(O)c(O)c2)oc2cc(O)cc(O)c12
REMARK SMILES IDX 5 1 3 2 2 3 1 4 22 5 20 6 19 7 17 8 16 9 15 10 14 11 6 12
REMARK SMILES IDX 7 13 8 14 9 15 13 16 11 17 10 18 12 20 4 22 21 24 18 26
REMARK H PARENT 10 19 12 21 4 23 21 25 18 27
REMARK Flexibility Score: inf
ROOT
ATOM      1  C   UNL     1      17.592  22.531  40.128  1.00  0.00     0.180 A 
ATOM      2  C   UNL     1      17.283  23.585  39.251  1.00  0.00     0.208 A 
ATOM      3  C   UNL     1      16.156  24.379  39.511  1.00  0.00     0.238 A 
ATOM      4  O   UNL     1      15.854  25.286  38.693  1.00  0.00    -0.285 OA
ATOM      5  C   UNL     1      15.361  24.121  40.654  1.00  0.00     0.111 A 
ATOM      6  C   UNL     1      14.220  24.887  41.036  1.00  0.00     0.134 A 
ATOM      7  C   UNL     1      13.432  24.462  42.114  1.00  0.00     0.093 A 
ATOM      8  C   UNL     1      13.780  23.337  42.862  1.00  0.00     0.123 A 
ATOM      9  C   UNL     1      14.928  22.614  42.532  1.00  0.00     0.094 A 
ATOM     10  C   UNL     1      15.714  22.994  41.441  1.00  0.00     0.146 A 
ATOM     11  O   UNL     1      16.791  22.273  41.154  1.00  0.00    -0.452 OA
ENDROOT
BRANCH   1  12
ATOM     12  C   UNL     1      18.779  21.666  39.934  1.00  0.00     0.025 A 
ATOM     13  C   UNL     1      18.794  20.379  40.491  1.00  0.00     0.016 A 
ATOM     14  C   UNL     1      19.911  19.554  40.339  1.00  0.00     0.051 A 
ATOM     15  C   UNL     1      21.035  20.006  39.640  1.00  0.00     0.157 A 
ATOM     16  C   UNL     1      19.917  22.128  39.249  1.00  0.00     0.062 A 
ATOM     17  C   UNL     1      21.041  21.302  39.096  1.00  0.00     0.158 A 
BRANCH  15  18
ATOM     18  O   UNL     1      22.134  19.159  39.501  1.00  0.00    -0.504 OA
ATOM     19  H   UNL     1      23.041  19.499  39.205  1.00  0.00     0.293 HD
ENDBRANCH  15  18
BRANCH  17  20
ATOM     20  O   UNL     1      22.163  21.765  38.410  1.00  0.00    -0.504 OA
ATOM     21  H   UNL     1      22.178  22.678  37.972  1.00  0.00     0.293 HD
ENDBRANCH  17  20
ENDBRANCH   1  12
BRANCH   2  22
ATOM     22  O   UNL     1      18.070  23.809  38.116  1.00  0.00    -0.502 OA
ATOM     23  H   UNL     1      18.944  24.318  38.152  1.00  0.00     0.293 HD
ENDBRANCH   2  22
BRANCH   6  24
ATOM     24  O   UNL     1      13.835  26.079  40.416  1.00  0.00    -0.507 OA
ATOM     25  H   UNL     1      12.880  26.360  40.255  1.00  0.00     0.293 HD
ENDBRANCH   6  24
BRANCH   8  26
ATOM     26  O   UNL     1      12.982  22.952  43.936  1.00  0.00    -0.508 OA
ATOM     27  H   UNL     1      13.211  23.214  44.887  1.00  0.00     0.293 HD
ENDBRANCH   8  26
TORSDOF 6
ENDMDL
MODEL 2
REMARK VINA RESULT:    -7.789      1.781      2.724
REMARK INTER + INTRA:          -9.088
REMARK INTER:                  -8.825
REMARK INTRA:                  -0.263
REMARK UNBOUND:                 0.295
REMARK SMILES O=c1c(O)c(-c2ccc(O)c(O)c2)oc2cc(O)cc(O)c12
REMARK SMILES IDX 5 1 3 2 2 3 1 4 22 5 20 6 19 7 17 8 16 9 15 10 14 11 6 12
REMARK SMILES IDX 7 13 8 14 9 15 13 16 11 17 10 18 12 20 4 22 21 24 18 26
REMARK H PARENT 10 19 12 21 4 23 21 25 18 27
REMARK Flexibility Score: inf
ROOT
ATOM      1  C   UNL     1      15.862  22.734  41.302  1.00  0.00     0.180 A 
ATOM      2  C   UNL     1      15.264  23.827  40.653  1.00  0.00     0.208 A 
ATOM      3  C   UNL     1      14.205  24.498  41.284  1.00  0.00     0.238 A 
ATOM      4  O   UNL     1      13.638  25.442  40.674  1.00  0.00    -0.285 OA
ATOM      5  C   UNL     1      13.768  24.078  42.564  1.00  0.00     0.111 A 
ATOM      6  C   UNL     1      12.730  24.710  43.312  1.00  0.00     0.134 A 
ATOM      7  C   UNL     1      12.293  24.130  44.511  1.00  0.00     0.093 A 
ATOM      8  C   UNL     1      12.897  22.980  45.018  1.00  0.00     0.123 A 
ATOM      9  C   UNL     1      13.953  22.388  44.322  1.00  0.00     0.094 A 
ATOM     10  C   UNL     1      14.387  22.923  43.107  1.00  0.00     0.146 A 
ATOM     11  O   UNL     1      15.387  22.323  42.472  1.00  0.00    -0.452 OA
ENDROOT
BRANCH   1  12
ATOM     12  C   UNL     1      17.000  21.992  40.711  1.00  0.00     0.025 A 
ATOM     13  C   UNL     1      18.276  22.576  40.706  1.00  0.00     0.016 A 
ATOM     14  C   UNL     1      19.360  21.904  40.136  1.00  0.00     0.051 A 
ATOM     15  C   UNL     1      19.184  20.648  39.549  1.00  0.00     0.157 A 
ATOM     16  C   UNL     1      16.820  20.738  40.102  1.00  0.00     0.062 A 
ATOM     17  C   UNL     1      17.907  20.062  39.527  1.00  0.00     0.158 A 
BRANCH  15  18
ATOM     18  O   UNL     1      20.285  20.000  38.989  1.00  0.00    -0.504 OA
ATOM     19  H   UNL     1      20.944  19.476  39.552  1.00  0.00     0.293 HD
ENDBRANCH  15  18
BRANCH  17  20
ATOM     20  O   UNL     1      17.721  18.816  38.931  1.00  0.00    -0.504 OA
ATOM     21  H   UNL     1      18.428  18.401  38.336  1.00  0.00     0.293 HD
ENDBRANCH  17  20
ENDBRANCH   1  12
BRANCH   2  22
ATOM     22  O   UNL     1      15.696  24.212  39.379  1.00  0.00    -0.502 OA
ATOM     23  H   UNL     1      16.609  23.965  39.018  1.00  0.00     0.293 HD
ENDBRANCH   2  22
BRANCH   6  24
ATOM     24  O   UNL     1      12.121  25.912  42.943  1.00  0.00    -0.507 OA
ATOM     25  H   UNL     1      12.279  26.799  43.398  1.00  0.00     0.293 HD
ENDBRANCH   6  24
BRANCH   8  26
ATOM     26  O   UNL     1      12.446  22.439  46.219  1.00  0.00    -0.508 OA
ATOM     27  H   UNL     1      13.091  22.150  46.945  1.00  0.00     0.293 HD
ENDBRANCH   8  26
TORSDOF 6
ENDMDL
MODEL 3
REMARK VINA RESULT:    -7.395      1.119      6.741
REMARK INTER + INTRA:          -8.613
REMARK INTER:                  -9.077
REMARK INTRA:                   0.464
REMARK UNBOUND:                 0.295
REMARK SMILES O=c1c(O)c(-c2ccc(O)c(O)c2)oc2cc(O)cc(O)c12
REMARK SMILES IDX 5 1 3 2 2 3 1 4 22 5 20 6 19 7 17 8 16 9 15 10 14 11 6 12
REMARK SMILES IDX 7 13 8 14 9 15 13 16 11 17 10 18 12 20 4 22 21 24 18 26
REMARK H PARENT 10 19 12 21 4 23 21 25 18 27
REMARK Flexibility Score: inf
ROOT
ATOM      1  C   UNL     1      16.573  23.116  40.507  1.00  0.00     0.180 A 
ATOM      2  C   UNL     1      17.098  23.959  39.513  1.00  0.00     0.208 A 
ATOM      3  C   UNL     1      18.245  23.554  38.813  1.00  0.00     0.238 A 
ATOM      4  O   UNL     1      18.743  24.337  37.962  1.00  0.00    -0.285 OA
ATOM      5  C   UNL     1      18.844  22.304  39.104  1.00  0.00     0.111 A 
ATOM      6  C   UNL     1      19.985  21.776  38.430  1.00  0.00     0.134 A 
ATOM      7  C   UNL     1      20.570  20.588  38.890  1.00  0.00     0.093 A 
ATOM      8  C   UNL     1      20.017  19.878  39.955  1.00  0.00     0.123 A 
ATOM      9  C   UNL     1      18.866  20.356  40.584  1.00  0.00     0.094 A 
ATOM     10  C   UNL     1      18.281  21.556  40.171  1.00  0.00     0.146 A 
ATOM     11  O   UNL     1      17.194  21.981  40.802  1.00  0.00    -0.452 OA
ENDROOT
BRANCH   1  12
ATOM     12  C   UNL     1      15.351  23.463  41.269  1.00  0.00     0.025 A 
ATOM     13  C   UNL     1      14.507  24.480  40.795  1.00  0.00     0.016 A 
ATOM     14  C   UNL     1      13.361  24.838  41.508  1.00  0.00     0.051 A 
ATOM     15  C   UNL     1      13.047  24.199  42.712  1.00  0.00     0.157 A 
ATOM     16  C   UNL     1      15.045  22.835  42.489  1.00  0.00     0.062 A 
ATOM     17  C   UNL     1      13.896  23.194  43.208  1.00  0.00     0.158 A 
BRANCH  15  18
ATOM     18  O   UNL     1      11.895  24.575  43.400  1.00  0.00    -0.504 OA
ATOM     19  H   UNL     1      11.782  25.501  43.795  1.00  0.00     0.293 HD
ENDBRANCH  15  18
BRANCH  17  20
ATOM     20  O   UNL     1      13.597  22.562  44.414  1.00  0.00    -0.504 OA
ATOM     21  H   UNL     1      12.669  22.604  44.820  1.00  0.00     0.293 HD
ENDBRANCH  17  20
ENDBRANCH   1  12
BRANCH   2  22
ATOM     22  O   UNL     1      16.505  25.199  39.256  1.00  0.00    -0.502 OA
ATOM     23  H   UNL     1      16.521  25.959  39.925  1.00  0.00     0.293 HD
ENDBRANCH   2  22
BRANCH   6  24
ATOM     24  O   UNL     1      20.562  22.356  37.298  1.00  0.00    -0.507 OA
ATOM     25  H   UNL     1      21.223  21.896  36.690  1.00  0.00     0.293 HD
ENDBRANCH   6  24
BRANCH   8  26
ATOM     26  O   UNL     1      20.616  18.693  40.376  1.00  0.00    -0.508 OA
ATOM     27  H   UNL     1      20.553  18.380  41.337  1.00  0.00     0.293 HD
ENDBRANCH   8  26
TORSDOF 6
ENDMDL
MODEL 4
REMARK VINA RESULT:    -6.690      1.673      7.196
REMARK INTER + INTRA:          -7.764
REMARK INTER:                  -7.538
REMARK INTRA:                  -0.226
REMARK UNBOUND:                 0.295
REMARK SMILES O=c1c(O)c(-c2ccc(O)c(O)c2)oc2cc(O)cc(O)c12
REMARK SMILES IDX 5 1 3 2 2 3 1 4 22 5 20 6 19 7 17 8 16 9 15 10 14 11 6 12
REMARK SMILES IDX 7 13 8 14 9 15 13 16 11 17 10 18 12 20 4 22 21 24 18 26
REMARK H PARENT 10 19 12 21 4 23 21 25 18 27
REMARK Flexibility Score: inf
ROOT
ATOM      1  C   UNL     1      17.040  22.087  40.908  1.00  0.00     0.180 A 
ATOM      2  C   UNL     1      17.155  20.714  40.632  1.00  0.00     0.208 A 
ATOM      3  C   UNL     1      18.366  20.222  40.121  1.00  0.00     0.238 A 
ATOM      4  O   UNL     1      18.445  19.001  39.825  1.00  0.00    -0.285 OA
ATOM      5  C   UNL     1      19.452  21.105  39.907  1.00  0.00     0.111 A 
ATOM      6  C   UNL     1      20.737  20.708  39.430  1.00  0.00     0.134 A 
ATOM      7  C   UNL     1      21.695  21.686  39.133  1.00  0.00     0.093 A 
ATOM      8  C   UNL     1      21.438  23.038  39.355  1.00  0.00     0.123 A 
ATOM      9  C   UNL     1      20.204  23.432  39.877  1.00  0.00     0.094 A 
ATOM     10  C   UNL     1      19.216  22.483  40.150  1.00  0.00     0.146 A 
ATOM     11  O   UNL     1      18.053  22.900  40.635  1.00  0.00    -0.452 OA
ENDROOT
BRANCH   1  12
ATOM     12  C   UNL     1      15.803  22.677  41.473  1.00  0.00     0.025 A 
ATOM     13  C   UNL     1      15.060  23.588  40.707  1.00  0.00     0.016 A 
ATOM     14  C   UNL     1      13.903  24.171  41.226  1.00  0.00     0.051 A 
ATOM     15  C   UNL     1      13.478  23.867  42.523  1.00  0.00     0.157 A 
ATOM     16  C   UNL     1      15.387  22.386  42.784  1.00  0.00     0.062 A 
ATOM     17  C   UNL     1      14.226  22.973  43.309  1.00  0.00     0.158 A 
BRANCH  15  18
ATOM     18  O   UNL     1      12.317  24.462  43.015  1.00  0.00    -0.504 OA
ATOM     19  H   UNL     1      11.864  24.142  43.862  1.00  0.00     0.293 HD
ENDBRANCH  15  18
BRANCH  17  20
ATOM     20  O   UNL     1      13.816  22.675  44.608  1.00  0.00    -0.504 OA
ATOM     21  H   UNL     1      12.867  22.383  44.811  1.00  0.00     0.293 HD
ENDBRANCH  17  20
ENDBRANCH   1  12
BRANCH   2  22
ATOM     22  O   UNL     1      16.063  19.863  40.830  1.00  0.00    -0.502 OA
ATOM     23  H   UNL     1      15.735  19.225  40.116  1.00  0.00     0.293 HD
ENDBRANCH   2  22
BRANCH   6  24
ATOM     24  O   UNL     1      21.130  19.378  39.261  1.00  0.00    -0.507 OA
ATOM     25  H   UNL     1      21.919  18.949  39.721  1.00  0.00     0.293 HD
ENDBRANCH   6  24
BRANCH   8  26
ATOM     26  O   UNL     1      22.419  23.982  39.062  1.00  0.00    -0.508 OA
ATOM     27  H   UNL     1      22.214  24.805  38.510  1.00  0.00     0.293 HD
ENDBRANCH   8  26
TORSDOF 6
ENDMDL
MODEL 5
REMARK VINA RESULT:    -6.382      1.481      6.929
REMARK INTER + INTRA:          -7.393
REMARK INTER:                  -7.924
REMARK INTRA:                   0.531
REMARK UNBOUND:                 0.295
REMARK SMILES O=c1c(O)c(-c2ccc(O)c(O)c2)oc2cc(O)cc(O)c12
REMARK SMILES IDX 5 1 3 2 2 3 1 4 22 5 20 6 19 7 17 8 16 9 15 10 14 11 6 12
REMARK SMILES IDX 7 13 8 14 9 15 13 16 11 17 10 18 12 20 4 22 21 24 18 26
REMARK H PARENT 10 19 12 21 4 23 21 25 18 27
REMARK Flexibility Score: inf
ROOT
ATOM      1  C   UNL     1      14.998  23.489  41.643  1.00  0.00     0.180 A 
ATOM      2  C   UNL     1      15.093  24.494  40.665  1.00  0.00     0.208 A 
ATOM      3  C   UNL     1      16.117  24.417  39.708  1.00  0.00     0.238 A 
ATOM      4  O   UNL     1      16.230  25.348  38.868  1.00  0.00    -0.285 OA
ATOM      5  C   UNL     1      17.021  23.328  39.729  1.00  0.00     0.111 A 
ATOM      6  C   UNL     1      18.072  23.129  38.784  1.00  0.00     0.134 A 
ATOM      7  C   UNL     1      18.988  22.087  38.978  1.00  0.00     0.093 A 
ATOM      8  C   UNL     1      18.854  21.200  40.046  1.00  0.00     0.123 A 
ATOM      9  C   UNL     1      17.795  21.351  40.944  1.00  0.00     0.094 A 
ATOM     10  C   UNL     1      16.886  22.402  40.796  1.00  0.00     0.146 A 
ATOM     11  O   UNL     1      15.900  22.517  41.677  1.00  0.00    -0.452 OA
ENDROOT
BRANCH   1  12
ATOM     12  C   UNL     1      13.930  23.488  42.670  1.00  0.00     0.025 A 
ATOM     13  C   UNL     1      12.901  24.439  42.596  1.00  0.00     0.016 A 
ATOM     14  C   UNL     1      11.895  24.470  43.565  1.00  0.00     0.051 A 
ATOM     15  C   UNL     1      11.909  23.563  44.629  1.00  0.00     0.157 A 
ATOM     16  C   UNL     1      13.955  22.589  43.751  1.00  0.00     0.062 A 
ATOM     17  C   UNL     1      12.947  22.620  44.726  1.00  0.00     0.158 A 
BRANCH  15  18
ATOM     18  O   UNL     1      10.891  23.615  45.580  1.00  0.00    -0.504 OA
ATOM     19  H   UNL     1      11.070  23.850  46.548  1.00  0.00     0.293 HD
ENDBRANCH  15  18
BRANCH  17  20
ATOM     20  O   UNL     1      12.976  21.721  45.792  1.00  0.00    -0.504 OA
ATOM     21  H   UNL     1      12.229  21.054  45.943  1.00  0.00     0.293 HD
ENDBRANCH  17  20
ENDBRANCH   1  12
BRANCH   2  22
ATOM     22  O   UNL     1      14.202  25.572  40.675  1.00  0.00    -0.502 OA
ATOM     23  H   UNL     1      13.496  25.687  41.391  1.00  0.00     0.293 HD
ENDBRANCH   2  22
BRANCH   6  24
ATOM     24  O   UNL     1      18.242  23.901  37.631  1.00  0.00    -0.507 OA
ATOM     25  H   UNL     1      17.492  24.333  37.113  1.00  0.00     0.293 HD
ENDBRANCH   6  24
BRANCH   8  26
ATOM     26  O   UNL     1      19.774  20.166  40.201  1.00  0.00    -0.508 OA
ATOM     27  H   UNL     1      20.617  20.120  39.643  1.00  0.00     0.293 HD
ENDBRANCH   8  26
TORSDOF 6
ENDMDL
MODEL 6
REMARK VINA RESULT:    -6.041      1.808      6.954
REMARK INTER + INTRA:          -6.983
REMARK INTER:                  -7.187
REMARK INTRA:                   0.205
REMARK UNBOUND:                 0.295
REMARK SMILES O=c1c(O)c(-c2ccc(O)c(O)c2)oc2cc(O)cc(O)c12
REMARK SMILES IDX 5 1 3 2 2 3 1 4 22 5 20 6 19 7 17 8 16 9 15 10 14 11 6 12
REMARK SMILES IDX 7 13 8 14 9 15 13 16 11 17 10 18 12 20 4 22 21 24 18 26
REMARK H PARENT 10 19 12 21 4 23 21 25 18 27
REMARK Flexibility Score: inf
ROOT
ATOM      1  C   UNL     1      16.575  22.938  40.672  1.00  0.00     0.180 A 
ATOM      2  C   UNL     1      17.277  21.721  40.621  1.00  0.00     0.208 A 
ATOM      3  C   UNL     1      18.409  21.622  39.797  1.00  0.00     0.238 A 
ATOM      4  O   UNL     1      19.001  20.515  39.714  1.00  0.00    -0.285 OA
ATOM      5  C   UNL     1      18.835  22.745  39.047  1.00  0.00     0.111 A 
ATOM      6  C   UNL     1      19.991  22.769  38.211  1.00  0.00     0.134 A 
ATOM      7  C   UNL     1      20.243  23.894  37.414  1.00  0.00     0.093 A 
ATOM      8  C   UNL     1      19.419  25.018  37.472  1.00  0.00     0.123 A 
ATOM      9  C   UNL     1      18.319  25.027  38.332  1.00  0.00     0.094 A 
ATOM     10  C   UNL     1      18.022  23.907  39.111  1.00  0.00     0.146 A 
ATOM     11  O   UNL     1      16.960  23.952  39.907  1.00  0.00    -0.452 OA
ENDROOT
BRANCH   1  12
ATOM     12  C   UNL     1      15.387  23.126  41.537  1.00  0.00     0.025 A 
ATOM     13  C   UNL     1      14.379  24.018  41.141  1.00  0.00     0.016 A 
ATOM     14  C   UNL     1      13.260  24.228  41.950  1.00  0.00     0.051 A 
ATOM     15  C   UNL     1      13.137  23.561  43.173  1.00  0.00     0.157 A 
ATOM     16  C   UNL     1      15.273  22.472  42.776  1.00  0.00     0.062 A 
ATOM     17  C   UNL     1      14.151  22.682  43.592  1.00  0.00     0.158 A 
BRANCH  15  18
ATOM     18  O   UNL     1      12.008  23.788  43.959  1.00  0.00    -0.504 OA
ATOM     19  H   UNL     1      11.535  23.039  44.450  1.00  0.00     0.293 HD
ENDBRANCH  15  18
BRANCH  17  20
ATOM     20  O   UNL     1      14.042  22.025  44.817  1.00  0.00    -0.504 OA
ATOM     21  H   UNL     1      13.419  21.236  44.942  1.00  0.00     0.293 HD
ENDBRANCH  17  20
ENDBRANCH   1  12
BRANCH   2  22
ATOM     22  O   UNL     1      16.826  20.618  41.353  1.00  0.00    -0.502 OA
ATOM     23  H   UNL     1      16.866  20.583  42.364  1.00  0.00     0.293 HD
ENDBRANCH   2  22
BRANCH   6  24
ATOM     24  O   UNL     1      20.930  21.737  38.146  1.00  0.00    -0.507 OA
ATOM     25  H   UNL     1      21.921  21.852  38.299  1.00  0.00     0.293 HD
ENDBRANCH   6  24
BRANCH   8  26
ATOM     26  O   UNL     1      19.709  26.125  36.677  1.00  0.00    -0.508 OA
ATOM     27  H   UNL     1      18.980  26.632  36.191  1.00  0.00     0.293 HD
ENDBRANCH   8  26
TORSDOF 6
ENDMDL
MODEL 7
REMARK VINA RESULT:    -5.970      1.442      7.456
REMARK INTER + INTRA:          -6.897
REMARK INTER:                  -7.361
REMARK INTRA:                   0.465
REMARK UNBOUND:                 0.295
REMARK SMILES O=c1c(O)c(-c2ccc(O)c(O)c2)oc2cc(O)cc(O)c12
REMARK SMILES IDX 5 1 3 2 2 3 1 4 22 5 20 6 19 7 17 8 16 9 15 10 14 11 6 12
REMARK SMILES IDX 7 13 8 14 9 15 13 16 11 17 10 18 12 20 4 22 21 24 18 26
REMARK H PARENT 10 19 12 21 4 23 21 25 18 27
REMARK Flexibility Score: inf
ROOT
ATOM      1  C   UNL     1      17.953  22.156  39.884  1.00  0.00     0.180 A 
ATOM      2  C   UNL     1      17.935  21.001  40.684  1.00  0.00     0.208 A 
ATOM      3  C   UNL     1      19.009  20.100  40.603  1.00  0.00     0.238 A 
ATOM      4  O   UNL     1      18.962  19.041  41.281  1.00  0.00    -0.285 OA
ATOM      5  C   UNL     1      20.095  20.374  39.736  1.00  0.00     0.111 A 
ATOM      6  C   UNL     1      21.253  19.551  39.604  1.00  0.00     0.134 A 
ATOM      7  C   UNL     1      22.205  19.852  38.620  1.00  0.00     0.093 A 
ATOM      8  C   UNL     1      22.072  20.979  37.810  1.00  0.00     0.123 A 
ATOM      9  C   UNL     1      20.972  21.823  37.971  1.00  0.00     0.094 A 
ATOM     10  C   UNL     1      19.988  21.530  38.919  1.00  0.00     0.146 A 
ATOM     11  O   UNL     1      18.953  22.352  39.033  1.00  0.00    -0.452 OA
ENDROOT
BRANCH   1  12
ATOM     12  C   UNL     1      16.869  23.165  39.933  1.00  0.00     0.025 A 
ATOM     13  C   UNL     1      16.936  24.292  39.100  1.00  0.00     0.016 A 
ATOM     14  C   UNL     1      15.937  25.266  39.144  1.00  0.00     0.051 A 
ATOM     15  C   UNL     1      14.863  25.138  40.031  1.00  0.00     0.157 A 
ATOM     16  C   UNL     1      15.800  23.048  40.839  1.00  0.00     0.062 A 
ATOM     17  C   UNL     1      14.796  24.025  40.886  1.00  0.00     0.158 A 
BRANCH  15  18
ATOM     18  O   UNL     1      13.878  26.125  40.051  1.00  0.00    -0.504 OA
ATOM     19  H   UNL     1      13.553  26.544  40.914  1.00  0.00     0.293 HD
ENDBRANCH  15  18
BRANCH  17  20
ATOM     20  O   UNL     1      13.736  23.898  41.783  1.00  0.00    -0.504 OA
ATOM     21  H   UNL     1      13.767  23.240  42.552  1.00  0.00     0.293 HD
ENDBRANCH  17  20
ENDBRANCH   1  12
BRANCH   2  22
ATOM     22  O   UNL     1      16.843  20.738  41.517  1.00  0.00    -0.502 OA
ATOM     23  H   UNL     1      16.948  20.333  42.439  1.00  0.00     0.293 HD
ENDBRANCH   2  22
BRANCH   6  24
ATOM     24  O   UNL     1      21.530  18.455  40.424  1.00  0.00    -0.507 OA
ATOM     25  H   UNL     1      22.217  18.449  41.163  1.00  0.00     0.293 HD
ENDBRANCH   6  24
BRANCH   8  26
ATOM     26  O   UNL     1      23.045  21.255  36.852  1.00  0.00    -0.508 OA
ATOM     27  H   UNL     1      23.465  20.521  36.297  1.00  0.00     0.293 HD
ENDBRANCH   8  26
TORSDOF 6
ENDMDL
MODEL 8
REMARK VINA RESULT:    -5.927     16.312     18.430
REMARK INTER + INTRA:          -6.845
REMARK INTER:                  -7.291
REMARK INTRA:                   0.446
REMARK UNBOUND:                 0.295
REMARK SMILES O=c1c(O)c(-c2ccc(O)c(O)c2)oc2cc(O)cc(O)c12
REMARK SMILES IDX 5 1 3 2 2 3 1 4 22 5 20 6 19 7 17 8 16 9 15 10 14 11 6 12
REMARK SMILES IDX 7 13 8 14 9 15 13 16 11 17 10 18 12 20 4 22 21 24 18 26
REMARK H PARENT 10 19 12 21 4 23 21 25 18 27
REMARK Flexibility Score: inf
ROOT
ATOM      1  C   UNL     1      30.584  10.928  39.754  1.00  0.00     0.180 A 
ATOM      2  C   UNL     1      30.778   9.742  39.026  1.00  0.00     0.208 A 
ATOM      3  C   UNL     1      30.802   9.799  37.624  1.00  0.00     0.238 A 
ATOM      4  O   UNL     1      30.922   8.726  36.977  1.00  0.00    -0.285 OA
ATOM      5  C   UNL     1      30.649  11.044  36.967  1.00  0.00     0.111 A 
ATOM      6  C   UNL     1      30.697  11.225  35.553  1.00  0.00     0.134 A 
ATOM      7  C   UNL     1      30.403  12.481  35.006  1.00  0.00     0.093 A 
ATOM      8  C   UNL     1      30.127  13.576  35.825  1.00  0.00     0.123 A 
ATOM      9  C   UNL     1      30.135  13.423  37.213  1.00  0.00     0.094 A 
ATOM     10  C   UNL     1      30.390  12.175  37.785  1.00  0.00     0.146 A 
ATOM     11  O   UNL     1      30.378  12.070  39.109  1.00  0.00    -0.452 OA
ENDROOT
BRANCH   1  12
ATOM     12  C   UNL     1      30.573  10.951  41.235  1.00  0.00     0.025 A 
ATOM     13  C   UNL     1      31.125   9.875  41.947  1.00  0.00     0.016 A 
ATOM     14  C   UNL     1      31.106   9.866  43.343  1.00  0.00     0.051 A 
ATOM     15  C   UNL     1      30.523  10.922  44.050  1.00  0.00     0.157 A 
ATOM     16  C   UNL     1      29.968  12.003  41.947  1.00  0.00     0.062 A 
ATOM     17  C   UNL     1      29.947  11.995  43.349  1.00  0.00     0.158 A 
BRANCH  15  18
ATOM     18  O   UNL     1      30.522  10.886  45.444  1.00  0.00    -0.504 OA
ATOM     19  H   UNL     1      30.245  10.061  45.962  1.00  0.00     0.293 HD
ENDBRANCH  15  18
BRANCH  17  20
ATOM     20  O   UNL     1      29.351  13.044  44.047  1.00  0.00    -0.504 OA
ATOM     21  H   UNL     1      29.174  12.986  45.043  1.00  0.00     0.293 HD
ENDBRANCH  17  20
ENDBRANCH   1  12
BRANCH   2  22
ATOM     22  O   UNL     1      30.905   8.520  39.694  1.00  0.00    -0.502 OA
ATOM     23  H   UNL     1      30.518   8.361  40.616  1.00  0.00     0.293 HD
ENDBRANCH   2  22
BRANCH   6  24
ATOM     24  O   UNL     1      31.053  10.221  34.648  1.00  0.00    -0.507 OA
ATOM     25  H   UNL     1      30.480   9.422  34.422  1.00  0.00     0.293 HD
ENDBRANCH   6  24
BRANCH   8  26
ATOM     26  O   UNL     1      29.853  14.814  35.248  1.00  0.00    -0.508 OA
ATOM     27  H   UNL     1      29.479  15.581  35.793  1.00  0.00     0.293 HD
ENDBRANCH   8  26
TORSDOF 6
ENDMDL
MODEL 9
REMARK VINA RESULT:    -5.765     14.978     17.932
REMARK INTER + INTRA:          -6.649
REMARK INTER:                  -6.332
REMARK INTRA:                  -0.318
REMARK UNBOUND:                 0.295
REMARK SMILES O=c1c(O)c(-c2ccc(O)c(O)c2)oc2cc(O)cc(O)c12
REMARK SMILES IDX 5 1 3 2 2 3 1 4 22 5 20 6 19 7 17 8 16 9 15 10 14 11 6 12
REMARK SMILES IDX 7 13 8 14 9 15 13 16 11 17 10 18 12 20 4 22 21 24 18 26
REMARK H PARENT 10 19 12 21 4 23 21 25 18 27
REMARK Flexibility Score: inf
ROOT
ATOM      1  C   UNL     1      29.816  11.524  37.927  1.00  0.00     0.180 A 
ATOM      2  C   UNL     1      30.119  10.178  37.661  1.00  0.00     0.208 A 
ATOM      3  C   UNL     1      30.520   9.348  38.719  1.00  0.00     0.238 A 
ATOM      4  O   UNL     1      30.841   8.158  38.466  1.00  0.00    -0.285 OA
ATOM      5  C   UNL     1      30.597   9.869  40.033  1.00  0.00     0.111 A 
ATOM      6  C   UNL     1      30.954   9.109  41.187  1.00  0.00     0.134 A 
ATOM      7  C   UNL     1      31.125   9.759  42.416  1.00  0.00     0.093 A 
ATOM      8  C   UNL     1      30.891  11.128  42.547  1.00  0.00     0.123 A 
ATOM      9  C   UNL     1      30.484  11.870  41.436  1.00  0.00     0.094 A 
ATOM     10  C   UNL     1      30.339  11.256  40.190  1.00  0.00     0.146 A 
ATOM     11  O   UNL     1      29.962  12.000  39.157  1.00  0.00    -0.452 OA
ENDROOT
BRANCH   1  12
ATOM     12  C   UNL     1      29.362  12.454  36.867  1.00  0.00     0.025 A 
ATOM     13  C   UNL     1      30.273  13.362  36.308  1.00  0.00     0.016 A 
ATOM     14  C   UNL     1      29.862  14.262  35.322  1.00  0.00     0.051 A 
ATOM     15  C   UNL     1      28.532  14.280  34.890  1.00  0.00     0.157 A 
ATOM     16  C   UNL     1      28.020  12.486  36.447  1.00  0.00     0.062 A 
ATOM     17  C   UNL     1      27.604  13.390  35.458  1.00  0.00     0.158 A 
BRANCH  15  18
ATOM     18  O   UNL     1      28.151  15.187  33.902  1.00  0.00    -0.504 OA
ATOM     19  H   UNL     1      28.807  15.837  33.486  1.00  0.00     0.293 HD
ENDBRANCH  15  18
BRANCH  17  20
ATOM     20  O   UNL     1      26.273  13.412  35.043  1.00  0.00    -0.504 OA
ATOM     21  H   UNL     1      25.790  12.565  34.768  1.00  0.00     0.293 HD
ENDBRANCH  17  20
ENDBRANCH   1  12
BRANCH   2  22
ATOM     22  O   UNL     1      30.056   9.688  36.352  1.00  0.00    -0.502 OA
ATOM     23  H   UNL     1      30.201  10.279  35.543  1.00  0.00     0.293 HD
ENDBRANCH   2  22
BRANCH   6  24
ATOM     24  O   UNL     1      31.122   7.722  41.187  1.00  0.00    -0.507 OA
ATOM     25  H   UNL     1      31.725   7.216  40.556  1.00  0.00     0.293 HD
ENDBRANCH   6  24
BRANCH   8  26
ATOM     26  O   UNL     1      31.056  11.738  43.788  1.00  0.00    -0.508 OA
ATOM     27  H   UNL     1      31.404  11.225  44.588  1.00  0.00     0.293 HD
ENDBRANCH   8  26
TORSDOF 6
ENDMDL
