MODEL 1
REMARK VINA RESULT:    -5.613      0.000      0.000
REMARK INTER + INTRA:         -11.725
REMARK INTER:                 -10.535
REMARK INTRA:                  -1.190
REMARK UNBOUND:                -1.190
REMARK SMILES O=C([O-])CCCCCCCCCCCCCCC(=O)[O-]
REMARK SMILES IDX 10 1 9 2 8 3 7 4 6 5 5 6 4 7 2 8 1 9 3 10 11 11 12 12 13 13
REMARK SMILES IDX 14 14 15 15 16 16 17 17 18 18 19 19 20 20
REMARK H PARENT
REMARK Flexibility Score: inf
ROOT
ATOM      1  C   UNL     1      86.599 326.716 195.864  1.00  0.00     0.000 C 
ENDROOT
BRANCH   1   2
ATOM      2  C   UNL     1      86.825 326.748 194.336  1.00  0.00     0.000 C 
BRANCH   2   3
ATOM      3  C   UNL     1      85.940 325.732 193.593  1.00  0.00     0.000 C 
BRANCH   3   4
ATOM      4  C   UNL     1      86.760 324.571 192.988  1.00  0.00     0.000 C 
BRANCH   4   5
ATOM      5  C   UNL     1      88.149 324.995 192.472  1.00  0.00     0.000 C 
BRANCH   5   6
ATOM      6  C   UNL     1      88.497 324.490 191.063  1.00  0.00     0.006 C 
BRANCH   6   7
ATOM      7  C   UNL     1      88.469 322.960 190.955  1.00  0.00     0.053 C 
BRANCH   7   8
ATOM      8  C   UNL     1      87.499 322.530 189.901  1.00  0.00     0.041 C 
ATOM      9  O   UNL     1      87.915 322.067 188.806  1.00  0.00    -0.550 OA
ATOM     10  O   UNL     1      86.133 322.594 190.147  1.00  0.00    -0.550 OA
ENDBRANCH   7   8
ENDBRANCH   6   7
ENDBRANCH   5   6
ENDBRANCH   4   5
ENDBRANCH   3   4
ENDBRANCH   2   3
ENDBRANCH   1   2
BRANCH   1  11
ATOM     11  C   UNL     1      87.888 326.490 196.677  1.00  0.00     0.000 C 
BRANCH  11  12
ATOM     12  C   UNL     1      88.886 325.506 196.045  1.00  0.00     0.000 C 
BRANCH  12  13
ATOM     13  C   UNL     1      89.253 324.346 196.982  1.00  0.00     0.000 C 
BRANCH  13  14
ATOM     14  C   UNL     1      88.787 324.634 198.417  1.00  0.00     0.000 C 
BRANCH  14  15
ATOM     15  C   UNL     1      89.930 325.100 199.337  1.00  0.00     0.000 C 
BRANCH  15  16
ATOM     16  C   UNL     1      89.728 326.488 199.972  1.00  0.00     0.006 C 
BRANCH  16  17
ATOM     17  C   UNL     1      90.712 326.773 201.114  1.00  0.00     0.053 C 
BRANCH  17  18
ATOM     18  C   UNL     1      89.996 326.799 202.427  1.00  0.00     0.041 C 
ATOM     19  O   UNL     1      90.312 327.646 203.304  1.00  0.00    -0.550 OA
ATOM     20  O   UNL     1      88.946 325.920 202.665  1.00  0.00    -0.550 OA
ENDBRANCH  17  18
ENDBRANCH  16  17
ENDBRANCH  15  16
ENDBRANCH  14  15
ENDBRANCH  13  14
ENDBRANCH  12  13
ENDBRANCH  11  12
ENDBRANCH   1  11
TORSDOF 15
ENDMDL
MODEL 2
REMARK VINA RESULT:    -5.599      1.787     10.360
REMARK INTER + INTRA:         -11.700
REMARK INTER:                 -11.150
REMARK INTRA:                  -0.550
REMARK UNBOUND:                -1.190
REMARK SMILES O=C([O-])CCCCCCCCCCCCCCC(=O)[O-]
REMARK SMILES IDX 10 1 9 2 8 3 7 4 6 5 5 6 4 7 2 8 1 9 3 10 11 11 12 12 13 13
REMARK SMILES IDX 14 14 15 15 16 16 17 17 18 18 19 19 20 20
REMARK H PARENT
REMARK Flexibility Score: inf
ROOT
ATOM      1  C   UNL     1      87.181 326.499 195.712  1.00  0.00     0.000 C 
ENDROOT
BRANCH   1   2
ATOM      2  C   UNL     1      88.633 326.527 196.238  1.00  0.00     0.000 C 
BRANCH   2   3
ATOM      3  C   UNL     1      88.699 326.487 197.775  1.00  0.00     0.000 C 
BRANCH   3   4
ATOM      4  C   UNL     1      89.069 325.085 198.309  1.00  0.00     0.000 C 
BRANCH   4   5
ATOM      5  C   UNL     1      89.199 325.020 199.843  1.00  0.00     0.000 C 
BRANCH   5   6
ATOM      6  C   UNL     1      89.496 326.365 200.525  1.00  0.00     0.006 C 
BRANCH   6   7
ATOM      7  C   UNL     1      89.891 326.210 201.999  1.00  0.00     0.053 C 
BRANCH   7   8
ATOM      8  C   UNL     1      91.012 327.141 202.338  1.00  0.00     0.041 C 
ATOM      9  O   UNL     1      92.024 327.213 201.592  1.00  0.00    -0.550 OA
ATOM     10  O   UNL     1      90.917 327.966 203.451  1.00  0.00    -0.550 OA
ENDBRANCH   7   8
ENDBRANCH   6   7
ENDBRANCH   5   6
ENDBRANCH   4   5
ENDBRANCH   3   4
ENDBRANCH   2   3
ENDBRANCH   1   2
BRANCH   1  11
ATOM     11  C   UNL     1      87.058 326.829 194.212  1.00  0.00     0.000 C 
BRANCH  11  12
ATOM     12  C   UNL     1      88.112 326.159 193.315  1.00  0.00     0.000 C 
BRANCH  12  13
ATOM     13  C   UNL     1      87.581 324.901 192.612  1.00  0.00     0.000 C 
BRANCH  13  14
ATOM     14  C   UNL     1      88.359 324.630 191.315  1.00  0.00     0.000 C 
BRANCH  14  15
ATOM     15  C   UNL     1      87.837 323.401 190.548  1.00  0.00     0.000 C 
BRANCH  15  16
ATOM     16  C   UNL     1      88.398 323.238 189.123  1.00  0.00     0.006 C 
BRANCH  16  17
ATOM     17  C   UNL     1      89.693 324.027 188.896  1.00  0.00     0.053 C 
BRANCH  17  18
ATOM     18  C   UNL     1      90.733 323.155 188.266  1.00  0.00     0.041 C 
ATOM     19  O   UNL     1      90.393 322.136 187.610  1.00  0.00    -0.550 OA
ATOM     20  O   UNL     1      92.077 323.496 188.362  1.00  0.00    -0.550 OA
ENDBRANCH  17  18
ENDBRANCH  16  17
ENDBRANCH  15  16
ENDBRANCH  14  15
ENDBRANCH  13  14
ENDBRANCH  12  13
ENDBRANCH  11  12
ENDBRANCH   1  11
TORSDOF 15
ENDMDL
MODEL 3
REMARK VINA RESULT:    -5.583      1.508      2.267
REMARK INTER + INTRA:         -11.669
REMARK INTER:                 -11.073
REMARK INTRA:                  -0.596
REMARK UNBOUND:                -1.190
REMARK SMILES O=C([O-])CCCCCCCCCCCCCCC(=O)[O-]
REMARK SMILES IDX 10 1 9 2 8 3 7 4 6 5 5 6 4 7 2 8 1 9 3 10 11 11 12 12 13 13
REMARK SMILES IDX 14 14 15 15 16 16 17 17 18 18 19 19 20 20
REMARK H PARENT
REMARK Flexibility Score: inf
ROOT
ATOM      1  C   UNL     1      86.795 326.766 195.864  1.00  0.00     0.000 C 
ENDROOT
BRANCH   1   2
ATOM      2  C   UNL     1      86.699 326.800 194.324  1.00  0.00     0.000 C 
BRANCH   2   3
ATOM      3  C   UNL     1      87.919 326.149 193.647  1.00  0.00     0.000 C 
BRANCH   3   4
ATOM      4  C   UNL     1      87.537 324.894 192.832  1.00  0.00     0.000 C 
BRANCH   4   5
ATOM      5  C   UNL     1      88.603 323.783 192.866  1.00  0.00     0.000 C 
BRANCH   5   6
ATOM      6  C   UNL     1      88.924 323.152 191.501  1.00  0.00     0.006 C 
BRANCH   6   7
ATOM      7  C   UNL     1      88.815 324.152 190.343  1.00  0.00     0.053 C 
BRANCH   7   8
ATOM      8  C   UNL     1      88.926 323.442 189.031  1.00  0.00     0.041 C 
ATOM      9  O   UNL     1      87.927 322.850 188.544  1.00  0.00    -0.550 OA
ATOM     10  O   UNL     1      90.119 323.479 188.320  1.00  0.00    -0.550 OA
ENDBRANCH   7   8
ENDBRANCH   6   7
ENDBRANCH   5   6
ENDBRANCH   4   5
ENDBRANCH   3   4
ENDBRANCH   2   3
ENDBRANCH   1   2
BRANCH   1  11
ATOM     11  C   UNL     1      88.068 326.077 196.392  1.00  0.00     0.000 C 
BRANCH  11  12
ATOM     12  C   UNL     1      88.756 326.801 197.561  1.00  0.00     0.000 C 
BRANCH  12  13
ATOM     13  C   UNL     1      88.997 325.884 198.769  1.00  0.00     0.000 C 
BRANCH  13  14
ATOM     14  C   UNL     1      89.518 326.687 199.970  1.00  0.00     0.000 C 
BRANCH  14  15
ATOM     15  C   UNL     1      88.854 326.279 201.299  1.00  0.00     0.000 C 
BRANCH  15  16
ATOM     16  C   UNL     1      89.791 326.280 202.521  1.00  0.00     0.006 C 
BRANCH  16  17
ATOM     17  C   UNL     1      89.492 327.420 203.502  1.00  0.00     0.053 C 
BRANCH  17  18
ATOM     18  C   UNL     1      89.129 326.872 204.846  1.00  0.00     0.041 C 
ATOM     19  O   UNL     1      88.595 325.736 204.944  1.00  0.00    -0.550 OA
ATOM     20  O   UNL     1      89.426 327.595 205.995  1.00  0.00    -0.550 OA
ENDBRANCH  17  18
ENDBRANCH  16  17
ENDBRANCH  15  16
ENDBRANCH  14  15
ENDBRANCH  13  14
ENDBRANCH  12  13
ENDBRANCH  11  12
ENDBRANCH   1  11
TORSDOF 15
ENDMDL
MODEL 4
REMARK VINA RESULT:    -5.572      1.986     10.385
REMARK INTER + INTRA:         -11.648
REMARK INTER:                 -10.702
REMARK INTRA:                  -0.947
REMARK UNBOUND:                -1.190
REMARK SMILES O=C([O-])CCCCCCCCCCCCCCC(=O)[O-]
REMARK SMILES IDX 10 1 9 2 8 3 7 4 6 5 5 6 4 7 2 8 1 9 3 10 11 11 12 12 13 13
REMARK SMILES IDX 14 14 15 15 16 16 17 17 18 18 19 19 20 20
REMARK H PARENT
REMARK Flexibility Score: inf
ROOT
ATOM      1  C   UNL     1      89.303 325.104 198.313  1.00  0.00     0.000 C 
ENDROOT
BRANCH   1   2
ATOM      2  C   UNL     1      89.181 324.993 199.849  1.00  0.00     0.000 C 
BRANCH   2   3
ATOM      3  C   UNL     1      89.215 326.368 200.539  1.00  0.00     0.000 C 
BRANCH   3   4
ATOM      4  C   UNL     1      90.649 326.794 200.927  1.00  0.00     0.000 C 
BRANCH   4   5
ATOM      5  C   UNL     1      90.804 327.170 202.413  1.00  0.00     0.000 C 
BRANCH   5   6
ATOM      6  C   UNL     1      89.674 326.671 203.328  1.00  0.00     0.006 C 
BRANCH   6   7
ATOM      7  C   UNL     1      89.193 327.741 204.316  1.00  0.00     0.053 C 
BRANCH   7   8
ATOM      8  C   UNL     1      89.654 327.415 205.701  1.00  0.00     0.041 C 
ATOM      9  O   UNL     1      90.837 327.666 206.051  1.00  0.00    -0.550 OA
ATOM     10  O   UNL     1      88.762 326.882 206.623  1.00  0.00    -0.550 OA
ENDBRANCH   7   8
ENDBRANCH   6   7
ENDBRANCH   5   6
ENDBRANCH   4   5
ENDBRANCH   3   4
ENDBRANCH   2   3
ENDBRANCH   1   2
BRANCH   1  11
ATOM     11  C   UNL     1      88.672 326.383 197.731  1.00  0.00     0.000 C 
BRANCH  11  12
ATOM     12  C   UNL     1      88.472 326.369 196.207  1.00  0.00     0.000 C 
BRANCH  12  13
ATOM     13  C   UNL     1      87.003 326.550 195.797  1.00  0.00     0.000 C 
BRANCH  13  14
ATOM     14  C   UNL     1      86.877 326.723 194.276  1.00  0.00     0.000 C 
BRANCH  14  15
ATOM     15  C   UNL     1      88.165 326.345 193.520  1.00  0.00     0.000 C 
BRANCH  15  16
ATOM     16  C   UNL     1      88.057 325.085 192.642  1.00  0.00     0.006 C 
BRANCH  16  17
ATOM     17  C   UNL     1      86.622 324.554 192.532  1.00  0.00     0.053 C 
BRANCH  17  18
ATOM     18  C   UNL     1      86.499 323.233 193.225  1.00  0.00     0.041 C 
ATOM     19  O   UNL     1      86.672 323.153 194.470  1.00  0.00    -0.550 OA
ATOM     20  O   UNL     1      86.145 322.100 192.504  1.00  0.00    -0.550 OA
ENDBRANCH  17  18
ENDBRANCH  16  17
ENDBRANCH  15  16
ENDBRANCH  14  15
ENDBRANCH  13  14
ENDBRANCH  12  13
ENDBRANCH  11  12
ENDBRANCH   1  11
TORSDOF 15
ENDMDL
MODEL 5
REMARK VINA RESULT:    -5.561      2.435      4.342
REMARK INTER + INTRA:         -11.628
REMARK INTER:                 -10.736
REMARK INTRA:                  -0.892
REMARK UNBOUND:                -1.190
REMARK SMILES O=C([O-])CCCCCCCCCCCCCCC(=O)[O-]
REMARK SMILES IDX 10 1 9 2 8 3 7 4 6 5 5 6 4 7 2 8 1 9 3 10 11 11 12 12 13 13
REMARK SMILES IDX 14 14 15 15 16 16 17 17 18 18 19 19 20 20
REMARK H PARENT
REMARK Flexibility Score: inf
ROOT
ATOM      1  C   UNL     1      89.090 325.075 198.643  1.00  0.00     0.000 C 
ENDROOT
BRANCH   1   2
ATOM      2  C   UNL     1      88.851 325.081 197.117  1.00  0.00     0.000 C 
BRANCH   2   3
ATOM      3  C   UNL     1      88.458 326.474 196.593  1.00  0.00     0.000 C 
BRANCH   3   4
ATOM      4  C   UNL     1      86.987 326.531 196.125  1.00  0.00     0.000 C 
BRANCH   4   5
ATOM      5  C   UNL     1      86.825 326.629 194.596  1.00  0.00     0.000 C 
BRANCH   5   6
ATOM      6  C   UNL     1      88.131 326.497 193.797  1.00  0.00     0.006 C 
BRANCH   6   7
ATOM      7  C   UNL     1      88.067 325.399 192.729  1.00  0.00     0.053 C 
BRANCH   7   8
ATOM      8  C   UNL     1      87.859 324.062 193.368  1.00  0.00     0.041 C 
ATOM      9  O   UNL     1      88.789 323.519 194.019  1.00  0.00    -0.550 OA
ATOM     10  O   UNL     1      86.619 323.439 193.287  1.00  0.00    -0.550 OA
ENDBRANCH   7   8
ENDBRANCH   6   7
ENDBRANCH   5   6
ENDBRANCH   4   5
ENDBRANCH   3   4
ENDBRANCH   2   3
ENDBRANCH   1   2
BRANCH   1  11
ATOM     11  C   UNL     1      89.128 326.481 199.271  1.00  0.00     0.000 C 
BRANCH  11  12
ATOM     12  C   UNL     1      90.082 326.628 200.467  1.00  0.00     0.000 C 
BRANCH  12  13
ATOM     13  C   UNL     1      89.372 326.467 201.819  1.00  0.00     0.000 C 
BRANCH  13  14
ATOM     14  C   UNL     1      90.108 327.245 202.920  1.00  0.00     0.000 C 
BRANCH  14  15
ATOM     15  C   UNL     1      89.193 327.627 204.099  1.00  0.00     0.000 C 
BRANCH  15  16
ATOM     16  C   UNL     1      89.776 327.338 205.494  1.00  0.00     0.006 C 
BRANCH  16  17
ATOM     17  C   UNL     1      88.741 326.758 206.466  1.00  0.00     0.053 C 
BRANCH  17  18
ATOM     18  C   UNL     1      88.335 325.383 206.039  1.00  0.00     0.041 C 
ATOM     19  O   UNL     1      89.183 324.452 206.011  1.00  0.00    -0.550 OA
ATOM     20  O   UNL     1      87.009 325.117 205.719  1.00  0.00    -0.550 OA
ENDBRANCH  17  18
ENDBRANCH  16  17
ENDBRANCH  15  16
ENDBRANCH  14  15
ENDBRANCH  13  14
ENDBRANCH  12  13
ENDBRANCH  11  12
ENDBRANCH   1  11
TORSDOF 15
ENDMDL
MODEL 6
REMARK VINA RESULT:    -5.500      1.508     10.576
REMARK INTER + INTRA:         -11.514
REMARK INTER:                 -10.825
REMARK INTRA:                  -0.688
REMARK UNBOUND:                -1.190
REMARK SMILES O=C([O-])CCCCCCCCCCCCCCC(=O)[O-]
REMARK SMILES IDX 10 1 9 2 8 3 7 4 6 5 5 6 4 7 2 8 1 9 3 10 11 11 12 12 13 13
REMARK SMILES IDX 14 14 15 15 16 16 17 17 18 18 19 19 20 20
REMARK H PARENT
REMARK Flexibility Score: inf
ROOT
ATOM      1  C   UNL     1      88.895 325.433 197.371  1.00  0.00     0.000 C 
ENDROOT
BRANCH   1   2
ATOM      2  C   UNL     1      88.921 326.347 198.616  1.00  0.00     0.000 C 
BRANCH   2   3
ATOM      3  C   UNL     1      89.240 325.570 199.905  1.00  0.00     0.000 C 
BRANCH   3   4
ATOM      4  C   UNL     1      89.261 326.484 201.150  1.00  0.00     0.000 C 
BRANCH   4   5
ATOM      5  C   UNL     1      90.679 326.816 201.653  1.00  0.00     0.000 C 
BRANCH   5   6
ATOM      6  C   UNL     1      90.743 327.375 203.084  1.00  0.00     0.006 C 
BRANCH   6   7
ATOM      7  C   UNL     1      89.356 327.601 203.697  1.00  0.00     0.053 C 
BRANCH   7   8
ATOM      8  C   UNL     1      89.349 327.189 205.136  1.00  0.00     0.041 C 
ATOM      9  O   UNL     1      88.460 326.409 205.568  1.00  0.00    -0.550 OA
ATOM     10  O   UNL     1      90.356 327.625 205.987  1.00  0.00    -0.550 OA
ENDBRANCH   7   8
ENDBRANCH   6   7
ENDBRANCH   5   6
ENDBRANCH   4   5
ENDBRANCH   3   4
ENDBRANCH   2   3
ENDBRANCH   1   2
BRANCH   1  11
ATOM     11  C   UNL     1      88.554 326.174 196.064  1.00  0.00     0.000 C 
BRANCH  11  12
ATOM     12  C   UNL     1      87.065 326.510 195.882  1.00  0.00     0.000 C 
BRANCH  12  13
ATOM     13  C   UNL     1      86.647 326.582 194.406  1.00  0.00     0.000 C 
BRANCH  13  14
ATOM     14  C   UNL     1      85.985 325.269 193.960  1.00  0.00     0.000 C 
BRANCH  14  15
ATOM     15  C   UNL     1      86.531 324.748 192.617  1.00  0.00     0.000 C 
BRANCH  15  16
ATOM     16  C   UNL     1      88.048 324.918 192.423  1.00  0.00     0.006 C 
BRANCH  16  17
ATOM     17  C   UNL     1      88.536 324.420 191.056  1.00  0.00     0.053 C 
BRANCH  17  18
ATOM     18  C   UNL     1      87.999 323.052 190.776  1.00  0.00     0.041 C 
ATOM     19  O   UNL     1      87.289 322.847 189.756  1.00  0.00    -0.550 OA
ATOM     20  O   UNL     1      88.323 321.992 191.615  1.00  0.00    -0.550 OA
ENDBRANCH  17  18
ENDBRANCH  16  17
ENDBRANCH  15  16
ENDBRANCH  14  15
ENDBRANCH  13  14
ENDBRANCH  12  13
ENDBRANCH  11  12
ENDBRANCH   1  11
TORSDOF 15
ENDMDL
MODEL 7
REMARK VINA RESULT:    -5.497     19.183     20.293
REMARK INTER + INTRA:         -11.508
REMARK INTER:                 -10.255
REMARK INTRA:                  -1.253
REMARK UNBOUND:                -1.190
REMARK SMILES O=C([O-])CCCCCCCCCCCCCCC(=O)[O-]
REMARK SMILES IDX 10 1 9 2 8 3 7 4 6 5 5 6 4 7 2 8 1 9 3 10 11 11 12 12 13 13
REMARK SMILES IDX 14 14 15 15 16 16 17 17 18 18 19 19 20 20
REMARK H PARENT
REMARK Flexibility Score: inf
ROOT
ATOM      1  C   UNL     1     103.905 311.511 194.781  1.00  0.00     0.000 C 
ENDROOT
BRANCH   1   2
ATOM      2  C   UNL     1     104.560 311.466 193.384  1.00  0.00     0.000 C 
BRANCH   2   3
ATOM      3  C   UNL     1     105.932 312.165 193.358  1.00  0.00     0.000 C 
BRANCH   3   4
ATOM      4  C   UNL     1     105.950 313.386 192.411  1.00  0.00     0.000 C 
BRANCH   4   5
ATOM      5  C   UNL     1     104.948 314.489 192.801  1.00  0.00     0.000 C 
BRANCH   5   6
ATOM      6  C   UNL     1     103.870 314.786 191.746  1.00  0.00     0.006 C 
BRANCH   6   7
ATOM      7  C   UNL     1     103.891 313.791 190.579  1.00  0.00     0.053 C 
BRANCH   7   8
ATOM      8  C   UNL     1     103.635 314.500 189.286  1.00  0.00     0.041 C 
ATOM      9  O   UNL     1     102.604 314.238 188.612  1.00  0.00    -0.550 OA
ATOM     10  O   UNL     1     104.510 315.488 188.851  1.00  0.00    -0.550 OA
ENDBRANCH   7   8
ENDBRANCH   6   7
ENDBRANCH   5   6
ENDBRANCH   4   5
ENDBRANCH   3   4
ENDBRANCH   2   3
ENDBRANCH   1   2
BRANCH   1  11
ATOM     11  C   UNL     1     104.798 312.144 195.865  1.00  0.00     0.000 C 
BRANCH  11  12
ATOM     12  C   UNL     1     104.335 313.526 196.355  1.00  0.00     0.000 C 
BRANCH  12  13
ATOM     13  C   UNL     1     103.470 313.450 197.622  1.00  0.00     0.000 C 
BRANCH  13  14
ATOM     14  C   UNL     1     104.163 312.616 198.709  1.00  0.00     0.000 C 
BRANCH  14  15
ATOM     15  C   UNL     1     103.229 311.576 199.355  1.00  0.00     0.000 C 
BRANCH  15  16
ATOM     16  C   UNL     1     102.518 312.049 200.636  1.00  0.00     0.006 C 
BRANCH  16  17
ATOM     17  C   UNL     1     102.724 311.096 201.821  1.00  0.00     0.053 C 
BRANCH  17  18
ATOM     18  C   UNL     1     103.971 311.451 202.567  1.00  0.00     0.041 C 
ATOM     19  O   UNL     1     104.444 312.616 202.494  1.00  0.00    -0.550 OA
ATOM     20  O   UNL     1     104.585 310.508 203.383  1.00  0.00    -0.550 OA
ENDBRANCH  17  18
ENDBRANCH  16  17
ENDBRANCH  15  16
ENDBRANCH  14  15
ENDBRANCH  13  14
ENDBRANCH  12  13
ENDBRANCH  11  12
ENDBRANCH   1  11
TORSDOF 15
ENDMDL
MODEL 8
REMARK VINA RESULT:    -5.480     19.184     22.516
REMARK INTER + INTRA:         -11.475
REMARK INTER:                 -10.842
REMARK INTRA:                  -0.633
REMARK UNBOUND:                -1.190
REMARK SMILES O=C([O-])CCCCCCCCCCCCCCC(=O)[O-]
REMARK SMILES IDX 10 1 9 2 8 3 7 4 6 5 5 6 4 7 2 8 1 9 3 10 11 11 12 12 13 13
REMARK SMILES IDX 14 14 15 15 16 16 17 17 18 18 19 19 20 20
REMARK H PARENT
REMARK Flexibility Score: inf
ROOT
ATOM      1  C   UNL     1     104.152 313.394 196.172  1.00  0.00     0.000 C 
ENDROOT
BRANCH   1   2
ATOM      2  C   UNL     1     103.960 313.316 197.703  1.00  0.00     0.000 C 
BRANCH   2   3
ATOM      3  C   UNL     1     103.904 311.864 198.212  1.00  0.00     0.000 C 
BRANCH   3   4
ATOM      4  C   UNL     1     103.223 311.754 199.595  1.00  0.00     0.000 C 
BRANCH   4   5
ATOM      5  C   UNL     1     104.197 311.896 200.780  1.00  0.00     0.000 C 
BRANCH   5   6
ATOM      6  C   UNL     1     103.575 311.639 202.162  1.00  0.00     0.006 C 
BRANCH   6   7
ATOM      7  C   UNL     1     104.387 310.647 203.004  1.00  0.00     0.053 C 
BRANCH   7   8
ATOM      8  C   UNL     1     104.210 310.934 204.462  1.00  0.00     0.041 C 
ATOM      9  O   UNL     1     105.091 311.574 205.093  1.00  0.00    -0.550 OA
ATOM     10  O   UNL     1     103.047 310.538 205.111  1.00  0.00    -0.550 OA
ENDBRANCH   7   8
ENDBRANCH   6   7
ENDBRANCH   5   6
ENDBRANCH   4   5
ENDBRANCH   3   4
ENDBRANCH   2   3
ENDBRANCH   1   2
BRANCH   1  11
ATOM     11  C   UNL     1     104.382 312.024 195.506  1.00  0.00     0.000 C 
BRANCH  11  12
ATOM     12  C   UNL     1     105.779 311.830 194.894  1.00  0.00     0.000 C 
BRANCH  12  13
ATOM     13  C   UNL     1     105.739 311.628 193.372  1.00  0.00     0.000 C 
BRANCH  13  14
ATOM     14  C   UNL     1     105.671 312.978 192.642  1.00  0.00     0.000 C 
BRANCH  14  15
ATOM     15  C   UNL     1     104.274 313.280 192.068  1.00  0.00     0.000 C 
BRANCH  15  16
ATOM     16  C   UNL     1     104.238 314.377 190.989  1.00  0.00     0.006 C 
BRANCH  16  17
ATOM     17  C   UNL     1     103.458 313.960 189.736  1.00  0.00     0.053 C 
BRANCH  17  18
ATOM     18  C   UNL     1     102.967 315.166 188.999  1.00  0.00     0.041 C 
ATOM     19  O   UNL     1     103.254 316.320 189.412  1.00  0.00    -0.550 OA
ATOM     20  O   UNL     1     102.232 315.015 187.830  1.00  0.00    -0.550 OA
ENDBRANCH  17  18
ENDBRANCH  16  17
ENDBRANCH  15  16
ENDBRANCH  14  15
ENDBRANCH  13  14
ENDBRANCH  12  13
ENDBRANCH  11  12
ENDBRANCH   1  11
TORSDOF 15
ENDMDL
MODEL 9
REMARK VINA RESULT:    -5.476      1.155      9.703
REMARK INTER + INTRA:         -11.467
REMARK INTER:                 -10.204
REMARK INTRA:                  -1.263
REMARK UNBOUND:                -1.190
REMARK SMILES O=C([O-])CCCCCCCCCCCCCCC(=O)[O-]
REMARK SMILES IDX 10 1 9 2 8 3 7 4 6 5 5 6 4 7 2 8 1 9 3 10 11 11 12 12 13 13
REMARK SMILES IDX 14 14 15 15 16 16 17 17 18 18 19 19 20 20
REMARK H PARENT
REMARK Flexibility Score: inf
ROOT
ATOM      1  C   UNL     1      87.386 326.490 196.562  1.00  0.00     0.000 C 
ENDROOT
BRANCH   1   2
ATOM      2  C   UNL     1      88.912 326.252 196.544  1.00  0.00     0.000 C 
BRANCH   2   3
ATOM      3  C   UNL     1      89.278 324.779 196.800  1.00  0.00     0.000 C 
BRANCH   3   4
ATOM      4  C   UNL     1      88.589 324.215 198.062  1.00  0.00     0.000 C 
BRANCH   4   5
ATOM      5  C   UNL     1      89.406 324.406 199.354  1.00  0.00     0.000 C 
BRANCH   5   6
ATOM      6  C   UNL     1      88.933 325.559 200.254  1.00  0.00     0.006 C 
BRANCH   6   7
ATOM      7  C   UNL     1      89.839 326.793 200.165  1.00  0.00     0.053 C 
BRANCH   7   8
ATOM      8  C   UNL     1      90.766 326.844 201.339  1.00  0.00     0.041 C 
ATOM      9  O   UNL     1      92.012 326.802 201.164  1.00  0.00    -0.550 OA
ATOM     10  O   UNL     1      90.254 326.989 202.622  1.00  0.00    -0.550 OA
ENDBRANCH   7   8
ENDBRANCH   6   7
ENDBRANCH   5   6
ENDBRANCH   4   5
ENDBRANCH   3   4
ENDBRANCH   2   3
ENDBRANCH   1   2
BRANCH   1  11
ATOM     11  C   UNL     1      86.734 326.438 195.168  1.00  0.00     0.000 C 
BRANCH  11  12
ATOM     12  C   UNL     1      87.718 326.535 193.991  1.00  0.00     0.000 C 
BRANCH  12  13
ATOM     13  C   UNL     1      87.496 325.440 192.937  1.00  0.00     0.000 C 
BRANCH  13  14
ATOM     14  C   UNL     1      88.370 324.212 193.233  1.00  0.00     0.000 C 
BRANCH  14  15
ATOM     15  C   UNL     1      88.810 323.468 191.959  1.00  0.00     0.000 C 
BRANCH  15  16
ATOM     16  C   UNL     1      88.470 324.183 190.639  1.00  0.00     0.006 C 
BRANCH  16  17
ATOM     17  C   UNL     1      89.210 323.593 189.431  1.00  0.00     0.053 C 
BRANCH  17  18
ATOM     18  C   UNL     1      88.368 322.558 188.756  1.00  0.00     0.041 C 
ATOM     19  O   UNL     1      88.891 321.739 187.955  1.00  0.00    -0.550 OA
ATOM     20  O   UNL     1      87.012 322.465 189.048  1.00  0.00    -0.550 OA
ENDBRANCH  17  18
ENDBRANCH  16  17
ENDBRANCH  15  16
ENDBRANCH  14  15
ENDBRANCH  13  14
ENDBRANCH  12  13
ENDBRANCH  11  12
ENDBRANCH   1  11
TORSDOF 15
ENDMDL
