MODEL 1
REMARK VINA RESULT:    -4.106      0.000      0.000
REMARK INTER + INTRA:          -4.362
REMARK INTER:                  -4.346
REMARK INTRA:                  -0.016
REMARK UNBOUND:                -0.016
REMARK SMILES O=C([O-])c1cccnc1
REMARK SMILES IDX 4 1 5 2 9 3 6 4 8 5 7 6 2 7 1 8 3 9
REMARK H PARENT
REMARK Flexibility Score: inf
ROOT
ATOM      1  C   UNL     1      51.212  31.752  60.746  1.00  0.00     0.016 A 
ATOM      2  C   UNL     1      51.415  32.365  59.499  1.00  0.00     0.013 A 
ATOM      3  C   UNL     1      50.156  32.214  61.552  1.00  0.00     0.120 A 
ATOM      4  C   UNL     1      50.581  33.405  59.083  1.00  0.00     0.021 A 
ATOM      5  N   UNL     1      49.358  33.228  61.123  1.00  0.00    -0.264 NA
ATOM      6  C   UNL     1      49.547  33.827  59.918  1.00  0.00     0.111 A 
ENDROOT
BRANCH   1   7
ATOM      7  C   UNL     1      52.089  30.650  61.197  1.00  0.00     0.073 C 
ATOM      8  O   UNL     1      53.055  30.876  61.973  1.00  0.00    -0.545 OA
ATOM      9  O   UNL     1      51.859  29.347  60.768  1.00  0.00    -0.545 OA
ENDBRANCH   1   7
TORSDOF 1
ENDMDL
MODEL 2
REMARK VINA RESULT:    -3.912      2.958      3.681
REMARK INTER + INTRA:          -4.157
REMARK INTER:                  -4.133
REMARK INTRA:                  -0.024
REMARK UNBOUND:                -0.016
REMARK SMILES O=C([O-])c1cccnc1
REMARK SMILES IDX 4 1 5 2 9 3 6 4 8 5 7 6 2 7 1 8 3 9
REMARK H PARENT
REMARK Flexibility Score: inf
ROOT
ATOM      1  C   UNL     1      50.407  32.905  60.081  1.00  0.00     0.016 A 
ATOM      2  C   UNL     1      51.759  32.581  59.884  1.00  0.00     0.013 A 
ATOM      3  C   UNL     1      49.793  32.505  61.281  1.00  0.00     0.120 A 
ATOM      4  C   UNL     1      52.463  31.879  60.865  1.00  0.00     0.021 A 
ATOM      5  N   UNL     1      50.501  31.823  62.220  1.00  0.00    -0.264 NA
ATOM      6  C   UNL     1      51.809  31.504  62.039  1.00  0.00     0.111 A 
ENDROOT
BRANCH   1   7
ATOM      7  C   UNL     1      49.652  33.647  59.049  1.00  0.00     0.073 C 
ATOM      8  O   UNL     1      50.155  33.859  57.914  1.00  0.00    -0.545 OA
ATOM      9  O   UNL     1      48.374  34.125  59.320  1.00  0.00    -0.545 OA
ENDBRANCH   1   7
TORSDOF 1
ENDMDL
MODEL 3
REMARK VINA RESULT:    -3.903      1.003      1.361
REMARK INTER + INTRA:          -4.147
REMARK INTER:                  -4.124
REMARK INTRA:                  -0.023
REMARK UNBOUND:                -0.016
REMARK SMILES O=C([O-])c1cccnc1
REMARK SMILES IDX 4 1 5 2 9 3 6 4 8 5 7 6 2 7 1 8 3 9
REMARK H PARENT
REMARK Flexibility Score: inf
ROOT
ATOM      1  C   UNL     1      51.329  31.916  61.344  1.00  0.00     0.016 A 
ATOM      2  C   UNL     1      51.867  32.227  60.084  1.00  0.00     0.013 A 
ATOM      3  C   UNL     1      49.997  32.280  61.608  1.00  0.00     0.120 A 
ATOM      4  C   UNL     1      51.086  32.881  59.129  1.00  0.00     0.021 A 
ATOM      5  N   UNL     1      49.258  32.916  60.661  1.00  0.00    -0.264 NA
ATOM      6  C   UNL     1      49.769  33.221  59.440  1.00  0.00     0.111 A 
ENDROOT
BRANCH   1   7
ATOM      7  C   UNL     1      52.147  31.224  62.362  1.00  0.00     0.073 C 
ATOM      8  O   UNL     1      53.172  30.573  62.027  1.00  0.00    -0.545 OA
ATOM      9  O   UNL     1      51.794  31.281  63.706  1.00  0.00    -0.545 OA
ENDBRANCH   1   7
TORSDOF 1
ENDMDL
MODEL 4
REMARK VINA RESULT:    -3.868      1.235      2.059
REMARK INTER + INTRA:          -4.110
REMARK INTER:                  -4.094
REMARK INTRA:                  -0.016
REMARK UNBOUND:                -0.016
REMARK SMILES O=C([O-])c1cccnc1
REMARK SMILES IDX 4 1 5 2 9 3 6 4 8 5 7 6 2 7 1 8 3 9
REMARK H PARENT
REMARK Flexibility Score: inf
ROOT
ATOM      1  C   UNL     1      51.188  32.251  60.356  1.00  0.00     0.016 A 
ATOM      2  C   UNL     1      50.084  32.738  61.074  1.00  0.00     0.013 A 
ATOM      3  C   UNL     1      51.336  32.641  59.013  1.00  0.00     0.120 A 
ATOM      4  C   UNL     1      49.164  33.587  60.455  1.00  0.00     0.021 A 
ATOM      5  N   UNL     1      50.426  33.469  58.435  1.00  0.00    -0.264 NA
ATOM      6  C   UNL     1      49.354  33.945  59.121  1.00  0.00     0.111 A 
ENDROOT
BRANCH   1   7
ATOM      7  C   UNL     1      52.169  31.351  61.000  1.00  0.00     0.073 C 
ATOM      8  O   UNL     1      51.968  30.108  61.041  1.00  0.00    -0.545 OA
ATOM      9  O   UNL     1      53.328  31.866  61.571  1.00  0.00    -0.545 OA
ENDBRANCH   1   7
TORSDOF 1
ENDMDL
MODEL 5
REMARK VINA RESULT:    -3.776      2.517      3.519
REMARK INTER + INTRA:          -4.013
REMARK INTER:                  -3.996
REMARK INTRA:                  -0.016
REMARK UNBOUND:                -0.016
REMARK SMILES O=C([O-])c1cccnc1
REMARK SMILES IDX 4 1 5 2 9 3 6 4 8 5 7 6 2 7 1 8 3 9
REMARK H PARENT
REMARK Flexibility Score: inf
ROOT
ATOM      1  C   UNL     1      51.374  30.445  61.032  1.00  0.00     0.016 A 
ATOM      2  C   UNL     1      51.540  29.325  60.200  1.00  0.00     0.013 A 
ATOM      3  C   UNL     1      50.364  30.405  62.010  1.00  0.00     0.120 A 
ATOM      4  C   UNL     1      50.714  28.209  60.352  1.00  0.00     0.021 A 
ATOM      5  N   UNL     1      49.575  29.305  62.137  1.00  0.00    -0.264 NA
ATOM      6  C   UNL     1      49.727  28.218  61.337  1.00  0.00     0.111 A 
ENDROOT
BRANCH   1   7
ATOM      7  C   UNL     1      52.241  31.632  60.881  1.00  0.00     0.073 C 
ATOM      8  O   UNL     1      51.977  32.513  60.021  1.00  0.00    -0.545 OA
ATOM      9  O   UNL     1      53.364  31.791  61.686  1.00  0.00    -0.545 OA
ENDBRANCH   1   7
TORSDOF 1
ENDMDL
MODEL 6
REMARK VINA RESULT:    -3.692      7.142      7.647
REMARK INTER + INTRA:          -3.924
REMARK INTER:                  -3.904
REMARK INTRA:                  -0.019
REMARK UNBOUND:                -0.016
REMARK SMILES O=C([O-])c1cccnc1
REMARK SMILES IDX 4 1 5 2 9 3 6 4 8 5 7 6 2 7 1 8 3 9
REMARK H PARENT
REMARK Flexibility Score: inf
ROOT
ATOM      1  C   UNL     1      48.314  31.967  67.731  1.00  0.00     0.016 A 
ATOM      2  C   UNL     1      48.670  33.203  67.167  1.00  0.00     0.013 A 
ATOM      3  C   UNL     1      46.949  31.691  67.924  1.00  0.00     0.120 A 
ATOM      4  C   UNL     1      47.682  34.124  66.813  1.00  0.00     0.021 A 
ATOM      5  N   UNL     1      46.007  32.605  67.571  1.00  0.00    -0.264 NA
ATOM      6  C   UNL     1      46.341  33.803  67.025  1.00  0.00     0.111 A 
ENDROOT
BRANCH   1   7
ATOM      7  C   UNL     1      49.351  30.984  68.109  1.00  0.00     0.073 C 
ATOM      8  O   UNL     1      49.297  30.390  69.218  1.00  0.00    -0.545 OA
ATOM      9  O   UNL     1      50.404  30.704  67.245  1.00  0.00    -0.545 OA
ENDBRANCH   1   7
TORSDOF 1
ENDMDL
MODEL 7
REMARK VINA RESULT:    -3.633      6.143      7.101
REMARK INTER + INTRA:          -3.861
REMARK INTER:                  -3.844
REMARK INTRA:                  -0.017
REMARK UNBOUND:                -0.016
REMARK SMILES O=C([O-])c1cccnc1
REMARK SMILES IDX 4 1 5 2 9 3 6 4 8 5 7 6 2 7 1 8 3 9
REMARK H PARENT
REMARK Flexibility Score: inf
ROOT
ATOM      1  C   UNL     1      47.799  32.465  66.586  1.00  0.00     0.016 A 
ATOM      2  C   UNL     1      49.041  33.057  66.305  1.00  0.00     0.013 A 
ATOM      3  C   UNL     1      47.211  31.648  65.603  1.00  0.00     0.120 A 
ATOM      4  C   UNL     1      49.664  32.831  65.075  1.00  0.00     0.021 A 
ATOM      5  N   UNL     1      47.839  31.445  64.415  1.00  0.00    -0.264 NA
ATOM      6  C   UNL     1      49.040  32.013  64.133  1.00  0.00     0.111 A 
ENDROOT
BRANCH   1   7
ATOM      7  C   UNL     1      47.130  32.696  67.884  1.00  0.00     0.073 C 
ATOM      8  O   UNL     1      46.652  33.827  68.166  1.00  0.00    -0.545 OA
ATOM      9  O   UNL     1      47.020  31.667  68.813  1.00  0.00    -0.545 OA
ENDBRANCH   1   7
TORSDOF 1
ENDMDL
MODEL 8
REMARK VINA RESULT:    -3.581      7.446      8.232
REMARK INTER + INTRA:          -3.806
REMARK INTER:                  -3.789
REMARK INTRA:                  -0.017
REMARK UNBOUND:                -0.016
REMARK SMILES O=C([O-])c1cccnc1
REMARK SMILES IDX 4 1 5 2 9 3 6 4 8 5 7 6 2 7 1 8 3 9
REMARK H PARENT
REMARK Flexibility Score: inf
ROOT
ATOM      1  C   UNL     1      47.348  32.399  67.112  1.00  0.00     0.016 A 
ATOM      2  C   UNL     1      48.503  33.035  66.625  1.00  0.00     0.013 A 
ATOM      3  C   UNL     1      47.504  31.337  68.019  1.00  0.00     0.120 A 
ATOM      4  C   UNL     1      49.766  32.609  67.042  1.00  0.00     0.021 A 
ATOM      5  N   UNL     1      48.745  30.943  68.409  1.00  0.00    -0.264 NA
ATOM      6  C   UNL     1      49.868  31.550  67.944  1.00  0.00     0.111 A 
ENDROOT
BRANCH   1   7
ATOM      7  C   UNL     1      46.006  32.841  66.678  1.00  0.00     0.073 C 
ATOM      8  O   UNL     1      45.251  32.061  66.038  1.00  0.00    -0.545 OA
ATOM      9  O   UNL     1      45.558  34.125  66.969  1.00  0.00    -0.545 OA
ENDBRANCH   1   7
TORSDOF 1
ENDMDL
MODEL 9
REMARK VINA RESULT:    -3.571      6.707      7.464
REMARK INTER + INTRA:          -3.795
REMARK INTER:                  -3.779
REMARK INTRA:                  -0.016
REMARK UNBOUND:                -0.016
REMARK SMILES O=C([O-])c1cccnc1
REMARK SMILES IDX 4 1 5 2 9 3 6 4 8 5 7 6 2 7 1 8 3 9
REMARK H PARENT
REMARK Flexibility Score: inf
ROOT
ATOM      1  C   UNL     1      48.776  32.803  67.249  1.00  0.00     0.016 A 
ATOM      2  C   UNL     1      48.104  33.981  66.884  1.00  0.00     0.013 A 
ATOM      3  C   UNL     1      48.022  31.743  67.784  1.00  0.00     0.120 A 
ATOM      4  C   UNL     1      46.721  34.082  67.055  1.00  0.00     0.021 A 
ATOM      5  N   UNL     1      46.677  31.867  67.939  1.00  0.00    -0.264 NA
ATOM      6  C   UNL     1      46.018  33.003  67.590  1.00  0.00     0.111 A 
ENDROOT
BRANCH   1   7
ATOM      7  C   UNL     1      50.239  32.684  67.073  1.00  0.00     0.073 C 
ATOM      8  O   UNL     1      50.718  32.063  66.088  1.00  0.00    -0.545 OA
ATOM      9  O   UNL     1      51.108  33.258  67.996  1.00  0.00    -0.545 OA
ENDBRANCH   1   7
TORSDOF 1
ENDMDL
