MODEL 1
REMARK VINA RESULT:    -4.129      0.000      0.000
REMARK INTER + INTRA:          -9.306
REMARK INTER:                  -7.267
REMARK INTRA:                  -2.038
REMARK UNBOUND:                -2.038
REMARK SMILES CCCCCCCCCCCCCCC(=O)[O-]
REMARK SMILES IDX 9 1 10 2 11 3 12 4 13 5 14 6 15 7 16 8 17 9 8 10 7 11 6 12
REMARK SMILES IDX 5 13 4 14 3 15 2 16 1 17
REMARK H PARENT
REMARK Flexibility Score: inf
ROOT
ATOM      1  C   UNL     1     -36.871  18.528 -27.871  1.00  0.00     0.000 C 
ENDROOT
BRANCH   1   2
ATOM      2  C   UNL     1     -37.252  17.761 -29.150  1.00  0.00     0.000 C 
BRANCH   2   3
ATOM      3  C   UNL     1     -38.549  18.285 -29.792  1.00  0.00     0.000 C 
BRANCH   3   4
ATOM      4  C   UNL     1     -38.348  19.183 -31.030  1.00  0.00     0.000 C 
BRANCH   4   5
ATOM      5  C   UNL     1     -38.724  20.662 -30.830  1.00  0.00     0.006 C 
BRANCH   5   6
ATOM      6  C   UNL     1     -39.009  21.012 -29.364  1.00  0.00     0.053 C 
BRANCH   6   7
ATOM      7  C   UNL     1     -39.855  22.242 -29.276  1.00  0.00     0.041 C 
ATOM      8  O   UNL     1     -39.576  23.145 -28.445  1.00  0.00    -0.550 OA
ATOM      9  O   UNL     1     -40.923  22.414 -30.148  1.00  0.00    -0.550 OA
ENDBRANCH   6   7
ENDBRANCH   5   6
ENDBRANCH   4   5
ENDBRANCH   3   4
ENDBRANCH   2   3
ENDBRANCH   1   2
BRANCH   1  10
ATOM     10  C   UNL     1     -35.422  19.041 -27.899  1.00  0.00     0.000 C 
BRANCH  10  11
ATOM     11  C   UNL     1     -34.731  18.782 -29.249  1.00  0.00    -0.000 C 
BRANCH  11  12
ATOM     12  C   UNL     1     -34.071  20.044 -29.826  1.00  0.00    -0.000 C 
BRANCH  12  13
ATOM     13  C   UNL     1     -35.011  20.838 -30.745  1.00  0.00    -0.000 C 
BRANCH  13  14
ATOM     14  C   UNL     1     -34.832  22.348 -30.541  1.00  0.00    -0.000 C 
BRANCH  14  15
ATOM     15  C   UNL     1     -36.078  22.968 -29.892  1.00  0.00    -0.000 C 
BRANCH  15  16
ATOM     16  C   UNL     1     -36.024  22.934 -28.358  1.00  0.00    -0.003 C 
ATOM     17  C   UNL     1     -35.043  23.952 -27.778  1.00  0.00     0.004 C 
ENDBRANCH  15  16
ENDBRANCH  14  15
ENDBRANCH  13  14
ENDBRANCH  12  13
ENDBRANCH  11  12
ENDBRANCH  10  11
ENDBRANCH   1  10
TORSDOF 13
ENDMDL
MODEL 2
REMARK VINA RESULT:    -4.107      1.857      4.426
REMARK INTER + INTRA:          -9.267
REMARK INTER:                  -7.529
REMARK INTRA:                  -1.738
REMARK UNBOUND:                -2.038
REMARK SMILES CCCCCCCCCCCCCCC(=O)[O-]
REMARK SMILES IDX 9 1 10 2 11 3 12 4 13 5 14 6 15 7 16 8 17 9 8 10 7 11 6 12
REMARK SMILES IDX 5 13 4 14 3 15 2 16 1 17
REMARK H PARENT
REMARK Flexibility Score: inf
ROOT
ATOM      1  C   UNL     1     -36.899  17.293 -29.428  1.00  0.00     0.000 C 
ENDROOT
BRANCH   1   2
ATOM      2  C   UNL     1     -37.481  17.889 -28.134  1.00  0.00     0.000 C 
BRANCH   2   3
ATOM      3  C   UNL     1     -36.482  18.798 -27.397  1.00  0.00     0.000 C 
BRANCH   3   4
ATOM      4  C   UNL     1     -35.244  19.209 -28.219  1.00  0.00     0.000 C 
BRANCH   4   5
ATOM      5  C   UNL     1     -35.110  20.719 -28.488  1.00  0.00     0.006 C 
BRANCH   5   6
ATOM      6  C   UNL     1     -35.337  21.084 -29.959  1.00  0.00     0.053 C 
BRANCH   6   7
ATOM      7  C   UNL     1     -35.662  22.538 -30.092  1.00  0.00     0.041 C 
ATOM      8  O   UNL     1     -35.287  23.182 -31.106  1.00  0.00    -0.550 OA
ATOM      9  O   UNL     1     -36.423  23.171 -29.116  1.00  0.00    -0.550 OA
ENDBRANCH   6   7
ENDBRANCH   5   6
ENDBRANCH   4   5
ENDBRANCH   3   4
ENDBRANCH   2   3
ENDBRANCH   1   2
BRANCH   1  10
ATOM     10  C   UNL     1     -37.826  17.487 -30.638  1.00  0.00     0.000 C 
BRANCH  10  11
ATOM     11  C   UNL     1     -38.726  18.728 -30.499  1.00  0.00    -0.000 C 
BRANCH  11  12
ATOM     12  C   UNL     1     -38.408  19.808 -31.545  1.00  0.00    -0.000 C 
BRANCH  12  13
ATOM     13  C   UNL     1     -38.812  21.217 -31.085  1.00  0.00    -0.000 C 
BRANCH  13  14
ATOM     14  C   UNL     1     -39.340  21.194 -29.645  1.00  0.00    -0.000 C 
BRANCH  14  15
ATOM     15  C   UNL     1     -40.236  22.409 -29.367  1.00  0.00    -0.000 C 
BRANCH  15  16
ATOM     16  C   UNL     1     -41.259  22.657 -30.486  1.00  0.00    -0.003 C 
ATOM     17  C   UNL     1     -42.444  23.504 -30.027  1.00  0.00     0.004 C 
ENDBRANCH  15  16
ENDBRANCH  14  15
ENDBRANCH  13  14
ENDBRANCH  12  13
ENDBRANCH  11  12
ENDBRANCH  10  11
ENDBRANCH   1  10
TORSDOF 13
ENDMDL
MODEL 3
REMARK VINA RESULT:    -4.069      2.691      4.830
REMARK INTER + INTRA:          -9.199
REMARK INTER:                  -6.935
REMARK INTRA:                  -2.264
REMARK UNBOUND:                -2.038
REMARK SMILES CCCCCCCCCCCCCCC(=O)[O-]
REMARK SMILES IDX 9 1 10 2 11 3 12 4 13 5 14 6 15 7 16 8 17 9 8 10 7 11 6 12
REMARK SMILES IDX 5 13 4 14 3 15 2 16 1 17
REMARK H PARENT
REMARK Flexibility Score: inf
ROOT
ATOM      1  C   UNL     1     -39.589  21.175 -29.444  1.00  0.00     0.000 C 
ENDROOT
BRANCH   1   2
ATOM      2  C   UNL     1     -38.794  22.377 -28.903  1.00  0.00     0.000 C 
BRANCH   2   3
ATOM      3  C   UNL     1     -37.286  22.092 -28.794  1.00  0.00     0.000 C 
BRANCH   3   4
ATOM      4  C   UNL     1     -36.426  22.680 -29.931  1.00  0.00     0.000 C 
BRANCH   4   5
ATOM      5  C   UNL     1     -36.255  21.767 -31.159  1.00  0.00     0.006 C 
BRANCH   5   6
ATOM      6  C   UNL     1     -34.820  21.761 -31.700  1.00  0.00     0.053 C 
BRANCH   6   7
ATOM      7  C   UNL     1     -34.667  22.784 -32.782  1.00  0.00     0.041 C 
ATOM      8  O   UNL     1     -33.942  23.797 -32.598  1.00  0.00    -0.550 OA
ATOM      9  O   UNL     1     -35.285  22.593 -34.011  1.00  0.00    -0.550 OA
ENDBRANCH   6   7
ENDBRANCH   5   6
ENDBRANCH   4   5
ENDBRANCH   3   4
ENDBRANCH   2   3
ENDBRANCH   1   2
BRANCH   1  10
ATOM     10  C   UNL     1     -39.728  20.045 -28.412  1.00  0.00     0.000 C 
BRANCH  10  11
ATOM     11  C   UNL     1     -38.969  18.772 -28.827  1.00  0.00    -0.000 C 
BRANCH  11  12
ATOM     12  C   UNL     1     -38.725  18.697 -30.343  1.00  0.00    -0.000 C 
BRANCH  12  13
ATOM     13  C   UNL     1     -37.281  18.307 -30.693  1.00  0.00    -0.000 C 
BRANCH  13  14
ATOM     14  C   UNL     1     -36.478  17.985 -29.426  1.00  0.00    -0.000 C 
BRANCH  14  15
ATOM     15  C   UNL     1     -35.116  18.696 -29.442  1.00  0.00    -0.000 C 
BRANCH  15  16
ATOM     16  C   UNL     1     -34.804  19.402 -28.115  1.00  0.00    -0.003 C 
ATOM     17  C   UNL     1     -35.780  19.025 -27.000  1.00  0.00     0.004 C 
ENDBRANCH  15  16
ENDBRANCH  14  15
ENDBRANCH  13  14
ENDBRANCH  12  13
ENDBRANCH  11  12
ENDBRANCH  10  11
ENDBRANCH   1  10
TORSDOF 13
ENDMDL
MODEL 4
REMARK VINA RESULT:    -4.059      1.319      2.190
REMARK INTER + INTRA:          -9.182
REMARK INTER:                  -7.410
REMARK INTRA:                  -1.772
REMARK UNBOUND:                -2.038
REMARK SMILES CCCCCCCCCCCCCCC(=O)[O-]
REMARK SMILES IDX 9 1 10 2 11 3 12 4 13 5 14 6 15 7 16 8 17 9 8 10 7 11 6 12
REMARK SMILES IDX 5 13 4 14 3 15 2 16 1 17
REMARK H PARENT
REMARK Flexibility Score: inf
ROOT
ATOM      1  C   UNL     1     -38.086  17.589 -30.904  1.00  0.00     0.000 C 
ENDROOT
BRANCH   1   2
ATOM      2  C   UNL     1     -38.713  18.952 -30.561  1.00  0.00     0.000 C 
BRANCH   2   3
ATOM      3  C   UNL     1     -39.127  19.060 -29.083  1.00  0.00     0.000 C 
BRANCH   3   4
ATOM      4  C   UNL     1     -39.727  20.420 -28.670  1.00  0.00     0.000 C 
BRANCH   4   5
ATOM      5  C   UNL     1     -39.764  21.481 -29.785  1.00  0.00     0.006 C 
BRANCH   5   6
ATOM      6  C   UNL     1     -40.346  22.819 -29.313  1.00  0.00     0.053 C 
BRANCH   6   7
ATOM      7  C   UNL     1     -41.585  23.150 -30.085  1.00  0.00     0.041 C 
ATOM      8  O   UNL     1     -41.762  22.669 -31.235  1.00  0.00    -0.550 OA
ATOM      9  O   UNL     1     -42.566  23.950 -29.513  1.00  0.00    -0.550 OA
ENDBRANCH   6   7
ENDBRANCH   5   6
ENDBRANCH   4   5
ENDBRANCH   3   4
ENDBRANCH   2   3
ENDBRANCH   1   2
BRANCH   1  10
ATOM     10  C   UNL     1     -36.995  17.172 -29.906  1.00  0.00     0.000 C 
BRANCH  10  11
ATOM     11  C   UNL     1     -35.708  18.002 -30.057  1.00  0.00    -0.000 C 
BRANCH  11  12
ATOM     12  C   UNL     1     -35.461  18.932 -28.858  1.00  0.00    -0.000 C 
BRANCH  12  13
ATOM     13  C   UNL     1     -34.895  20.298 -29.273  1.00  0.00    -0.000 C 
BRANCH  13  14
ATOM     14  C   UNL     1     -35.702  20.898 -30.432  1.00  0.00    -0.000 C 
BRANCH  14  15
ATOM     15  C   UNL     1     -36.169  22.322 -30.098  1.00  0.00    -0.000 C 
BRANCH  15  16
ATOM     16  C   UNL     1     -36.563  22.484 -28.623  1.00  0.00    -0.003 C 
ATOM     17  C   UNL     1     -35.722  23.534 -27.898  1.00  0.00     0.004 C 
ENDBRANCH  15  16
ENDBRANCH  14  15
ENDBRANCH  13  14
ENDBRANCH  12  13
ENDBRANCH  11  12
ENDBRANCH  10  11
ENDBRANCH   1  10
TORSDOF 13
ENDMDL
MODEL 5
REMARK VINA RESULT:    -3.961     14.796     16.310
REMARK INTER + INTRA:          -9.009
REMARK INTER:                  -7.300
REMARK INTRA:                  -1.709
REMARK UNBOUND:                -2.038
REMARK SMILES CCCCCCCCCCCCCCC(=O)[O-]
REMARK SMILES IDX 9 1 10 2 11 3 12 4 13 5 14 6 15 7 16 8 17 9 8 10 7 11 6 12
REMARK SMILES IDX 5 13 4 14 3 15 2 16 1 17
REMARK H PARENT
REMARK Flexibility Score: inf
ROOT
ATOM      1  C   UNL     1     -48.462   9.994 -29.420  1.00  0.00     0.000 C 
ENDROOT
BRANCH   1   2
ATOM      2  C   UNL     1     -48.525  11.258 -28.543  1.00  0.00     0.000 C 
BRANCH   2   3
ATOM      3  C   UNL     1     -49.061  12.483 -29.305  1.00  0.00     0.000 C 
BRANCH   3   4
ATOM      4  C   UNL     1     -49.684  12.174 -30.682  1.00  0.00     0.000 C 
BRANCH   4   5
ATOM      5  C   UNL     1     -51.076  12.787 -30.920  1.00  0.00     0.006 C 
BRANCH   5   6
ATOM      6  C   UNL     1     -51.306  14.072 -30.116  1.00  0.00     0.053 C 
BRANCH   6   7
ATOM      7  C   UNL     1     -51.510  15.234 -31.036  1.00  0.00     0.041 C 
ATOM      8  O   UNL     1     -52.455  16.041 -30.839  1.00  0.00    -0.550 OA
ATOM      9  O   UNL     1     -50.624  15.452 -32.084  1.00  0.00    -0.550 OA
ENDBRANCH   6   7
ENDBRANCH   5   6
ENDBRANCH   4   5
ENDBRANCH   3   4
ENDBRANCH   2   3
ENDBRANCH   1   2
BRANCH   1  10
ATOM     10  C   UNL     1     -47.040   9.686 -29.913  1.00  0.00     0.000 C 
BRANCH  10  11
ATOM     11  C   UNL     1     -46.708   8.184 -29.854  1.00  0.00    -0.000 C 
BRANCH  11  12
ATOM     12  C   UNL     1     -47.501   7.364 -30.884  1.00  0.00    -0.000 C 
BRANCH  12  13
ATOM     13  C   UNL     1     -47.297   7.862 -32.323  1.00  0.00    -0.000 C 
BRANCH  13  14
ATOM     14  C   UNL     1     -48.632   7.928 -33.076  1.00  0.00    -0.000 C 
BRANCH  14  15
ATOM     15  C   UNL     1     -49.247   9.332 -32.983  1.00  0.00    -0.000 C 
BRANCH  15  16
ATOM     16  C   UNL     1     -50.765   9.298 -32.753  1.00  0.00    -0.003 C 
ATOM     17  C   UNL     1     -51.146   8.648 -31.423  1.00  0.00     0.004 C 
ENDBRANCH  15  16
ENDBRANCH  14  15
ENDBRANCH  13  14
ENDBRANCH  12  13
ENDBRANCH  11  12
ENDBRANCH  10  11
ENDBRANCH   1  10
TORSDOF 13
ENDMDL
MODEL 6
REMARK VINA RESULT:    -3.947     14.746     17.001
REMARK INTER + INTRA:          -8.986
REMARK INTER:                  -7.357
REMARK INTRA:                  -1.629
REMARK UNBOUND:                -2.038
REMARK SMILES CCCCCCCCCCCCCCC(=O)[O-]
REMARK SMILES IDX 9 1 10 2 11 3 12 4 13 5 14 6 15 7 16 8 17 9 8 10 7 11 6 12
REMARK SMILES IDX 5 13 4 14 3 15 2 16 1 17
REMARK H PARENT
REMARK Flexibility Score: inf
ROOT
ATOM      1  C   UNL     1     -46.766   9.223 -30.039  1.00  0.00     0.000 C 
ENDROOT
BRANCH   1   2
ATOM      2  C   UNL     1     -47.557  10.298 -29.272  1.00  0.00     0.000 C 
BRANCH   2   3
ATOM      3  C   UNL     1     -49.073  10.209 -29.521  1.00  0.00     0.000 C 
BRANCH   3   4
ATOM      4  C   UNL     1     -49.874  11.468 -29.127  1.00  0.00     0.000 C 
BRANCH   4   5
ATOM      5  C   UNL     1     -49.266  12.801 -29.596  1.00  0.00     0.006 C 
BRANCH   5   6
ATOM      6  C   UNL     1     -49.654  13.158 -31.036  1.00  0.00     0.053 C 
BRANCH   6   7
ATOM      7  C   UNL     1     -50.501  14.392 -31.057  1.00  0.00     0.041 C 
ATOM      8  O   UNL     1     -51.456  14.519 -30.246  1.00  0.00    -0.550 OA
ATOM      9  O   UNL     1     -50.205  15.423 -31.940  1.00  0.00    -0.550 OA
ENDBRANCH   6   7
ENDBRANCH   5   6
ENDBRANCH   4   5
ENDBRANCH   3   4
ENDBRANCH   2   3
ENDBRANCH   1   2
BRANCH   1  10
ATOM     10  C   UNL     1     -47.676   8.157 -30.670  1.00  0.00     0.000 C 
BRANCH  10  11
ATOM     11  C   UNL     1     -47.369   7.928 -32.160  1.00  0.00    -0.000 C 
BRANCH  11  12
ATOM     12  C   UNL     1     -48.629   7.984 -33.038  1.00  0.00    -0.000 C 
BRANCH  12  13
ATOM     13  C   UNL     1     -49.267   9.381 -33.073  1.00  0.00    -0.000 C 
BRANCH  13  14
ATOM     14  C   UNL     1     -50.752   9.316 -32.692  1.00  0.00    -0.000 C 
BRANCH  14  15
ATOM     15  C   UNL     1     -51.091   7.977 -32.020  1.00  0.00    -0.000 C 
BRANCH  15  16
ATOM     16  C   UNL     1     -52.363   7.335 -32.592  1.00  0.00    -0.003 C 
ATOM     17  C   UNL     1     -52.261   7.051 -34.090  1.00  0.00     0.004 C 
ENDBRANCH  15  16
ENDBRANCH  14  15
ENDBRANCH  13  14
ENDBRANCH  12  13
ENDBRANCH  11  12
ENDBRANCH  10  11
ENDBRANCH   1  10
TORSDOF 13
ENDMDL
MODEL 7
REMARK VINA RESULT:    -3.929     14.641     16.015
REMARK INTER + INTRA:          -8.952
REMARK INTER:                  -7.409
REMARK INTRA:                  -1.543
REMARK UNBOUND:                -2.038
REMARK SMILES CCCCCCCCCCCCCCC(=O)[O-]
REMARK SMILES IDX 9 1 10 2 11 3 12 4 13 5 14 6 15 7 16 8 17 9 8 10 7 11 6 12
REMARK SMILES IDX 5 13 4 14 3 15 2 16 1 17
REMARK H PARENT
REMARK Flexibility Score: inf
ROOT
ATOM      1  C   UNL     1     -49.767  12.068 -29.485  1.00  0.00     0.000 C 
ENDROOT
BRANCH   1   2
ATOM      2  C   UNL     1     -49.605  12.918 -30.758  1.00  0.00     0.000 C 
BRANCH   2   3
ATOM      3  C   UNL     1     -50.653  14.040 -30.860  1.00  0.00     0.000 C 
BRANCH   3   4
ATOM      4  C   UNL     1     -51.462  14.297 -29.572  1.00  0.00     0.000 C 
BRANCH   4   5
ATOM      5  C   UNL     1     -52.676  15.229 -29.739  1.00  0.00     0.006 C 
BRANCH   5   6
ATOM      6  C   UNL     1     -52.408  16.386 -30.709  1.00  0.00     0.053 C 
BRANCH   6   7
ATOM      7  C   UNL     1     -51.755  17.526 -29.993  1.00  0.00     0.041 C 
ATOM      8  O   UNL     1     -50.925  18.259 -30.593  1.00  0.00    -0.550 OA
ATOM      9  O   UNL     1     -52.100  17.809 -28.678  1.00  0.00    -0.550 OA
ENDBRANCH   6   7
ENDBRANCH   5   6
ENDBRANCH   4   5
ENDBRANCH   3   4
ENDBRANCH   2   3
ENDBRANCH   1   2
BRANCH   1  10
ATOM     10  C   UNL     1     -48.432  11.501 -28.979  1.00  0.00     0.000 C 
BRANCH  10  11
ATOM     11  C   UNL     1     -48.308   9.985 -29.216  1.00  0.00    -0.000 C 
BRANCH  11  12
ATOM     12  C   UNL     1     -47.018   9.608 -29.963  1.00  0.00    -0.000 C 
BRANCH  12  13
ATOM     13  C   UNL     1     -47.291   8.878 -31.287  1.00  0.00    -0.000 C 
BRANCH  13  14
ATOM     14  C   UNL     1     -48.797   8.677 -31.502  1.00  0.00    -0.000 C 
BRANCH  14  15
ATOM     15  C   UNL     1     -49.305   9.533 -32.671  1.00  0.00    -0.000 C 
BRANCH  15  16
ATOM     16  C   UNL     1     -50.795   9.882 -32.542  1.00  0.00    -0.003 C 
ATOM     17  C   UNL     1     -51.444   9.261 -31.306  1.00  0.00     0.004 C 
ENDBRANCH  15  16
ENDBRANCH  14  15
ENDBRANCH  13  14
ENDBRANCH  12  13
ENDBRANCH  11  12
ENDBRANCH  10  11
ENDBRANCH   1  10
TORSDOF 13
ENDMDL
MODEL 8
REMARK VINA RESULT:    -3.925     14.668     16.658
REMARK INTER + INTRA:          -8.946
REMARK INTER:                  -7.114
REMARK INTRA:                  -1.832
REMARK UNBOUND:                -2.038
REMARK SMILES CCCCCCCCCCCCCCC(=O)[O-]
REMARK SMILES IDX 9 1 10 2 11 3 12 4 13 5 14 6 15 7 16 8 17 9 8 10 7 11 6 12
REMARK SMILES IDX 5 13 4 14 3 15 2 16 1 17
REMARK H PARENT
REMARK Flexibility Score: inf
ROOT
ATOM      1  C   UNL     1     -52.136  11.693 -30.743  1.00  0.00     0.000 C 
ENDROOT
BRANCH   1   2
ATOM      2  C   UNL     1     -52.117  10.158 -30.856  1.00  0.00     0.000 C 
BRANCH   2   3
ATOM      3  C   UNL     1     -51.762   9.671 -32.272  1.00  0.00     0.000 C 
BRANCH   3   4
ATOM      4  C   UNL     1     -50.456   8.857 -32.374  1.00  0.00     0.000 C 
BRANCH   4   5
ATOM      5  C   UNL     1     -49.162   9.680 -32.238  1.00  0.00     0.006 C 
BRANCH   5   6
ATOM      6  C   UNL     1     -48.500   9.524 -30.864  1.00  0.00     0.053 C 
BRANCH   6   7
ATOM      7  C   UNL     1     -47.190   8.812 -30.994  1.00  0.00     0.041 C 
ATOM      8  O   UNL     1     -46.917   8.175 -32.044  1.00  0.00    -0.550 OA
ATOM      9  O   UNL     1     -46.251   8.895 -29.973  1.00  0.00    -0.550 OA
ENDBRANCH   6   7
ENDBRANCH   5   6
ENDBRANCH   4   5
ENDBRANCH   3   4
ENDBRANCH   2   3
ENDBRANCH   1   2
BRANCH   1  10
ATOM     10  C   UNL     1     -51.578  12.195 -29.403  1.00  0.00     0.000 C 
BRANCH  10  11
ATOM     11  C   UNL     1     -50.073  12.511 -29.472  1.00  0.00    -0.000 C 
BRANCH  11  12
ATOM     12  C   UNL     1     -49.654  13.093 -30.832  1.00  0.00    -0.000 C 
BRANCH  12  13
ATOM     13  C   UNL     1     -49.611  14.628 -30.832  1.00  0.00    -0.000 C 
BRANCH  13  14
ATOM     14  C   UNL     1     -50.467  15.201 -31.970  1.00  0.00    -0.000 C 
BRANCH  14  15
ATOM     15  C   UNL     1     -51.481  16.223 -31.436  1.00  0.00    -0.000 C 
BRANCH  15  16
ATOM     16  C   UNL     1     -52.054  15.826 -30.067  1.00  0.00    -0.003 C 
ATOM     17  C   UNL     1     -53.502  15.345 -30.149  1.00  0.00     0.004 C 
ENDBRANCH  15  16
ENDBRANCH  14  15
ENDBRANCH  13  14
ENDBRANCH  12  13
ENDBRANCH  11  12
ENDBRANCH  10  11
ENDBRANCH   1  10
TORSDOF 13
ENDMDL
MODEL 9
REMARK VINA RESULT:    -3.882     14.543     17.328
REMARK INTER + INTRA:          -8.871
REMARK INTER:                  -7.222
REMARK INTRA:                  -1.649
REMARK UNBOUND:                -2.038
REMARK SMILES CCCCCCCCCCCCCCC(=O)[O-]
REMARK SMILES IDX 9 1 10 2 11 3 12 4 13 5 14 6 15 7 16 8 17 9 8 10 7 11 6 12
REMARK SMILES IDX 5 13 4 14 3 15 2 16 1 17
REMARK H PARENT
REMARK Flexibility Score: inf
ROOT
ATOM      1  C   UNL     1     -51.437  10.001 -32.532  1.00  0.00     0.000 C 
ENDROOT
BRANCH   1   2
ATOM      2  C   UNL     1     -50.106  10.395 -31.867  1.00  0.00     0.000 C 
BRANCH   2   3
ATOM      3  C   UNL     1     -50.112  10.167 -30.345  1.00  0.00     0.000 C 
BRANCH   3   4
ATOM      4  C   UNL     1     -49.355  11.230 -29.523  1.00  0.00     0.000 C 
BRANCH   4   5
ATOM      5  C   UNL     1     -50.016  12.620 -29.488  1.00  0.00     0.006 C 
BRANCH   5   6
ATOM      6  C   UNL     1     -49.362  13.614 -30.455  1.00  0.00     0.053 C 
BRANCH   6   7
ATOM      7  C   UNL     1     -50.407  14.346 -31.236  1.00  0.00     0.041 C 
ATOM      8  O   UNL     1     -51.463  13.758 -31.588  1.00  0.00    -0.550 OA
ATOM      9  O   UNL     1     -50.237  15.692 -31.533  1.00  0.00    -0.550 OA
ENDBRANCH   6   7
ENDBRANCH   5   6
ENDBRANCH   4   5
ENDBRANCH   3   4
ENDBRANCH   2   3
ENDBRANCH   1   2
BRANCH   1  10
ATOM     10  C   UNL     1     -51.908   8.596 -32.125  1.00  0.00     0.000 C 
BRANCH  10  11
ATOM     11  C   UNL     1     -52.091   7.663 -33.336  1.00  0.00    -0.000 C 
BRANCH  11  12
ATOM     12  C   UNL     1     -51.018   6.565 -33.402  1.00  0.00    -0.000 C 
BRANCH  12  13
ATOM     13  C   UNL     1     -49.937   6.726 -32.323  1.00  0.00    -0.000 C 
BRANCH  13  14
ATOM     14  C   UNL     1     -48.589   7.105 -32.950  1.00  0.00    -0.000 C 
BRANCH  14  15
ATOM     15  C   UNL     1     -47.466   7.076 -31.902  1.00  0.00    -0.000 C 
BRANCH  15  16
ATOM     16  C   UNL     1     -47.011   8.483 -31.486  1.00  0.00    -0.003 C 
ATOM     17  C   UNL     1     -46.687   8.582 -29.996  1.00  0.00     0.004 C 
ENDBRANCH  15  16
ENDBRANCH  14  15
ENDBRANCH  13  14
ENDBRANCH  12  13
ENDBRANCH  11  12
ENDBRANCH  10  11
ENDBRANCH   1  10
TORSDOF 13
ENDMDL
