MODEL 1
REMARK VINA RESULT:    -2.386      0.000      0.000
REMARK INTER + INTRA:          -2.386
REMARK INTER:                  -2.386
REMARK INTRA:                   0.000
REMARK UNBOUND:                 0.000
REMARK SMILES CC(=O)[O-]
REMARK SMILES IDX 1 1 2 2 3 3 4 4
REMARK H PARENT
REMARK Flexibility Score: inf
ROOT
ATOM      1  C   UNL     1      23.383   6.770 100.333  1.00  0.00     0.063 C 
ATOM      2  C   UNL     1      22.565   5.585 100.722  1.00  0.00     0.038 C 
ATOM      3  O   UNL     1      22.896   4.889 101.717  1.00  0.00    -0.550 OA
ATOM      4  O   UNL     1      21.469   5.214  99.955  1.00  0.00    -0.550 OA
ENDROOT
TORSDOF 0
ENDMDL
MODEL 2
REMARK VINA RESULT:    -2.316      5.139      5.510
REMARK INTER + INTRA:          -2.316
REMARK INTER:                  -2.316
REMARK INTRA:                   0.000
REMARK UNBOUND:                 0.000
REMARK SMILES CC(=O)[O-]
REMARK SMILES IDX 1 1 2 2 3 3 4 4
REMARK H PARENT
REMARK Flexibility Score: inf
ROOT
ATOM      1  C   UNL     1      21.713   5.205 106.005  1.00  0.00     0.063 C 
ATOM      2  C   UNL     1      20.953   4.007 105.550  1.00  0.00     0.038 C 
ATOM      3  O   UNL     1      19.814   3.762 106.028  1.00  0.00    -0.550 OA
ATOM      4  O   UNL     1      21.521   3.127 104.638  1.00  0.00    -0.550 OA
ENDROOT
TORSDOF 0
ENDMDL
MODEL 3
REMARK VINA RESULT:    -2.307      5.097      5.479
REMARK INTER + INTRA:          -2.307
REMARK INTER:                  -2.307
REMARK INTRA:                   0.000
REMARK UNBOUND:                 0.000
REMARK SMILES CC(=O)[O-]
REMARK SMILES IDX 1 1 2 2 3 3 4 4
REMARK H PARENT
REMARK Flexibility Score: inf
ROOT
ATOM      1  C   UNL     1      21.720   5.201 105.994  1.00  0.00     0.063 C 
ATOM      2  C   UNL     1      21.040   3.963 105.515  1.00  0.00     0.038 C 
ATOM      3  O   UNL     1      21.580   3.247 104.632  1.00  0.00    -0.550 OA
ATOM      4  O   UNL     1      19.784   3.627 106.002  1.00  0.00    -0.550 OA
ENDROOT
TORSDOF 0
ENDMDL
MODEL 4
REMARK VINA RESULT:    -2.299      5.026      5.786
REMARK INTER + INTRA:          -2.299
REMARK INTER:                  -2.299
REMARK INTRA:                   0.000
REMARK UNBOUND:                 0.000
REMARK SMILES CC(=O)[O-]
REMARK SMILES IDX 1 1 2 2 3 3 4 4
REMARK H PARENT
REMARK Flexibility Score: inf
ROOT
ATOM      1  C   UNL     1      19.940   3.293 105.930  1.00  0.00     0.063 C 
ATOM      2  C   UNL     1      21.202   3.977 105.527  1.00  0.00     0.038 C 
ATOM      3  O   UNL     1      21.825   3.599 104.501  1.00  0.00    -0.550 OA
ATOM      4  O   UNL     1      21.722   4.997 106.313  1.00  0.00    -0.550 OA
ENDROOT
TORSDOF 0
ENDMDL
MODEL 5
REMARK VINA RESULT:    -2.296      1.306      2.278
REMARK INTER + INTRA:          -2.296
REMARK INTER:                  -2.296
REMARK INTRA:                   0.000
REMARK UNBOUND:                 0.000
REMARK SMILES CC(=O)[O-]
REMARK SMILES IDX 1 1 2 2 3 3 4 4
REMARK H PARENT
REMARK Flexibility Score: inf
ROOT
ATOM      1  C   UNL     1      21.044   4.910 100.332  1.00  0.00     0.063 C 
ATOM      2  C   UNL     1      22.278   5.666 100.687  1.00  0.00     0.038 C 
ATOM      3  O   UNL     1      22.486   6.805 100.191  1.00  0.00    -0.550 OA
ATOM      4  O   UNL     1      23.229   5.095 101.522  1.00  0.00    -0.550 OA
ENDROOT
TORSDOF 0
ENDMDL
MODEL 6
REMARK VINA RESULT:    -2.259      1.921      1.991
REMARK INTER + INTRA:          -2.259
REMARK INTER:                  -2.259
REMARK INTRA:                   0.000
REMARK UNBOUND:                 0.000
REMARK SMILES CC(=O)[O-]
REMARK SMILES IDX 1 1 2 2 3 3 4 4
REMARK H PARENT
REMARK Flexibility Score: inf
ROOT
ATOM      1  C   UNL     1      21.413   5.212 100.239  1.00  0.00     0.063 C 
ATOM      2  C   UNL     1      21.797   5.190 101.680  1.00  0.00     0.038 C 
ATOM      3  O   UNL     1      22.896   4.688 102.033  1.00  0.00    -0.550 OA
ATOM      4  O   UNL     1      20.918   5.672 102.641  1.00  0.00    -0.550 OA
ENDROOT
TORSDOF 0
ENDMDL
MODEL 7
REMARK VINA RESULT:    -2.168      9.770      9.907
REMARK INTER + INTRA:          -2.168
REMARK INTER:                  -2.168
REMARK INTRA:                   0.000
REMARK UNBOUND:                 0.000
REMARK SMILES CC(=O)[O-]
REMARK SMILES IDX 1 1 2 2 3 3 4 4
REMARK H PARENT
REMARK Flexibility Score: inf
ROOT
ATOM      1  C   UNL     1      32.437   5.483  99.710  1.00  0.00     0.063 C 
ATOM      2  C   UNL     1      32.058   4.546  98.614  1.00  0.00     0.038 C 
ATOM      3  O   UNL     1      31.627   4.996  97.520  1.00  0.00    -0.550 OA
ATOM      4  O   UNL     1      32.127   3.174  98.816  1.00  0.00    -0.550 OA
ENDROOT
TORSDOF 0
ENDMDL
MODEL 8
REMARK VINA RESULT:    -2.124     13.283     13.493
REMARK INTER + INTRA:          -2.124
REMARK INTER:                  -2.124
REMARK INTRA:                   0.000
REMARK UNBOUND:                 0.000
REMARK SMILES CC(=O)[O-]
REMARK SMILES IDX 1 1 2 2 3 3 4 4
REMARK H PARENT
REMARK Flexibility Score: inf
ROOT
ATOM      1  C   UNL     1      22.433  -5.571 108.909  1.00  0.00     0.063 C 
ATOM      2  C   UNL     1      22.491  -5.861 107.448  1.00  0.00     0.038 C 
ATOM      3  O   UNL     1      21.427  -5.992 106.788  1.00  0.00    -0.550 OA
ATOM      4  O   UNL     1      23.718  -6.043 106.822  1.00  0.00    -0.550 OA
ENDROOT
TORSDOF 0
ENDMDL
MODEL 9
REMARK VINA RESULT:    -2.111      9.776     10.025
REMARK INTER + INTRA:          -2.111
REMARK INTER:                  -2.111
REMARK INTRA:                   0.000
REMARK UNBOUND:                 0.000
REMARK SMILES CC(=O)[O-]
REMARK SMILES IDX 1 1 2 2 3 3 4 4
REMARK H PARENT
REMARK Flexibility Score: inf
ROOT
ATOM      1  C   UNL     1      32.227   3.475  99.397  1.00  0.00     0.063 C 
ATOM      2  C   UNL     1      32.125   4.872  98.885  1.00  0.00     0.038 C 
ATOM      3  O   UNL     1      31.740   5.085  97.705  1.00  0.00    -0.550 OA
ATOM      4  O   UNL     1      32.507   5.938  99.689  1.00  0.00    -0.550 OA
ENDROOT
TORSDOF 0
ENDMDL
