MODEL 1
REMARK VINA RESULT:    -5.171      0.000      0.000
REMARK INTER + INTRA:         -10.850
REMARK INTER:                  -8.497
REMARK INTRA:                  -2.354
REMARK UNBOUND:                -2.354
REMARK SMILES C[C@@H]1O[C@H](OC[C@@H]2O[C@H](Oc3c(-c4ccc(O)c(O)c4)oc4cc(O)cc(O)c4c3=O)[C@@H](O)[C@@H](O)[C@H]2O)[C@H](O)[C@@H](O)[C@@H]1O
REMARK SMILES IDX 7 1 36 2 34 3 32 4 9 5 8 6 6 7 5 8 4 9 1 10 2 11 42 12 3 13
REMARK SMILES IDX 40 14 38 15 43 16 41 18 39 20 37 22 35 24 10 26 11 27 12 28
REMARK SMILES IDX 30 29 21 30 29 31 31 32 22 33 27 34 23 35 26 36 24 37 13 38
REMARK SMILES IDX 20 39 14 40 18 41 15 42 16 43 19 44 17 46 28 48 25 50 33 52
REMARK H PARENT 43 17 41 19 39 21 37 23 35 25 19 45 17 47 28 49 25 51 33 53
REMARK Flexibility Score: inf
ROOT
ATOM      1  C   UNL     1      25.102  17.486   5.968  1.00  0.00     0.180 C 
ATOM      2  C   UNL     1      26.145  17.649   4.689  1.00  0.00     0.177 C 
ATOM      3  C   UNL     1      27.068  16.321   4.823  1.00  0.00     0.180 C 
ATOM      4  C   UNL     1      27.878  16.253   6.207  1.00  0.00     0.214 C 
ATOM      5  C   UNL     1      26.831  16.663   7.166  1.00  0.00     0.339 C 
ATOM      6  O   UNL     1      26.139  17.818   6.825  1.00  0.00    -0.332 OA
ENDROOT
BRANCH   1   7
ATOM      7  C   UNL     1      24.191  18.184   7.113  1.00  0.00     0.198 C 
BRANCH   7   8
ATOM      8  O   UNL     1      22.797  18.101   6.598  1.00  0.00    -0.347 OA
BRANCH   8   9
ATOM      9  C   UNL     1      22.604  17.011   5.668  1.00  0.00     0.281 C 
ATOM     10  C   UNL     1      20.575  14.072   6.650  1.00  0.00     0.041 C 
ATOM     11  C   UNL     1      21.092  15.138   5.660  1.00  0.00     0.150 C 
ATOM     12  C   UNL     1      20.007  16.401   5.485  1.00  0.00     0.174 C 
ATOM     13  O   UNL     1      22.239  15.700   6.307  1.00  0.00    -0.344 OA
ATOM     14  C   UNL     1      20.452  17.442   4.484  1.00  0.00     0.179 C 
ATOM     15  C   UNL     1      21.929  17.330   4.265  1.00  0.00     0.202 C 
BRANCH  12  16
ATOM     16  O   UNL     1      19.891  16.891   6.814  1.00  0.00    -0.388 OA
ATOM     17  H   UNL     1      19.038  16.677   7.276  1.00  0.00     0.211 HD
ENDBRANCH  12  16
BRANCH  14  18
ATOM     18  O   UNL     1      19.767  17.240   3.272  1.00  0.00    -0.387 OA
ATOM     19  H   UNL     1      19.525  18.208   2.936  1.00  0.00     0.211 HD
ENDBRANCH  14  18
BRANCH  15  20
ATOM     20  O   UNL     1      22.611  18.449   3.627  1.00  0.00    -0.385 OA
ATOM     21  H   UNL     1      23.474  18.548   4.095  1.00  0.00     0.211 HD
ENDBRANCH  15  20
ENDBRANCH   8   9
ENDBRANCH   7   8
ENDBRANCH   1   7
BRANCH   2  22
ATOM     22  O   UNL     1      25.587  17.558   3.374  1.00  0.00    -0.387 OA
ATOM     23  H   UNL     1      25.889  18.384   2.818  1.00  0.00     0.211 HD
ENDBRANCH   2  22
BRANCH   3  24
ATOM     24  O   UNL     1      26.224  15.098   4.755  1.00  0.00    -0.387 OA
ATOM     25  H   UNL     1      26.218  14.707   5.667  1.00  0.00     0.211 HD
ENDBRANCH   3  24
BRANCH   5  26
ATOM     26  O   UNL     1      27.063  16.270   8.555  1.00  0.00    -0.454 OA
BRANCH  26  27
ATOM     27  C   UNL     1      27.524  15.913   9.865  1.00  0.00     0.214 A 
ATOM     28  C   UNL     1      27.506  14.572  10.346  1.00  0.00     0.180 A 
ATOM     29  C   UNL     1      27.434  16.856  10.960  1.00  0.00     0.239 A 
ATOM     30  O   UNL     1      27.105  14.175  11.501  1.00  0.00    -0.452 OA
ATOM     31  C   UNL     1      26.919  16.414  12.195  1.00  0.00     0.111 A 
ATOM     32  O   UNL     1      27.664  18.120  10.754  1.00  0.00    -0.285 OA
ATOM     33  C   UNL     1      26.680  15.016  12.360  1.00  0.00     0.146 A 
ATOM     34  C   UNL     1      26.143  17.273  13.023  1.00  0.00     0.134 A 
ATOM     35  C   UNL     1      25.592  14.508  13.093  1.00  0.00     0.094 A 
ATOM     36  C   UNL     1      24.928  16.787  13.590  1.00  0.00     0.093 A 
ATOM     37  C   UNL     1      24.606  15.361  13.399  1.00  0.00     0.123 A 
BRANCH  28  38
ATOM     38  C   UNL     1      27.273  13.333   9.547  1.00  0.00     0.025 A 
ATOM     39  C   UNL     1      28.124  12.208   9.112  1.00  0.00     0.062 A 
ATOM     40  C   UNL     1      26.058  13.286   8.915  1.00  0.00     0.016 A 
ATOM     41  C   UNL     1      27.471  10.989   9.240  1.00  0.00     0.158 A 
ATOM     42  C   UNL     1      25.316  12.156   8.930  1.00  0.00     0.051 A 
ATOM     43  C   UNL     1      26.019  10.996   9.147  1.00  0.00     0.157 A 
BRANCH  41  44
ATOM     44  O   UNL     1      28.122   9.836   9.671  1.00  0.00    -0.504 OA
ATOM     45  H   UNL     1      28.891   9.397   9.241  1.00  0.00     0.293 HD
ENDBRANCH  41  44
BRANCH  43  46
ATOM     46  O   UNL     1      25.281   9.881   9.499  1.00  0.00    -0.504 OA
ATOM     47  H   UNL     1      24.269   9.983   9.371  1.00  0.00     0.293 HD
ENDBRANCH  43  46
ENDBRANCH  28  38
BRANCH  34  48
ATOM     48  O   UNL     1      26.517  18.585  13.249  1.00  0.00    -0.507 OA
ATOM     49  H   UNL     1      25.901  19.365  13.413  1.00  0.00     0.293 HD
ENDBRANCH  34  48
BRANCH  37  50
ATOM     50  O   UNL     1      23.331  14.848  13.609  1.00  0.00    -0.508 OA
ATOM     51  H   UNL     1      22.930  14.853  14.541  1.00  0.00     0.293 HD
ENDBRANCH  37  50
ENDBRANCH  26  27
ENDBRANCH   5  26
BRANCH   4  52
ATOM     52  O   UNL     1      28.065  14.948   6.437  1.00  0.00    -0.384 OA
ATOM     53  H   UNL     1      28.378  14.601   5.549  1.00  0.00     0.211 HD
ENDBRANCH   4  52
TORSDOF 16
ENDMDL
MODEL 2
REMARK VINA RESULT:    -4.800      1.793      5.223
REMARK INTER + INTRA:         -10.241
REMARK INTER:                 -10.187
REMARK INTRA:                  -0.054
REMARK UNBOUND:                -2.354
REMARK SMILES C[C@@H]1O[C@H](OC[C@@H]2O[C@H](Oc3c(-c4ccc(O)c(O)c4)oc4cc(O)cc(O)c4c3=O)[C@@H](O)[C@@H](O)[C@H]2O)[C@H](O)[C@@H](O)[C@@H]1O
REMARK SMILES IDX 7 1 36 2 34 3 32 4 9 5 8 6 6 7 5 8 4 9 1 10 2 11 42 12 3 13
REMARK SMILES IDX 40 14 38 15 43 16 41 18 39 20 37 22 35 24 10 26 11 27 12 28
REMARK SMILES IDX 30 29 21 30 29 31 31 32 22 33 27 34 23 35 26 36 24 37 13 38
REMARK SMILES IDX 20 39 14 40 18 41 15 42 16 43 19 44 17 46 28 48 25 50 33 52
REMARK H PARENT 43 17 41 19 39 21 37 23 35 25 19 45 17 47 28 49 25 51 33 53
REMARK Flexibility Score: inf
ROOT
ATOM      1  C   UNL     1      25.422  12.188   7.953  1.00  0.00     0.180 C 
ATOM      2  C   UNL     1      26.358  10.847   8.233  1.00  0.00     0.177 C 
ATOM      3  C   UNL     1      26.735  11.010   9.802  1.00  0.00     0.180 C 
ATOM      4  C   UNL     1      27.561  12.349  10.117  1.00  0.00     0.214 C 
ATOM      5  C   UNL     1      26.810  13.338   9.315  1.00  0.00     0.339 C 
ATOM      6  O   UNL     1      26.568  12.966   7.998  1.00  0.00    -0.332 OA
ENDROOT
BRANCH   1   7
ATOM      7  C   UNL     1      24.917  13.337   6.927  1.00  0.00     0.198 C 
BRANCH   7   8
ATOM      8  O   UNL     1      23.521  13.640   7.347  1.00  0.00    -0.347 OA
BRANCH   8   9
ATOM      9  C   UNL     1      22.586  13.629   6.244  1.00  0.00     0.281 C 
ATOM     10  C   UNL     1      19.509  15.685   6.399  1.00  0.00     0.041 C 
ATOM     11  C   UNL     1      20.721  15.046   5.688  1.00  0.00     0.150 C 
ATOM     12  C   UNL     1      21.984  16.132   5.517  1.00  0.00     0.174 C 
ATOM     13  O   UNL     1      21.188  14.049   6.603  1.00  0.00    -0.344 OA
ATOM     14  C   UNL     1      23.173  15.561   4.779  1.00  0.00     0.179 C 
ATOM     15  C   UNL     1      23.112  14.065   4.809  1.00  0.00     0.202 C 
BRANCH  12  16
ATOM     16  O   UNL     1      22.261  16.493   6.864  1.00  0.00    -0.388 OA
ATOM     17  H   UNL     1      22.106  17.446   7.092  1.00  0.00     0.211 HD
ENDBRANCH  12  16
BRANCH  14  18
ATOM     18  O   UNL     1      23.154  16.019   3.450  1.00  0.00    -0.387 OA
ATOM     19  H   UNL     1      24.169  16.125   3.188  1.00  0.00     0.211 HD
ENDBRANCH  14  18
BRANCH  15  20
ATOM     20  O   UNL     1      24.324  13.326   4.477  1.00  0.00    -0.385 OA
ATOM     21  H   UNL     1      24.090  12.370   4.545  1.00  0.00     0.211 HD
ENDBRANCH  15  20
ENDBRANCH   8   9
ENDBRANCH   7   8
ENDBRANCH   1   7
BRANCH   2  22
ATOM     22  O   UNL     1      25.711   9.572   8.157  1.00  0.00    -0.387 OA
ATOM     23  H   UNL     1      25.915   9.035   9.024  1.00  0.00     0.211 HD
ENDBRANCH   2  22
BRANCH   3  24
ATOM     24  O   UNL     1      25.498  11.061  10.627  1.00  0.00    -0.387 OA
ATOM     25  H   UNL     1      25.049  11.918  10.412  1.00  0.00     0.211 HD
ENDBRANCH   3  24
BRANCH   5  26
ATOM     26  O   UNL     1      26.981  14.733   9.716  1.00  0.00    -0.454 OA
BRANCH  26  27
ATOM     27  C   UNL     1      27.094  16.153   9.880  1.00  0.00     0.214 A 
ATOM     28  C   UNL     1      26.607  16.833  11.034  1.00  0.00     0.180 A 
ATOM     29  C   UNL     1      27.099  17.030   8.728  1.00  0.00     0.239 A 
ATOM     30  O   UNL     1      25.922  17.920  11.053  1.00  0.00    -0.452 OA
ATOM     31  C   UNL     1      26.280  18.176   8.744  1.00  0.00     0.111 A 
ATOM     32  O   UNL     1      27.717  16.673   7.639  1.00  0.00    -0.285 OA
ATOM     33  C   UNL     1      25.621  18.513   9.965  1.00  0.00     0.146 A 
ATOM     34  C   UNL     1      25.660  18.659   7.557  1.00  0.00     0.134 A 
ATOM     35  C   UNL     1      24.327  19.061  10.010  1.00  0.00     0.094 A 
ATOM     36  C   UNL     1      24.279  19.015   7.585  1.00  0.00     0.093 A 
ATOM     37  C   UNL     1      23.594  18.996   8.891  1.00  0.00     0.123 A 
BRANCH  28  38
ATOM     38  C   UNL     1      26.162  16.219  12.319  1.00  0.00     0.025 A 
ATOM     39  C   UNL     1      26.011  16.711  13.703  1.00  0.00     0.062 A 
ATOM     40  C   UNL     1      26.024  14.856  12.279  1.00  0.00     0.016 A 
ATOM     41  C   UNL     1      24.841  16.247  14.290  1.00  0.00     0.158 A 
ATOM     42  C   UNL     1      24.947  14.256  12.832  1.00  0.00     0.051 A 
ATOM     43  C   UNL     1      24.313  14.978  13.814  1.00  0.00     0.157 A 
BRANCH  41  44
ATOM     44  O   UNL     1      24.059  17.042  15.124  1.00  0.00    -0.504 OA
ATOM     45  H   UNL     1      24.227  17.246  16.072  1.00  0.00     0.293 HD
ENDBRANCH  41  44
BRANCH  43  46
ATOM     46  O   UNL     1      23.041  14.563  14.164  1.00  0.00    -0.504 OA
ATOM     47  H   UNL     1      23.003  13.966  14.997  1.00  0.00     0.293 HD
ENDBRANCH  43  46
ENDBRANCH  28  38
BRANCH  34  48
ATOM     48  O   UNL     1      26.354  18.741   6.365  1.00  0.00    -0.507 OA
ATOM     49  H   UNL     1      26.848  19.545   6.012  1.00  0.00     0.293 HD
ENDBRANCH  34  48
BRANCH  37  50
ATOM     50  O   UNL     1      22.208  19.002   9.009  1.00  0.00    -0.508 OA
ATOM     51  H   UNL     1      21.751  19.701   9.583  1.00  0.00     0.293 HD
ENDBRANCH  37  50
ENDBRANCH  26  27
ENDBRANCH   5  26
BRANCH   4  52
ATOM     52  O   UNL     1      27.272  12.646  11.389  1.00  0.00    -0.384 OA
ATOM     53  H   UNL     1      26.871  13.563  11.325  1.00  0.00     0.211 HD
ENDBRANCH   4  52
TORSDOF 16
ENDMDL
MODEL 3
REMARK VINA RESULT:    -4.744      2.672      8.520
REMARK INTER + INTRA:         -10.149
REMARK INTER:                  -8.575
REMARK INTRA:                  -1.573
REMARK UNBOUND:                -2.354
REMARK SMILES C[C@@H]1O[C@H](OC[C@@H]2O[C@H](Oc3c(-c4ccc(O)c(O)c4)oc4cc(O)cc(O)c4c3=O)[C@@H](O)[C@@H](O)[C@H]2O)[C@H](O)[C@@H](O)[C@@H]1O
REMARK SMILES IDX 7 1 36 2 34 3 32 4 9 5 8 6 6 7 5 8 4 9 1 10 2 11 42 12 3 13
REMARK SMILES IDX 40 14 38 15 43 16 41 18 39 20 37 22 35 24 10 26 11 27 12 28
REMARK SMILES IDX 30 29 21 30 29 31 31 32 22 33 27 34 23 35 26 36 24 37 13 38
REMARK SMILES IDX 20 39 14 40 18 41 15 42 16 43 19 44 17 46 28 48 25 50 33 52
REMARK H PARENT 43 17 41 19 39 21 37 23 35 25 19 45 17 47 28 49 25 51 33 53
REMARK Flexibility Score: inf
ROOT
ATOM      1  C   UNL     1      25.963  13.129   8.288  1.00  0.00     0.180 C 
ATOM      2  C   UNL     1      27.337  14.048   8.422  1.00  0.00     0.177 C 
ATOM      3  C   UNL     1      26.737  15.550   8.554  1.00  0.00     0.180 C 
ATOM      4  C   UNL     1      25.880  16.002   7.275  1.00  0.00     0.214 C 
ATOM      5  C   UNL     1      25.079  14.784   7.030  1.00  0.00     0.339 C 
ATOM      6  O   UNL     1      25.804  13.599   6.994  1.00  0.00    -0.332 OA
ENDROOT
BRANCH   1   7
ATOM      7  C   UNL     1      25.227  11.813   7.691  1.00  0.00     0.198 C 
BRANCH   7   8
ATOM      8  O   UNL     1      26.182  10.697   7.934  1.00  0.00    -0.347 OA
BRANCH   8   9
ATOM      9  C   UNL     1      25.521   9.448   8.242  1.00  0.00     0.281 C 
ATOM     10  C   UNL     1      26.034   6.492   6.069  1.00  0.00     0.041 C 
ATOM     11  C   UNL     1      25.834   7.206   7.424  1.00  0.00     0.150 C 
ATOM     12  C   UNL     1      27.287   7.439   8.222  1.00  0.00     0.174 C 
ATOM     13  O   UNL     1      25.370   8.514   7.074  1.00  0.00    -0.344 OA
ATOM     14  C   UNL     1      27.131   8.089   9.578  1.00  0.00     0.179 C 
ATOM     15  C   UNL     1      25.803   8.778   9.656  1.00  0.00     0.202 C 
BRANCH  12  16
ATOM     16  O   UNL     1      28.026   8.218   7.291  1.00  0.00    -0.388 OA
ATOM     17  H   UNL     1      27.495   8.865   6.757  1.00  0.00     0.211 HD
ENDBRANCH  12  16
BRANCH  14  18
ATOM     18  O   UNL     1      27.223   7.102  10.576  1.00  0.00    -0.387 OA
ATOM     19  H   UNL     1      26.256   6.689  10.634  1.00  0.00     0.211 HD
ENDBRANCH  14  18
BRANCH  15  20
ATOM     20  O   UNL     1      25.602   9.754  10.719  1.00  0.00    -0.385 OA
ATOM     21  H   UNL     1      26.340   9.619  11.359  1.00  0.00     0.211 HD
ENDBRANCH  15  20
ENDBRANCH   8   9
ENDBRANCH   7   8
ENDBRANCH   1   7
BRANCH   2  22
ATOM     22  O   UNL     1      28.124  13.878   9.606  1.00  0.00    -0.387 OA
ATOM     23  H   UNL     1      27.765  13.059  10.138  1.00  0.00     0.211 HD
ENDBRANCH   2  22
BRANCH   3  24
ATOM     24  O   UNL     1      25.837  15.643   9.734  1.00  0.00    -0.387 OA
ATOM     25  H   UNL     1      26.346  15.291  10.509  1.00  0.00     0.211 HD
ENDBRANCH   3  24
BRANCH   5  26
ATOM     26  O   UNL     1      23.862  14.980   6.245  1.00  0.00    -0.454 OA
BRANCH  26  27
ATOM     27  C   UNL     1      22.675  15.399   5.557  1.00  0.00     0.214 A 
ATOM     28  C   UNL     1      22.559  16.676   4.935  1.00  0.00     0.180 A 
ATOM     29  C   UNL     1      21.377  14.900   5.956  1.00  0.00     0.239 A 
ATOM     30  O   UNL     1      21.560  17.480   5.012  1.00  0.00    -0.452 OA
ATOM     31  C   UNL     1      20.315  15.814   6.108  1.00  0.00     0.111 A 
ATOM     32  O   UNL     1      21.241  13.661   6.331  1.00  0.00    -0.285 OA
ATOM     33  C   UNL     1      20.525  17.162   5.686  1.00  0.00     0.146 A 
ATOM     34  C   UNL     1      19.317  15.630   7.105  1.00  0.00     0.134 A 
ATOM     35  C   UNL     1      19.984  18.268   6.364  1.00  0.00     0.094 A 
ATOM     36  C   UNL     1      18.934  16.735   7.923  1.00  0.00     0.093 A 
ATOM     37  C   UNL     1      19.498  18.056   7.594  1.00  0.00     0.123 A 
BRANCH  28  38
ATOM     38  C   UNL     1      23.659  17.649   4.665  1.00  0.00     0.025 A 
ATOM     39  C   UNL     1      24.248  18.776   5.415  1.00  0.00     0.062 A 
ATOM     40  C   UNL     1      24.128  17.633   3.378  1.00  0.00     0.016 A 
ATOM     41  C   UNL     1      25.633  18.789   5.321  1.00  0.00     0.158 A 
ATOM     42  C   UNL     1      25.455  17.667   3.128  1.00  0.00     0.051 A 
ATOM     43  C   UNL     1      26.227  18.202   4.129  1.00  0.00     0.157 A 
BRANCH  41  44
ATOM     44  O   UNL     1      26.451  19.121   6.399  1.00  0.00    -0.504 OA
ATOM     45  H   UNL     1      26.782  18.513   7.097  1.00  0.00     0.293 HD
ENDBRANCH  41  44
BRANCH  43  46
ATOM     46  O   UNL     1      27.586  17.956   4.063  1.00  0.00    -0.504 OA
ATOM     47  H   UNL     1      27.895  17.504   3.196  1.00  0.00     0.293 HD
ENDBRANCH  43  46
ENDBRANCH  28  38
BRANCH  34  48
ATOM     48  O   UNL     1      18.748  14.392   7.334  1.00  0.00    -0.507 OA
ATOM     49  H   UNL     1      18.572  13.967   8.231  1.00  0.00     0.293 HD
ENDBRANCH  34  48
BRANCH  37  50
ATOM     50  O   UNL     1      19.467  19.125   8.484  1.00  0.00    -0.508 OA
ATOM     51  H   UNL     1      20.334  19.509   8.845  1.00  0.00     0.293 HD
ENDBRANCH  37  50
ENDBRANCH  26  27
ENDBRANCH   5  26
BRANCH   4  52
ATOM     52  O   UNL     1      25.005  16.901   7.743  1.00  0.00    -0.384 OA
ATOM     53  H   UNL     1      24.489  17.165   6.924  1.00  0.00     0.211 HD
ENDBRANCH   4  52
TORSDOF 16
ENDMDL
MODEL 4
REMARK VINA RESULT:    -3.955     16.755     20.796
REMARK INTER + INTRA:          -8.852
REMARK INTER:                  -6.347
REMARK INTRA:                  -2.505
REMARK UNBOUND:                -2.354
REMARK SMILES C[C@@H]1O[C@H](OC[C@@H]2O[C@H](Oc3c(-c4ccc(O)c(O)c4)oc4cc(O)cc(O)c4c3=O)[C@@H](O)[C@@H](O)[C@H]2O)[C@H](O)[C@@H](O)[C@@H]1O
REMARK SMILES IDX 7 1 36 2 34 3 32 4 9 5 8 6 6 7 5 8 4 9 1 10 2 11 42 12 3 13
REMARK SMILES IDX 40 14 38 15 43 16 41 18 39 20 37 22 35 24 10 26 11 27 12 28
REMARK SMILES IDX 30 29 21 30 29 31 31 32 22 33 27 34 23 35 26 36 24 37 13 38
REMARK SMILES IDX 20 39 14 40 18 41 15 42 16 43 19 44 17 46 28 48 25 50 33 52
REMARK H PARENT 43 17 41 19 39 21 37 23 35 25 19 45 17 47 28 49 25 51 33 53
REMARK Flexibility Score: inf
ROOT
ATOM      1  C   UNL     1      15.695   3.279   1.374  1.00  0.00     0.180 C 
ATOM      2  C   UNL     1      16.269   2.421   0.074  1.00  0.00     0.177 C 
ATOM      3  C   UNL     1      15.270   2.886  -1.115  1.00  0.00     0.180 C 
ATOM      4  C   UNL     1      13.734   2.517  -0.831  1.00  0.00     0.214 C 
ATOM      5  C   UNL     1      13.610   2.912   0.588  1.00  0.00     0.339 C 
ATOM      6  O   UNL     1      14.606   2.425   1.425  1.00  0.00    -0.332 OA
ENDROOT
BRANCH   1   7
ATOM      7  C   UNL     1      15.450   3.376   2.973  1.00  0.00     0.198 C 
BRANCH   7   8
ATOM      8  O   UNL     1      15.673   1.993   3.479  1.00  0.00    -0.347 OA
BRANCH   8   9
ATOM      9  C   UNL     1      14.973   1.728   4.717  1.00  0.00     0.281 C 
ATOM     10  C   UNL     1      12.599  -1.107   4.933  1.00  0.00     0.041 C 
ATOM     11  C   UNL     1      13.692  -0.162   5.478  1.00  0.00     0.150 C 
ATOM     12  C   UNL     1      15.214  -0.852   5.379  1.00  0.00     0.174 C 
ATOM     13  O   UNL     1      13.704   0.937   4.561  1.00  0.00    -0.344 OA
ATOM     14  C   UNL     1      16.309   0.020   5.951  1.00  0.00     0.179 C 
ATOM     15  C   UNL     1      15.835   1.439   6.020  1.00  0.00     0.202 C 
BRANCH  12  16
ATOM     16  O   UNL     1      15.345  -1.104   3.986  1.00  0.00    -0.388 OA
ATOM     17  H   UNL     1      14.639  -0.709   3.412  1.00  0.00     0.211 HD
ENDBRANCH  12  16
BRANCH  14  18
ATOM     18  O   UNL     1      16.643  -0.442   7.236  1.00  0.00    -0.387 OA
ATOM     19  H   UNL     1      17.483   0.128   7.516  1.00  0.00     0.211 HD
ENDBRANCH  14  18
BRANCH  15  20
ATOM     20  O   UNL     1      16.835   2.484   6.197  1.00  0.00    -0.385 OA
ATOM     21  H   UNL     1      16.501   3.065   6.921  1.00  0.00     0.211 HD
ENDBRANCH  15  20
ENDBRANCH   8   9
ENDBRANCH   7   8
ENDBRANCH   1   7
BRANCH   2  22
ATOM     22  O   UNL     1      17.574   2.760  -0.408  1.00  0.00    -0.387 OA
ATOM     23  H   UNL     1      18.270   2.109   0.008  1.00  0.00     0.211 HD
ENDBRANCH   2  22
BRANCH   3  24
ATOM     24  O   UNL     1      15.334   4.361  -1.297  1.00  0.00    -0.387 OA
ATOM     25  H   UNL     1      15.480   4.751  -0.397  1.00  0.00     0.211 HD
ENDBRANCH   3  24
BRANCH   5  26
ATOM     26  O   UNL     1      12.247   3.158   1.055  1.00  0.00    -0.454 OA
BRANCH  26  27
ATOM     27  C   UNL     1      10.841   3.303   1.302  1.00  0.00     0.214 A 
ATOM     28  C   UNL     1       9.854   2.589   0.564  1.00  0.00     0.180 A 
ATOM     29  C   UNL     1      10.307   4.551   1.806  1.00  0.00     0.239 A 
ATOM     30  O   UNL     1       8.770   3.069   0.066  1.00  0.00    -0.452 OA
ATOM     31  C   UNL     1       9.161   5.095   1.193  1.00  0.00     0.111 A 
ATOM     32  O   UNL     1      10.972   5.236   2.690  1.00  0.00    -0.285 OA
ATOM     33  C   UNL     1       8.477   4.300   0.224  1.00  0.00     0.146 A 
ATOM     34  C   UNL     1       8.985   6.502   1.068  1.00  0.00     0.134 A 
ATOM     35  C   UNL     1       7.876   4.844  -0.925  1.00  0.00     0.094 A 
ATOM     36  C   UNL     1       8.569   7.047  -0.183  1.00  0.00     0.093 A 
ATOM     37  C   UNL     1       8.204   6.100  -1.253  1.00  0.00     0.123 A 
BRANCH  28  38
ATOM     38  C   UNL     1      10.079   1.438  -0.359  1.00  0.00     0.025 A 
ATOM     39  C   UNL     1      10.016   1.258  -1.823  1.00  0.00     0.062 A 
ATOM     40  C   UNL     1      10.196   0.224   0.267  1.00  0.00     0.016 A 
ATOM     41  C   UNL     1      11.069   0.485  -2.292  1.00  0.00     0.158 A 
ATOM     42  C   UNL     1      11.161  -0.649  -0.099  1.00  0.00     0.051 A 
ATOM     43  C   UNL     1      11.644  -0.488  -1.375  1.00  0.00     0.157 A 
BRANCH  41  44
ATOM     44  O   UNL     1      11.723   0.762  -3.490  1.00  0.00    -0.504 OA
ATOM     45  H   UNL     1      11.753   0.192  -4.291  1.00  0.00     0.293 HD
ENDBRANCH  41  44
BRANCH  43  46
ATOM     46  O   UNL     1      12.835  -1.123  -1.671  1.00  0.00    -0.504 OA
ATOM     47  H   UNL     1      12.751  -1.900  -2.335  1.00  0.00     0.293 HD
ENDBRANCH  43  46
ENDBRANCH  28  38
BRANCH  34  48
ATOM     48  O   UNL     1       9.260   7.357   2.119  1.00  0.00    -0.507 OA
ATOM     49  H   UNL     1       9.133   8.357   2.129  1.00  0.00     0.293 HD
ENDBRANCH  34  48
BRANCH  37  50
ATOM     50  O   UNL     1       8.101   6.483  -2.586  1.00  0.00    -0.508 OA
ATOM     51  H   UNL     1       8.926   6.784  -3.092  1.00  0.00     0.293 HD
ENDBRANCH  37  50
ENDBRANCH  26  27
ENDBRANCH   5  26
BRANCH   4  52
ATOM     52  O   UNL     1      13.026   3.430  -1.506  1.00  0.00    -0.384 OA
ATOM     53  H   UNL     1      13.730   4.053  -1.857  1.00  0.00     0.211 HD
ENDBRANCH   4  52
TORSDOF 16
ENDMDL
MODEL 5
REMARK VINA RESULT:    -3.780      1.365      2.096
REMARK INTER + INTRA:          -8.564
REMARK INTER:                  -7.617
REMARK INTRA:                  -0.948
REMARK UNBOUND:                -2.354
REMARK SMILES C[C@@H]1O[C@H](OC[C@@H]2O[C@H](Oc3c(-c4ccc(O)c(O)c4)oc4cc(O)cc(O)c4c3=O)[C@@H](O)[C@@H](O)[C@H]2O)[C@H](O)[C@@H](O)[C@@H]1O
REMARK SMILES IDX 7 1 36 2 34 3 32 4 9 5 8 6 6 7 5 8 4 9 1 10 2 11 42 12 3 13
REMARK SMILES IDX 40 14 38 15 43 16 41 18 39 20 37 22 35 24 10 26 11 27 12 28
REMARK SMILES IDX 30 29 21 30 29 31 31 32 22 33 27 34 23 35 26 36 24 37 13 38
REMARK SMILES IDX 20 39 14 40 18 41 15 42 16 43 19 44 17 46 28 48 25 50 33 52
REMARK H PARENT 43 17 41 19 39 21 37 23 35 25 19 45 17 47 28 49 25 51 33 53
REMARK Flexibility Score: inf
ROOT
ATOM      1  C   UNL     1      24.743  18.340   6.024  1.00  0.00     0.180 C 
ATOM      2  C   UNL     1      25.680  18.883   4.767  1.00  0.00     0.177 C 
ATOM      3  C   UNL     1      26.827  17.740   4.671  1.00  0.00     0.180 C 
ATOM      4  C   UNL     1      27.701  17.609   6.011  1.00  0.00     0.214 C 
ATOM      5  C   UNL     1      26.644  17.671   7.043  1.00  0.00     0.339 C 
ATOM      6  O   UNL     1      25.744  18.720   6.902  1.00  0.00    -0.332 OA
ENDROOT
BRANCH   1   7
ATOM      7  C   UNL     1      23.778  18.679   7.282  1.00  0.00     0.198 C 
BRANCH   7   8
ATOM      8  O   UNL     1      22.627  17.744   7.145  1.00  0.00    -0.347 OA
BRANCH   8   9
ATOM      9  C   UNL     1      21.458  18.373   6.570  1.00  0.00     0.281 C 
ATOM     10  C   UNL     1      20.251  17.333   3.226  1.00  0.00     0.041 C 
ATOM     11  C   UNL     1      20.073  17.796   4.688  1.00  0.00     0.150 C 
ATOM     12  C   UNL     1      19.739  16.513   5.709  1.00  0.00     0.174 C 
ATOM     13  O   UNL     1      21.367  18.272   5.073  1.00  0.00    -0.344 OA
ATOM     14  C   UNL     1      19.506  16.929   7.144  1.00  0.00     0.179 C 
ATOM     15  C   UNL     1      20.089  18.290   7.373  1.00  0.00     0.202 C 
BRANCH  12  16
ATOM     16  O   UNL     1      20.875  15.676   5.530  1.00  0.00    -0.388 OA
ATOM     17  H   UNL     1      20.908  14.870   6.108  1.00  0.00     0.211 HD
ENDBRANCH  12  16
BRANCH  14  18
ATOM     18  O   UNL     1      18.123  16.946   7.400  1.00  0.00    -0.387 OA
ATOM     19  H   UNL     1      17.675  16.749   6.468  1.00  0.00     0.211 HD
ENDBRANCH  14  18
BRANCH  15  20
ATOM     20  O   UNL     1      20.292  18.722   8.750  1.00  0.00    -0.385 OA
ATOM     21  H   UNL     1      20.723  19.608   8.699  1.00  0.00     0.211 HD
ENDBRANCH  15  20
ENDBRANCH   8   9
ENDBRANCH   7   8
ENDBRANCH   1   7
BRANCH   2  22
ATOM     22  O   UNL     1      25.084  18.895   3.465  1.00  0.00    -0.387 OA
ATOM     23  H   UNL     1      25.829  19.034   2.751  1.00  0.00     0.211 HD
ENDBRANCH   2  22
BRANCH   3  24
ATOM     24  O   UNL     1      26.209  16.409   4.426  1.00  0.00    -0.387 OA
ATOM     25  H   UNL     1      25.589  16.521   3.661  1.00  0.00     0.211 HD
ENDBRANCH   3  24
BRANCH   5  26
ATOM     26  O   UNL     1      27.007  17.120   8.347  1.00  0.00    -0.454 OA
BRANCH  26  27
ATOM     27  C   UNL     1      27.590  16.610   9.554  1.00  0.00     0.214 A 
ATOM     28  C   UNL     1      27.550  15.229   9.902  1.00  0.00     0.180 A 
ATOM     29  C   UNL     1      27.676  17.439  10.738  1.00  0.00     0.239 A 
ATOM     30  O   UNL     1      27.258  14.735  11.052  1.00  0.00    -0.452 OA
ATOM     31  C   UNL     1      27.277  16.897  11.976  1.00  0.00     0.111 A 
ATOM     32  O   UNL     1      27.952  18.706  10.629  1.00  0.00    -0.285 OA
ATOM     33  C   UNL     1      26.980  15.502  12.032  1.00  0.00     0.146 A 
ATOM     34  C   UNL     1      26.648  17.701  12.968  1.00  0.00     0.134 A 
ATOM     35  C   UNL     1      25.953  14.971  12.834  1.00  0.00     0.094 A 
ATOM     36  C   UNL     1      25.478  17.215  13.622  1.00  0.00     0.093 A 
ATOM     37  C   UNL     1      25.058  15.831  13.333  1.00  0.00     0.123 A 
BRANCH  28  38
ATOM     38  C   UNL     1      27.160  14.090   9.020  1.00  0.00     0.025 A 
ATOM     39  C   UNL     1      27.169  12.621   9.164  1.00  0.00     0.062 A 
ATOM     40  C   UNL     1      26.899  14.441   7.722  1.00  0.00     0.016 A 
ATOM     41  C   UNL     1      26.016  12.045   8.648  1.00  0.00     0.158 A 
ATOM     42  C   UNL     1      25.822  13.940   7.076  1.00  0.00     0.051 A 
ATOM     43  C   UNL     1      25.339  12.755   7.573  1.00  0.00     0.157 A 
BRANCH  41  44
ATOM     44  O   UNL     1      25.380  10.969   9.263  1.00  0.00    -0.504 OA
ATOM     45  H   UNL     1      25.179  10.095   8.859  1.00  0.00     0.293 HD
ENDBRANCH  41  44
BRANCH  43  46
ATOM     46  O   UNL     1      24.069  12.386   7.170  1.00  0.00    -0.504 OA
ATOM     47  H   UNL     1      23.607  13.058   6.549  1.00  0.00     0.293 HD
ENDBRANCH  43  46
ENDBRANCH  28  38
BRANCH  34  48
ATOM     48  O   UNL     1      27.118  18.964  13.274  1.00  0.00    -0.507 OA
ATOM     49  H   UNL     1      27.055  19.785  12.693  1.00  0.00     0.293 HD
ENDBRANCH  34  48
BRANCH  37  50
ATOM     50  O   UNL     1      23.787  15.357  13.640  1.00  0.00    -0.508 OA
ATOM     51  H   UNL     1      23.649  14.767  14.454  1.00  0.00     0.293 HD
ENDBRANCH  37  50
ENDBRANCH  26  27
ENDBRANCH   5  26
BRANCH   4  52
ATOM     52  O   UNL     1      28.125  16.340   6.027  1.00  0.00    -0.384 OA
ATOM     53  H   UNL     1      27.363  15.838   5.610  1.00  0.00     0.211 HD
ENDBRANCH   4  52
TORSDOF 16
ENDMDL
MODEL 6
REMARK VINA RESULT:    -3.769      2.431      6.900
REMARK INTER + INTRA:          -8.545
REMARK INTER:                  -6.302
REMARK INTRA:                  -2.243
REMARK UNBOUND:                -2.354
REMARK SMILES C[C@@H]1O[C@H](OC[C@@H]2O[C@H](Oc3c(-c4ccc(O)c(O)c4)oc4cc(O)cc(O)c4c3=O)[C@@H](O)[C@@H](O)[C@H]2O)[C@H](O)[C@@H](O)[C@@H]1O
REMARK SMILES IDX 7 1 36 2 34 3 32 4 9 5 8 6 6 7 5 8 4 9 1 10 2 11 42 12 3 13
REMARK SMILES IDX 40 14 38 15 43 16 41 18 39 20 37 22 35 24 10 26 11 27 12 28
REMARK SMILES IDX 30 29 21 30 29 31 31 32 22 33 27 34 23 35 26 36 24 37 13 38
REMARK SMILES IDX 20 39 14 40 18 41 15 42 16 43 19 44 17 46 28 48 25 50 33 52
REMARK H PARENT 43 17 41 19 39 21 37 23 35 25 19 45 17 47 28 49 25 51 33 53
REMARK Flexibility Score: inf
ROOT
ATOM      1  C   UNL     1      25.021  13.279   6.615  1.00  0.00     0.180 C 
ATOM      2  C   UNL     1      23.575  12.624   6.133  1.00  0.00     0.177 C 
ATOM      3  C   UNL     1      23.063  13.692   5.025  1.00  0.00     0.180 C 
ATOM      4  C   UNL     1      22.843  15.165   5.622  1.00  0.00     0.214 C 
ATOM      5  C   UNL     1      24.056  15.315   6.452  1.00  0.00     0.339 C 
ATOM      6  O   UNL     1      24.320  14.253   7.308  1.00  0.00    -0.332 OA
ENDROOT
BRANCH   1   7
ATOM      7  C   UNL     1      26.117  13.510   7.786  1.00  0.00     0.198 C 
BRANCH   7   8
ATOM      8  O   UNL     1      26.869  12.227   7.866  1.00  0.00    -0.347 OA
BRANCH   8   9
ATOM      9  C   UNL     1      26.151  11.199   8.587  1.00  0.00     0.281 C 
ATOM     10  C   UNL     1      25.364   7.980   6.931  1.00  0.00     0.041 C 
ATOM     11  C   UNL     1      25.771   8.867   8.128  1.00  0.00     0.150 C 
ATOM     12  C   UNL     1      27.427   8.858   8.371  1.00  0.00     0.174 C 
ATOM     13  O   UNL     1      25.447  10.198   7.714  1.00  0.00    -0.344 OA
ATOM     14  C   UNL     1      27.864   9.673   9.567  1.00  0.00     0.179 C 
ATOM     15  C   UNL     1      26.785  10.644   9.935  1.00  0.00     0.202 C 
BRANCH  12  16
ATOM     16  O   UNL     1      27.921   9.345   7.130  1.00  0.00    -0.388 OA
ATOM     17  H   UNL     1      27.229   9.586   6.460  1.00  0.00     0.211 HD
ENDBRANCH  12  16
BRANCH  14  18
ATOM     18  O   UNL     1      28.125   8.808  10.645  1.00  0.00    -0.387 OA
ATOM     19  H   UNL     1      29.149   8.578  10.563  1.00  0.00     0.211 HD
ENDBRANCH  14  18
BRANCH  15  20
ATOM     20  O   UNL     1      27.135  11.753  10.813  1.00  0.00    -0.385 OA
ATOM     21  H   UNL     1      28.097  11.656  11.009  1.00  0.00     0.211 HD
ENDBRANCH  15  20
ENDBRANCH   8   9
ENDBRANCH   7   8
ENDBRANCH   1   7
BRANCH   2  22
ATOM     22  O   UNL     1      23.624  11.379   5.427  1.00  0.00    -0.387 OA
ATOM     23  H   UNL     1      24.237  10.718   5.945  1.00  0.00     0.211 HD
ENDBRANCH   2  22
BRANCH   3  24
ATOM     24  O   UNL     1      24.060  13.814   3.928  1.00  0.00    -0.387 OA
ATOM     25  H   UNL     1      24.790  13.176   4.135  1.00  0.00     0.211 HD
ENDBRANCH   3  24
BRANCH   5  26
ATOM     26  O   UNL     1      24.431  16.691   6.774  1.00  0.00    -0.454 OA
BRANCH  26  27
ATOM     27  C   UNL     1      24.871  17.950   7.300  1.00  0.00     0.214 A 
ATOM     28  C   UNL     1      26.201  18.432   7.128  1.00  0.00     0.180 A 
ATOM     29  C   UNL     1      24.278  18.493   8.504  1.00  0.00     0.239 A 
ATOM     30  O   UNL     1      26.950  18.961   8.028  1.00  0.00    -0.452 OA
ATOM     31  C   UNL     1      25.125  18.998   9.511  1.00  0.00     0.111 A 
ATOM     32  O   UNL     1      23.001  18.360   8.720  1.00  0.00    -0.285 OA
ATOM     33  C   UNL     1      26.518  19.114   9.218  1.00  0.00     0.146 A 
ATOM     34  C   UNL     1      24.794  18.871  10.889  1.00  0.00     0.134 A 
ATOM     35  C   UNL     1      27.522  18.872  10.172  1.00  0.00     0.094 A 
ATOM     36  C   UNL     1      25.788  18.421  11.808  1.00  0.00     0.093 A 
ATOM     37  C   UNL     1      27.160  18.243  11.298  1.00  0.00     0.123 A 
BRANCH  28  38
ATOM     38  C   UNL     1      27.242  17.888   6.207  1.00  0.00     0.025 A 
ATOM     39  C   UNL     1      28.026  16.638   6.155  1.00  0.00     0.062 A 
ATOM     40  C   UNL     1      27.729  18.795   5.301  1.00  0.00     0.016 A 
ATOM     41  C   UNL     1      28.122  16.143   4.862  1.00  0.00     0.158 A 
ATOM     42  C   UNL     1      27.902  18.450   4.006  1.00  0.00     0.051 A 
ATOM     43  C   UNL     1      28.048  17.105   3.772  1.00  0.00     0.157 A 
BRANCH  41  44
ATOM     44  O   UNL     1      28.054  14.782   4.576  1.00  0.00    -0.504 OA
ATOM     45  H   UNL     1      27.859  14.371   3.704  1.00  0.00     0.293 HD
ENDBRANCH  41  44
BRANCH  43  46
ATOM     46  O   UNL     1      27.894  16.684   2.464  1.00  0.00    -0.504 OA
ATOM     47  H   UNL     1      27.417  17.356   1.854  1.00  0.00     0.293 HD
ENDBRANCH  43  46
ENDBRANCH  28  38
BRANCH  34  48
ATOM     48  O   UNL     1      23.516  19.124  11.348  1.00  0.00    -0.507 OA
ATOM     49  H   UNL     1      22.672  18.649  11.070  1.00  0.00     0.293 HD
ENDBRANCH  34  48
BRANCH  37  50
ATOM     50  O   UNL     1      28.125  17.515  11.987  1.00  0.00    -0.508 OA
ATOM     51  H   UNL     1      27.849  16.891  12.737  1.00  0.00     0.293 HD
ENDBRANCH  37  50
ENDBRANCH  26  27
ENDBRANCH   5  26
BRANCH   4  52
ATOM     52  O   UNL     1      23.029  15.992   4.586  1.00  0.00    -0.384 OA
ATOM     53  H   UNL     1      22.340  15.688   3.923  1.00  0.00     0.211 HD
ENDBRANCH   4  52
TORSDOF 16
ENDMDL
MODEL 7
REMARK VINA RESULT:    -3.697     16.650     20.982
REMARK INTER + INTRA:          -8.428
REMARK INTER:                  -6.140
REMARK INTRA:                  -2.288
REMARK UNBOUND:                -2.354
REMARK SMILES C[C@@H]1O[C@H](OC[C@@H]2O[C@H](Oc3c(-c4ccc(O)c(O)c4)oc4cc(O)cc(O)c4c3=O)[C@@H](O)[C@@H](O)[C@H]2O)[C@H](O)[C@@H](O)[C@@H]1O
REMARK SMILES IDX 7 1 36 2 34 3 32 4 9 5 8 6 6 7 5 8 4 9 1 10 2 11 42 12 3 13
REMARK SMILES IDX 40 14 38 15 43 16 41 18 39 20 37 22 35 24 10 26 11 27 12 28
REMARK SMILES IDX 30 29 21 30 29 31 31 32 22 33 27 34 23 35 26 36 24 37 13 38
REMARK SMILES IDX 20 39 14 40 18 41 15 42 16 43 19 44 17 46 28 48 25 50 33 52
REMARK H PARENT 43 17 41 19 39 21 37 23 35 25 19 45 17 47 28 49 25 51 33 53
REMARK Flexibility Score: inf
ROOT
ATOM      1  C   UNL     1      15.651   2.240   3.617  1.00  0.00     0.180 C 
ATOM      2  C   UNL     1      15.770   2.466   5.256  1.00  0.00     0.177 C 
ATOM      3  C   UNL     1      15.556   0.964   5.829  1.00  0.00     0.180 C 
ATOM      4  C   UNL     1      14.127   0.341   5.448  1.00  0.00     0.214 C 
ATOM      5  C   UNL     1      14.019   0.734   4.027  1.00  0.00     0.339 C 
ATOM      6  O   UNL     1      14.284   2.072   3.765  1.00  0.00    -0.332 OA
ENDROOT
BRANCH   1   7
ATOM      7  C   UNL     1      15.226   2.821   2.164  1.00  0.00     0.198 C 
BRANCH   7   8
ATOM      8  O   UNL     1      13.771   3.115   2.279  1.00  0.00    -0.347 OA
BRANCH   8   9
ATOM      9  C   UNL     1      13.340   4.173   1.392  1.00  0.00     0.281 C 
ATOM     10  C   UNL     1      13.076   3.547  -2.250  1.00  0.00     0.041 C 
ATOM     11  C   UNL     1      12.629   4.167  -0.908  1.00  0.00     0.150 C 
ATOM     12  C   UNL     1      11.383   3.297  -0.207  1.00  0.00     0.174 C 
ATOM     13  O   UNL     1      13.756   3.996  -0.042  1.00  0.00    -0.344 OA
ATOM     14  C   UNL     1      10.879   3.900   1.085  1.00  0.00     0.179 C 
ATOM     15  C   UNL     1      11.914   4.829   1.642  1.00  0.00     0.202 C 
BRANCH  12  16
ATOM     16  O   UNL     1      11.959   2.006  -0.054  1.00  0.00    -0.388 OA
ATOM     17  H   UNL     1      11.511   1.413   0.604  1.00  0.00     0.211 HD
ENDBRANCH  12  16
BRANCH  14  18
ATOM     18  O   UNL     1       9.686   4.601   0.832  1.00  0.00    -0.387 OA
ATOM     19  H   UNL     1       9.615   5.301   1.615  1.00  0.00     0.211 HD
ENDBRANCH  14  18
BRANCH  15  20
ATOM     20  O   UNL     1      11.789   5.231   3.037  1.00  0.00    -0.385 OA
ATOM     21  H   UNL     1      11.615   4.405   3.547  1.00  0.00     0.211 HD
ENDBRANCH  15  20
ENDBRANCH   8   9
ENDBRANCH   7   8
ENDBRANCH   1   7
BRANCH   2  22
ATOM     22  O   UNL     1      17.047   2.860   5.770  1.00  0.00    -0.387 OA
ATOM     23  H   UNL     1      16.997   2.903   6.808  1.00  0.00     0.211 HD
ENDBRANCH   2  22
BRANCH   3  24
ATOM     24  O   UNL     1      16.588   0.048   5.274  1.00  0.00    -0.387 OA
ATOM     25  H   UNL     1      17.469   0.445   5.496  1.00  0.00     0.211 HD
ENDBRANCH   3  24
BRANCH   5  26
ATOM     26  O   UNL     1      13.078  -0.050   3.229  1.00  0.00    -0.454 OA
BRANCH  26  27
ATOM     27  C   UNL     1      12.018  -0.817   2.643  1.00  0.00     0.214 A 
ATOM     28  C   UNL     1      11.969  -1.124   1.252  1.00  0.00     0.180 A 
ATOM     29  C   UNL     1      10.687  -0.789   3.212  1.00  0.00     0.239 A 
ATOM     30  O   UNL     1      10.946  -1.035   0.481  1.00  0.00    -0.452 OA
ATOM     31  C   UNL     1       9.584  -0.614   2.351  1.00  0.00     0.111 A 
ATOM     32  O   UNL     1      10.529  -0.754   4.503  1.00  0.00    -0.285 OA
ATOM     33  C   UNL     1       9.820  -0.654   0.943  1.00  0.00     0.146 A 
ATOM     34  C   UNL     1       8.433   0.115   2.762  1.00  0.00     0.134 A 
ATOM     35  C   UNL     1       9.131   0.163   0.029  1.00  0.00     0.094 A 
ATOM     36  C   UNL     1       7.875   1.093   1.885  1.00  0.00     0.093 A 
ATOM     37  C   UNL     1       8.444   1.198   0.529  1.00  0.00     0.123 A 
BRANCH  28  38
ATOM     38  C   UNL     1      13.066  -0.950   0.255  1.00  0.00     0.025 A 
ATOM     39  C   UNL     1      13.167  -1.112  -1.210  1.00  0.00     0.062 A 
ATOM     40  C   UNL     1      14.309  -0.774   0.803  1.00  0.00     0.016 A 
ATOM     41  C   UNL     1      13.896  -0.085  -1.792  1.00  0.00     0.158 A 
ATOM     42  C   UNL     1      15.146   0.173   0.323  1.00  0.00     0.051 A 
ATOM     43  C   UNL     1      14.909   0.564  -0.972  1.00  0.00     0.157 A 
BRANCH  41  44
ATOM     44  O   UNL     1      13.544   0.480  -3.016  1.00  0.00    -0.504 OA
ATOM     45  H   UNL     1      14.054   0.434  -3.855  1.00  0.00     0.293 HD
ENDBRANCH  41  44
BRANCH  43  46
ATOM     46  O   UNL     1      15.508   1.739  -1.384  1.00  0.00    -0.504 OA
ATOM     47  H   UNL     1      16.388   1.613  -1.895  1.00  0.00     0.293 HD
ENDBRANCH  43  46
ENDBRANCH  28  38
BRANCH  34  48
ATOM     48  O   UNL     1       7.875  -0.067   4.013  1.00  0.00    -0.507 OA
ATOM     49  H   UNL     1       7.540  -0.934   4.401  1.00  0.00     0.293 HD
ENDBRANCH  34  48
BRANCH  37  50
ATOM     50  O   UNL     1       8.221   2.300  -0.291  1.00  0.00    -0.508 OA
ATOM     51  H   UNL     1       7.447   2.926  -0.099  1.00  0.00     0.293 HD
ENDBRANCH  37  50
ENDBRANCH  26  27
ENDBRANCH   5  26
BRANCH   4  52
ATOM     52  O   UNL     1      14.319  -0.984   5.426  1.00  0.00    -0.384 OA
ATOM     53  H   UNL     1      13.386  -1.350   5.376  1.00  0.00     0.211 HD
ENDBRANCH   4  52
TORSDOF 16
ENDMDL
MODEL 8
REMARK VINA RESULT:    -3.593      1.768      2.961
REMARK INTER + INTRA:          -8.257
REMARK INTER:                  -6.866
REMARK INTRA:                  -1.391
REMARK UNBOUND:                -2.354
REMARK SMILES C[C@@H]1O[C@H](OC[C@@H]2O[C@H](Oc3c(-c4ccc(O)c(O)c4)oc4cc(O)cc(O)c4c3=O)[C@@H](O)[C@@H](O)[C@H]2O)[C@H](O)[C@@H](O)[C@@H]1O
REMARK SMILES IDX 7 1 36 2 34 3 32 4 9 5 8 6 6 7 5 8 4 9 1 10 2 11 42 12 3 13
REMARK SMILES IDX 40 14 38 15 43 16 41 18 39 20 37 22 35 24 10 26 11 27 12 28
REMARK SMILES IDX 30 29 21 30 29 31 31 32 22 33 27 34 23 35 26 36 24 37 13 38
REMARK SMILES IDX 20 39 14 40 18 41 15 42 16 43 19 44 17 46 28 48 25 50 33 52
REMARK H PARENT 43 17 41 19 39 21 37 23 35 25 19 45 17 47 28 49 25 51 33 53
REMARK Flexibility Score: inf
ROOT
ATOM      1  C   UNL     1      24.507  15.230   5.286  1.00  0.00     0.180 C 
ATOM      2  C   UNL     1      24.318  13.663   4.774  1.00  0.00     0.177 C 
ATOM      3  C   UNL     1      23.977  12.886   6.156  1.00  0.00     0.180 C 
ATOM      4  C   UNL     1      25.153  12.985   7.243  1.00  0.00     0.214 C 
ATOM      5  C   UNL     1      25.514  14.415   7.137  1.00  0.00     0.339 C 
ATOM      6  O   UNL     1      25.725  14.874   5.843  1.00  0.00    -0.332 OA
ENDROOT
BRANCH   1   7
ATOM      7  C   UNL     1      25.230  16.670   5.107  1.00  0.00     0.198 C 
BRANCH   7   8
ATOM      8  O   UNL     1      25.021  17.368   6.405  1.00  0.00    -0.347 OA
BRANCH   8   9
ATOM      9  C   UNL     1      24.260  18.590   6.270  1.00  0.00     0.281 C 
ATOM     10  C   UNL     1      21.684  18.887   3.624  1.00  0.00     0.041 C 
ATOM     11  C   UNL     1      22.263  19.125   5.035  1.00  0.00     0.150 C 
ATOM     12  C   UNL     1      21.645  18.041   6.151  1.00  0.00     0.174 C 
ATOM     13  O   UNL     1      23.652  18.802   4.911  1.00  0.00    -0.344 OA
ATOM     14  C   UNL     1      22.147  18.272   7.558  1.00  0.00     0.179 C 
ATOM     15  C   UNL     1      23.404  19.084   7.515  1.00  0.00     0.202 C 
BRANCH  12  16
ATOM     16  O   UNL     1      22.026  16.786   5.602  1.00  0.00    -0.388 OA
ATOM     17  H   UNL     1      22.246  16.792   4.634  1.00  0.00     0.211 HD
ENDBRANCH  12  16
BRANCH  14  18
ATOM     18  O   UNL     1      21.159  18.948   8.295  1.00  0.00    -0.387 OA
ATOM     19  H   UNL     1      20.381  18.248   8.408  1.00  0.00     0.211 HD
ENDBRANCH  14  18
BRANCH  15  20
ATOM     20  O   UNL     1      24.237  19.116   8.710  1.00  0.00    -0.385 OA
ATOM     21  H   UNL     1      24.276  18.188   9.043  1.00  0.00     0.211 HD
ENDBRANCH  15  20
ENDBRANCH   8   9
ENDBRANCH   7   8
ENDBRANCH   1   7
BRANCH   2  22
ATOM     22  O   UNL     1      23.198  13.384   3.927  1.00  0.00    -0.387 OA
ATOM     23  H   UNL     1      22.645  12.605   4.340  1.00  0.00     0.211 HD
ENDBRANCH   2  22
BRANCH   3  24
ATOM     24  O   UNL     1      22.758  13.462   6.785  1.00  0.00    -0.387 OA
ATOM     25  H   UNL     1      22.604  12.955   7.622  1.00  0.00     0.211 HD
ENDBRANCH   3  24
BRANCH   5  26
ATOM     26  O   UNL     1      26.217  14.973   8.290  1.00  0.00    -0.454 OA
BRANCH  26  27
ATOM     27  C   UNL     1      26.933  15.291   9.491  1.00  0.00     0.214 A 
ATOM     28  C   UNL     1      27.360  14.296  10.418  1.00  0.00     0.180 A 
ATOM     29  C   UNL     1      26.730  16.561  10.155  1.00  0.00     0.239 A 
ATOM     30  O   UNL     1      27.247  14.338  11.697  1.00  0.00    -0.452 OA
ATOM     31  C   UNL     1      26.533  16.574  11.550  1.00  0.00     0.111 A 
ATOM     32  O   UNL     1      26.564  17.645   9.454  1.00  0.00    -0.285 OA
ATOM     33  C   UNL     1      26.723  15.352  12.265  1.00  0.00     0.146 A 
ATOM     34  C   UNL     1      25.666  17.519  12.167  1.00  0.00     0.134 A 
ATOM     35  C   UNL     1      25.932  14.981  13.367  1.00  0.00     0.094 A 
ATOM     36  C   UNL     1      24.725  17.073  13.142  1.00  0.00     0.093 A 
ATOM     37  C   UNL     1      24.797  15.663  13.566  1.00  0.00     0.123 A 
BRANCH  28  38
ATOM     38  C   UNL     1      27.379  12.819  10.205  1.00  0.00     0.025 A 
ATOM     39  C   UNL     1      26.936  11.654  10.997  1.00  0.00     0.062 A 
ATOM     40  C   UNL     1      28.125  12.410   9.130  1.00  0.00     0.016 A 
ATOM     41  C   UNL     1      26.305  10.703  10.205  1.00  0.00     0.158 A 
ATOM     42  C   UNL     1      27.653  11.469   8.282  1.00  0.00     0.051 A 
ATOM     43  C   UNL     1      26.694  10.637   8.804  1.00  0.00     0.157 A 
BRANCH  41  44
ATOM     44  O   UNL     1      25.187   9.995  10.638  1.00  0.00    -0.504 OA
ATOM     45  H   UNL     1      24.477   9.613  10.075  1.00  0.00     0.293 HD
ENDBRANCH  41  44
BRANCH  43  46
ATOM     46  O   UNL     1      25.957   9.896   7.899  1.00  0.00    -0.504 OA
ATOM     47  H   UNL     1      24.941   9.994   7.996  1.00  0.00     0.293 HD
ENDBRANCH  43  46
ENDBRANCH  28  38
BRANCH  34  48
ATOM     48  O   UNL     1      25.681  18.853  11.803  1.00  0.00    -0.507 OA
ATOM     49  H   UNL     1      25.411  19.235  10.911  1.00  0.00     0.293 HD
ENDBRANCH  34  48
BRANCH  37  50
ATOM     50  O   UNL     1      23.759  15.033  14.244  1.00  0.00    -0.508 OA
ATOM     51  H   UNL     1      23.836  14.859  15.240  1.00  0.00     0.293 HD
ENDBRANCH  37  50
ENDBRANCH  26  27
ENDBRANCH   5  26
BRANCH   4  52
ATOM     52  O   UNL     1      24.543  12.871   8.428  1.00  0.00    -0.384 OA
ATOM     53  H   UNL     1      25.208  12.362   8.981  1.00  0.00     0.211 HD
ENDBRANCH   4  52
TORSDOF 16
ENDMDL
MODEL 9
REMARK VINA RESULT:    -3.554     17.003     21.278
REMARK INTER + INTRA:          -8.193
REMARK INTER:                  -6.408
REMARK INTRA:                  -1.786
REMARK UNBOUND:                -2.354
REMARK SMILES C[C@@H]1O[C@H](OC[C@@H]2O[C@H](Oc3c(-c4ccc(O)c(O)c4)oc4cc(O)cc(O)c4c3=O)[C@@H](O)[C@@H](O)[C@H]2O)[C@H](O)[C@@H](O)[C@@H]1O
REMARK SMILES IDX 7 1 36 2 34 3 32 4 9 5 8 6 6 7 5 8 4 9 1 10 2 11 42 12 3 13
REMARK SMILES IDX 40 14 38 15 43 16 41 18 39 20 37 22 35 24 10 26 11 27 12 28
REMARK SMILES IDX 30 29 21 30 29 31 31 32 22 33 27 34 23 35 26 36 24 37 13 38
REMARK SMILES IDX 20 39 14 40 18 41 15 42 16 43 19 44 17 46 28 48 25 50 33 52
REMARK H PARENT 43 17 41 19 39 21 37 23 35 25 19 45 17 47 28 49 25 51 33 53
REMARK Flexibility Score: inf
ROOT
ATOM      1  C   UNL     1      12.634   4.833   1.505  1.00  0.00     0.180 C 
ATOM      2  C   UNL     1      14.001   5.369   2.278  1.00  0.00     0.177 C 
ATOM      3  C   UNL     1      15.131   4.339   1.737  1.00  0.00     0.180 C 
ATOM      4  C   UNL     1      14.829   2.811   2.122  1.00  0.00     0.214 C 
ATOM      5  C   UNL     1      13.385   2.725   1.819  1.00  0.00     0.339 C 
ATOM      6  O   UNL     1      12.609   3.743   2.360  1.00  0.00    -0.332 OA
ENDROOT
BRANCH   1   7
ATOM      7  C   UNL     1      11.026   4.630   1.512  1.00  0.00     0.198 C 
BRANCH   7   8
ATOM      8  O   UNL     1      10.470   5.958   1.133  1.00  0.00    -0.347 OA
BRANCH   8   9
ATOM      9  C   UNL     1       9.082   5.894   0.735  1.00  0.00     0.281 C 
ATOM     10  C   UNL     1       8.044   7.168  -2.585  1.00  0.00     0.041 C 
ATOM     11  C   UNL     1       7.993   6.190  -1.391  1.00  0.00     0.150 C 
ATOM     12  C   UNL     1       8.867   4.795  -1.694  1.00  0.00     0.174 C 
ATOM     13  O   UNL     1       8.694   6.867  -0.344  1.00  0.00    -0.344 OA
ATOM     14  C   UNL     1       8.801   3.787  -0.570  1.00  0.00     0.179 C 
ATOM     15  C   UNL     1       8.377   4.470   0.693  1.00  0.00     0.202 C 
BRANCH  12  16
ATOM     16  O   UNL     1      10.173   5.301  -1.939  1.00  0.00    -0.388 OA
ATOM     17  H   UNL     1      10.756   5.386  -1.139  1.00  0.00     0.211 HD
ENDBRANCH  12  16
BRANCH  14  18
ATOM     18  O   UNL     1       7.879   2.780  -0.908  1.00  0.00    -0.387 OA
ATOM     19  H   UNL     1       7.117   2.860  -0.186  1.00  0.00     0.211 HD
ENDBRANCH  14  18
BRANCH  15  20
ATOM     20  O   UNL     1       8.594   3.770   1.953  1.00  0.00    -0.385 OA
ATOM     21  H   UNL     1       9.477   3.338   1.879  1.00  0.00     0.211 HD
ENDBRANCH  15  20
ENDBRANCH   8   9
ENDBRANCH   7   8
ENDBRANCH   1   7
BRANCH   2  22
ATOM     22  O   UNL     1      14.496   6.661   1.910  1.00  0.00    -0.387 OA
ATOM     23  H   UNL     1      14.913   6.607   0.958  1.00  0.00     0.211 HD
ENDBRANCH   2  22
BRANCH   3  24
ATOM     24  O   UNL     1      15.219   4.402   0.253  1.00  0.00    -0.387 OA
ATOM     25  H   UNL     1      14.973   5.327  -0.006  1.00  0.00     0.211 HD
ENDBRANCH   3  24
BRANCH   5  26
ATOM     26  O   UNL     1      12.867   1.376   1.603  1.00  0.00    -0.454 OA
BRANCH  26  27
ATOM     27  C   UNL     1      12.386   0.100   1.157  1.00  0.00     0.214 A 
ATOM     28  C   UNL     1      12.639  -0.401  -0.152  1.00  0.00     0.180 A 
ATOM     29  C   UNL     1      11.162  -0.454   1.694  1.00  0.00     0.239 A 
ATOM     30  O   UNL     1      11.790  -0.957  -0.940  1.00  0.00    -0.452 OA
ATOM     31  C   UNL     1      10.211  -0.991   0.802  1.00  0.00     0.111 A 
ATOM     32  O   UNL     1      10.874  -0.304   2.955  1.00  0.00    -0.285 OA
ATOM     33  C   UNL     1      10.581  -1.125  -0.570  1.00  0.00     0.146 A 
ATOM     34  C   UNL     1       8.815  -0.883   1.056  1.00  0.00     0.134 A 
ATOM     35  C   UNL     1       9.679  -0.916  -1.629  1.00  0.00     0.094 A 
ATOM     36  C   UNL     1       7.944  -0.466   0.006  1.00  0.00     0.093 A 
ATOM     37  C   UNL     1       8.525  -0.302  -1.339  1.00  0.00     0.123 A 
BRANCH  28  38
ATOM     38  C   UNL     1      13.606   0.143  -1.151  1.00  0.00     0.025 A 
ATOM     39  C   UNL     1      13.594   1.285  -2.087  1.00  0.00     0.062 A 
ATOM     40  C   UNL     1      14.676  -0.675  -1.409  1.00  0.00     0.016 A 
ATOM     41  C   UNL     1      14.815   1.946  -2.108  1.00  0.00     0.158 A 
ATOM     42  C   UNL     1      15.927  -0.170  -1.486  1.00  0.00     0.051 A 
ATOM     43  C   UNL     1      16.002   1.168  -1.787  1.00  0.00     0.157 A 
BRANCH  41  44
ATOM     44  O   UNL     1      14.910   3.333  -2.195  1.00  0.00    -0.504 OA
ATOM     45  H   UNL     1      15.726   3.859  -2.352  1.00  0.00     0.293 HD
ENDBRANCH  41  44
BRANCH  43  46
ATOM     46  O   UNL     1      17.214   1.789  -1.550  1.00  0.00    -0.504 OA
ATOM     47  H   UNL     1      17.387   2.619  -2.127  1.00  0.00     0.293 HD
ENDBRANCH  43  46
ENDBRANCH  28  38
BRANCH  34  48
ATOM     48  O   UNL     1       8.291  -1.124   2.312  1.00  0.00    -0.507 OA
ATOM     49  H   UNL     1       7.767  -1.935   2.599  1.00  0.00     0.293 HD
ENDBRANCH  34  48
BRANCH  37  50
ATOM     50  O   UNL     1       7.877   0.398  -2.353  1.00  0.00    -0.508 OA
ATOM     51  H   UNL     1       8.268   0.412  -3.288  1.00  0.00     0.293 HD
ENDBRANCH  37  50
ENDBRANCH  26  27
ENDBRANCH   5  26
BRANCH   4  52
ATOM     52  O   UNL     1      15.425   2.087   1.167  1.00  0.00    -0.384 OA
ATOM     53  H   UNL     1      15.970   2.767   0.670  1.00  0.00     0.211 HD
ENDBRANCH   4  52
TORSDOF 16
ENDMDL
