MODEL 1
REMARK VINA RESULT:    -5.959      0.000      0.000
REMARK INTER + INTRA:         -12.369
REMARK INTER:                 -10.836
REMARK INTRA:                  -1.532
REMARK UNBOUND:                -1.532
REMARK SMILES CCCCCCCCCCCCCCCC(=O)[O-]
REMARK SMILES IDX 9 1 10 2 11 3 12 4 13 5 14 6 15 7 16 8 17 9 18 10 8 11 7 12
REMARK SMILES IDX 6 13 5 14 4 15 3 16 2 17 1 18
REMARK H PARENT
REMARK Flexibility Score: inf
ROOT
ATOM      1  C   UNL     1      25.908   1.159  62.719  1.00  0.00     0.000 C 
ENDROOT
BRANCH   1   2
ATOM      2  C   UNL     1      25.041  -0.035  62.290  1.00  0.00     0.000 C 
BRANCH   2   3
ATOM      3  C   UNL     1      25.895  -1.119  61.618  1.00  0.00     0.000 C 
BRANCH   3   4
ATOM      4  C   UNL     1      25.449  -2.548  61.978  1.00  0.00     0.000 C 
BRANCH   4   5
ATOM      5  C   UNL     1      23.965  -2.687  62.364  1.00  0.00     0.000 C 
BRANCH   5   6
ATOM      6  C   UNL     1      23.036  -2.792  61.146  1.00  0.00     0.006 C 
BRANCH   6   7
ATOM      7  C   UNL     1      23.580  -3.797  60.126  1.00  0.00     0.053 C 
BRANCH   7   8
ATOM      8  C   UNL     1      23.912  -3.110  58.839  1.00  0.00     0.041 C 
ATOM      9  O   UNL     1      25.112  -2.992  58.474  1.00  0.00    -0.550 OA
ATOM     10  O   UNL     1      22.894  -2.642  58.019  1.00  0.00    -0.550 OA
ENDBRANCH   7   8
ENDBRANCH   6   7
ENDBRANCH   5   6
ENDBRANCH   4   5
ENDBRANCH   3   4
ENDBRANCH   2   3
ENDBRANCH   1   2
BRANCH   1  11
ATOM     11  C   UNL     1      25.340   2.507  62.246  1.00  0.00     0.000 C 
BRANCH  11  12
ATOM     12  C   UNL     1      25.713   3.667  63.183  1.00  0.00    -0.000 C 
BRANCH  12  13
ATOM     13  C   UNL     1      24.819   3.736  64.435  1.00  0.00    -0.000 C 
BRANCH  13  14
ATOM     14  C   UNL     1      23.301   3.772  64.159  1.00  0.00    -0.000 C 
BRANCH  14  15
ATOM     15  C   UNL     1      22.476   2.712  64.909  1.00  0.00    -0.000 C 
BRANCH  15  16
ATOM     16  C   UNL     1      21.332   2.136  64.059  1.00  0.00    -0.000 C 
BRANCH  16  17
ATOM     17  C   UNL     1      21.844   1.681  62.688  1.00  0.00    -0.003 C 
ATOM     18  C   UNL     1      21.357   0.273  62.357  1.00  0.00     0.004 C 
ENDBRANCH  16  17
ENDBRANCH  15  16
ENDBRANCH  14  15
ENDBRANCH  13  14
ENDBRANCH  12  13
ENDBRANCH  11  12
ENDBRANCH   1  11
TORSDOF 14
ENDMDL
MODEL 2
REMARK VINA RESULT:    -5.926      1.372      2.204
REMARK INTER + INTRA:         -12.308
REMARK INTER:                 -10.799
REMARK INTRA:                  -1.509
REMARK UNBOUND:                -1.532
REMARK SMILES CCCCCCCCCCCCCCCC(=O)[O-]
REMARK SMILES IDX 9 1 10 2 11 3 12 4 13 5 14 6 15 7 16 8 17 9 18 10 8 11 7 12
REMARK SMILES IDX 6 13 5 14 4 15 3 16 2 17 1 18
REMARK H PARENT
REMARK Flexibility Score: inf
ROOT
ATOM      1  C   UNL     1      25.028   0.004  62.084  1.00  0.00     0.000 C 
ENDROOT
BRANCH   1   2
ATOM      2  C   UNL     1      25.886  -1.139  61.517  1.00  0.00     0.000 C 
BRANCH   2   3
ATOM      3  C   UNL     1      25.463  -2.489  62.112  1.00  0.00     0.000 C 
BRANCH   3   4
ATOM      4  C   UNL     1      25.321  -3.597  61.052  1.00  0.00     0.000 C 
BRANCH   4   5
ATOM      5  C   UNL     1      25.365  -3.108  59.592  1.00  0.00     0.000 C 
BRANCH   5   6
ATOM      6  C   UNL     1      23.972  -3.003  58.953  1.00  0.00     0.006 C 
BRANCH   6   7
ATOM      7  C   UNL     1      22.889  -3.508  59.911  1.00  0.00     0.053 C 
BRANCH   7   8
ATOM      8  C   UNL     1      21.963  -2.395  60.288  1.00  0.00     0.041 C 
ATOM      9  O   UNL     1      21.153  -1.931  59.443  1.00  0.00    -0.550 OA
ATOM     10  O   UNL     1      21.960  -1.904  61.587  1.00  0.00    -0.550 OA
ENDBRANCH   7   8
ENDBRANCH   6   7
ENDBRANCH   5   6
ENDBRANCH   4   5
ENDBRANCH   3   4
ENDBRANCH   2   3
ENDBRANCH   1   2
BRANCH   1  11
ATOM     11  C   UNL     1      25.868   1.094  62.768  1.00  0.00     0.000 C 
BRANCH  11  12
ATOM     12  C   UNL     1      25.554   2.502  62.237  1.00  0.00    -0.000 C 
BRANCH  12  13
ATOM     13  C   UNL     1      25.508   3.565  63.350  1.00  0.00    -0.000 C 
BRANCH  13  14
ATOM     14  C   UNL     1      25.357   3.013  64.782  1.00  0.00    -0.000 C 
BRANCH  14  15
ATOM     15  C   UNL     1      23.928   3.056  65.351  1.00  0.00    -0.000 C 
BRANCH  15  16
ATOM     16  C   UNL     1      22.882   3.469  64.305  1.00  0.00    -0.000 C 
BRANCH  16  17
ATOM     17  C   UNL     1      21.815   2.380  64.136  1.00  0.00    -0.003 C 
ATOM     18  C   UNL     1      21.837   1.800  62.725  1.00  0.00     0.004 C 
ENDBRANCH  16  17
ENDBRANCH  15  16
ENDBRANCH  14  15
ENDBRANCH  13  14
ENDBRANCH  12  13
ENDBRANCH  11  12
ENDBRANCH   1  11
TORSDOF 14
ENDMDL
MODEL 3
REMARK VINA RESULT:    -5.829      2.489      6.315
REMARK INTER + INTRA:         -12.131
REMARK INTER:                 -10.621
REMARK INTRA:                  -1.511
REMARK UNBOUND:                -1.532
REMARK SMILES CCCCCCCCCCCCCCCC(=O)[O-]
REMARK SMILES IDX 9 1 10 2 11 3 12 4 13 5 14 6 15 7 16 8 17 9 18 10 8 11 7 12
REMARK SMILES IDX 6 13 5 14 4 15 3 16 2 17 1 18
REMARK H PARENT
REMARK Flexibility Score: inf
ROOT
ATOM      1  C   UNL     1      25.124  -0.233  62.358  1.00  0.00     0.000 C 
ENDROOT
BRANCH   1   2
ATOM      2  C   UNL     1      25.839   1.128  62.366  1.00  0.00     0.000 C 
BRANCH   2   3
ATOM      3  C   UNL     1      26.152   1.574  63.801  1.00  0.00     0.000 C 
BRANCH   3   4
ATOM      4  C   UNL     1      25.707   3.019  64.093  1.00  0.00     0.000 C 
BRANCH   4   5
ATOM      5  C   UNL     1      24.940   3.207  65.415  1.00  0.00     0.000 C 
BRANCH   5   6
ATOM      6  C   UNL     1      23.433   2.945  65.276  1.00  0.00     0.006 C 
BRANCH   6   7
ATOM      7  C   UNL     1      22.871   3.624  64.024  1.00  0.00     0.053 C 
BRANCH   7   8
ATOM      8  C   UNL     1      22.308   2.605  63.084  1.00  0.00     0.041 C 
ATOM      9  O   UNL     1      22.725   2.538  61.897  1.00  0.00    -0.550 OA
ATOM     10  O   UNL     1      21.357   1.697  63.532  1.00  0.00    -0.550 OA
ENDBRANCH   7   8
ENDBRANCH   6   7
ENDBRANCH   5   6
ENDBRANCH   4   5
ENDBRANCH   3   4
ENDBRANCH   2   3
ENDBRANCH   1   2
BRANCH   1  11
ATOM     11  C   UNL     1      25.877  -1.294  61.539  1.00  0.00     0.000 C 
BRANCH  11  12
ATOM     12  C   UNL     1      25.547  -2.728  61.987  1.00  0.00    -0.000 C 
BRANCH  12  13
ATOM     13  C   UNL     1      25.394  -3.703  60.805  1.00  0.00    -0.000 C 
BRANCH  13  14
ATOM     14  C   UNL     1      25.209  -3.040  59.424  1.00  0.00    -0.000 C 
BRANCH  14  15
ATOM     15  C   UNL     1      23.765  -3.026  58.895  1.00  0.00    -0.000 C 
BRANCH  15  16
ATOM     16  C   UNL     1      22.736  -3.444  59.956  1.00  0.00    -0.000 C 
BRANCH  16  17
ATOM     17  C   UNL     1      21.704  -2.335  60.186  1.00  0.00    -0.003 C 
ATOM     18  C   UNL     1      21.856  -1.718  61.574  1.00  0.00     0.004 C 
ENDBRANCH  16  17
ENDBRANCH  15  16
ENDBRANCH  14  15
ENDBRANCH  13  14
ENDBRANCH  12  13
ENDBRANCH  11  12
ENDBRANCH   1  11
TORSDOF 14
ENDMDL
MODEL 4
REMARK VINA RESULT:    -5.807      2.285      6.117
REMARK INTER + INTRA:         -12.093
REMARK INTER:                 -10.852
REMARK INTRA:                  -1.241
REMARK UNBOUND:                -1.532
REMARK SMILES CCCCCCCCCCCCCCCC(=O)[O-]
REMARK SMILES IDX 9 1 10 2 11 3 12 4 13 5 14 6 15 7 16 8 17 9 18 10 8 11 7 12
REMARK SMILES IDX 6 13 5 14 4 15 3 16 2 17 1 18
REMARK H PARENT
REMARK Flexibility Score: inf
ROOT
ATOM      1  C   UNL     1      25.949   1.206  62.826  1.00  0.00     0.000 C 
ENDROOT
BRANCH   1   2
ATOM      2  C   UNL     1      25.597   2.607  62.302  1.00  0.00     0.000 C 
BRANCH   2   3
ATOM      3  C   UNL     1      25.434   3.601  63.462  1.00  0.00     0.000 C 
BRANCH   3   4
ATOM      4  C   UNL     1      25.204   2.912  64.819  1.00  0.00     0.000 C 
BRANCH   4   5
ATOM      5  C   UNL     1      23.769   3.019  65.366  1.00  0.00     0.000 C 
BRANCH   5   6
ATOM      6  C   UNL     1      22.758   3.491  64.311  1.00  0.00     0.006 C 
BRANCH   6   7
ATOM      7  C   UNL     1      21.562   2.537  64.232  1.00  0.00     0.053 C 
BRANCH   7   8
ATOM      8  C   UNL     1      21.665   1.667  63.020  1.00  0.00     0.041 C 
ATOM      9  O   UNL     1      22.270   2.077  61.994  1.00  0.00    -0.550 OA
ATOM     10  O   UNL     1      21.135   0.383  63.039  1.00  0.00    -0.550 OA
ENDBRANCH   7   8
ENDBRANCH   6   7
ENDBRANCH   5   6
ENDBRANCH   4   5
ENDBRANCH   3   4
ENDBRANCH   2   3
ENDBRANCH   1   2
BRANCH   1  11
ATOM     11  C   UNL     1      25.121   0.097  62.159  1.00  0.00     0.000 C 
BRANCH  11  12
ATOM     12  C   UNL     1      25.995  -1.041  61.607  1.00  0.00    -0.000 C 
BRANCH  12  13
ATOM     13  C   UNL     1      25.445  -2.438  61.951  1.00  0.00    -0.000 C 
BRANCH  13  14
ATOM     14  C   UNL     1      25.524  -3.476  60.812  1.00  0.00    -0.000 C 
BRANCH  14  15
ATOM     15  C   UNL     1      25.286  -2.914  59.399  1.00  0.00    -0.000 C 
BRANCH  15  16
ATOM     16  C   UNL     1      23.821  -3.026  58.952  1.00  0.00    -0.000 C 
BRANCH  16  17
ATOM     17  C   UNL     1      22.951  -3.613  60.069  1.00  0.00    -0.003 C 
ATOM     18  C   UNL     1      21.834  -2.651  60.461  1.00  0.00     0.004 C 
ENDBRANCH  16  17
ENDBRANCH  15  16
ENDBRANCH  14  15
ENDBRANCH  13  14
ENDBRANCH  12  13
ENDBRANCH  11  12
ENDBRANCH   1  11
TORSDOF 14
ENDMDL
MODEL 5
REMARK VINA RESULT:    -5.796      3.179      6.944
REMARK INTER + INTRA:         -12.071
REMARK INTER:                 -10.601
REMARK INTRA:                  -1.470
REMARK UNBOUND:                -1.532
REMARK SMILES CCCCCCCCCCCCCCCC(=O)[O-]
REMARK SMILES IDX 9 1 10 2 11 3 12 4 13 5 14 6 15 7 16 8 17 9 18 10 8 11 7 12
REMARK SMILES IDX 6 13 5 14 4 15 3 16 2 17 1 18
REMARK H PARENT
REMARK Flexibility Score: inf
ROOT
ATOM      1  C   UNL     1      21.172  -0.010  62.346  1.00  0.00     0.000 C 
ENDROOT
BRANCH   1   2
ATOM      2  C   UNL     1      22.169   1.137  62.116  1.00  0.00     0.000 C 
BRANCH   2   3
ATOM      3  C   UNL     1      21.986   2.241  63.168  1.00  0.00     0.000 C 
BRANCH   3   4
ATOM      4  C   UNL     1      22.976   3.407  62.995  1.00  0.00     0.000 C 
BRANCH   4   5
ATOM      5  C   UNL     1      24.006   3.223  61.865  1.00  0.00     0.000 C 
BRANCH   5   6
ATOM      6  C   UNL     1      25.453   3.171  62.376  1.00  0.00     0.006 C 
BRANCH   6   7
ATOM      7  C   UNL     1      25.690   1.920  63.227  1.00  0.00     0.053 C 
BRANCH   7   8
ATOM      8  C   UNL     1      26.195   2.297  64.584  1.00  0.00     0.041 C 
ATOM      9  O   UNL     1      27.326   1.901  64.973  1.00  0.00    -0.550 OA
ATOM     10  O   UNL     1      25.437   3.127  65.401  1.00  0.00    -0.550 OA
ENDBRANCH   7   8
ENDBRANCH   6   7
ENDBRANCH   5   6
ENDBRANCH   4   5
ENDBRANCH   3   4
ENDBRANCH   2   3
ENDBRANCH   1   2
BRANCH   1  11
ATOM     11  C   UNL     1      21.703  -1.366  61.854  1.00  0.00     0.000 C 
BRANCH  11  12
ATOM     12  C   UNL     1      21.364  -1.632  60.378  1.00  0.00    -0.000 C 
BRANCH  12  13
ATOM     13  C   UNL     1      21.946  -2.961  59.861  1.00  0.00    -0.000 C 
BRANCH  13  14
ATOM     14  C   UNL     1      22.956  -3.648  60.803  1.00  0.00    -0.000 C 
BRANCH  14  15
ATOM     15  C   UNL     1      24.350  -3.894  60.199  1.00  0.00    -0.000 C 
BRANCH  15  16
ATOM     16  C   UNL     1      25.480  -3.739  61.227  1.00  0.00    -0.000 C 
BRANCH  16  17
ATOM     17  C   UNL     1      25.266  -2.492  62.093  1.00  0.00    -0.003 C 
ATOM     18  C   UNL     1      25.799  -1.241  61.400  1.00  0.00     0.004 C 
ENDBRANCH  16  17
ENDBRANCH  15  16
ENDBRANCH  14  15
ENDBRANCH  13  14
ENDBRANCH  12  13
ENDBRANCH  11  12
ENDBRANCH   1  11
TORSDOF 14
ENDMDL
MODEL 6
REMARK VINA RESULT:    -5.761      3.434      6.758
REMARK INTER + INTRA:         -12.008
REMARK INTER:                 -10.334
REMARK INTRA:                  -1.673
REMARK UNBOUND:                -1.532
REMARK SMILES CCCCCCCCCCCCCCCC(=O)[O-]
REMARK SMILES IDX 9 1 10 2 11 3 12 4 13 5 14 6 15 7 16 8 17 9 18 10 8 11 7 12
REMARK SMILES IDX 6 13 5 14 4 15 3 16 2 17 1 18
REMARK H PARENT
REMARK Flexibility Score: inf
ROOT
ATOM      1  C   UNL     1      25.910  -0.909  61.623  1.00  0.00     0.000 C 
ENDROOT
BRANCH   1   2
ATOM      2  C   UNL     1      25.032   0.173  62.270  1.00  0.00     0.000 C 
BRANCH   2   3
ATOM      3  C   UNL     1      25.882   1.362  62.739  1.00  0.00     0.000 C 
BRANCH   3   4
ATOM      4  C   UNL     1      25.448   2.699  62.111  1.00  0.00     0.000 C 
BRANCH   4   5
ATOM      5  C   UNL     1      23.929   2.950  62.103  1.00  0.00     0.000 C 
BRANCH   5   6
ATOM      6  C   UNL     1      23.458   3.815  63.282  1.00  0.00     0.006 C 
BRANCH   6   7
ATOM      7  C   UNL     1      22.869   2.947  64.398  1.00  0.00     0.053 C 
BRANCH   7   8
ATOM      8  C   UNL     1      23.719   3.024  65.626  1.00  0.00     0.041 C 
ATOM      9  O   UNL     1      23.240   2.718  66.750  1.00  0.00    -0.550 OA
ATOM     10  O   UNL     1      25.056   3.387  65.523  1.00  0.00    -0.550 OA
ENDBRANCH   7   8
ENDBRANCH   6   7
ENDBRANCH   5   6
ENDBRANCH   4   5
ENDBRANCH   3   4
ENDBRANCH   2   3
ENDBRANCH   1   2
BRANCH   1  11
ATOM     11  C   UNL     1      25.482  -2.333  62.011  1.00  0.00     0.000 C 
BRANCH  11  12
ATOM     12  C   UNL     1      25.750  -3.355  60.894  1.00  0.00    -0.000 C 
BRANCH  12  13
ATOM     13  C   UNL     1      25.475  -2.791  59.488  1.00  0.00    -0.000 C 
BRANCH  13  14
ATOM     14  C   UNL     1      24.021  -2.940  58.992  1.00  0.00    -0.000 C 
BRANCH  14  15
ATOM     15  C   UNL     1      23.176  -3.978  59.751  1.00  0.00    -0.000 C 
BRANCH  15  16
ATOM     16  C   UNL     1      22.126  -3.336  60.670  1.00  0.00    -0.000 C 
BRANCH  16  17
ATOM     17  C   UNL     1      22.048  -1.822  60.439  1.00  0.00    -0.003 C 
ATOM     18  C   UNL     1      21.583  -1.096  61.697  1.00  0.00     0.004 C 
ENDBRANCH  16  17
ENDBRANCH  15  16
ENDBRANCH  14  15
ENDBRANCH  13  14
ENDBRANCH  12  13
ENDBRANCH  11  12
ENDBRANCH   1  11
TORSDOF 14
ENDMDL
MODEL 7
REMARK VINA RESULT:    -5.726      1.172      3.286
REMARK INTER + INTRA:         -11.945
REMARK INTER:                 -10.513
REMARK INTRA:                  -1.432
REMARK UNBOUND:                -1.532
REMARK SMILES CCCCCCCCCCCCCCCC(=O)[O-]
REMARK SMILES IDX 9 1 10 2 11 3 12 4 13 5 14 6 15 7 16 8 17 9 18 10 8 11 7 12
REMARK SMILES IDX 6 13 5 14 4 15 3 16 2 17 1 18
REMARK H PARENT
REMARK Flexibility Score: inf
ROOT
ATOM      1  C   UNL     1      21.092   0.054  62.172  1.00  0.00     0.000 C 
ENDROOT
BRANCH   1   2
ATOM      2  C   UNL     1      22.125  -1.072  62.003  1.00  0.00     0.000 C 
BRANCH   2   3
ATOM      3  C   UNL     1      21.706  -2.037  60.885  1.00  0.00     0.000 C 
BRANCH   3   4
ATOM      4  C   UNL     1      22.529  -3.338  60.872  1.00  0.00     0.000 C 
BRANCH   4   5
ATOM      5  C   UNL     1      23.547  -3.474  62.019  1.00  0.00     0.000 C 
BRANCH   5   6
ATOM      6  C   UNL     1      24.985  -3.687  61.522  1.00  0.00     0.006 C 
BRANCH   6   7
ATOM      7  C   UNL     1      25.635  -2.355  61.136  1.00  0.00     0.053 C 
BRANCH   7   8
ATOM      8  C   UNL     1      26.081  -2.384  59.708  1.00  0.00     0.041 C 
ATOM      9  O   UNL     1      27.194  -1.892  59.382  1.00  0.00    -0.550 OA
ATOM     10  O   UNL     1      25.291  -2.999  58.746  1.00  0.00    -0.550 OA
ENDBRANCH   7   8
ENDBRANCH   6   7
ENDBRANCH   5   6
ENDBRANCH   4   5
ENDBRANCH   3   4
ENDBRANCH   2   3
ENDBRANCH   1   2
BRANCH   1  11
ATOM     11  C   UNL     1      21.742   1.431  62.374  1.00  0.00     0.000 C 
BRANCH  11  12
ATOM     12  C   UNL     1      21.593   1.950  63.814  1.00  0.00    -0.000 C 
BRANCH  12  13
ATOM     13  C   UNL     1      22.390   3.243  64.070  1.00  0.00    -0.000 C 
BRANCH  13  14
ATOM     14  C   UNL     1      23.510   3.128  65.124  1.00  0.00    -0.000 C 
BRANCH  14  15
ATOM     15  C   UNL     1      24.942   3.178  64.564  1.00  0.00    -0.000 C 
BRANCH  15  16
ATOM     16  C   UNL     1      25.005   3.747  63.139  1.00  0.00    -0.000 C 
BRANCH  16  17
ATOM     17  C   UNL     1      25.298   2.640  62.119  1.00  0.00    -0.003 C 
ATOM     18  C   UNL     1      25.711   1.346  62.814  1.00  0.00     0.004 C 
ENDBRANCH  16  17
ENDBRANCH  15  16
ENDBRANCH  14  15
ENDBRANCH  13  14
ENDBRANCH  12  13
ENDBRANCH  11  12
ENDBRANCH   1  11
TORSDOF 14
ENDMDL
MODEL 8
REMARK VINA RESULT:    -5.690      3.093      6.980
REMARK INTER + INTRA:         -11.880
REMARK INTER:                 -10.392
REMARK INTRA:                  -1.488
REMARK UNBOUND:                -1.532
REMARK SMILES CCCCCCCCCCCCCCCC(=O)[O-]
REMARK SMILES IDX 9 1 10 2 11 3 12 4 13 5 14 6 15 7 16 8 17 9 18 10 8 11 7 12
REMARK SMILES IDX 6 13 5 14 4 15 3 16 2 17 1 18
REMARK H PARENT
REMARK Flexibility Score: inf
ROOT
ATOM      1  C   UNL     1      21.675  -1.505  60.467  1.00  0.00     0.000 C 
ENDROOT
BRANCH   1   2
ATOM      2  C   UNL     1      21.848  -1.217  61.966  1.00  0.00     0.000 C 
BRANCH   2   3
ATOM      3  C   UNL     1      20.968  -0.037  62.404  1.00  0.00     0.000 C 
BRANCH   3   4
ATOM      4  C   UNL     1      21.739   1.293  62.479  1.00  0.00     0.000 C 
BRANCH   4   5
ATOM      5  C   UNL     1      21.620   2.037  63.822  1.00  0.00     0.000 C 
BRANCH   5   6
ATOM      6  C   UNL     1      22.177   3.468  63.766  1.00  0.00     0.006 C 
BRANCH   6   7
ATOM      7  C   UNL     1      23.336   3.566  62.770  1.00  0.00     0.053 C 
BRANCH   7   8
ATOM      8  C   UNL     1      24.632   3.758  63.492  1.00  0.00     0.041 C 
ATOM      9  O   UNL     1      24.654   3.822  64.750  1.00  0.00    -0.550 OA
ATOM     10  O   UNL     1      25.823   3.815  62.779  1.00  0.00    -0.550 OA
ENDBRANCH   7   8
ENDBRANCH   6   7
ENDBRANCH   5   6
ENDBRANCH   4   5
ENDBRANCH   3   4
ENDBRANCH   2   3
ENDBRANCH   1   2
BRANCH   1  11
ATOM     11  C   UNL     1      21.461  -2.997  60.168  1.00  0.00     0.000 C 
BRANCH  11  12
ATOM     12  C   UNL     1      22.782  -3.782  60.107  1.00  0.00    -0.000 C 
BRANCH  12  13
ATOM     13  C   UNL     1      23.871  -3.058  59.294  1.00  0.00    -0.000 C 
BRANCH  13  14
ATOM     14  C   UNL     1      25.320  -3.319  59.757  1.00  0.00    -0.000 C 
BRANCH  14  15
ATOM     15  C   UNL     1      25.492  -3.548  61.269  1.00  0.00    -0.000 C 
BRANCH  15  16
ATOM     16  C   UNL     1      25.218  -2.284  62.098  1.00  0.00    -0.000 C 
BRANCH  16  17
ATOM     17  C   UNL     1      25.940  -1.070  61.501  1.00  0.00    -0.003 C 
ATOM     18  C   UNL     1      25.573   0.211  62.245  1.00  0.00     0.004 C 
ENDBRANCH  16  17
ENDBRANCH  15  16
ENDBRANCH  14  15
ENDBRANCH  13  14
ENDBRANCH  12  13
ENDBRANCH  11  12
ENDBRANCH   1  11
TORSDOF 14
ENDMDL
MODEL 9
REMARK VINA RESULT:    -5.636      1.668      3.579
REMARK INTER + INTRA:         -11.780
REMARK INTER:                 -10.406
REMARK INTRA:                  -1.374
REMARK UNBOUND:                -1.532
REMARK SMILES CCCCCCCCCCCCCCCC(=O)[O-]
REMARK SMILES IDX 9 1 10 2 11 3 12 4 13 5 14 6 15 7 16 8 17 9 18 10 8 11 7 12
REMARK SMILES IDX 6 13 5 14 4 15 3 16 2 17 1 18
REMARK H PARENT
REMARK Flexibility Score: inf
ROOT
ATOM      1  C   UNL     1      21.309  -0.130  62.375  1.00  0.00     0.000 C 
ENDROOT
BRANCH   1   2
ATOM      2  C   UNL     1      22.327  -1.124  61.793  1.00  0.00     0.000 C 
BRANCH   2   3
ATOM      3  C   UNL     1      21.647  -2.097  60.818  1.00  0.00     0.000 C 
BRANCH   3   4
ATOM      4  C   UNL     1      22.481  -3.363  60.552  1.00  0.00     0.000 C 
BRANCH   4   5
ATOM      5  C   UNL     1      23.436  -3.763  61.691  1.00  0.00     0.000 C 
BRANCH   5   6
ATOM      6  C   UNL     1      24.849  -4.107  61.195  1.00  0.00     0.006 C 
BRANCH   6   7
ATOM      7  C   UNL     1      25.166  -3.374  59.889  1.00  0.00     0.053 C 
BRANCH   7   8
ATOM      8  C   UNL     1      26.083  -2.221  60.144  1.00  0.00     0.041 C 
ATOM      9  O   UNL     1      26.972  -1.919  59.304  1.00  0.00    -0.550 OA
ATOM     10  O   UNL     1      25.925  -1.448  61.288  1.00  0.00    -0.550 OA
ENDBRANCH   7   8
ENDBRANCH   6   7
ENDBRANCH   5   6
ENDBRANCH   4   5
ENDBRANCH   3   4
ENDBRANCH   2   3
ENDBRANCH   1   2
BRANCH   1  11
ATOM     11  C   UNL     1      21.820   1.319  62.364  1.00  0.00     0.000 C 
BRANCH  11  12
ATOM     12  C   UNL     1      21.593   2.036  63.705  1.00  0.00    -0.000 C 
BRANCH  12  13
ATOM     13  C   UNL     1      22.337   3.381  63.798  1.00  0.00    -0.000 C 
BRANCH  13  14
ATOM     14  C   UNL     1      23.254   3.710  62.602  1.00  0.00    -0.000 C 
BRANCH  14  15
ATOM     15  C   UNL     1      24.763   3.593  62.884  1.00  0.00    -0.000 C 
BRANCH  15  16
ATOM     16  C   UNL     1      25.404   2.374  62.204  1.00  0.00    -0.000 C 
BRANCH  16  17
ATOM     17  C   UNL     1      26.159   1.512  63.222  1.00  0.00    -0.003 C 
ATOM     18  C   UNL     1      26.213   2.191  64.587  1.00  0.00     0.004 C 
ENDBRANCH  16  17
ENDBRANCH  15  16
ENDBRANCH  14  15
ENDBRANCH  13  14
ENDBRANCH  12  13
ENDBRANCH  11  12
ENDBRANCH   1  11
TORSDOF 14
ENDMDL
