MODEL 1
REMARK VINA RESULT:    55.237      0.000      0.000
REMARK INTER + INTRA:          73.448
REMARK INTER:                  72.997
REMARK INTRA:                   0.450
REMARK UNBOUND:                 0.450
REMARK SMILES CC[C@@H](C=C[C@H](C)[C@@H]1CC[C@H]2[C@H]3CC[C@@H]4C[C@@H](O)CC[C@]4(C)[C@H]3CC[C@]21C)C(C)C
REMARK SMILES IDX 6 1 7 2 5 3 4 4 3 5 2 6 1 7 28 8 29 9 30 10 8 11 9 12 26 13
REMARK SMILES IDX 10 14 11 15 25 16 27 17 12 18 24 19 23 20 13 21 21 22 14 23
REMARK SMILES IDX 15 24 20 25 22 26 16 27 19 28 17 29 18 30
REMARK H PARENT 18 31
REMARK Flexibility Score: inf
ROOT
ATOM      1  C   UNL     1     -26.528  31.950  -3.107  1.00  0.00     0.012 C 
ATOM      2  C   UNL     1     -26.270  31.176  -1.802  1.00  0.00     0.012 C 
ENDROOT
BRANCH   1   3
ATOM      3  C   UNL     1     -25.927  31.220  -4.297  1.00  0.00    -0.028 C 
ATOM      4  C   UNL     1     -26.082  31.619  -5.572  1.00  0.00    -0.027 C 
BRANCH   4   5
ATOM      5  C   UNL     1     -25.625  30.758  -6.736  1.00  0.00     0.014 C 
BRANCH   5   6
ATOM      6  C   UNL     1     -24.709  31.593  -7.664  1.00  0.00     0.004 C 
ATOM      7  C   UNL     1     -25.134  31.533  -9.134  1.00  0.00     0.004 C 
ENDBRANCH   5   6
BRANCH   5   8
ATOM      8  C   UNL     1     -26.872  30.192  -7.491  1.00  0.00    -0.011 C 
ATOM      9  C   UNL     1     -27.420  28.909  -6.840  1.00  0.00     0.008 C 
ATOM     10  C   UNL     1     -28.002  31.237  -7.561  1.00  0.00     0.008 C 
ENDBRANCH   5   8
ENDBRANCH   4   5
ENDBRANCH   1   3
BRANCH   1  11
ATOM     11  C   UNL     1     -28.033  32.360  -3.241  1.00  0.00     0.002 C 
ATOM     12  C   UNL     1     -28.352  33.837  -3.036  1.00  0.00     0.005 C 
ATOM     13  C   UNL     1     -29.092  31.586  -2.385  1.00  0.00    -0.026 C 
ATOM     14  C   UNL     1     -29.868  33.865  -3.030  1.00  0.00     0.005 C 
ATOM     15  C   UNL     1     -30.273  32.604  -2.247  1.00  0.00    -0.001 C 
ATOM     16  C   UNL     1     -29.527  30.293  -3.115  1.00  0.00     0.007 C 
ATOM     17  C   UNL     1     -28.552  31.217  -0.977  1.00  0.00     0.012 C 
ATOM     18  C   UNL     1     -31.714  32.048  -2.522  1.00  0.00    -0.004 C 
ATOM     19  C   UNL     1     -30.802  29.641  -2.545  1.00  0.00     0.005 C 
ATOM     20  C   UNL     1     -31.862  30.618  -1.933  1.00  0.00    -0.001 C 
ATOM     21  C   UNL     1     -32.220  32.084  -3.983  1.00  0.00     0.004 C 
ATOM     22  C   UNL     1     -33.345  30.063  -2.018  1.00  0.00    -0.026 C 
ATOM     23  C   UNL     1     -33.679  31.625  -4.060  1.00  0.00     0.004 C 
ATOM     24  C   UNL     1     -33.897  30.207  -3.477  1.00  0.00    -0.002 C 
ATOM     25  C   UNL     1     -34.273  30.844  -1.027  1.00  0.00     0.010 C 
ATOM     26  C   UNL     1     -33.345  28.564  -1.586  1.00  0.00     0.012 C 
ATOM     27  C   UNL     1     -35.393  29.811  -3.570  1.00  0.00     0.036 C 
ATOM     28  C   UNL     1     -35.761  30.463  -1.136  1.00  0.00     0.032 C 
ATOM     29  C   UNL     1     -36.290  30.571  -2.576  1.00  0.00     0.114 C 
BRANCH  29  30
ATOM     30  O   UNL     1     -37.585  30.034  -2.641  1.00  0.00    -0.393 OA
ATOM     31  H   UNL     1     -38.144  30.682  -3.153  1.00  0.00     0.210 HD
ENDBRANCH  29  30
ENDBRANCH   1  11
TORSDOF 6
ENDMDL
MODEL 2
REMARK VINA RESULT:    55.238      3.314      8.686
REMARK INTER + INTRA:          73.449
REMARK INTER:                  73.141
REMARK INTRA:                   0.308
REMARK UNBOUND:                 0.450
REMARK SMILES CC[C@@H](C=C[C@H](C)[C@@H]1CC[C@H]2[C@H]3CC[C@@H]4C[C@@H](O)CC[C@]4(C)[C@H]3CC[C@]21C)C(C)C
REMARK SMILES IDX 6 1 7 2 5 3 4 4 3 5 2 6 1 7 28 8 29 9 30 10 8 11 9 12 26 13
REMARK SMILES IDX 10 14 11 15 25 16 27 17 12 18 24 19 23 20 13 21 21 22 14 23
REMARK SMILES IDX 15 24 20 25 22 26 16 27 19 28 17 29 18 30
REMARK H PARENT 18 31
REMARK Flexibility Score: inf
ROOT
ATOM      1  C   UNL     1     -29.113  32.271  -2.113  1.00  0.00     0.012 C 
ATOM      2  C   UNL     1     -29.405  33.707  -2.584  1.00  0.00     0.012 C 
ENDROOT
BRANCH   1   3
ATOM      3  C   UNL     1     -30.382  31.595  -1.621  1.00  0.00    -0.028 C 
ATOM      4  C   UNL     1     -31.259  30.976  -2.431  1.00  0.00    -0.027 C 
BRANCH   4   5
ATOM      5  C   UNL     1     -32.601  30.482  -1.922  1.00  0.00     0.014 C 
BRANCH   5   6
ATOM      6  C   UNL     1     -32.558  28.941  -1.771  1.00  0.00     0.004 C 
ATOM      7  C   UNL     1     -31.638  28.267  -2.794  1.00  0.00     0.004 C 
ENDBRANCH   5   6
BRANCH   5   8
ATOM      8  C   UNL     1     -33.735  30.948  -2.891  1.00  0.00    -0.011 C 
ATOM      9  C   UNL     1     -33.621  30.302  -4.284  1.00  0.00     0.008 C 
ATOM     10  C   UNL     1     -35.128  30.637  -2.310  1.00  0.00     0.008 C 
ENDBRANCH   5   8
ENDBRANCH   4   5
ENDBRANCH   1   3
BRANCH   1  11
ATOM     11  C   UNL     1     -28.281  31.479  -3.176  1.00  0.00     0.002 C 
ATOM     12  C   UNL     1     -27.347  30.401  -2.637  1.00  0.00     0.005 C 
ATOM     13  C   UNL     1     -27.422  32.292  -4.203  1.00  0.00    -0.026 C 
ATOM     14  C   UNL     1     -26.562  29.978  -3.864  1.00  0.00     0.005 C 
ATOM     15  C   UNL     1     -26.295  31.290  -4.620  1.00  0.00    -0.001 C 
ATOM     16  C   UNL     1     -28.293  32.716  -5.411  1.00  0.00     0.007 C 
ATOM     17  C   UNL     1     -26.789  33.558  -3.566  1.00  0.00     0.012 C 
ATOM     18  C   UNL     1     -26.004  31.160  -6.156  1.00  0.00    -0.004 C 
ATOM     19  C   UNL     1     -27.490  33.208  -6.630  1.00  0.00     0.005 C 
ATOM     20  C   UNL     1     -26.083  32.553  -6.840  1.00  0.00    -0.001 C 
ATOM     21  C   UNL     1     -26.834  30.123  -6.948  1.00  0.00     0.004 C 
ATOM     22  C   UNL     1     -25.627  32.524  -8.359  1.00  0.00    -0.026 C 
ATOM     23  C   UNL     1     -26.346  30.033  -8.396  1.00  0.00     0.004 C 
ATOM     24  C   UNL     1     -26.388  31.395  -9.134  1.00  0.00    -0.002 C 
ATOM     25  C   UNL     1     -24.085  32.279  -8.457  1.00  0.00     0.010 C 
ATOM     26  C   UNL     1     -25.929  33.915  -8.998  1.00  0.00     0.012 C 
ATOM     27  C   UNL     1     -25.865  31.238 -10.585  1.00  0.00     0.036 C 
ATOM     28  C   UNL     1     -23.571  32.104  -9.899  1.00  0.00     0.032 C 
ATOM     29  C   UNL     1     -24.344  31.019 -10.667  1.00  0.00     0.114 C 
BRANCH  29  30
ATOM     30  O   UNL     1     -23.962  31.039 -12.018  1.00  0.00    -0.393 OA
ATOM     31  H   UNL     1     -23.050  30.639 -12.069  1.00  0.00     0.210 HD
ENDBRANCH  29  30
ENDBRANCH   1  11
TORSDOF 6
ENDMDL
MODEL 3
REMARK VINA RESULT:    57.823      3.751      6.816
REMARK INTER + INTRA:          76.864
REMARK INTER:                  74.400
REMARK INTRA:                   2.464
REMARK UNBOUND:                 0.450
REMARK SMILES CC[C@@H](C=C[C@H](C)[C@@H]1CC[C@H]2[C@H]3CC[C@@H]4C[C@@H](O)CC[C@]4(C)[C@H]3CC[C@]21C)C(C)C
REMARK SMILES IDX 6 1 7 2 5 3 4 4 3 5 2 6 1 7 28 8 29 9 30 10 8 11 9 12 26 13
REMARK SMILES IDX 10 14 11 15 25 16 27 17 12 18 24 19 23 20 13 21 21 22 14 23
REMARK SMILES IDX 15 24 20 25 22 26 16 27 19 28 17 29 18 30
REMARK H PARENT 18 31
REMARK Flexibility Score: inf
ROOT
ATOM      1  C   UNL     1     -23.417  29.688  -8.434  1.00  0.00     0.012 C 
ATOM      2  C   UNL     1     -23.081  31.170  -8.676  1.00  0.00     0.012 C 
ENDROOT
BRANCH   1   3
ATOM      3  C   UNL     1     -22.188  28.922  -7.974  1.00  0.00    -0.028 C 
ATOM      4  C   UNL     1     -22.156  28.158  -6.867  1.00  0.00    -0.027 C 
BRANCH   4   5
ATOM      5  C   UNL     1     -20.858  27.567  -6.346  1.00  0.00     0.014 C 
BRANCH   5   6
ATOM      6  C   UNL     1     -19.944  27.201  -7.542  1.00  0.00     0.004 C 
ATOM      7  C   UNL     1     -18.875  26.165  -7.181  1.00  0.00     0.004 C 
ENDBRANCH   5   6
BRANCH   5   8
ATOM      8  C   UNL     1     -21.171  26.330  -5.443  1.00  0.00    -0.011 C 
ATOM      9  C   UNL     1     -20.194  25.164  -5.684  1.00  0.00     0.008 C 
ATOM     10  C   UNL     1     -21.136  26.708  -3.950  1.00  0.00     0.008 C 
ENDBRANCH   5   8
ENDBRANCH   4   5
ENDBRANCH   1   3
BRANCH   1  11
ATOM     11  C   UNL     1     -24.697  29.530  -7.546  1.00  0.00     0.002 C 
ATOM     12  C   UNL     1     -25.874  28.796  -8.180  1.00  0.00     0.005 C 
ATOM     13  C   UNL     1     -25.313  30.815  -6.896  1.00  0.00    -0.026 C 
ATOM     14  C   UNL     1     -26.986  28.988  -7.168  1.00  0.00     0.005 C 
ATOM     15  C   UNL     1     -26.816  30.437  -6.679  1.00  0.00    -0.001 C 
ATOM     16  C   UNL     1     -24.599  31.133  -5.560  1.00  0.00     0.007 C 
ATOM     17  C   UNL     1     -25.214  32.050  -7.832  1.00  0.00     0.012 C 
ATOM     18  C   UNL     1     -27.428  30.772  -5.275  1.00  0.00    -0.004 C 
ATOM     19  C   UNL     1     -25.339  32.152  -4.673  1.00  0.00     0.005 C 
ATOM     20  C   UNL     1     -26.903  32.145  -4.771  1.00  0.00    -0.001 C 
ATOM     21  C   UNL     1     -27.287  29.703  -4.167  1.00  0.00     0.004 C 
ATOM     22  C   UNL     1     -27.614  32.632  -3.439  1.00  0.00    -0.026 C 
ATOM     23  C   UNL     1     -28.040  30.130  -2.904  1.00  0.00     0.004 C 
ATOM     24  C   UNL     1     -27.570  31.501  -2.356  1.00  0.00    -0.002 C 
ATOM     25  C   UNL     1     -29.102  33.019  -3.732  1.00  0.00     0.010 C 
ATOM     26  C   UNL     1     -26.884  33.908  -2.918  1.00  0.00     0.012 C 
ATOM     27  C   UNL     1     -28.383  31.882  -1.091  1.00  0.00     0.036 C 
ATOM     28  C   UNL     1     -29.912  33.378  -2.471  1.00  0.00     0.032 C 
ATOM     29  C   UNL     1     -29.837  32.282  -1.396  1.00  0.00     0.114 C 
BRANCH  29  30
ATOM     30  O   UNL     1     -30.431  32.746  -0.211  1.00  0.00    -0.393 OA
ATOM     31  H   UNL     1     -31.122  32.076   0.051  1.00  0.00     0.210 HD
ENDBRANCH  29  30
ENDBRANCH   1  11
TORSDOF 6
ENDMDL
MODEL 4
REMARK VINA RESULT:    58.169      3.219      6.309
REMARK INTER + INTRA:          77.323
REMARK INTER:                  75.832
REMARK INTRA:                   1.491
REMARK UNBOUND:                 0.450
REMARK SMILES CC[C@@H](C=C[C@H](C)[C@@H]1CC[C@H]2[C@H]3CC[C@@H]4C[C@@H](O)CC[C@]4(C)[C@H]3CC[C@]21C)C(C)C
REMARK SMILES IDX 6 1 7 2 5 3 4 4 3 5 2 6 1 7 28 8 29 9 30 10 8 11 9 12 26 13
REMARK SMILES IDX 10 14 11 15 25 16 27 17 12 18 24 19 23 20 13 21 21 22 14 23
REMARK SMILES IDX 15 24 20 25 22 26 16 27 19 28 17 29 18 30
REMARK H PARENT 18 31
REMARK Flexibility Score: inf
ROOT
ATOM      1  C   UNL     1     -24.614  30.779  -8.974  1.00  0.00     0.012 C 
ATOM      2  C   UNL     1     -25.577  31.153 -10.115  1.00  0.00     0.012 C 
ENDROOT
BRANCH   1   3
ATOM      3  C   UNL     1     -23.617  31.897  -8.718  1.00  0.00    -0.028 C 
ATOM      4  C   UNL     1     -23.920  33.204  -8.823  1.00  0.00    -0.027 C 
BRANCH   4   5
ATOM      5  C   UNL     1     -22.850  34.277  -8.744  1.00  0.00     0.014 C 
BRANCH   5   6
ATOM      6  C   UNL     1     -23.305  35.518  -9.551  1.00  0.00     0.004 C 
ATOM      7  C   UNL     1     -24.829  35.671  -9.601  1.00  0.00     0.004 C 
ENDBRANCH   5   6
BRANCH   5   8
ATOM      8  C   UNL     1     -21.491  33.703  -9.261  1.00  0.00    -0.011 C 
ATOM      9  C   UNL     1     -21.650  32.317  -9.915  1.00  0.00     0.008 C 
ATOM     10  C   UNL     1     -20.831  34.659 -10.273  1.00  0.00     0.008 C 
ENDBRANCH   5   8
ENDBRANCH   4   5
ENDBRANCH   1   3
BRANCH   1  11
ATOM     11  C   UNL     1     -25.390  30.251  -7.721  1.00  0.00     0.002 C 
ATOM     12  C   UNL     1     -26.157  28.945  -7.902  1.00  0.00     0.005 C 
ATOM     13  C   UNL     1     -26.389  31.221  -7.004  1.00  0.00    -0.026 C 
ATOM     14  C   UNL     1     -26.939  28.822  -6.609  1.00  0.00     0.005 C 
ATOM     15  C   UNL     1     -27.402  30.257  -6.301  1.00  0.00    -0.001 C 
ATOM     16  C   UNL     1     -25.633  32.107  -5.984  1.00  0.00     0.007 C 
ATOM     17  C   UNL     1     -27.144  32.133  -8.008  1.00  0.00     0.012 C 
ATOM     18  C   UNL     1     -27.744  30.569  -4.803  1.00  0.00    -0.004 C 
ATOM     19  C   UNL     1     -26.546  32.841  -4.983  1.00  0.00     0.005 C 
ATOM     20  C   UNL     1     -27.870  32.103  -4.586  1.00  0.00    -0.001 C 
ATOM     21  C   UNL     1     -26.830  29.947  -3.722  1.00  0.00     0.004 C 
ATOM     22  C   UNL     1     -28.388  32.485  -3.137  1.00  0.00    -0.026 C 
ATOM     23  C   UNL     1     -27.369  30.245  -2.321  1.00  0.00     0.004 C 
ATOM     24  C   UNL     1     -27.530  31.761  -2.045  1.00  0.00    -0.002 C 
ATOM     25  C   UNL     1     -29.891  32.081  -2.975  1.00  0.00     0.010 C 
ATOM     26  C   UNL     1     -28.290  34.032  -2.962  1.00  0.00     0.012 C 
ATOM     27  C   UNL     1     -28.095  31.991  -0.619  1.00  0.00     0.036 C 
ATOM     28  C   UNL     1     -30.445  32.293  -1.553  1.00  0.00     0.032 C 
ATOM     29  C   UNL     1     -29.580  31.610  -0.481  1.00  0.00     0.114 C 
BRANCH  29  30
ATOM     30  O   UNL     1     -30.023  31.995   0.794  1.00  0.00    -0.393 OA
ATOM     31  H   UNL     1     -29.354  31.654   1.451  1.00  0.00     0.210 HD
ENDBRANCH  29  30
ENDBRANCH   1  11
TORSDOF 6
ENDMDL
