MODEL 1
REMARK VINA RESULT:    -4.151      0.000      0.000
REMARK INTER + INTRA:          -4.546
REMARK INTER:                  -4.515
REMARK INTRA:                  -0.031
REMARK UNBOUND:                -0.031
REMARK SMILES O=C([O-])c1ccc(O)cc1
REMARK SMILES IDX 4 1 5 2 10 3 6 4 9 5 7 6 2 7 1 8 3 9 8 10
REMARK H PARENT 8 11
REMARK Flexibility Score: inf
ROOT
ATOM      1  C   UNL     1     -45.068 -52.374  11.236  1.00  0.00    -0.003 A 
ATOM      2  C   UNL     1     -45.688 -51.146  11.531  1.00  0.00     0.014 A 
ATOM      3  C   UNL     1     -45.014 -52.807   9.899  1.00  0.00     0.014 A 
ATOM      4  C   UNL     1     -46.241 -50.369  10.509  1.00  0.00     0.047 A 
ATOM      5  C   UNL     1     -45.570 -52.027   8.879  1.00  0.00     0.047 A 
ATOM      6  C   UNL     1     -46.185 -50.807   9.182  1.00  0.00     0.115 A 
ENDROOT
BRANCH   1   7
ATOM      7  C   UNL     1     -44.480 -53.201  12.312  1.00  0.00     0.071 C 
ATOM      8  O   UNL     1     -43.326 -53.695  12.183  1.00  0.00    -0.545 OA
ATOM      9  O   UNL     1     -45.189 -53.446  13.481  1.00  0.00    -0.545 OA
ENDBRANCH   1   7
BRANCH   6  10
ATOM     10  O   UNL     1     -46.741 -50.022   8.174  1.00  0.00    -0.508 OA
ATOM     11  H   UNL     1     -47.511 -50.356   7.607  1.00  0.00     0.293 HD
ENDBRANCH   6  10
TORSDOF 2
ENDMDL
MODEL 2
REMARK VINA RESULT:    -4.009      1.193      4.106
REMARK INTER + INTRA:          -4.392
REMARK INTER:                  -4.357
REMARK INTRA:                  -0.035
REMARK UNBOUND:                -0.031
REMARK SMILES O=C([O-])c1ccc(O)cc1
REMARK SMILES IDX 4 1 5 2 10 3 6 4 9 5 7 6 2 7 1 8 3 9 8 10
REMARK H PARENT 8 11
REMARK Flexibility Score: inf
ROOT
ATOM      1  C   UNL     1     -45.594 -50.977  10.119  1.00  0.00    -0.003 A 
ATOM      2  C   UNL     1     -45.822 -51.011  11.507  1.00  0.00     0.014 A 
ATOM      3  C   UNL     1     -45.076 -52.121   9.485  1.00  0.00     0.014 A 
ATOM      4  C   UNL     1     -45.538 -52.165  12.243  1.00  0.00     0.047 A 
ATOM      5  C   UNL     1     -44.793 -53.273  10.225  1.00  0.00     0.047 A 
ATOM      6  C   UNL     1     -45.023 -53.298  11.606  1.00  0.00     0.115 A 
ENDROOT
BRANCH   1   7
ATOM      7  C   UNL     1     -45.893 -49.759   9.334  1.00  0.00     0.071 C 
ATOM      8  O   UNL     1     -46.091 -49.831   8.091  1.00  0.00    -0.545 OA
ATOM      9  O   UNL     1     -45.960 -48.518   9.955  1.00  0.00    -0.545 OA
ENDBRANCH   1   7
BRANCH   6  10
ATOM     10  O   UNL     1     -44.744 -54.441  12.352  1.00  0.00    -0.508 OA
ATOM     11  H   UNL     1     -45.010 -54.515  13.327  1.00  0.00     0.293 HD
ENDBRANCH   6  10
TORSDOF 2
ENDMDL
MODEL 3
REMARK VINA RESULT:    -3.999      1.204      4.431
REMARK INTER + INTRA:          -4.381
REMARK INTER:                  -4.346
REMARK INTRA:                  -0.034
REMARK UNBOUND:                -0.031
REMARK SMILES O=C([O-])c1ccc(O)cc1
REMARK SMILES IDX 4 1 5 2 10 3 6 4 9 5 7 6 2 7 1 8 3 9 8 10
REMARK H PARENT 8 11
REMARK Flexibility Score: inf
ROOT
ATOM      1  C   UNL     1     -45.627 -50.894  10.170  1.00  0.00    -0.003 A 
ATOM      2  C   UNL     1     -45.108 -52.026   9.515  1.00  0.00     0.014 A 
ATOM      3  C   UNL     1     -45.860 -50.956  11.556  1.00  0.00     0.014 A 
ATOM      4  C   UNL     1     -44.827 -53.193  10.232  1.00  0.00     0.047 A 
ATOM      5  C   UNL     1     -45.578 -52.126  12.270  1.00  0.00     0.047 A 
ATOM      6  C   UNL     1     -45.061 -53.247  11.609  1.00  0.00     0.115 A 
ENDROOT
BRANCH   1   7
ATOM      7  C   UNL     1     -45.926 -49.656   9.418  1.00  0.00     0.071 C 
ATOM      8  O   UNL     1     -45.949 -48.540  10.005  1.00  0.00    -0.545 OA
ATOM      9  O   UNL     1     -46.186 -49.705   8.054  1.00  0.00    -0.545 OA
ENDBRANCH   1   7
BRANCH   6  10
ATOM     10  O   UNL     1     -44.777 -54.417  12.310  1.00  0.00    -0.508 OA
ATOM     11  H   UNL     1     -45.444 -55.178  12.364  1.00  0.00     0.293 HD
ENDBRANCH   6  10
TORSDOF 2
ENDMDL
MODEL 4
REMARK VINA RESULT:    -3.934      2.001      4.321
REMARK INTER + INTRA:          -4.310
REMARK INTER:                  -4.277
REMARK INTRA:                  -0.033
REMARK UNBOUND:                -0.031
REMARK SMILES O=C([O-])c1ccc(O)cc1
REMARK SMILES IDX 4 1 5 2 10 3 6 4 9 5 7 6 2 7 1 8 3 9 8 10
REMARK H PARENT 8 11
REMARK Flexibility Score: inf
ROOT
ATOM      1  C   UNL     1     -44.001 -51.652  10.561  1.00  0.00    -0.003 A 
ATOM      2  C   UNL     1     -45.246 -51.657  11.215  1.00  0.00     0.014 A 
ATOM      3  C   UNL     1     -42.995 -52.529  11.004  1.00  0.00     0.014 A 
ATOM      4  C   UNL     1     -45.479 -52.522  12.289  1.00  0.00     0.047 A 
ATOM      5  C   UNL     1     -43.231 -53.393  12.079  1.00  0.00     0.047 A 
ATOM      6  C   UNL     1     -44.473 -53.391  12.724  1.00  0.00     0.115 A 
ENDROOT
BRANCH   1   7
ATOM      7  C   UNL     1     -43.748 -50.740   9.424  1.00  0.00     0.071 C 
ATOM      8  O   UNL     1     -44.310 -49.612   9.371  1.00  0.00    -0.545 OA
ATOM      9  O   UNL     1     -42.887 -51.112   8.399  1.00  0.00    -0.545 OA
ENDBRANCH   1   7
BRANCH   6  10
ATOM     10  O   UNL     1     -44.719 -54.247  13.795  1.00  0.00    -0.508 OA
ATOM     11  H   UNL     1     -45.288 -53.960  14.583  1.00  0.00     0.293 HD
ENDBRANCH   6  10
TORSDOF 2
ENDMDL
MODEL 5
REMARK VINA RESULT:    -3.920      2.004      4.466
REMARK INTER + INTRA:          -4.295
REMARK INTER:                  -4.259
REMARK INTRA:                  -0.036
REMARK UNBOUND:                -0.031
REMARK SMILES O=C([O-])c1ccc(O)cc1
REMARK SMILES IDX 4 1 5 2 10 3 6 4 9 5 7 6 2 7 1 8 3 9 8 10
REMARK H PARENT 8 11
REMARK Flexibility Score: inf
ROOT
ATOM      1  C   UNL     1     -43.997 -51.629  10.530  1.00  0.00    -0.003 A 
ATOM      2  C   UNL     1     -42.999 -52.508  10.989  1.00  0.00     0.014 A 
ATOM      3  C   UNL     1     -45.249 -51.625  11.172  1.00  0.00     0.014 A 
ATOM      4  C   UNL     1     -43.249 -53.362  12.067  1.00  0.00     0.047 A 
ATOM      5  C   UNL     1     -45.495 -52.482  12.250  1.00  0.00     0.047 A 
ATOM      6  C   UNL     1     -44.495 -53.353  12.700  1.00  0.00     0.115 A 
ENDROOT
BRANCH   1   7
ATOM      7  C   UNL     1     -43.740 -50.722   9.390  1.00  0.00     0.071 C 
ATOM      8  O   UNL     1     -44.659 -49.988   8.936  1.00  0.00    -0.545 OA
ATOM      9  O   UNL     1     -42.482 -50.666   8.804  1.00  0.00    -0.545 OA
ENDBRANCH   1   7
BRANCH   6  10
ATOM     10  O   UNL     1     -44.730 -54.210  13.772  1.00  0.00    -0.508 OA
ATOM     11  H   UNL     1     -45.182 -55.108  13.644  1.00  0.00     0.293 HD
ENDBRANCH   6  10
TORSDOF 2
ENDMDL
MODEL 6
REMARK VINA RESULT:    -3.784      6.384      7.765
REMARK INTER + INTRA:          -4.146
REMARK INTER:                  -4.119
REMARK INTRA:                  -0.027
REMARK UNBOUND:                -0.031
REMARK SMILES O=C([O-])c1ccc(O)cc1
REMARK SMILES IDX 4 1 5 2 10 3 6 4 9 5 7 6 2 7 1 8 3 9 8 10
REMARK H PARENT 8 11
REMARK Flexibility Score: inf
ROOT
ATOM      1  C   UNL     1     -46.350 -45.768  12.671  1.00  0.00    -0.003 A 
ATOM      2  C   UNL     1     -47.383 -44.867  12.989  1.00  0.00     0.014 A 
ATOM      3  C   UNL     1     -45.993 -46.754  13.608  1.00  0.00     0.014 A 
ATOM      4  C   UNL     1     -48.044 -44.953  14.218  1.00  0.00     0.047 A 
ATOM      5  C   UNL     1     -46.656 -46.836  14.837  1.00  0.00     0.047 A 
ATOM      6  C   UNL     1     -47.683 -45.936  15.144  1.00  0.00     0.115 A 
ENDROOT
BRANCH   1   7
ATOM      7  C   UNL     1     -45.646 -45.683  11.372  1.00  0.00     0.071 C 
ATOM      8  O   UNL     1     -46.118 -46.251  10.350  1.00  0.00    -0.545 OA
ATOM      9  O   UNL     1     -44.455 -44.976  11.261  1.00  0.00    -0.545 OA
ENDBRANCH   1   7
BRANCH   6  10
ATOM     10  O   UNL     1     -48.351 -46.009  16.365  1.00  0.00    -0.508 OA
ATOM     11  H   UNL     1     -49.362 -46.009  16.417  1.00  0.00     0.293 HD
ENDBRANCH   6  10
TORSDOF 2
ENDMDL
MODEL 7
REMARK VINA RESULT:    -3.730      9.593     11.150
REMARK INTER + INTRA:          -4.088
REMARK INTER:                  -4.055
REMARK INTRA:                  -0.033
REMARK UNBOUND:                -0.031
REMARK SMILES O=C([O-])c1ccc(O)cc1
REMARK SMILES IDX 4 1 5 2 10 3 6 4 9 5 7 6 2 7 1 8 3 9 8 10
REMARK H PARENT 8 11
REMARK Flexibility Score: inf
ROOT
ATOM      1  C   UNL     1     -44.943 -41.746  10.422  1.00  0.00    -0.003 A 
ATOM      2  C   UNL     1     -44.582 -41.143  11.641  1.00  0.00     0.014 A 
ATOM      3  C   UNL     1     -44.364 -41.275   9.230  1.00  0.00     0.014 A 
ATOM      4  C   UNL     1     -43.661 -40.092  11.665  1.00  0.00     0.047 A 
ATOM      5  C   UNL     1     -43.443 -40.222   9.259  1.00  0.00     0.047 A 
ATOM      6  C   UNL     1     -43.089 -39.628  10.476  1.00  0.00     0.115 A 
ENDROOT
BRANCH   1   7
ATOM      7  C   UNL     1     -45.917 -42.859  10.389  1.00  0.00     0.071 C 
ATOM      8  O   UNL     1     -45.827 -43.763   9.515  1.00  0.00    -0.545 OA
ATOM      9  O   UNL     1     -46.945 -42.924  11.321  1.00  0.00    -0.545 OA
ENDBRANCH   1   7
BRANCH   6  10
ATOM     10  O   UNL     1     -42.173 -38.579  10.516  1.00  0.00    -0.508 OA
ATOM     11  H   UNL     1     -42.475 -37.614  10.578  1.00  0.00     0.293 HD
ENDBRANCH   6  10
TORSDOF 2
ENDMDL
MODEL 8
REMARK VINA RESULT:    -3.650      2.466      3.615
REMARK INTER + INTRA:          -4.001
REMARK INTER:                  -3.974
REMARK INTRA:                  -0.027
REMARK UNBOUND:                -0.031
REMARK SMILES O=C([O-])c1ccc(O)cc1
REMARK SMILES IDX 4 1 5 2 10 3 6 4 9 5 7 6 2 7 1 8 3 9 8 10
REMARK H PARENT 8 11
REMARK Flexibility Score: inf
ROOT
ATOM      1  C   UNL     1     -45.231 -51.556  10.151  1.00  0.00    -0.003 A 
ATOM      2  C   UNL     1     -45.026 -52.621  11.048  1.00  0.00     0.014 A 
ATOM      3  C   UNL     1     -45.687 -51.840   8.851  1.00  0.00     0.014 A 
ATOM      4  C   UNL     1     -45.273 -53.938  10.652  1.00  0.00     0.047 A 
ATOM      5  C   UNL     1     -45.932 -53.159   8.458  1.00  0.00     0.047 A 
ATOM      6  C   UNL     1     -45.726 -54.212   9.358  1.00  0.00     0.115 A 
ENDROOT
BRANCH   1   7
ATOM      7  C   UNL     1     -44.972 -50.160  10.563  1.00  0.00     0.071 C 
ATOM      8  O   UNL     1     -45.891 -49.461  11.071  1.00  0.00    -0.545 OA
ATOM      9  O   UNL     1     -43.713 -49.598  10.398  1.00  0.00    -0.545 OA
ENDBRANCH   1   7
BRANCH   6  10
ATOM     10  O   UNL     1     -45.967 -55.530   8.976  1.00  0.00    -0.508 OA
ATOM     11  H   UNL     1     -45.463 -55.961   8.211  1.00  0.00     0.293 HD
ENDBRANCH   6  10
TORSDOF 2
ENDMDL
MODEL 9
REMARK VINA RESULT:    -3.562      2.501      3.276
REMARK INTER + INTRA:          -3.905
REMARK INTER:                  -3.878
REMARK INTRA:                  -0.027
REMARK UNBOUND:                -0.031
REMARK SMILES O=C([O-])c1ccc(O)cc1
REMARK SMILES IDX 4 1 5 2 10 3 6 4 9 5 7 6 2 7 1 8 3 9 8 10
REMARK H PARENT 8 11
REMARK Flexibility Score: inf
ROOT
ATOM      1  C   UNL     1     -45.405 -53.131   9.383  1.00  0.00    -0.003 A 
ATOM      2  C   UNL     1     -45.100 -53.106  10.756  1.00  0.00     0.014 A 
ATOM      3  C   UNL     1     -45.912 -51.968   8.777  1.00  0.00     0.014 A 
ATOM      4  C   UNL     1     -45.299 -51.942  11.505  1.00  0.00     0.047 A 
ATOM      5  C   UNL     1     -46.110 -50.805   9.529  1.00  0.00     0.047 A 
ATOM      6  C   UNL     1     -45.804 -50.790  10.895  1.00  0.00     0.115 A 
ENDROOT
BRANCH   1   7
ATOM      7  C   UNL     1     -45.197 -54.359   8.584  1.00  0.00     0.071 C 
ATOM      8  O   UNL     1     -46.042 -55.294   8.616  1.00  0.00    -0.545 OA
ATOM      9  O   UNL     1     -44.067 -54.499   7.788  1.00  0.00    -0.545 OA
ENDBRANCH   1   7
BRANCH   6  10
ATOM     10  O   UNL     1     -45.997 -49.638  11.654  1.00  0.00    -0.508 OA
ATOM     11  H   UNL     1     -45.612 -49.547  12.587  1.00  0.00     0.293 HD
ENDBRANCH   6  10
TORSDOF 2
ENDMDL
