MODEL 1
REMARK VINA RESULT:    -3.815      0.000      0.000
REMARK INTER + INTRA:          -7.104
REMARK INTER:                  -5.933
REMARK INTRA:                  -1.171
REMARK UNBOUND:                -1.171
REMARK SMILES COc1cc(CNC(=O)CCCCC=CC(C)C)ccc1O
REMARK SMILES IDX 11 1 12 2 13 3 14 4 15 5 16 6 17 7 18 8 10 9 8 10 9 11 7 12
REMARK SMILES IDX 6 14 5 15 4 16 19 17 3 18 20 19 21 20 2 21 1 22 22 23
REMARK H PARENT 7 13 22 24
REMARK Flexibility Score: inf
ROOT
ATOM      1  C   UNL     1     152.748 158.635 139.827  1.00  0.00     0.010 C 
ENDROOT
BRANCH   1   2
ATOM      2  C   UNL     1     152.825 157.443 140.789  1.00  0.00     0.005 C 
BRANCH   2   3
ATOM      3  C   UNL     1     151.531 157.318 141.604  1.00  0.00     0.027 C 
BRANCH   3   4
ATOM      4  C   UNL     1     150.420 156.741 140.771  1.00  0.00    -0.031 C 
ATOM      5  C   UNL     1     150.527 155.526 140.205  1.00  0.00    -0.028 C 
BRANCH   5   6
ATOM      6  C   UNL     1     149.440 154.926 139.342  1.00  0.00     0.005 C 
ATOM      7  C   UNL     1     148.400 154.180 140.187  1.00  0.00     0.012 C 
ATOM      8  C   UNL     1     150.030 154.017 138.257  1.00  0.00     0.012 C 
ENDBRANCH   5   6
ENDBRANCH   3   4
ENDBRANCH   2   3
ENDBRANCH   1   2
BRANCH   1   9
ATOM      9  C   UNL     1     153.492 159.850 140.392  1.00  0.00     0.100 C 
BRANCH   9  10
ATOM     10  C   UNL     1     152.515 160.920 140.777  1.00  0.00     0.220 C 
ATOM     11  O   UNL     1     152.247 161.838 139.953  1.00  0.00    -0.275 OA
ATOM     12  N   UNL     1     151.935 160.930 142.089  1.00  0.00    -0.352 N 
ATOM     13  H   UNL     1     152.202 160.183 142.768  1.00  0.00     0.163 HD
BRANCH  12  14
ATOM     14  C   UNL     1     151.035 161.989 142.541  1.00  0.00     0.151 C 
BRANCH  14  15
ATOM     15  C   UNL     1     149.686 161.419 142.887  1.00  0.00    -0.025 A 
ATOM     16  C   UNL     1     148.708 162.220 143.503  1.00  0.00     0.056 A 
ATOM     17  C   UNL     1     149.384 160.087 142.569  1.00  0.00     0.009 A 
ATOM     18  C   UNL     1     147.435 161.693 143.804  1.00  0.00     0.160 A 
ATOM     19  C   UNL     1     148.128 159.558 142.869  1.00  0.00     0.050 A 
ATOM     20  C   UNL     1     147.154 160.357 143.486  1.00  0.00     0.157 A 
BRANCH  18  21
ATOM     21  O   UNL     1     146.430 162.464 144.413  1.00  0.00    -0.493 OA
ATOM     22  C   UNL     1     146.468 162.918 145.763  1.00  0.00     0.278 C 
ENDBRANCH  18  21
BRANCH  20  23
ATOM     23  O   UNL     1     145.899 159.830 143.784  1.00  0.00    -0.504 OA
ATOM     24  H   UNL     1     145.720 158.832 143.746  1.00  0.00     0.293 HD
ENDBRANCH  20  23
ENDBRANCH  14  15
ENDBRANCH  12  14
ENDBRANCH   9  10
ENDBRANCH   1   9
TORSDOF 10
ENDMDL
MODEL 2
REMARK VINA RESULT:    -3.757      8.379     11.638
REMARK INTER + INTRA:          -7.014
REMARK INTER:                  -5.349
REMARK INTRA:                  -1.665
REMARK UNBOUND:                -1.171
REMARK SMILES COc1cc(CNC(=O)CCCCC=CC(C)C)ccc1O
REMARK SMILES IDX 11 1 12 2 13 3 14 4 15 5 16 6 17 7 18 8 10 9 8 10 9 11 7 12
REMARK SMILES IDX 6 14 5 15 4 16 19 17 3 18 20 19 21 20 2 21 1 22 22 23
REMARK H PARENT 7 13 22 24
REMARK Flexibility Score: inf
ROOT
ATOM      1  C   UNL     1     158.209 151.792 140.389  1.00  0.00     0.010 C 
ENDROOT
BRANCH   1   2
ATOM      2  C   UNL     1     157.131 152.791 139.952  1.00  0.00     0.005 C 
BRANCH   2   3
ATOM      3  C   UNL     1     156.667 153.646 141.139  1.00  0.00     0.027 C 
BRANCH   3   4
ATOM      4  C   UNL     1     156.547 155.093 140.750  1.00  0.00    -0.031 C 
ATOM      5  C   UNL     1     156.926 155.525 139.534  1.00  0.00    -0.028 C 
BRANCH   5   6
ATOM      6  C   UNL     1     156.841 156.977 139.117  1.00  0.00     0.005 C 
ATOM      7  C   UNL     1     158.159 157.714 139.380  1.00  0.00     0.012 C 
ATOM      8  C   UNL     1     155.663 157.682 139.797  1.00  0.00     0.012 C 
ENDBRANCH   5   6
ENDBRANCH   3   4
ENDBRANCH   2   3
ENDBRANCH   1   2
BRANCH   1   9
ATOM      9  C   UNL     1     159.425 151.848 139.459  1.00  0.00     0.100 C 
BRANCH   9  10
ATOM     10  C   UNL     1     160.522 152.653 140.089  1.00  0.00     0.220 C 
ATOM     11  O   UNL     1     161.507 153.012 139.387  1.00  0.00    -0.275 OA
ATOM     12  N   UNL     1     160.476 152.964 141.489  1.00  0.00    -0.352 N 
ATOM     13  H   UNL     1     159.670 152.624 142.059  1.00  0.00     0.163 HD
BRANCH  12  14
ATOM     14  C   UNL     1     161.552 153.683 142.168  1.00  0.00     0.151 C 
BRANCH  14  15
ATOM     15  C   UNL     1     161.093 155.058 142.571  1.00  0.00    -0.025 A 
ATOM     16  C   UNL     1     162.005 155.992 143.094  1.00  0.00     0.056 A 
ATOM     17  C   UNL     1     159.751 155.429 142.398  1.00  0.00     0.009 A 
ATOM     18  C   UNL     1     161.579 157.289 143.447  1.00  0.00     0.160 A 
ATOM     19  C   UNL     1     159.323 156.708 142.750  1.00  0.00     0.050 A 
ATOM     20  C   UNL     1     160.233 157.639 143.275  1.00  0.00     0.157 A 
BRANCH  18  21
ATOM     21  O   UNL     1     162.462 158.251 143.967  1.00  0.00    -0.493 OA
ATOM     22  C   UNL     1     162.997 158.227 145.287  1.00  0.00     0.278 C 
ENDBRANCH  18  21
BRANCH  20  23
ATOM     23  O   UNL     1     159.806 158.919 143.626  1.00  0.00    -0.504 OA
ATOM     24  H   UNL     1     160.275 159.455 144.347  1.00  0.00     0.293 HD
ENDBRANCH  20  23
ENDBRANCH  14  15
ENDBRANCH  12  14
ENDBRANCH   9  10
ENDBRANCH   1   9
TORSDOF 10
ENDMDL
MODEL 3
REMARK VINA RESULT:    -3.753      3.440      6.122
REMARK INTER + INTRA:          -7.009
REMARK INTER:                  -4.616
REMARK INTRA:                  -2.393
REMARK UNBOUND:                -1.171
REMARK SMILES COc1cc(CNC(=O)CCCCC=CC(C)C)ccc1O
REMARK SMILES IDX 11 1 12 2 13 3 14 4 15 5 16 6 17 7 18 8 10 9 8 10 9 11 7 12
REMARK SMILES IDX 6 14 5 15 4 16 19 17 3 18 20 19 21 20 2 21 1 22 22 23
REMARK H PARENT 7 13 22 24
REMARK Flexibility Score: inf
ROOT
ATOM      1  C   UNL     1     144.758 158.479 139.902  1.00  0.00     0.010 C 
ENDROOT
BRANCH   1   2
ATOM      2  C   UNL     1     145.883 158.453 138.861  1.00  0.00     0.005 C 
BRANCH   2   3
ATOM      3  C   UNL     1     147.240 158.205 139.534  1.00  0.00     0.027 C 
BRANCH   3   4
ATOM      4  C   UNL     1     148.227 159.282 139.173  1.00  0.00    -0.031 C 
ATOM      5  C   UNL     1     147.874 160.579 139.162  1.00  0.00    -0.028 C 
BRANCH   5   6
ATOM      6  C   UNL     1     148.833 161.686 138.782  1.00  0.00     0.005 C 
ATOM      7  C   UNL     1     148.534 162.231 137.380  1.00  0.00     0.012 C 
ATOM      8  C   UNL     1     150.290 161.223 138.900  1.00  0.00     0.012 C 
ENDBRANCH   5   6
ENDBRANCH   3   4
ENDBRANCH   2   3
ENDBRANCH   1   2
BRANCH   1   9
ATOM      9  C   UNL     1     144.180 159.890 140.057  1.00  0.00     0.100 C 
BRANCH   9  10
ATOM     10  C   UNL     1     144.854 160.603 141.190  1.00  0.00     0.220 C 
ATOM     11  O   UNL     1     144.900 161.864 141.187  1.00  0.00    -0.275 OA
ATOM     12  N   UNL     1     145.490 159.857 142.238  1.00  0.00    -0.352 N 
ATOM     13  H   UNL     1     145.474 158.813 142.200  1.00  0.00     0.163 HD
BRANCH  12  14
ATOM     14  C   UNL     1     146.222 160.500 143.325  1.00  0.00     0.151 C 
BRANCH  14  15
ATOM     15  C   UNL     1     147.697 160.524 143.025  1.00  0.00    -0.025 A 
ATOM     16  C   UNL     1     148.420 159.325 142.894  1.00  0.00     0.056 A 
ATOM     17  C   UNL     1     148.356 161.749 142.843  1.00  0.00     0.009 A 
ATOM     18  C   UNL     1     149.795 159.349 142.586  1.00  0.00     0.160 A 
ATOM     19  C   UNL     1     149.718 161.779 142.544  1.00  0.00     0.050 A 
ATOM     20  C   UNL     1     150.439 160.582 142.416  1.00  0.00     0.157 A 
BRANCH  18  21
ATOM     21  O   UNL     1     150.550 158.172 142.441  1.00  0.00    -0.493 OA
ATOM     22  C   UNL     1     150.668 157.433 141.229  1.00  0.00     0.278 C 
ENDBRANCH  18  21
BRANCH  20  23
ATOM     23  O   UNL     1     151.800 160.611 142.115  1.00  0.00    -0.504 OA
ATOM     24  H   UNL     1     152.171 161.218 141.392  1.00  0.00     0.293 HD
ENDBRANCH  20  23
ENDBRANCH  14  15
ENDBRANCH  12  14
ENDBRANCH   9  10
ENDBRANCH   1   9
TORSDOF 10
ENDMDL
MODEL 4
REMARK VINA RESULT:    -3.665     10.072     13.126
REMARK INTER + INTRA:          -6.872
REMARK INTER:                  -5.377
REMARK INTRA:                  -1.495
REMARK UNBOUND:                -1.171
REMARK SMILES COc1cc(CNC(=O)CCCCC=CC(C)C)ccc1O
REMARK SMILES IDX 11 1 12 2 13 3 14 4 15 5 16 6 17 7 18 8 10 9 8 10 9 11 7 12
REMARK SMILES IDX 6 14 5 15 4 16 19 17 3 18 20 19 21 20 2 21 1 22 22 23
REMARK H PARENT 7 13 22 24
REMARK Flexibility Score: inf
ROOT
ATOM      1  C   UNL     1     146.398 144.688 139.996  1.00  0.00     0.010 C 
ENDROOT
BRANCH   1   2
ATOM      2  C   UNL     1     146.320 145.710 138.856  1.00  0.00     0.005 C 
BRANCH   2   3
ATOM      3  C   UNL     1     146.739 147.103 139.345  1.00  0.00     0.027 C 
BRANCH   3   4
ATOM      4  C   UNL     1     148.145 147.088 139.879  1.00  0.00    -0.031 C 
ATOM      5  C   UNL     1     149.206 147.041 139.055  1.00  0.00    -0.028 C 
BRANCH   5   6
ATOM      6  C   UNL     1     150.633 147.002 139.558  1.00  0.00     0.005 C 
ATOM      7  C   UNL     1     150.860 145.821 140.510  1.00  0.00     0.012 C 
ATOM      8  C   UNL     1     151.027 148.330 140.214  1.00  0.00     0.012 C 
ENDBRANCH   5   6
ENDBRANCH   3   4
ENDBRANCH   2   3
ENDBRANCH   1   2
BRANCH   1   9
ATOM      9  C   UNL     1     145.007 144.164 140.366  1.00  0.00     0.100 C 
BRANCH   9  10
ATOM     10  C   UNL     1     144.453 144.940 141.523  1.00  0.00     0.220 C 
ATOM     11  O   UNL     1     143.203 145.053 141.651  1.00  0.00    -0.275 OA
ATOM     12  N   UNL     1     145.338 145.592 142.445  1.00  0.00    -0.352 N 
ATOM     13  H   UNL     1     146.370 145.518 142.298  1.00  0.00     0.163 HD
BRANCH  12  14
ATOM     14  C   UNL     1     144.852 146.419 143.547  1.00  0.00     0.151 C 
BRANCH  14  15
ATOM     15  C   UNL     1     144.836 147.871 143.148  1.00  0.00    -0.025 A 
ATOM     16  C   UNL     1     146.030 148.533 142.811  1.00  0.00     0.056 A 
ATOM     17  C   UNL     1     143.620 148.566 143.080  1.00  0.00     0.009 A 
ATOM     18  C   UNL     1     146.011 149.885 142.412  1.00  0.00     0.160 A 
ATOM     19  C   UNL     1     143.595 149.905 142.691  1.00  0.00     0.050 A 
ATOM     20  C   UNL     1     144.787 150.567 142.358  1.00  0.00     0.157 A 
BRANCH  18  21
ATOM     21  O   UNL     1     147.182 150.580 142.062  1.00  0.00    -0.493 OA
ATOM     22  C   UNL     1     147.763 150.578 140.762  1.00  0.00     0.278 C 
ENDBRANCH  18  21
BRANCH  20  23
ATOM     23  O   UNL     1     144.762 151.905 141.968  1.00  0.00    -0.504 OA
ATOM     24  H   UNL     1     144.404 152.187 141.062  1.00  0.00     0.293 HD
ENDBRANCH  20  23
ENDBRANCH  14  15
ENDBRANCH  12  14
ENDBRANCH   9  10
ENDBRANCH   1   9
TORSDOF 10
ENDMDL
MODEL 5
REMARK VINA RESULT:    -3.575      2.657      4.906
REMARK INTER + INTRA:          -6.732
REMARK INTER:                  -4.397
REMARK INTRA:                  -2.335
REMARK UNBOUND:                -1.171
REMARK SMILES COc1cc(CNC(=O)CCCCC=CC(C)C)ccc1O
REMARK SMILES IDX 11 1 12 2 13 3 14 4 15 5 16 6 17 7 18 8 10 9 8 10 9 11 7 12
REMARK SMILES IDX 6 14 5 15 4 16 19 17 3 18 20 19 21 20 2 21 1 22 22 23
REMARK H PARENT 7 13 22 24
REMARK Flexibility Score: inf
ROOT
ATOM      1  C   UNL     1     154.371 161.252 140.528  1.00  0.00     0.010 C 
ENDROOT
BRANCH   1   2
ATOM      2  C   UNL     1     153.277 161.616 141.538  1.00  0.00     0.005 C 
BRANCH   2   3
ATOM      3  C   UNL     1     152.345 162.694 140.967  1.00  0.00     0.027 C 
BRANCH   3   4
ATOM      4  C   UNL     1     151.021 162.106 140.566  1.00  0.00    -0.031 C 
ATOM      5  C   UNL     1     150.815 161.621 139.329  1.00  0.00    -0.028 C 
BRANCH   5   6
ATOM      6  C   UNL     1     149.490 161.044 138.884  1.00  0.00     0.005 C 
ATOM      7  C   UNL     1     149.476 160.767 137.376  1.00  0.00     0.012 C 
ATOM      8  C   UNL     1     148.324 161.951 139.294  1.00  0.00     0.012 C 
ENDBRANCH   5   6
ENDBRANCH   3   4
ENDBRANCH   2   3
ENDBRANCH   1   2
BRANCH   1   9
ATOM      9  C   UNL     1     154.742 159.769 140.624  1.00  0.00     0.100 C 
BRANCH   9  10
ATOM     10  C   UNL     1     153.612 158.919 140.124  1.00  0.00     0.220 C 
ATOM     11  O   UNL     1     153.210 159.061 138.937  1.00  0.00    -0.275 OA
ATOM     12  N   UNL     1     152.959 157.994 141.006  1.00  0.00    -0.352 N 
ATOM     13  H   UNL     1     153.283 157.921 141.996  1.00  0.00     0.163 HD
BRANCH  12  14
ATOM     14  C   UNL     1     151.808 157.196 140.591  1.00  0.00     0.151 C 
BRANCH  14  15
ATOM     15  C   UNL     1     150.525 157.881 140.980  1.00  0.00    -0.025 A 
ATOM     16  C   UNL     1     149.339 157.635 140.267  1.00  0.00     0.056 A 
ATOM     17  C   UNL     1     150.500 158.751 142.080  1.00  0.00     0.009 A 
ATOM     18  C   UNL     1     148.132 158.257 140.648  1.00  0.00     0.160 A 
ATOM     19  C   UNL     1     149.311 159.373 142.459  1.00  0.00     0.050 A 
ATOM     20  C   UNL     1     148.127 159.129 141.745  1.00  0.00     0.157 A 
BRANCH  18  21
ATOM     21  O   UNL     1     146.925 158.031 139.965  1.00  0.00    -0.493 OA
ATOM     22  C   UNL     1     146.552 158.676 138.751  1.00  0.00     0.278 C 
ENDBRANCH  18  21
BRANCH  20  23
ATOM     23  O   UNL     1     146.938 159.750 142.124  1.00  0.00    -0.504 OA
ATOM     24  H   UNL     1     146.881 160.754 142.253  1.00  0.00     0.293 HD
ENDBRANCH  20  23
ENDBRANCH  14  15
ENDBRANCH  12  14
ENDBRANCH   9  10
ENDBRANCH   1   9
TORSDOF 10
ENDMDL
MODEL 6
REMARK VINA RESULT:    -3.562      3.016      5.426
REMARK INTER + INTRA:          -6.712
REMARK INTER:                  -5.371
REMARK INTRA:                  -1.341
REMARK UNBOUND:                -1.171
REMARK SMILES COc1cc(CNC(=O)CCCCC=CC(C)C)ccc1O
REMARK SMILES IDX 11 1 12 2 13 3 14 4 15 5 16 6 17 7 18 8 10 9 8 10 9 11 7 12
REMARK SMILES IDX 6 14 5 15 4 16 19 17 3 18 20 19 21 20 2 21 1 22 22 23
REMARK H PARENT 7 13 22 24
REMARK Flexibility Score: inf
ROOT
ATOM      1  C   UNL     1     144.737 158.470 139.933  1.00  0.00     0.010 C 
ENDROOT
BRANCH   1   2
ATOM      2  C   UNL     1     145.860 158.284 138.906  1.00  0.00     0.005 C 
BRANCH   2   3
ATOM      3  C   UNL     1     147.199 158.016 139.607  1.00  0.00     0.027 C 
BRANCH   3   4
ATOM      4  C   UNL     1     147.337 156.564 139.972  1.00  0.00    -0.031 C 
ATOM      5  C   UNL     1     146.758 155.599 139.237  1.00  0.00    -0.028 C 
BRANCH   5   6
ATOM      6  C   UNL     1     146.856 154.131 139.587  1.00  0.00     0.005 C 
ATOM      7  C   UNL     1     145.634 153.661 140.386  1.00  0.00     0.012 C 
ATOM      8  C   UNL     1     148.160 153.824 140.333  1.00  0.00     0.012 C 
ENDBRANCH   5   6
ENDBRANCH   3   4
ENDBRANCH   2   3
ENDBRANCH   1   2
BRANCH   1   9
ATOM      9  C   UNL     1     144.274 159.930 139.988  1.00  0.00     0.100 C 
BRANCH   9  10
ATOM     10  C   UNL     1     144.922 160.636 141.141  1.00  0.00     0.220 C 
ATOM     11  O   UNL     1     145.013 161.894 141.123  1.00  0.00    -0.275 OA
ATOM     12  N   UNL     1     145.482 159.882 142.226  1.00  0.00    -0.352 N 
ATOM     13  H   UNL     1     145.430 158.839 142.201  1.00  0.00     0.163 HD
BRANCH  12  14
ATOM     14  C   UNL     1     146.188 160.515 143.337  1.00  0.00     0.151 C 
BRANCH  14  15
ATOM     15  C   UNL     1     147.667 160.563 143.062  1.00  0.00    -0.025 A 
ATOM     16  C   UNL     1     148.398 159.378 142.871  1.00  0.00     0.056 A 
ATOM     17  C   UNL     1     148.323 161.800 142.965  1.00  0.00     0.009 A 
ATOM     18  C   UNL     1     149.779 159.425 142.588  1.00  0.00     0.160 A 
ATOM     19  C   UNL     1     149.689 161.853 142.689  1.00  0.00     0.050 A 
ATOM     20  C   UNL     1     150.418 160.669 142.501  1.00  0.00     0.157 A 
BRANCH  18  21
ATOM     21  O   UNL     1     150.542 158.262 142.384  1.00  0.00    -0.493 OA
ATOM     22  C   UNL     1     150.709 157.616 141.126  1.00  0.00     0.278 C 
ENDBRANCH  18  21
BRANCH  20  23
ATOM     23  O   UNL     1     151.784 160.722 142.224  1.00  0.00    -0.504 OA
ATOM     24  H   UNL     1     152.162 161.372 141.545  1.00  0.00     0.293 HD
ENDBRANCH  20  23
ENDBRANCH  14  15
ENDBRANCH  12  14
ENDBRANCH   9  10
ENDBRANCH   1   9
TORSDOF 10
ENDMDL
MODEL 7
REMARK VINA RESULT:    -3.549     12.808     15.918
REMARK INTER + INTRA:          -6.691
REMARK INTER:                  -5.481
REMARK INTRA:                  -1.210
REMARK UNBOUND:                -1.171
REMARK SMILES COc1cc(CNC(=O)CCCCC=CC(C)C)ccc1O
REMARK SMILES IDX 11 1 12 2 13 3 14 4 15 5 16 6 17 7 18 8 10 9 8 10 9 11 7 12
REMARK SMILES IDX 6 14 5 15 4 16 19 17 3 18 20 19 21 20 2 21 1 22 22 23
REMARK H PARENT 7 13 22 24
REMARK Flexibility Score: inf
ROOT
ATOM      1  C   UNL     1     160.701 146.641 140.231  1.00  0.00     0.010 C 
ENDROOT
BRANCH   1   2
ATOM      2  C   UNL     1     159.688 147.005 139.139  1.00  0.00     0.005 C 
BRANCH   2   3
ATOM      3  C   UNL     1     158.333 147.377 139.755  1.00  0.00     0.027 C 
BRANCH   3   4
ATOM      4  C   UNL     1     158.045 148.843 139.583  1.00  0.00    -0.031 C 
ATOM      5  C   UNL     1     158.997 149.771 139.778  1.00  0.00    -0.028 C 
BRANCH   5   6
ATOM      6  C   UNL     1     158.737 151.255 139.636  1.00  0.00     0.005 C 
ATOM      7  C   UNL     1     160.034 152.066 139.748  1.00  0.00     0.012 C 
ATOM      8  C   UNL     1     157.691 151.735 140.649  1.00  0.00     0.012 C 
ENDBRANCH   5   6
ENDBRANCH   3   4
ENDBRANCH   2   3
ENDBRANCH   1   2
BRANCH   1   9
ATOM      9  C   UNL     1     160.975 145.133 140.251  1.00  0.00     0.100 C 
BRANCH   9  10
ATOM     10  C   UNL     1     160.225 144.486 141.376  1.00  0.00     0.220 C 
ATOM     11  O   UNL     1     159.990 143.247 141.330  1.00  0.00    -0.275 OA
ATOM     12  N   UNL     1     159.733 145.278 142.466  1.00  0.00    -0.352 N 
ATOM     13  H   UNL     1     159.905 146.308 142.464  1.00  0.00     0.163 HD
BRANCH  12  14
ATOM     14  C   UNL     1     158.935 144.710 143.550  1.00  0.00     0.151 C 
BRANCH  14  15
ATOM     15  C   UNL     1     157.473 144.725 143.191  1.00  0.00    -0.025 A 
ATOM     16  C   UNL     1     156.823 145.935 142.890  1.00  0.00     0.056 A 
ATOM     17  C   UNL     1     156.754 143.522 143.126  1.00  0.00     0.009 A 
ATOM     18  C   UNL     1     155.460 145.946 142.528  1.00  0.00     0.160 A 
ATOM     19  C   UNL     1     155.405 143.527 142.774  1.00  0.00     0.050 A 
ATOM     20  C   UNL     1     154.756 144.735 142.476  1.00  0.00     0.157 A 
BRANCH  18  21
ATOM     21  O   UNL     1     154.778 147.134 142.214  1.00  0.00    -0.493 OA
ATOM     22  C   UNL     1     154.772 147.745 140.927  1.00  0.00     0.278 C 
ENDBRANCH  18  21
BRANCH  20  23
ATOM     23  O   UNL     1     153.407 144.739 142.122  1.00  0.00    -0.504 OA
ATOM     24  H   UNL     1     152.844 145.580 142.189  1.00  0.00     0.293 HD
ENDBRANCH  20  23
ENDBRANCH  14  15
ENDBRANCH  12  14
ENDBRANCH   9  10
ENDBRANCH   1   9
TORSDOF 10
ENDMDL
MODEL 8
REMARK VINA RESULT:    -3.504     12.073     15.419
REMARK INTER + INTRA:          -6.622
REMARK INTER:                  -4.287
REMARK INTRA:                  -2.335
REMARK UNBOUND:                -1.171
REMARK SMILES COc1cc(CNC(=O)CCCCC=CC(C)C)ccc1O
REMARK SMILES IDX 11 1 12 2 13 3 14 4 15 5 16 6 17 7 18 8 10 9 8 10 9 11 7 12
REMARK SMILES IDX 6 14 5 15 4 16 19 17 3 18 20 19 21 20 2 21 1 22 22 23
REMARK H PARENT 7 13 22 24
REMARK Flexibility Score: inf
ROOT
ATOM      1  C   UNL     1     151.152 148.406 140.238  1.00  0.00     0.010 C 
ENDROOT
BRANCH   1   2
ATOM      2  C   UNL     1     152.424 149.200 139.919  1.00  0.00     0.005 C 
BRANCH   2   3
ATOM      3  C   UNL     1     153.444 149.075 141.059  1.00  0.00     0.027 C 
BRANCH   3   4
ATOM      4  C   UNL     1     154.845 148.971 140.522  1.00  0.00    -0.031 C 
ATOM      5  C   UNL     1     155.144 148.150 139.501  1.00  0.00    -0.028 C 
BRANCH   5   6
ATOM      6  C   UNL     1     156.546 148.003 138.951  1.00  0.00     0.005 C 
ATOM      7  C   UNL     1     156.706 146.696 138.164  1.00  0.00     0.012 C 
ATOM      8  C   UNL     1     157.594 148.114 140.064  1.00  0.00     0.012 C 
ENDBRANCH   5   6
ENDBRANCH   3   4
ENDBRANCH   2   3
ENDBRANCH   1   2
BRANCH   1   9
ATOM      9  C   UNL     1     150.990 147.215 139.287  1.00  0.00     0.100 C 
BRANCH   9  10
ATOM     10  C   UNL     1     151.520 145.966 139.927  1.00  0.00     0.220 C 
ATOM     11  O   UNL     1     150.854 145.411 140.843  1.00  0.00    -0.275 OA
ATOM     12  N   UNL     1     152.797 145.442 139.538  1.00  0.00    -0.352 N 
ATOM     13  H   UNL     1     153.350 145.940 138.804  1.00  0.00     0.163 HD
BRANCH  12  14
ATOM     14  C   UNL     1     153.392 144.271 140.178  1.00  0.00     0.151 C 
BRANCH  14  15
ATOM     15  C   UNL     1     154.625 144.663 140.949  1.00  0.00    -0.025 A 
ATOM     16  C   UNL     1     155.875 144.105 140.629  1.00  0.00     0.056 A 
ATOM     17  C   UNL     1     154.537 145.614 141.976  1.00  0.00     0.009 A 
ATOM     18  C   UNL     1     157.033 144.492 141.334  1.00  0.00     0.160 A 
ATOM     19  C   UNL     1     155.678 145.997 142.681  1.00  0.00     0.050 A 
ATOM     20  C   UNL     1     156.925 145.438 142.363  1.00  0.00     0.157 A 
BRANCH  18  21
ATOM     21  O   UNL     1     158.302 143.962 141.040  1.00  0.00    -0.493 OA
ATOM     22  C   UNL     1     159.091 144.336 139.915  1.00  0.00     0.278 C 
ENDBRANCH  18  21
BRANCH  20  23
ATOM     23  O   UNL     1     158.067 145.822 143.066  1.00  0.00    -0.504 OA
ATOM     24  H   UNL     1     158.941 145.317 142.974  1.00  0.00     0.293 HD
ENDBRANCH  20  23
ENDBRANCH  14  15
ENDBRANCH  12  14
ENDBRANCH   9  10
ENDBRANCH   1   9
TORSDOF 10
ENDMDL
MODEL 9
REMARK VINA RESULT:    -3.502      3.449      6.601
REMARK INTER + INTRA:          -6.618
REMARK INTER:                  -5.078
REMARK INTRA:                  -1.540
REMARK UNBOUND:                -1.171
REMARK SMILES COc1cc(CNC(=O)CCCCC=CC(C)C)ccc1O
REMARK SMILES IDX 11 1 12 2 13 3 14 4 15 5 16 6 17 7 18 8 10 9 8 10 9 11 7 12
REMARK SMILES IDX 6 14 5 15 4 16 19 17 3 18 20 19 21 20 2 21 1 22 22 23
REMARK H PARENT 7 13 22 24
REMARK Flexibility Score: inf
ROOT
ATOM      1  C   UNL     1     148.207 159.912 142.732  1.00  0.00     0.010 C 
ENDROOT
BRANCH   1   2
ATOM      2  C   UNL     1     149.712 159.895 142.442  1.00  0.00     0.005 C 
BRANCH   2   3
ATOM      3  C   UNL     1     150.252 158.458 142.453  1.00  0.00     0.027 C 
BRANCH   3   4
ATOM      4  C   UNL     1     151.217 158.235 141.322  1.00  0.00    -0.031 C 
ATOM      5  C   UNL     1     151.969 157.123 141.252  1.00  0.00    -0.028 C 
BRANCH   5   6
ATOM      6  C   UNL     1     152.967 156.876 140.142  1.00  0.00     0.005 C 
ATOM      7  C   UNL     1     154.193 157.787 140.276  1.00  0.00     0.012 C 
ATOM      8  C   UNL     1     152.312 157.024 138.764  1.00  0.00     0.012 C 
ENDBRANCH   5   6
ENDBRANCH   3   4
ENDBRANCH   2   3
ENDBRANCH   1   2
BRANCH   1   9
ATOM      9  C   UNL     1     147.431 160.582 141.593  1.00  0.00     0.100 C 
BRANCH   9  10
ATOM     10  C   UNL     1     147.278 159.632 140.443  1.00  0.00     0.220 C 
ATOM     11  O   UNL     1     147.511 160.037 139.271  1.00  0.00    -0.275 OA
ATOM     12  N   UNL     1     146.820 158.291 140.670  1.00  0.00    -0.352 N 
ATOM     13  H   UNL     1     146.596 157.989 141.644  1.00  0.00     0.163 HD
BRANCH  12  14
ATOM     14  C   UNL     1     146.585 157.348 139.579  1.00  0.00     0.151 C 
BRANCH  14  15
ATOM     15  C   UNL     1     147.317 156.058 139.833  1.00  0.00    -0.025 A 
ATOM     16  C   UNL     1     146.611 154.887 140.161  1.00  0.00     0.056 A 
ATOM     17  C   UNL     1     148.714 156.009 139.715  1.00  0.00     0.009 A 
ATOM     18  C   UNL     1     147.296 153.673 140.373  1.00  0.00     0.160 A 
ATOM     19  C   UNL     1     149.398 154.812 139.928  1.00  0.00     0.050 A 
ATOM     20  C   UNL     1     148.693 153.645 140.258  1.00  0.00     0.157 A 
BRANCH  18  21
ATOM     21  O   UNL     1     146.625 152.480 140.695  1.00  0.00    -0.493 OA
ATOM     22  C   UNL     1     145.239 152.246 140.463  1.00  0.00     0.278 C 
ENDBRANCH  18  21
BRANCH  20  23
ATOM     23  O   UNL     1     149.376 152.448 140.469  1.00  0.00    -0.504 OA
ATOM     24  H   UNL     1     149.121 151.818 141.222  1.00  0.00     0.293 HD
ENDBRANCH  20  23
ENDBRANCH  14  15
ENDBRANCH  12  14
ENDBRANCH   9  10
ENDBRANCH   1   9
TORSDOF 10
ENDMDL
