MODEL 1
REMARK VINA RESULT:    -7.131      0.000      0.000
REMARK INTER + INTRA:         -11.571
REMARK INTER:                 -10.467
REMARK INTRA:                  -1.104
REMARK UNBOUND:                -1.104
REMARK SMILES Cc1cc2c(C(C)C)c(O)c(O)c(C=O)c2c(O)c1-c1c(C)cc2c(C(C)C)c(O)c(O)c(C=O)c2c1O
REMARK SMILES IDX 1 1 2 2 3 3 4 4 16 5 13 6 11 7 9 8 5 9 17 10 19 11 20 12
REMARK SMILES IDX 37 13 21 14 36 15 23 16 22 17 24 18 33 19 25 20 31 21 29 22
REMARK SMILES IDX 38 23 34 25 35 26 26 27 27 28 28 29 32 30 30 32 18 34 6 36
REMARK SMILES IDX 7 37 8 38 14 39 15 40 10 41 12 43
REMARK H PARENT 38 24 32 31 30 33 18 35 10 42 12 44
REMARK Flexibility Score: inf
ROOT
ATOM      1  C   UNL     1      21.456 -31.730  21.610  1.00  0.00     0.045 C 
ATOM      2  C   UNL     1      21.789 -32.990  22.370  1.00  0.00    -0.039 A 
ATOM      3  C   UNL     1      23.115 -33.418  22.439  1.00  0.00     0.013 A 
ATOM      4  C   UNL     1      23.483 -34.597  23.126  1.00  0.00    -0.006 A 
ATOM      5  C   UNL     1      22.486 -35.291  23.875  1.00  0.00     0.039 A 
ATOM      6  C   UNL     1      22.890 -36.347  24.746  1.00  0.00     0.072 A 
ATOM      7  C   UNL     1      24.256 -36.686  24.850  1.00  0.00     0.169 A 
ATOM      8  C   UNL     1      25.207 -36.067  24.032  1.00  0.00     0.162 A 
ATOM      9  C   UNL     1      24.826 -35.078  23.101  1.00  0.00     0.008 A 
ATOM     10  C   UNL     1      21.120 -34.912  23.716  1.00  0.00     0.132 A 
ATOM     11  C   UNL     1      20.781 -33.757  22.979  1.00  0.00     0.031 A 
ENDROOT
BRANCH  11  12
ATOM     12  C   UNL     1      19.358 -33.341  22.852  1.00  0.00     0.031 A 
ATOM     13  C   UNL     1      18.548 -33.885  21.831  1.00  0.00     0.132 A 
ATOM     14  C   UNL     1      18.835 -32.380  23.731  1.00  0.00    -0.039 A 
ATOM     15  C   UNL     1      17.185 -33.478  21.692  1.00  0.00     0.039 A 
ATOM     16  C   UNL     1      17.505 -31.978  23.597  1.00  0.00     0.013 A 
ATOM     17  C   UNL     1      19.697 -31.746  24.796  1.00  0.00     0.045 C 
ATOM     18  C   UNL     1      16.645 -32.543  22.629  1.00  0.00    -0.006 A 
ATOM     19  C   UNL     1      16.354 -33.940  20.626  1.00  0.00     0.072 A 
ATOM     20  C   UNL     1      15.271 -32.161  22.554  1.00  0.00     0.008 A 
ATOM     21  C   UNL     1      15.049 -33.429  20.479  1.00  0.00     0.169 A 
ATOM     22  C   UNL     1      14.530 -32.525  21.409  1.00  0.00     0.162 A 
BRANCH  13  23
ATOM     23  O   UNL     1      19.101 -34.823  20.953  1.00  0.00    -0.507 OA
ATOM     24  H   UNL     1      20.036 -34.762  20.572  1.00  0.00     0.293 HD
ENDBRANCH  13  23
BRANCH  19  25
ATOM     25  C   UNL     1      16.827 -34.931  19.639  1.00  0.00     0.264 C 
ATOM     26  O   UNL     1      16.451 -36.132  19.708  1.00  0.00    -0.298 OA
ENDBRANCH  19  25
BRANCH  20  27
ATOM     27  C   UNL     1      14.591 -31.351  23.675  1.00  0.00     0.017 C 
ATOM     28  C   UNL     1      14.087 -30.005  23.146  1.00  0.00     0.012 C 
ATOM     29  C   UNL     1      13.473 -32.118  24.407  1.00  0.00     0.012 C 
ENDBRANCH  20  27
BRANCH  21  30
ATOM     30  O   UNL     1      14.220 -33.828  19.422  1.00  0.00    -0.504 OA
ATOM     31  H   UNL     1      14.289 -33.468  18.480  1.00  0.00     0.293 HD
ENDBRANCH  21  30
BRANCH  22  32
ATOM     32  O   UNL     1      13.261 -31.979  21.198  1.00  0.00    -0.504 OA
ATOM     33  H   UNL     1      12.953 -31.629  20.300  1.00  0.00     0.293 HD
ENDBRANCH  22  32
ENDBRANCH  11  12
BRANCH  10  34
ATOM     34  O   UNL     1      20.098 -35.696  24.266  1.00  0.00    -0.507 OA
ATOM     35  H   UNL     1      20.254 -36.581  24.732  1.00  0.00     0.293 HD
ENDBRANCH  10  34
BRANCH   9  36
ATOM     36  C   UNL     1      25.860 -34.534  22.098  1.00  0.00     0.017 C 
ATOM     37  C   UNL     1      26.954 -33.738  22.818  1.00  0.00     0.012 C 
ATOM     38  C   UNL     1      26.466 -35.615  21.183  1.00  0.00     0.012 C 
ENDBRANCH   9  36
BRANCH   6  39
ATOM     39  C   UNL     1      21.929 -37.043  25.626  1.00  0.00     0.264 C 
ATOM     40  O   UNL     1      22.111 -37.082  26.872  1.00  0.00    -0.298 OA
ENDBRANCH   6  39
BRANCH   8  41
ATOM     41  O   UNL     1      26.552 -36.418  24.164  1.00  0.00    -0.504 OA
ATOM     42  H   UNL     1      27.112 -36.168  24.970  1.00  0.00     0.293 HD
ENDBRANCH   8  41
BRANCH   7  43
ATOM     43  O   UNL     1      24.709 -37.629  25.782  1.00  0.00    -0.504 OA
ATOM     44  H   UNL     1      25.457 -37.460  26.442  1.00  0.00     0.293 HD
ENDBRANCH   7  43
TORSDOF 11
ENDMDL
MODEL 2
REMARK VINA RESULT:    -7.099      0.330      9.234
REMARK INTER + INTRA:         -11.523
REMARK INTER:                 -10.390
REMARK INTRA:                  -1.133
REMARK UNBOUND:                -1.104
REMARK SMILES Cc1cc2c(C(C)C)c(O)c(O)c(C=O)c2c(O)c1-c1c(C)cc2c(C(C)C)c(O)c(O)c(C=O)c2c1O
REMARK SMILES IDX 1 1 2 2 3 3 4 4 16 5 13 6 11 7 9 8 5 9 17 10 19 11 20 12
REMARK SMILES IDX 37 13 21 14 36 15 23 16 22 17 24 18 33 19 25 20 31 21 29 22
REMARK SMILES IDX 38 23 34 25 35 26 26 27 27 28 28 29 32 30 30 32 18 34 6 36
REMARK SMILES IDX 7 37 8 38 14 39 15 40 10 41 12 43
REMARK H PARENT 38 24 32 31 30 33 18 35 10 42 12 44
REMARK Flexibility Score: inf
ROOT
ATOM      1  C   UNL     1      19.634 -31.382  24.619  1.00  0.00     0.045 C 
ATOM      2  C   UNL     1      18.764 -32.088  23.607  1.00  0.00    -0.039 A 
ATOM      3  C   UNL     1      17.420 -31.734  23.494  1.00  0.00     0.013 A 
ATOM      4  C   UNL     1      16.556 -32.370  22.575  1.00  0.00    -0.006 A 
ATOM      5  C   UNL     1      17.110 -33.306  21.652  1.00  0.00     0.039 A 
ATOM      6  C   UNL     1      16.295 -33.783  20.582  1.00  0.00     0.072 A 
ATOM      7  C   UNL     1      14.966 -33.327  20.456  1.00  0.00     0.169 A 
ATOM      8  C   UNL     1      14.406 -32.490  21.427  1.00  0.00     0.162 A 
ATOM      9  C   UNL     1      15.162 -32.070  22.542  1.00  0.00     0.008 A 
ATOM     10  C   UNL     1      18.456 -33.741  21.840  1.00  0.00     0.132 A 
ATOM     11  C   UNL     1      19.279 -33.120  22.805  1.00  0.00     0.031 A 
ENDROOT
BRANCH  11  12
ATOM     12  C   UNL     1      20.694 -33.548  22.968  1.00  0.00     0.031 A 
ATOM     13  C   UNL     1      21.017 -34.620  23.828  1.00  0.00     0.132 A 
ATOM     14  C   UNL     1      21.710 -32.858  22.289  1.00  0.00    -0.039 A 
ATOM     15  C   UNL     1      22.377 -35.025  24.004  1.00  0.00     0.039 A 
ATOM     16  C   UNL     1      23.039 -33.250  22.458  1.00  0.00     0.013 A 
ATOM     17  C   UNL     1      21.394 -31.676  21.404  1.00  0.00     0.045 C 
ATOM     18  C   UNL     1      23.398 -34.355  23.262  1.00  0.00    -0.006 A 
ATOM     19  C   UNL     1      22.756 -36.050  24.925  1.00  0.00     0.072 A 
ATOM     20  C   UNL     1      24.759 -34.775  23.368  1.00  0.00     0.008 A 
ATOM     21  C   UNL     1      24.119 -36.340  25.131  1.00  0.00     0.169 A 
ATOM     22  C   UNL     1      25.106 -35.685  24.390  1.00  0.00     0.162 A 
BRANCH  13  23
ATOM     23  O   UNL     1      19.987 -35.274  24.513  1.00  0.00    -0.507 OA
ATOM     24  H   UNL     1      19.956 -36.273  24.670  1.00  0.00     0.293 HD
ENDBRANCH  13  23
BRANCH  19  25
ATOM     25  C   UNL     1      21.759 -36.811  25.703  1.00  0.00     0.264 C 
ATOM     26  O   UNL     1      21.957 -37.067  26.920  1.00  0.00    -0.298 OA
ENDBRANCH  19  25
BRANCH  20  27
ATOM     27  C   UNL     1      25.849 -34.247  22.417  1.00  0.00     0.017 C 
ATOM     28  C   UNL     1      26.808 -33.308  23.154  1.00  0.00     0.012 C 
ATOM     29  C   UNL     1      26.614 -35.357  21.671  1.00  0.00     0.012 C 
ENDBRANCH  20  27
BRANCH  21  30
ATOM     30  O   UNL     1      24.531 -37.308  26.057  1.00  0.00    -0.504 OA
ATOM     31  H   UNL     1      23.961 -38.089  26.353  1.00  0.00     0.293 HD
ENDBRANCH  21  30
BRANCH  22  32
ATOM     32  O   UNL     1      26.452 -35.941  24.668  1.00  0.00    -0.504 OA
ATOM     33  H   UNL     1      26.861 -36.865  24.618  1.00  0.00     0.293 HD
ENDBRANCH  22  32
ENDBRANCH  11  12
BRANCH  10  34
ATOM     34  O   UNL     1      18.968 -34.807  21.090  1.00  0.00    -0.507 OA
ATOM     35  H   UNL     1      18.448 -35.292  20.370  1.00  0.00     0.293 HD
ENDBRANCH  10  34
BRANCH   9  36
ATOM     36  C   UNL     1      14.476 -31.291  23.679  1.00  0.00     0.017 C 
ATOM     37  C   UNL     1      13.828 -30.007  23.151  1.00  0.00     0.012 C 
ATOM     38  C   UNL     1      13.471 -32.132  24.490  1.00  0.00     0.012 C 
ENDBRANCH   9  36
BRANCH   6  39
ATOM     39  C   UNL     1      16.830 -34.675  19.532  1.00  0.00     0.264 C 
ATOM     40  O   UNL     1      16.519 -35.895  19.507  1.00  0.00    -0.298 OA
ENDBRANCH   6  39
BRANCH   8  41
ATOM     41  O   UNL     1      13.091 -32.049  21.271  1.00  0.00    -0.504 OA
ATOM     42  H   UNL     1      12.306 -32.679  21.152  1.00  0.00     0.293 HD
ENDBRANCH   8  41
BRANCH   7  43
ATOM     43  O   UNL     1      14.173 -33.672  19.353  1.00  0.00    -0.504 OA
ATOM     44  H   UNL     1      13.526 -34.450  19.342  1.00  0.00     0.293 HD
ENDBRANCH   7  43
TORSDOF 11
ENDMDL
MODEL 3
REMARK VINA RESULT:    -6.973      5.799      9.203
REMARK INTER + INTRA:         -11.338
REMARK INTER:                 -10.759
REMARK INTRA:                  -0.578
REMARK UNBOUND:                -1.104
REMARK SMILES Cc1cc2c(C(C)C)c(O)c(O)c(C=O)c2c(O)c1-c1c(C)cc2c(C(C)C)c(O)c(O)c(C=O)c2c1O
REMARK SMILES IDX 1 1 2 2 3 3 4 4 16 5 13 6 11 7 9 8 5 9 17 10 19 11 20 12
REMARK SMILES IDX 37 13 21 14 36 15 23 16 22 17 24 18 33 19 25 20 31 21 29 22
REMARK SMILES IDX 38 23 34 25 35 26 26 27 27 28 28 29 32 30 30 32 18 34 6 36
REMARK SMILES IDX 7 37 8 38 14 39 15 40 10 41 12 43
REMARK H PARENT 38 24 32 31 30 33 18 35 10 42 12 44
REMARK Flexibility Score: inf
ROOT
ATOM      1  C   UNL     1      22.372 -28.526  25.637  1.00  0.00     0.045 C 
ATOM      2  C   UNL     1      22.511 -27.753  24.348  1.00  0.00    -0.039 A 
ATOM      3  C   UNL     1      22.514 -26.358  24.383  1.00  0.00     0.013 A 
ATOM      4  C   UNL     1      22.627 -25.583  23.208  1.00  0.00    -0.006 A 
ATOM      5  C   UNL     1      22.875 -26.249  21.971  1.00  0.00     0.039 A 
ATOM      6  C   UNL     1      23.211 -25.470  20.824  1.00  0.00     0.072 A 
ATOM      7  C   UNL     1      23.290 -24.065  20.929  1.00  0.00     0.169 A 
ATOM      8  C   UNL     1      22.942 -23.421  22.122  1.00  0.00     0.162 A 
ATOM      9  C   UNL     1      22.525 -24.160  23.248  1.00  0.00     0.008 A 
ATOM     10  C   UNL     1      22.766 -27.671  21.924  1.00  0.00     0.132 A 
ATOM     11  C   UNL     1      22.600 -28.415  23.112  1.00  0.00     0.031 A 
ENDROOT
BRANCH  11  12
ATOM     12  C   UNL     1      22.530 -29.900  23.062  1.00  0.00     0.031 A 
ATOM     13  C   UNL     1      21.346 -30.540  22.635  1.00  0.00     0.132 A 
ATOM     14  C   UNL     1      23.634 -30.661  23.474  1.00  0.00    -0.039 A 
ATOM     15  C   UNL     1      21.265 -31.967  22.601  1.00  0.00     0.039 A 
ATOM     16  C   UNL     1      23.559 -32.054  23.444  1.00  0.00     0.013 A 
ATOM     17  C   UNL     1      24.892 -29.998  23.984  1.00  0.00     0.045 C 
ATOM     18  C   UNL     1      22.415 -32.733  22.966  1.00  0.00    -0.006 A 
ATOM     19  C   UNL     1      20.062 -32.656  22.254  1.00  0.00     0.072 A 
ATOM     20  C   UNL     1      22.387 -34.159  22.885  1.00  0.00     0.008 A 
ATOM     21  C   UNL     1      20.009 -34.062  22.334  1.00  0.00     0.169 A 
ATOM     22  C   UNL     1      21.145 -34.798  22.681  1.00  0.00     0.162 A 
BRANCH  13  23
ATOM     23  O   UNL     1      20.251 -29.758  22.254  1.00  0.00    -0.507 OA
ATOM     24  H   UNL     1      19.341 -30.131  22.019  1.00  0.00     0.293 HD
ENDBRANCH  13  23
BRANCH  19  25
ATOM     25  C   UNL     1      18.842 -31.939  21.834  1.00  0.00     0.264 C 
ATOM     26  O   UNL     1      18.527 -31.873  20.617  1.00  0.00    -0.298 OA
ENDBRANCH  19  25
BRANCH  20  27
ATOM     27  C   UNL     1      23.664 -35.006  23.036  1.00  0.00     0.017 C 
ATOM     28  C   UNL     1      24.765 -34.505  22.097  1.00  0.00     0.012 C 
ATOM     29  C   UNL     1      24.171 -35.114  24.486  1.00  0.00     0.012 C 
ENDBRANCH  20  27
BRANCH  21  30
ATOM     30  O   UNL     1      18.835 -34.769  22.043  1.00  0.00    -0.504 OA
ATOM     31  H   UNL     1      18.570 -35.637  22.488  1.00  0.00     0.293 HD
ENDBRANCH  21  30
BRANCH  22  32
ATOM     32  O   UNL     1      21.044 -36.185  22.823  1.00  0.00    -0.504 OA
ATOM     33  H   UNL     1      21.849 -36.797  22.863  1.00  0.00     0.293 HD
ENDBRANCH  22  32
ENDBRANCH  11  12
BRANCH  10  34
ATOM     34  O   UNL     1      22.794 -28.344  20.695  1.00  0.00    -0.507 OA
ATOM     35  H   UNL     1      21.998 -28.422  20.076  1.00  0.00     0.293 HD
ENDBRANCH  10  34
BRANCH   9  36
ATOM     36  C   UNL     1      21.988 -23.424  24.489  1.00  0.00     0.017 C 
ATOM     37  C   UNL     1      20.561 -23.874  24.817  1.00  0.00     0.012 C 
ATOM     38  C   UNL     1      22.906 -23.532  25.721  1.00  0.00     0.012 C 
ENDBRANCH   9  36
BRANCH   6  39
ATOM     39  C   UNL     1      23.578 -26.095  19.536  1.00  0.00     0.264 C 
ATOM     40  O   UNL     1      23.305 -25.527  18.446  1.00  0.00    -0.298 OA
ENDBRANCH   6  39
BRANCH   8  41
ATOM     41  O   UNL     1      23.038 -22.030  22.198  1.00  0.00    -0.504 OA
ATOM     42  H   UNL     1      22.842 -21.418  21.415  1.00  0.00     0.293 HD
ENDBRANCH   8  41
BRANCH   7  43
ATOM     43  O   UNL     1      23.736 -23.273  19.863  1.00  0.00    -0.504 OA
ATOM     44  H   UNL     1      23.124 -22.754  19.248  1.00  0.00     0.293 HD
ENDBRANCH   7  43
TORSDOF 11
ENDMDL
MODEL 4
REMARK VINA RESULT:    -6.747      6.127      8.428
REMARK INTER + INTRA:         -11.006
REMARK INTER:                 -10.305
REMARK INTRA:                  -0.701
REMARK UNBOUND:                -1.104
REMARK SMILES Cc1cc2c(C(C)C)c(O)c(O)c(C=O)c2c(O)c1-c1c(C)cc2c(C(C)C)c(O)c(O)c(C=O)c2c1O
REMARK SMILES IDX 1 1 2 2 3 3 4 4 16 5 13 6 11 7 9 8 5 9 17 10 19 11 20 12
REMARK SMILES IDX 37 13 21 14 36 15 23 16 22 17 24 18 33 19 25 20 31 21 29 22
REMARK SMILES IDX 38 23 34 25 35 26 26 27 27 28 28 29 32 30 30 32 18 34 6 36
REMARK SMILES IDX 7 37 8 38 14 39 15 40 10 41 12 43
REMARK H PARENT 38 24 32 31 30 33 18 35 10 42 12 44
REMARK Flexibility Score: inf
ROOT
ATOM      1  C   UNL     1      24.718 -29.697  24.220  1.00  0.00     0.045 C 
ATOM      2  C   UNL     1      23.490 -30.347  23.630  1.00  0.00    -0.039 A 
ATOM      3  C   UNL     1      23.415 -31.739  23.566  1.00  0.00     0.013 A 
ATOM      4  C   UNL     1      22.297 -32.400  23.013  1.00  0.00    -0.006 A 
ATOM      5  C   UNL     1      21.163 -31.624  22.630  1.00  0.00     0.039 A 
ATOM      6  C   UNL     1      19.953 -32.296  22.282  1.00  0.00     0.072 A 
ATOM      7  C   UNL     1      19.899 -33.705  22.318  1.00  0.00     0.169 A 
ATOM      8  C   UNL     1      21.048 -34.455  22.594  1.00  0.00     0.162 A 
ATOM      9  C   UNL     1      22.279 -33.819  22.860  1.00  0.00     0.008 A 
ATOM     10  C   UNL     1      21.284 -30.202  22.599  1.00  0.00     0.132 A 
ATOM     11  C   UNL     1      22.438 -29.572  23.112  1.00  0.00     0.031 A 
ENDROOT
BRANCH  11  12
ATOM     12  C   UNL     1      22.541 -28.088  23.117  1.00  0.00     0.031 A 
ATOM     13  C   UNL     1      22.851 -27.395  21.926  1.00  0.00     0.132 A 
ATOM     14  C   UNL     1      22.364 -27.384  24.317  1.00  0.00    -0.039 A 
ATOM     15  C   UNL     1      22.969 -25.970  21.926  1.00  0.00     0.039 A 
ATOM     16  C   UNL     1      22.480 -25.993  24.322  1.00  0.00     0.013 A 
ATOM     17  C   UNL     1      22.085 -28.108  25.612  1.00  0.00     0.045 C 
ATOM     18  C   UNL     1      22.728 -25.258  23.141  1.00  0.00    -0.006 A 
ATOM     19  C   UNL     1      23.360 -25.236  20.764  1.00  0.00     0.072 A 
ATOM     20  C   UNL     1      22.779 -23.830  23.161  1.00  0.00     0.008 A 
ATOM     21  C   UNL     1      23.558 -23.843  20.846  1.00  0.00     0.169 A 
ATOM     22  C   UNL     1      23.306 -23.158  22.038  1.00  0.00     0.162 A 
BRANCH  13  23
ATOM     23  O   UNL     1      23.047 -28.123  20.748  1.00  0.00    -0.507 OA
ATOM     24  H   UNL     1      22.437 -28.864  20.430  1.00  0.00     0.293 HD
ENDBRANCH  13  23
BRANCH  19  25
ATOM     25  C   UNL     1      23.594 -25.895  19.464  1.00  0.00     0.264 C 
ATOM     26  O   UNL     1      23.275 -25.320  18.390  1.00  0.00    -0.298 OA
ENDBRANCH  19  25
BRANCH  20  27
ATOM     27  C   UNL     1      22.295 -23.017  24.377  1.00  0.00     0.017 C 
ATOM     28  C   UNL     1      23.479 -22.410  25.133  1.00  0.00     0.012 C 
ATOM     29  C   UNL     1      21.243 -21.946  24.030  1.00  0.00     0.012 C 
ENDBRANCH  20  27
BRANCH  21  30
ATOM     30  O   UNL     1      23.981 -23.096  19.740  1.00  0.00    -0.504 OA
ATOM     31  H   UNL     1      24.457 -22.207  19.803  1.00  0.00     0.293 HD
ENDBRANCH  21  30
BRANCH  22  32
ATOM     32  O   UNL     1      23.582 -21.790  22.111  1.00  0.00    -0.504 OA
ATOM     33  H   UNL     1      24.026 -21.357  22.910  1.00  0.00     0.293 HD
ENDBRANCH  22  32
ENDBRANCH  11  12
BRANCH  10  34
ATOM     34  O   UNL     1      20.272 -29.417  22.034  1.00  0.00    -0.507 OA
ATOM     35  H   UNL     1      20.218 -29.187  21.050  1.00  0.00     0.293 HD
ENDBRANCH  10  34
BRANCH   9  36
ATOM     36  C   UNL     1      23.560 -34.662  22.992  1.00  0.00     0.017 C 
ATOM     37  C   UNL     1      24.677 -34.104  22.104  1.00  0.00     0.012 C 
ATOM     38  C   UNL     1      24.039 -34.841  24.445  1.00  0.00     0.012 C 
ENDBRANCH   9  36
BRANCH   6  39
ATOM     39  C   UNL     1      18.711 -31.557  21.973  1.00  0.00     0.264 C 
ATOM     40  O   UNL     1      18.267 -31.513  20.796  1.00  0.00    -0.298 OA
ENDBRANCH   6  39
BRANCH   8  41
ATOM     41  O   UNL     1      20.961 -35.847  22.631  1.00  0.00    -0.504 OA
ATOM     42  H   UNL     1      21.758 -36.447  22.806  1.00  0.00     0.293 HD
ENDBRANCH   8  41
BRANCH   7  43
ATOM     43  O   UNL     1      18.700 -34.399  22.105  1.00  0.00    -0.504 OA
ATOM     44  H   UNL     1      17.826 -33.956  21.855  1.00  0.00     0.293 HD
ENDBRANCH   7  43
TORSDOF 11
ENDMDL
MODEL 5
REMARK VINA RESULT:    -6.686      9.843     12.309
REMARK INTER + INTRA:         -10.917
REMARK INTER:                  -9.474
REMARK INTRA:                  -1.443
REMARK UNBOUND:                -1.104
REMARK SMILES Cc1cc2c(C(C)C)c(O)c(O)c(C=O)c2c(O)c1-c1c(C)cc2c(C(C)C)c(O)c(O)c(C=O)c2c1O
REMARK SMILES IDX 1 1 2 2 3 3 4 4 16 5 13 6 11 7 9 8 5 9 17 10 19 11 20 12
REMARK SMILES IDX 37 13 21 14 36 15 23 16 22 17 24 18 33 19 25 20 31 21 29 22
REMARK SMILES IDX 38 23 34 25 35 26 26 27 27 28 28 29 32 30 30 32 18 34 6 36
REMARK SMILES IDX 7 37 8 38 14 39 15 40 10 41 12 43
REMARK H PARENT 38 24 32 31 30 33 18 35 10 42 12 44
REMARK Flexibility Score: inf
ROOT
ATOM      1  C   UNL     1      20.982 -24.637  28.520  1.00  0.00     0.045 C 
ATOM      2  C   UNL     1      22.415 -24.326  28.878  1.00  0.00    -0.039 A 
ATOM      3  C   UNL     1      22.712 -23.827  30.147  1.00  0.00     0.013 A 
ATOM      4  C   UNL     1      24.033 -23.506  30.531  1.00  0.00    -0.006 A 
ATOM      5  C   UNL     1      25.101 -23.826  29.641  1.00  0.00     0.039 A 
ATOM      6  C   UNL     1      26.445 -23.712  30.108  1.00  0.00     0.072 A 
ATOM      7  C   UNL     1      26.693 -23.288  31.430  1.00  0.00     0.169 A 
ATOM      8  C   UNL     1      25.641 -22.879  32.256  1.00  0.00     0.162 A 
ATOM      9  C   UNL     1      24.308 -22.900  31.793  1.00  0.00     0.008 A 
ATOM     10  C   UNL     1      24.786 -24.235  28.311  1.00  0.00     0.132 A 
ATOM     11  C   UNL     1      23.449 -24.497  27.942  1.00  0.00     0.031 A 
ENDROOT
BRANCH  11  12
ATOM     12  C   UNL     1      23.131 -24.966  26.566  1.00  0.00     0.031 A 
ATOM     13  C   UNL     1      23.135 -26.346  26.268  1.00  0.00     0.132 A 
ATOM     14  C   UNL     1      22.860 -24.028  25.558  1.00  0.00    -0.039 A 
ATOM     15  C   UNL     1      22.848 -26.804  24.945  1.00  0.00     0.039 A 
ATOM     16  C   UNL     1      22.580 -24.470  24.265  1.00  0.00     0.013 A 
ATOM     17  C   UNL     1      22.901 -22.545  25.842  1.00  0.00     0.045 C 
ATOM     18  C   UNL     1      22.515 -25.844  23.940  1.00  0.00    -0.006 A 
ATOM     19  C   UNL     1      22.920 -28.183  24.580  1.00  0.00     0.072 A 
ATOM     20  C   UNL     1      22.163 -26.271  22.623  1.00  0.00     0.008 A 
ATOM     21  C   UNL     1      22.725 -28.567  23.238  1.00  0.00     0.169 A 
ATOM     22  C   UNL     1      22.388 -27.619  22.269  1.00  0.00     0.162 A 
BRANCH  13  23
ATOM     23  O   UNL     1      23.433 -27.259  27.286  1.00  0.00    -0.507 OA
ATOM     24  H   UNL     1      24.139 -27.110  27.994  1.00  0.00     0.293 HD
ENDBRANCH  13  23
BRANCH  19  25
ATOM     25  C   UNL     1      23.225 -29.238  25.567  1.00  0.00     0.264 C 
ATOM     26  O   UNL     1      24.373 -29.755  25.616  1.00  0.00    -0.298 OA
ENDBRANCH  19  25
BRANCH  20  27
ATOM     27  C   UNL     1      21.571 -25.300  21.584  1.00  0.00     0.017 C 
ATOM     28  C   UNL     1      22.574 -25.022  20.463  1.00  0.00     0.012 C 
ATOM     29  C   UNL     1      20.210 -25.749  21.019  1.00  0.00     0.012 C 
ENDBRANCH  20  27
BRANCH  21  30
ATOM     30  O   UNL     1      22.830 -29.905  22.836  1.00  0.00    -0.504 OA
ATOM     31  H   UNL     1      23.203 -30.202  21.945  1.00  0.00     0.293 HD
ENDBRANCH  21  30
BRANCH  22  32
ATOM     32  O   UNL     1      22.273 -28.017  20.934  1.00  0.00    -0.504 OA
ATOM     33  H   UNL     1      21.443 -27.854  20.379  1.00  0.00     0.293 HD
ENDBRANCH  22  32
ENDBRANCH  11  12
BRANCH  10  34
ATOM     34  O   UNL     1      25.796 -24.355  27.348  1.00  0.00    -0.507 OA
ATOM     35  H   UNL     1      26.735 -23.997  27.467  1.00  0.00     0.293 HD
ENDBRANCH  10  34
BRANCH   9  36
ATOM     36  C   UNL     1      23.191 -22.288  32.657  1.00  0.00     0.017 C 
ATOM     37  C   UNL     1      22.881 -23.180  33.864  1.00  0.00     0.012 C 
ATOM     38  C   UNL     1      23.464 -20.836  33.091  1.00  0.00     0.012 C 
ENDBRANCH   9  36
BRANCH   6  39
ATOM     39  C   UNL     1      27.597 -24.121  29.278  1.00  0.00     0.264 C 
ATOM     40  O   UNL     1      28.406 -23.263  28.836  1.00  0.00    -0.298 OA
ENDBRANCH   6  39
BRANCH   8  41
ATOM     41  O   UNL     1      25.918 -22.472  33.563  1.00  0.00    -0.504 OA
ATOM     42  H   UNL     1      26.679 -22.854  34.111  1.00  0.00     0.293 HD
ENDBRANCH   8  41
BRANCH   7  43
ATOM     43  O   UNL     1      27.988 -23.282  31.968  1.00  0.00    -0.504 OA
ATOM     44  H   UNL     1      28.676 -22.565  31.780  1.00  0.00     0.293 HD
ENDBRANCH   7  43
TORSDOF 11
ENDMDL
MODEL 6
REMARK VINA RESULT:    -6.686     11.928     14.541
REMARK INTER + INTRA:         -10.916
REMARK INTER:                  -9.584
REMARK INTRA:                  -1.332
REMARK UNBOUND:                -1.104
REMARK SMILES Cc1cc2c(C(C)C)c(O)c(O)c(C=O)c2c(O)c1-c1c(C)cc2c(C(C)C)c(O)c(O)c(C=O)c2c1O
REMARK SMILES IDX 1 1 2 2 3 3 4 4 16 5 13 6 11 7 9 8 5 9 17 10 19 11 20 12
REMARK SMILES IDX 37 13 21 14 36 15 23 16 22 17 24 18 33 19 25 20 31 21 29 22
REMARK SMILES IDX 38 23 34 25 35 26 26 27 27 28 28 29 32 30 30 32 18 34 6 36
REMARK SMILES IDX 7 37 8 38 14 39 15 40 10 41 12 43
REMARK H PARENT 38 24 32 31 30 33 18 35 10 42 12 44
REMARK Flexibility Score: inf
ROOT
ATOM      1  C   UNL     1      24.452 -25.132  29.490  1.00  0.00     0.045 C 
ATOM      2  C   UNL     1      23.560 -24.107  30.146  1.00  0.00    -0.039 A 
ATOM      3  C   UNL     1      23.592 -23.957  31.533  1.00  0.00     0.013 A 
ATOM      4  C   UNL     1      22.769 -23.023  32.200  1.00  0.00    -0.006 A 
ATOM      5  C   UNL     1      21.983 -22.123  31.421  1.00  0.00     0.039 A 
ATOM      6  C   UNL     1      21.326 -21.038  32.074  1.00  0.00     0.072 A 
ATOM      7  C   UNL     1      21.461 -20.875  33.469  1.00  0.00     0.169 A 
ATOM      8  C   UNL     1      22.148 -21.824  34.233  1.00  0.00     0.162 A 
ATOM      9  C   UNL     1      22.737 -22.953  33.625  1.00  0.00     0.008 A 
ATOM     10  C   UNL     1      21.873 -22.349  30.016  1.00  0.00     0.132 A 
ATOM     11  C   UNL     1      22.672 -23.327  29.385  1.00  0.00     0.031 A 
ENDROOT
BRANCH  11  12
ATOM     12  C   UNL     1      22.585 -23.529  27.914  1.00  0.00     0.031 A 
ATOM     13  C   UNL     1      23.417 -22.789  27.046  1.00  0.00     0.132 A 
ATOM     14  C   UNL     1      21.648 -24.433  27.391  1.00  0.00    -0.039 A 
ATOM     15  C   UNL     1      23.327 -22.964  25.630  1.00  0.00     0.039 A 
ATOM     16  C   UNL     1      21.556 -24.607  26.010  1.00  0.00     0.013 A 
ATOM     17  C   UNL     1      20.712 -25.197  28.297  1.00  0.00     0.045 C 
ATOM     18  C   UNL     1      22.412 -23.931  25.111  1.00  0.00    -0.006 A 
ATOM     19  C   UNL     1      24.091 -22.179  24.713  1.00  0.00     0.072 A 
ATOM     20  C   UNL     1      22.340 -24.173  23.705  1.00  0.00     0.008 A 
ATOM     21  C   UNL     1      23.890 -22.324  23.325  1.00  0.00     0.169 A 
ATOM     22  C   UNL     1      23.000 -23.282  22.832  1.00  0.00     0.162 A 
BRANCH  13  23
ATOM     23  O   UNL     1      24.325 -21.875  27.592  1.00  0.00    -0.507 OA
ATOM     24  H   UNL     1      24.214 -20.871  27.551  1.00  0.00     0.293 HD
ENDBRANCH  13  23
BRANCH  19  25
ATOM     25  C   UNL     1      25.081 -21.184  25.170  1.00  0.00     0.264 C 
ATOM     26  O   UNL     1      24.808 -19.955  25.150  1.00  0.00    -0.298 OA
ENDBRANCH  19  25
BRANCH  20  27
ATOM     27  C   UNL     1      21.550 -25.362  23.125  1.00  0.00     0.017 C 
ATOM     28  C   UNL     1      20.307 -24.877  22.376  1.00  0.00     0.012 C 
ATOM     29  C   UNL     1      22.399 -26.305  22.250  1.00  0.00     0.012 C 
ENDBRANCH  20  27
BRANCH  21  30
ATOM     30  O   UNL     1      24.589 -21.542  22.398  1.00  0.00    -0.504 OA
ATOM     31  H   UNL     1      24.169 -21.114  21.584  1.00  0.00     0.293 HD
ENDBRANCH  21  30
BRANCH  22  32
ATOM     32  O   UNL     1      22.766 -23.353  21.456  1.00  0.00    -0.504 OA
ATOM     33  H   UNL     1      22.014 -23.895  21.051  1.00  0.00     0.293 HD
ENDBRANCH  22  32
ENDBRANCH  11  12
BRANCH  10  34
ATOM     34  O   UNL     1      20.952 -21.622  29.251  1.00  0.00    -0.507 OA
ATOM     35  H   UNL     1      19.949 -21.727  29.326  1.00  0.00     0.293 HD
ENDBRANCH  10  34
BRANCH   9  36
ATOM     36  C   UNL     1      23.339 -24.065  34.503  1.00  0.00     0.017 C 
ATOM     37  C   UNL     1      24.760 -23.703  34.947  1.00  0.00     0.012 C 
ATOM     38  C   UNL     1      22.460 -24.453  35.706  1.00  0.00     0.012 C 
ENDBRANCH   9  36
BRANCH   6  39
ATOM     39  C   UNL     1      20.578 -20.010  31.320  1.00  0.00     0.264 C 
ATOM     40  O   UNL     1      19.332 -19.896  31.454  1.00  0.00    -0.298 OA
ENDBRANCH   6  39
BRANCH   8  41
ATOM     41  O   UNL     1      22.271 -21.631  35.610  1.00  0.00    -0.504 OA
ATOM     42  H   UNL     1      22.704 -22.308  36.227  1.00  0.00     0.293 HD
ENDBRANCH   8  41
BRANCH   7  43
ATOM     43  O   UNL     1      20.937 -19.757  34.131  1.00  0.00    -0.504 OA
ATOM     44  H   UNL     1      21.447 -19.211  34.814  1.00  0.00     0.293 HD
ENDBRANCH   7  43
TORSDOF 11
ENDMDL
MODEL 7
REMARK VINA RESULT:    -6.676      9.756     12.962
REMARK INTER + INTRA:         -10.902
REMARK INTER:                  -9.521
REMARK INTRA:                  -1.381
REMARK UNBOUND:                -1.104
REMARK SMILES Cc1cc2c(C(C)C)c(O)c(O)c(C=O)c2c(O)c1-c1c(C)cc2c(C(C)C)c(O)c(O)c(C=O)c2c1O
REMARK SMILES IDX 1 1 2 2 3 3 4 4 16 5 13 6 11 7 9 8 5 9 17 10 19 11 20 12
REMARK SMILES IDX 37 13 21 14 36 15 23 16 22 17 24 18 33 19 25 20 31 21 29 22
REMARK SMILES IDX 38 23 34 25 35 26 26 27 27 28 28 29 32 30 30 32 18 34 6 36
REMARK SMILES IDX 7 37 8 38 14 39 15 40 10 41 12 43
REMARK H PARENT 38 24 32 31 30 33 18 35 10 42 12 44
REMARK Flexibility Score: inf
ROOT
ATOM      1  C   UNL     1      23.114 -22.624  25.725  1.00  0.00     0.045 C 
ATOM      2  C   UNL     1      23.008 -24.110  25.479  1.00  0.00    -0.039 A 
ATOM      3  C   UNL     1      22.673 -24.571  24.206  1.00  0.00     0.013 A 
ATOM      4  C   UNL     1      22.547 -25.950  23.922  1.00  0.00    -0.006 A 
ATOM      5  C   UNL     1      22.900 -26.891  24.934  1.00  0.00     0.039 A 
ATOM      6  C   UNL     1      22.989 -28.273  24.588  1.00  0.00     0.072 A 
ATOM      7  C   UNL     1      22.728 -28.682  23.264  1.00  0.00     0.169 A 
ATOM      8  C   UNL     1      22.281 -27.761  22.309  1.00  0.00     0.162 A 
ATOM      9  C   UNL     1      22.102 -26.403  22.644  1.00  0.00     0.008 A 
ATOM     10  C   UNL     1      23.139 -26.418  26.259  1.00  0.00     0.132 A 
ATOM     11  C   UNL     1      23.206 -25.032  26.521  1.00  0.00     0.031 A 
ENDROOT
BRANCH  11  12
ATOM     12  C   UNL     1      23.498 -24.544  27.895  1.00  0.00     0.031 A 
ATOM     13  C   UNL     1      24.834 -24.338  28.306  1.00  0.00     0.132 A 
ATOM     14  C   UNL     1      22.442 -24.324  28.793  1.00  0.00    -0.039 A 
ATOM     15  C   UNL     1      25.124 -23.886  29.631  1.00  0.00     0.039 A 
ATOM     16  C   UNL     1      22.721 -23.884  30.087  1.00  0.00     0.013 A 
ATOM     17  C   UNL     1      21.011 -24.588  28.392  1.00  0.00     0.045 C 
ATOM     18  C   UNL     1      24.038 -23.607  30.517  1.00  0.00    -0.006 A 
ATOM     19  C   UNL     1      26.460 -23.741  30.114  1.00  0.00     0.072 A 
ATOM     20  C   UNL     1      24.292 -23.096  31.827  1.00  0.00     0.008 A 
ATOM     21  C   UNL     1      26.688 -23.389  31.459  1.00  0.00     0.169 A 
ATOM     22  C   UNL     1      25.617 -23.107  32.311  1.00  0.00     0.162 A 
BRANCH  13  23
ATOM     23  O   UNL     1      25.869 -24.589  27.399  1.00  0.00    -0.507 OA
ATOM     24  H   UNL     1      26.751 -25.017  27.649  1.00  0.00     0.293 HD
ENDBRANCH  13  23
BRANCH  19  25
ATOM     25  C   UNL     1      27.634 -23.978  29.250  1.00  0.00     0.264 C 
ATOM     26  O   UNL     1      28.297 -23.009  28.793  1.00  0.00    -0.298 OA
ENDBRANCH  19  25
BRANCH  20  27
ATOM     27  C   UNL     1      23.159 -22.560  32.723  1.00  0.00     0.017 C 
ATOM     28  C   UNL     1      22.883 -23.516  33.886  1.00  0.00     0.012 C 
ATOM     29  C   UNL     1      23.392 -21.121  33.225  1.00  0.00     0.012 C 
ENDBRANCH  20  27
BRANCH  21  30
ATOM     30  O   UNL     1      27.984 -23.279  31.979  1.00  0.00    -0.504 OA
ATOM     31  H   UNL     1      28.247 -22.645  32.720  1.00  0.00     0.293 HD
ENDBRANCH  21  30
BRANCH  22  32
ATOM     32  O   UNL     1      25.870 -22.832  33.658  1.00  0.00    -0.504 OA
ATOM     33  H   UNL     1      25.736 -23.512  34.396  1.00  0.00     0.293 HD
ENDBRANCH  22  32
ENDBRANCH  11  12
BRANCH  10  34
ATOM     34  O   UNL     1      23.280 -27.321  27.319  1.00  0.00    -0.507 OA
ATOM     35  H   UNL     1      22.748 -27.272  28.179  1.00  0.00     0.293 HD
ENDBRANCH  10  34
BRANCH   9  36
ATOM     36  C   UNL     1      21.452 -25.446  21.629  1.00  0.00     0.017 C 
ATOM     37  C   UNL     1      22.417 -25.128  20.481  1.00  0.00     0.012 C 
ATOM     38  C   UNL     1      20.092 -25.935  21.096  1.00  0.00     0.012 C 
ENDBRANCH   9  36
BRANCH   6  39
ATOM     39  C   UNL     1      23.446 -29.292  25.556  1.00  0.00     0.264 C 
ATOM     40  O   UNL     1      22.640 -30.139  26.024  1.00  0.00    -0.298 OA
ENDBRANCH   6  39
BRANCH   8  41
ATOM     41  O   UNL     1      22.038 -28.195  21.005  1.00  0.00    -0.504 OA
ATOM     42  H   UNL     1      22.699 -28.068  20.248  1.00  0.00     0.293 HD
ENDBRANCH   8  41
BRANCH   7  43
ATOM     43  O   UNL     1      22.924 -30.007  22.853  1.00  0.00    -0.504 OA
ATOM     44  H   UNL     1      22.815 -30.811  23.458  1.00  0.00     0.293 HD
ENDBRANCH   7  43
TORSDOF 11
ENDMDL
MODEL 8
REMARK VINA RESULT:    -6.598     11.340     14.686
REMARK INTER + INTRA:         -10.787
REMARK INTER:                  -9.471
REMARK INTRA:                  -1.316
REMARK UNBOUND:                -1.104
REMARK SMILES Cc1cc2c(C(C)C)c(O)c(O)c(C=O)c2c(O)c1-c1c(C)cc2c(C(C)C)c(O)c(O)c(C=O)c2c1O
REMARK SMILES IDX 1 1 2 2 3 3 4 4 16 5 13 6 11 7 9 8 5 9 17 10 19 11 20 12
REMARK SMILES IDX 37 13 21 14 36 15 23 16 22 17 24 18 33 19 25 20 31 21 29 22
REMARK SMILES IDX 38 23 34 25 35 26 26 27 27 28 28 29 32 30 30 32 18 34 6 36
REMARK SMILES IDX 7 37 8 38 14 39 15 40 10 41 12 43
REMARK H PARENT 38 24 32 31 30 33 18 35 10 42 12 44
REMARK Flexibility Score: inf
ROOT
ATOM      1  C   UNL     1      22.122 -20.663  28.335  1.00  0.00     0.045 C 
ATOM      2  C   UNL     1      22.151 -21.942  27.535  1.00  0.00    -0.039 A 
ATOM      3  C   UNL     1      21.830 -21.909  26.177  1.00  0.00     0.013 A 
ATOM      4  C   UNL     1      21.828 -23.077  25.383  1.00  0.00    -0.006 A 
ATOM      5  C   UNL     1      22.293 -24.296  25.959  1.00  0.00     0.039 A 
ATOM      6  C   UNL     1      22.504 -25.423  25.109  1.00  0.00     0.072 A 
ATOM      7  C   UNL     1      22.251 -25.315  23.725  1.00  0.00     0.169 A 
ATOM      8  C   UNL     1      21.697 -24.145  23.193  1.00  0.00     0.162 A 
ATOM      9  C   UNL     1      21.398 -23.044  24.022  1.00  0.00     0.008 A 
ATOM     10  C   UNL     1      22.518 -24.348  27.367  1.00  0.00     0.132 A 
ATOM     11  C   UNL     1      22.460 -23.170  28.143  1.00  0.00     0.031 A 
ENDROOT
BRANCH  11  12
ATOM     12  C   UNL     1      22.738 -23.222  29.604  1.00  0.00     0.031 A 
ATOM     13  C   UNL     1      24.058 -23.069  30.081  1.00  0.00     0.132 A 
ATOM     14  C   UNL     1      21.687 -23.460  30.502  1.00  0.00    -0.039 A 
ATOM     15  C   UNL     1      24.336 -23.136  31.482  1.00  0.00     0.039 A 
ATOM     16  C   UNL     1      21.953 -23.528  31.870  1.00  0.00     0.013 A 
ATOM     17  C   UNL     1      20.276 -23.680  30.011  1.00  0.00     0.045 C 
ATOM     18  C   UNL     1      23.250 -23.318  32.392  1.00  0.00    -0.006 A 
ATOM     19  C   UNL     1      25.665 -23.066  32.002  1.00  0.00     0.072 A 
ATOM     20  C   UNL     1      23.485 -23.329  33.801  1.00  0.00     0.008 A 
ATOM     21  C   UNL     1      25.890 -23.238  33.382  1.00  0.00     0.169 A 
ATOM     22  C   UNL     1      24.817 -23.404  34.262  1.00  0.00     0.162 A 
BRANCH  13  23
ATOM     23  O   UNL     1      25.092 -22.858  29.162  1.00  0.00    -0.507 OA
ATOM     24  H   UNL     1      25.653 -22.018  29.122  1.00  0.00     0.293 HD
ENDBRANCH  13  23
BRANCH  19  25
ATOM     25  C   UNL     1      26.835 -22.845  31.130  1.00  0.00     0.264 C 
ATOM     26  O   UNL     1      27.560 -23.813  30.775  1.00  0.00    -0.298 OA
ENDBRANCH  19  25
BRANCH  20  27
ATOM     27  C   UNL     1      22.329 -23.282  34.818  1.00  0.00     0.017 C 
ATOM     28  C   UNL     1      22.343 -24.522  35.716  1.00  0.00     0.012 C 
ATOM     29  C   UNL     1      22.286 -21.987  35.652  1.00  0.00     0.012 C 
ENDBRANCH  20  27
BRANCH  21  30
ATOM     30  O   UNL     1      27.182 -23.219  33.922  1.00  0.00    -0.504 OA
ATOM     31  H   UNL     1      27.916 -22.594  33.617  1.00  0.00     0.293 HD
ENDBRANCH  21  30
BRANCH  22  32
ATOM     32  O   UNL     1      25.074 -23.645  35.615  1.00  0.00    -0.504 OA
ATOM     33  H   UNL     1      25.643 -23.034  36.187  1.00  0.00     0.293 HD
ENDBRANCH  22  32
ENDBRANCH  11  12
BRANCH  10  34
ATOM     34  O   UNL     1      22.770 -25.571  28.000  1.00  0.00    -0.507 OA
ATOM     35  H   UNL     1      22.119 -26.346  28.012  1.00  0.00     0.293 HD
ENDBRANCH  10  34
BRANCH   9  36
ATOM     36  C   UNL     1      20.637 -21.838  23.445  1.00  0.00     0.017 C 
ATOM     37  C   UNL     1      19.287 -21.655  24.147  1.00  0.00     0.012 C 
ATOM     38  C   UNL     1      21.449 -20.529  23.448  1.00  0.00     0.012 C 
ENDBRANCH   9  36
BRANCH   6  39
ATOM     39  C   UNL     1      23.078 -26.686  25.617  1.00  0.00     0.264 C 
ATOM     40  O   UNL     1      22.354 -27.705  25.770  1.00  0.00    -0.298 OA
ENDBRANCH   6  39
BRANCH   8  41
ATOM     41  O   UNL     1      21.465 -24.065  21.819  1.00  0.00    -0.504 OA
ATOM     42  H   UNL     1      20.774 -23.448  21.409  1.00  0.00     0.293 HD
ENDBRANCH   8  41
BRANCH   7  43
ATOM     43  O   UNL     1      22.562 -26.354  22.839  1.00  0.00    -0.504 OA
ATOM     44  H   UNL     1      22.127 -27.267  22.860  1.00  0.00     0.293 HD
ENDBRANCH   7  43
TORSDOF 11
ENDMDL
MODEL 9
REMARK VINA RESULT:    -6.568      3.501      8.422
REMARK INTER + INTRA:         -10.744
REMARK INTER:                  -9.365
REMARK INTRA:                  -1.379
REMARK UNBOUND:                -1.104
REMARK SMILES Cc1cc2c(C(C)C)c(O)c(O)c(C=O)c2c(O)c1-c1c(C)cc2c(C(C)C)c(O)c(O)c(C=O)c2c1O
REMARK SMILES IDX 1 1 2 2 3 3 4 4 16 5 13 6 11 7 9 8 5 9 17 10 19 11 20 12
REMARK SMILES IDX 37 13 21 14 36 15 23 16 22 17 24 18 33 19 25 20 31 21 29 22
REMARK SMILES IDX 38 23 34 25 35 26 26 27 27 28 28 29 32 30 30 32 18 34 6 36
REMARK SMILES IDX 7 37 8 38 14 39 15 40 10 41 12 43
REMARK H PARENT 38 24 32 31 30 33 18 35 10 42 12 44
REMARK Flexibility Score: inf
ROOT
ATOM      1  C   UNL     1      20.940 -30.552  21.917  1.00  0.00     0.045 C 
ATOM      2  C   UNL     1      20.583 -31.983  22.238  1.00  0.00    -0.039 A 
ATOM      3  C   UNL     1      19.597 -32.628  21.490  1.00  0.00     0.013 A 
ATOM      4  C   UNL     1      19.213 -33.961  21.754  1.00  0.00    -0.006 A 
ATOM      5  C   UNL     1      19.947 -34.704  22.727  1.00  0.00     0.039 A 
ATOM      6  C   UNL     1      19.714 -36.107  22.841  1.00  0.00     0.072 A 
ATOM      7  C   UNL     1      18.770 -36.732  21.999  1.00  0.00     0.169 A 
ATOM      8  C   UNL     1      17.985 -35.973  21.124  1.00  0.00     0.162 A 
ATOM      9  C   UNL     1      18.133 -34.572  21.050  1.00  0.00     0.008 A 
ATOM     10  C   UNL     1      20.878 -34.013  23.558  1.00  0.00     0.132 A 
ATOM     11  C   UNL     1      21.201 -32.664  23.301  1.00  0.00     0.031 A 
ENDROOT
BRANCH  11  12
ATOM     12  C   UNL     1      22.205 -31.961  24.144  1.00  0.00     0.031 A 
ATOM     13  C   UNL     1      23.579 -32.048  23.833  1.00  0.00     0.132 A 
ATOM     14  C   UNL     1      21.782 -31.239  25.271  1.00  0.00    -0.039 A 
ATOM     15  C   UNL     1      24.552 -31.390  24.649  1.00  0.00     0.039 A 
ATOM     16  C   UNL     1      22.727 -30.597  26.071  1.00  0.00     0.013 A 
ATOM     17  C   UNL     1      20.322 -31.175  25.653  1.00  0.00     0.045 C 
ATOM     18  C   UNL     1      24.106 -30.609  25.759  1.00  0.00    -0.006 A 
ATOM     19  C   UNL     1      25.956 -31.518  24.418  1.00  0.00     0.072 A 
ATOM     20  C   UNL     1      25.046 -29.890  26.558  1.00  0.00     0.008 A 
ATOM     21  C   UNL     1      26.872 -30.930  25.313  1.00  0.00     0.169 A 
ATOM     22  C   UNL     1      26.421 -30.159  26.388  1.00  0.00     0.162 A 
BRANCH  13  23
ATOM     23  O   UNL     1      23.977 -32.795  22.718  1.00  0.00    -0.507 OA
ATOM     24  H   UNL     1      24.426 -32.401  21.902  1.00  0.00     0.293 HD
ENDBRANCH  13  23
BRANCH  19  25
ATOM     25  C   UNL     1      26.495 -32.280  23.274  1.00  0.00     0.264 C 
ATOM     26  O   UNL     1      26.982 -33.429  23.444  1.00  0.00    -0.298 OA
ENDBRANCH  19  25
BRANCH  20  27
ATOM     27  C   UNL     1      24.598 -28.854  27.606  1.00  0.00     0.017 C 
ATOM     28  C   UNL     1      24.977 -29.307  29.018  1.00  0.00     0.012 C 
ATOM     29  C   UNL     1      25.100 -27.425  27.322  1.00  0.00     0.012 C 
ENDBRANCH  20  27
BRANCH  21  30
ATOM     30  O   UNL     1      28.255 -31.070  25.143  1.00  0.00    -0.504 OA
ATOM     31  H   UNL     1      28.942 -30.432  25.521  1.00  0.00     0.293 HD
ENDBRANCH  21  30
BRANCH  22  32
ATOM     32  O   UNL     1      27.349 -29.649  27.300  1.00  0.00    -0.504 OA
ATOM     33  H   UNL     1      27.250 -28.745  27.742  1.00  0.00     0.293 HD
ENDBRANCH  22  32
ENDBRANCH  11  12
BRANCH  10  34
ATOM     34  O   UNL     1      21.460 -34.658  24.657  1.00  0.00    -0.507 OA
ATOM     35  H   UNL     1      20.946 -35.230  25.314  1.00  0.00     0.293 HD
ENDBRANCH  10  34
BRANCH   9  36
ATOM     36  C   UNL     1      17.146 -33.744  20.208  1.00  0.00     0.017 C 
ATOM     37  C   UNL     1      17.370 -33.982  18.710  1.00  0.00     0.012 C 
ATOM     38  C   UNL     1      15.670 -33.956  20.592  1.00  0.00     0.012 C 
ENDBRANCH   9  36
BRANCH   6  39
ATOM     39  C   UNL     1      20.506 -36.958  23.753  1.00  0.00     0.264 C 
ATOM     40  O   UNL     1      21.516 -37.582  23.334  1.00  0.00    -0.298 OA
ENDBRANCH   6  39
BRANCH   8  41
ATOM     41  O   UNL     1      17.064 -36.621  20.298  1.00  0.00    -0.504 OA
ATOM     42  H   UNL     1      16.146 -36.910  20.613  1.00  0.00     0.293 HD
ENDBRANCH   8  41
BRANCH   7  43
ATOM     43  O   UNL     1      18.600 -38.123  21.991  1.00  0.00    -0.504 OA
ATOM     44  H   UNL     1      18.371 -38.670  22.810  1.00  0.00     0.293 HD
ENDBRANCH   7  43
TORSDOF 11
ENDMDL
