MODEL 1
REMARK VINA RESULT:    -4.915      0.000      0.000
REMARK INTER + INTRA:          -5.659
REMARK INTER:                  -5.634
REMARK INTRA:                  -0.026
REMARK UNBOUND:                -0.026
REMARK SMILES COc1cc(C=O)ccc1O
REMARK SMILES IDX 3 1 10 2 9 3 8 4 5 5 4 6 2 7 1 8 11 9 6 11 7 12
REMARK H PARENT 11 10
REMARK Flexibility Score: inf
ROOT
ATOM      1  C   UNL     1     -11.112   4.993 -11.740  1.00  0.00     0.161 A 
ATOM      2  C   UNL     1     -12.060   4.321 -12.524  1.00  0.00     0.157 A 
ATOM      3  C   UNL     1     -12.279   4.711 -13.851  1.00  0.00     0.051 A 
ATOM      4  C   UNL     1     -11.555   5.769 -14.404  1.00  0.00     0.015 A 
ATOM      5  C   UNL     1     -10.600   6.452 -13.632  1.00  0.00     0.018 A 
ATOM      6  C   UNL     1     -10.382   6.060 -12.302  1.00  0.00     0.062 A 
ENDROOT
BRANCH   1   7
ATOM      7  O   UNL     1     -10.922   4.573 -10.413  1.00  0.00    -0.493 OA
ATOM      8  C   UNL     1     -11.694   5.024  -9.306  1.00  0.00     0.278 C 
ENDBRANCH   1   7
BRANCH   2   9
ATOM      9  O   UNL     1     -12.786   3.265 -11.973  1.00  0.00    -0.504 OA
ATOM     10  H   UNL     1     -13.024   2.444 -12.518  1.00  0.00     0.293 HD
ENDBRANCH   2   9
BRANCH   5  11
ATOM     11  C   UNL     1      -9.825   7.571 -14.199  1.00  0.00     0.260 C 
ATOM     12  O   UNL     1      -9.072   7.404 -15.194  1.00  0.00    -0.298 OA
ENDBRANCH   5  11
TORSDOF 3
ENDMDL
MODEL 2
REMARK VINA RESULT:    -4.908      1.424      4.102
REMARK INTER + INTRA:          -5.651
REMARK INTER:                  -5.591
REMARK INTRA:                  -0.059
REMARK UNBOUND:                -0.026
REMARK SMILES COc1cc(C=O)ccc1O
REMARK SMILES IDX 3 1 10 2 9 3 8 4 5 5 4 6 2 7 1 8 11 9 6 11 7 12
REMARK H PARENT 11 10
REMARK Flexibility Score: inf
ROOT
ATOM      1  C   UNL     1     -11.069   6.267 -13.674  1.00  0.00     0.161 A 
ATOM      2  C   UNL     1     -12.020   5.502 -14.362  1.00  0.00     0.157 A 
ATOM      3  C   UNL     1     -12.582   4.370 -13.759  1.00  0.00     0.051 A 
ATOM      4  C   UNL     1     -12.200   3.995 -12.469  1.00  0.00     0.015 A 
ATOM      5  C   UNL     1     -11.248   4.751 -11.766  1.00  0.00     0.018 A 
ATOM      6  C   UNL     1     -10.685   5.885 -12.372  1.00  0.00     0.062 A 
ENDROOT
BRANCH   1   7
ATOM      7  O   UNL     1     -10.527   7.395 -14.313  1.00  0.00    -0.493 OA
ATOM      8  C   UNL     1      -9.325   7.391 -15.074  1.00  0.00     0.278 C 
ENDBRANCH   1   7
BRANCH   2   9
ATOM      9  O   UNL     1     -12.403   5.874 -15.651  1.00  0.00    -0.504 OA
ATOM     10  H   UNL     1     -11.764   6.350 -16.277  1.00  0.00     0.293 HD
ENDBRANCH   2   9
BRANCH   5  11
ATOM     11  C   UNL     1     -10.831   4.371 -10.403  1.00  0.00     0.260 C 
ATOM     12  O   UNL     1     -11.488   4.742  -9.395  1.00  0.00    -0.298 OA
ENDBRANCH   5  11
TORSDOF 3
ENDMDL
MODEL 3
REMARK VINA RESULT:    -4.708      1.739      2.900
REMARK INTER + INTRA:          -5.422
REMARK INTER:                  -5.365
REMARK INTRA:                  -0.057
REMARK UNBOUND:                -0.026
REMARK SMILES COc1cc(C=O)ccc1O
REMARK SMILES IDX 3 1 10 2 9 3 8 4 5 5 4 6 2 7 1 8 11 9 6 11 7 12
REMARK H PARENT 11 10
REMARK Flexibility Score: inf
ROOT
ATOM      1  C   UNL     1     -11.181   5.161 -11.404  1.00  0.00     0.161 A 
ATOM      2  C   UNL     1     -10.483   6.334 -11.725  1.00  0.00     0.157 A 
ATOM      3  C   UNL     1     -10.553   6.862 -13.020  1.00  0.00     0.051 A 
ATOM      4  C   UNL     1     -11.318   6.227 -14.000  1.00  0.00     0.015 A 
ATOM      5  C   UNL     1     -12.024   5.051 -13.695  1.00  0.00     0.018 A 
ATOM      6  C   UNL     1     -11.952   4.523 -12.397  1.00  0.00     0.062 A 
ENDROOT
BRANCH   1   7
ATOM      7  O   UNL     1     -11.085   4.662 -10.095  1.00  0.00    -0.493 OA
ATOM      8  C   UNL     1     -11.989   4.979  -9.042  1.00  0.00     0.278 C 
ENDBRANCH   1   7
BRANCH   2   9
ATOM      9  O   UNL     1      -9.718   6.969 -10.748  1.00  0.00    -0.504 OA
ATOM     10  H   UNL     1     -10.002   7.855 -10.344  1.00  0.00     0.293 HD
ENDBRANCH   2   9
BRANCH   5  11
ATOM     11  C   UNL     1     -12.837   4.366 -14.717  1.00  0.00     0.260 C 
ATOM     12  O   UNL     1     -12.309   3.893 -15.758  1.00  0.00    -0.298 OA
ENDBRANCH   5  11
TORSDOF 3
ENDMDL
MODEL 4
REMARK VINA RESULT:    -4.651      1.963      2.604
REMARK INTER + INTRA:          -5.357
REMARK INTER:                  -5.304
REMARK INTRA:                  -0.053
REMARK UNBOUND:                -0.026
REMARK SMILES COc1cc(C=O)ccc1O
REMARK SMILES IDX 3 1 10 2 9 3 8 4 5 5 4 6 2 7 1 8 11 9 6 11 7 12
REMARK H PARENT 11 10
REMARK Flexibility Score: inf
ROOT
ATOM      1  C   UNL     1     -10.632   5.792 -11.644  1.00  0.00     0.161 A 
ATOM      2  C   UNL     1     -10.948   4.490 -11.232  1.00  0.00     0.157 A 
ATOM      3  C   UNL     1     -11.715   3.659 -12.057  1.00  0.00     0.051 A 
ATOM      4  C   UNL     1     -12.170   4.118 -13.294  1.00  0.00     0.015 A 
ATOM      5  C   UNL     1     -11.862   5.419 -13.723  1.00  0.00     0.018 A 
ATOM      6  C   UNL     1     -11.093   6.252 -12.895  1.00  0.00     0.062 A 
ENDROOT
BRANCH   1   7
ATOM      7  O   UNL     1      -9.861   6.597 -10.789  1.00  0.00    -0.493 OA
ATOM      8  C   UNL     1      -9.800   8.017 -10.856  1.00  0.00     0.278 C 
ENDBRANCH   1   7
BRANCH   2   9
ATOM      9  O   UNL     1     -10.495   4.030  -9.996  1.00  0.00    -0.504 OA
ATOM     10  H   UNL     1      -9.523   4.115  -9.723  1.00  0.00     0.293 HD
ENDBRANCH   2   9
BRANCH   5  11
ATOM     11  C   UNL     1     -12.334   5.922 -15.026  1.00  0.00     0.260 C 
ATOM     12  O   UNL     1     -13.312   6.711 -15.104  1.00  0.00    -0.298 OA
ENDBRANCH   5  11
TORSDOF 3
ENDMDL
MODEL 5
REMARK VINA RESULT:    -4.635      1.200      2.883
REMARK INTER + INTRA:          -5.338
REMARK INTER:                  -5.264
REMARK INTRA:                  -0.074
REMARK UNBOUND:                -0.026
REMARK SMILES COc1cc(C=O)ccc1O
REMARK SMILES IDX 3 1 10 2 9 3 8 4 5 5 4 6 2 7 1 8 11 9 6 11 7 12
REMARK H PARENT 11 10
REMARK Flexibility Score: inf
ROOT
ATOM      1  C   UNL     1     -12.046   5.002 -13.694  1.00  0.00     0.161 A 
ATOM      2  C   UNL     1     -11.733   4.403 -12.467  1.00  0.00     0.157 A 
ATOM      3  C   UNL     1     -10.792   4.994 -11.616  1.00  0.00     0.051 A 
ATOM      4  C   UNL     1     -10.159   6.183 -11.982  1.00  0.00     0.015 A 
ATOM      5  C   UNL     1     -10.461   6.797 -13.208  1.00  0.00     0.018 A 
ATOM      6  C   UNL     1     -11.405   6.203 -14.061  1.00  0.00     0.062 A 
ENDROOT
BRANCH   1   7
ATOM      7  O   UNL     1     -12.995   4.378 -14.521  1.00  0.00    -0.493 OA
ATOM      8  C   UNL     1     -12.683   3.676 -15.719  1.00  0.00     0.278 C 
ENDBRANCH   1   7
BRANCH   2   9
ATOM      9  O   UNL     1     -12.364   3.214 -12.099  1.00  0.00    -0.504 OA
ATOM     10  H   UNL     1     -11.981   2.311 -12.352  1.00  0.00     0.293 HD
ENDBRANCH   2   9
BRANCH   5  11
ATOM     11  C   UNL     1      -9.803   8.053 -13.612  1.00  0.00     0.260 C 
ATOM     12  O   UNL     1      -9.403   8.228 -14.793  1.00  0.00    -0.298 OA
ENDBRANCH   5  11
TORSDOF 3
ENDMDL
MODEL 6
REMARK VINA RESULT:    -4.402      1.493      4.361
REMARK INTER + INTRA:          -5.072
REMARK INTER:                  -5.026
REMARK INTRA:                  -0.045
REMARK UNBOUND:                -0.026
REMARK SMILES COc1cc(C=O)ccc1O
REMARK SMILES IDX 3 1 10 2 9 3 8 4 5 5 4 6 2 7 1 8 11 9 6 11 7 12
REMARK H PARENT 11 10
REMARK Flexibility Score: inf
ROOT
ATOM      1  C   UNL     1     -12.016   5.084 -13.662  1.00  0.00     0.161 A 
ATOM      2  C   UNL     1     -11.194   6.183 -13.951  1.00  0.00     0.157 A 
ATOM      3  C   UNL     1     -10.277   6.644 -12.999  1.00  0.00     0.051 A 
ATOM      4  C   UNL     1     -10.174   6.016 -11.757  1.00  0.00     0.015 A 
ATOM      5  C   UNL     1     -10.989   4.914 -11.451  1.00  0.00     0.018 A 
ATOM      6  C   UNL     1     -11.908   4.452 -12.407  1.00  0.00     0.062 A 
ENDROOT
BRANCH   1   7
ATOM      7  O   UNL     1     -12.923   4.651 -14.643  1.00  0.00    -0.493 OA
ATOM      8  C   UNL     1     -12.629   3.682 -15.643  1.00  0.00     0.278 C 
ENDBRANCH   1   7
BRANCH   2   9
ATOM      9  O   UNL     1     -11.296   6.812 -15.191  1.00  0.00    -0.504 OA
ATOM     10  H   UNL     1     -12.196   7.061 -15.587  1.00  0.00     0.293 HD
ENDBRANCH   2   9
BRANCH   5  11
ATOM     11  C   UNL     1     -10.894   4.237 -10.144  1.00  0.00     0.260 C 
ATOM     12  O   UNL     1     -11.542   4.653  -9.148  1.00  0.00    -0.298 OA
ENDBRANCH   5  11
TORSDOF 3
ENDMDL
MODEL 7
REMARK VINA RESULT:    -4.357      1.804      3.385
REMARK INTER + INTRA:          -5.019
REMARK INTER:                  -4.961
REMARK INTRA:                  -0.058
REMARK UNBOUND:                -0.026
REMARK SMILES COc1cc(C=O)ccc1O
REMARK SMILES IDX 3 1 10 2 9 3 8 4 5 5 4 6 2 7 1 8 11 9 6 11 7 12
REMARK H PARENT 11 10
REMARK Flexibility Score: inf
ROOT
ATOM      1  C   UNL     1     -10.756   6.330 -12.487  1.00  0.00     0.161 A 
ATOM      2  C   UNL     1     -10.998   5.409 -11.458  1.00  0.00     0.157 A 
ATOM      3  C   UNL     1     -11.725   4.241 -11.716  1.00  0.00     0.051 A 
ATOM      4  C   UNL     1     -12.214   3.984 -12.998  1.00  0.00     0.015 A 
ATOM      5  C   UNL     1     -11.982   4.896 -14.041  1.00  0.00     0.018 A 
ATOM      6  C   UNL     1     -11.253   6.067 -13.781  1.00  0.00     0.062 A 
ENDROOT
BRANCH   1   7
ATOM      7  O   UNL     1     -10.024   7.491 -12.189  1.00  0.00    -0.493 OA
ATOM      8  C   UNL     1     -10.056   8.686 -12.962  1.00  0.00     0.278 C 
ENDBRANCH   1   7
BRANCH   2   9
ATOM      9  O   UNL     1     -10.510   5.665 -10.177  1.00  0.00    -0.504 OA
ATOM     10  H   UNL     1     -10.723   5.054  -9.397  1.00  0.00     0.293 HD
ENDBRANCH   2   9
BRANCH   5  11
ATOM     11  C   UNL     1     -12.491   4.641 -15.401  1.00  0.00     0.260 C 
ATOM     12  O   UNL     1     -12.663   3.467 -15.822  1.00  0.00    -0.298 OA
ENDBRANCH   5  11
TORSDOF 3
ENDMDL
MODEL 8
REMARK VINA RESULT:    -4.099      1.642      3.874
REMARK INTER + INTRA:          -4.724
REMARK INTER:                  -4.652
REMARK INTRA:                  -0.071
REMARK UNBOUND:                -0.026
REMARK SMILES COc1cc(C=O)ccc1O
REMARK SMILES IDX 3 1 10 2 9 3 8 4 5 5 4 6 2 7 1 8 11 9 6 11 7 12
REMARK H PARENT 11 10
REMARK Flexibility Score: inf
ROOT
ATOM      1  C   UNL     1     -10.185   7.037 -12.610  1.00  0.00     0.161 A 
ATOM      2  C   UNL     1     -10.248   7.390 -13.965  1.00  0.00     0.157 A 
ATOM      3  C   UNL     1     -10.989   6.611 -14.862  1.00  0.00     0.051 A 
ATOM      4  C   UNL     1     -11.670   5.477 -14.415  1.00  0.00     0.015 A 
ATOM      5  C   UNL     1     -11.618   5.109 -13.060  1.00  0.00     0.018 A 
ATOM      6  C   UNL     1     -10.875   5.892 -12.162  1.00  0.00     0.062 A 
ENDROOT
BRANCH   1   7
ATOM      7  O   UNL     1      -9.432   7.843 -11.742  1.00  0.00    -0.493 OA
ATOM      8  C   UNL     1      -9.984   8.653 -10.710  1.00  0.00     0.278 C 
ENDBRANCH   1   7
BRANCH   2   9
ATOM      9  O   UNL     1      -9.567   8.522 -14.414  1.00  0.00    -0.504 OA
ATOM     10  H   UNL     1     -10.050   9.395 -14.594  1.00  0.00     0.293 HD
ENDBRANCH   2   9
BRANCH   5  11
ATOM     11  C   UNL     1     -12.332   3.916 -12.569  1.00  0.00     0.260 C 
ATOM     12  O   UNL     1     -11.761   2.795 -12.510  1.00  0.00    -0.298 OA
ENDBRANCH   5  11
TORSDOF 3
ENDMDL
MODEL 9
REMARK VINA RESULT:    -4.090      2.054      2.838
REMARK INTER + INTRA:          -4.714
REMARK INTER:                  -4.643
REMARK INTRA:                  -0.071
REMARK UNBOUND:                -0.026
REMARK SMILES COc1cc(C=O)ccc1O
REMARK SMILES IDX 3 1 10 2 9 3 8 4 5 5 4 6 2 7 1 8 11 9 6 11 7 12
REMARK H PARENT 11 10
REMARK Flexibility Score: inf
ROOT
ATOM      1  C   UNL     1     -11.682   5.203 -13.396  1.00  0.00     0.161 A 
ATOM      2  C   UNL     1     -11.652   5.536 -14.758  1.00  0.00     0.157 A 
ATOM      3  C   UNL     1     -10.983   6.689 -15.185  1.00  0.00     0.051 A 
ATOM      4  C   UNL     1     -10.341   7.516 -14.260  1.00  0.00     0.015 A 
ATOM      5  C   UNL     1     -10.362   7.197 -12.892  1.00  0.00     0.018 A 
ATOM      6  C   UNL     1     -11.033   6.040 -12.466  1.00  0.00     0.062 A 
ENDROOT
BRANCH   1   7
ATOM      7  O   UNL     1     -12.364   4.039 -13.007  1.00  0.00    -0.493 OA
ATOM      8  C   UNL     1     -11.762   2.938 -12.335  1.00  0.00     0.278 C 
ENDBRANCH   1   7
BRANCH   2   9
ATOM      9  O   UNL     1     -12.292   4.712 -15.683  1.00  0.00    -0.504 OA
ATOM     10  H   UNL     1     -11.790   3.991 -16.188  1.00  0.00     0.293 HD
ENDBRANCH   2   9
BRANCH   5  11
ATOM     11  C   UNL     1      -9.691   8.058 -11.901  1.00  0.00     0.260 C 
ATOM     12  O   UNL     1      -9.748   7.799 -10.670  1.00  0.00    -0.298 OA
ENDBRANCH   5  11
TORSDOF 3
ENDMDL
