MODEL 1
REMARK VINA RESULT:    -5.999      0.000      0.000
REMARK INTER + INTRA:          -8.942
REMARK INTER:                  -7.401
REMARK INTRA:                  -1.541
REMARK UNBOUND:                -1.541
REMARK SMILES CC(C)=CCC[C@@H](C)c1ccc(C)cc1
REMARK SMILES IDX 6 1 7 2 8 3 9 4 13 5 12 6 11 7 14 8 10 9 15 10 5 11 4 12
REMARK SMILES IDX 2 13 1 14 3 15
REMARK H PARENT
REMARK Flexibility Score: inf
ROOT
ATOM      1  C   UNL     1     121.155 120.122 145.684  1.00  0.00     0.012 C 
ENDROOT
BRANCH   1   2
ATOM      2  C   UNL     1     119.615 120.278 145.757  1.00  0.00     0.016 C 
ATOM      3  C   UNL     1     119.069 121.222 144.674  1.00  0.00     0.013 C 
BRANCH   2   4
ATOM      4  C   UNL     1     118.946 118.919 145.661  1.00  0.00    -0.045 A 
ATOM      5  C   UNL     1     117.072 115.034 145.403  1.00  0.00     0.044 C 
ATOM      6  C   UNL     1     117.735 116.379 145.465  1.00  0.00    -0.051 A 
ATOM      7  C   UNL     1     119.013 116.511 146.024  1.00  0.00     0.004 A 
ATOM      8  C   UNL     1     117.055 117.523 145.024  1.00  0.00     0.004 A 
ATOM      9  C   UNL     1     119.618 117.769 146.115  1.00  0.00     0.004 A 
ATOM     10  C   UNL     1     117.657 118.781 145.114  1.00  0.00     0.004 A 
ENDBRANCH   2   4
ENDBRANCH   1   2
BRANCH   1  11
ATOM     11  C   UNL     1     121.728 120.173 144.256  1.00  0.00     0.028 C 
BRANCH  11  12
ATOM     12  C   UNL     1     122.109 118.805 143.740  1.00  0.00    -0.028 C 
ATOM     13  C   UNL     1     121.409 118.109 142.818  1.00  0.00    -0.080 C 
ATOM     14  C   UNL     1     120.175 118.673 142.153  1.00  0.00     0.039 C 
ATOM     15  C   UNL     1     121.898 116.737 142.432  1.00  0.00     0.039 C 
ENDBRANCH  11  12
ENDBRANCH   1  11
TORSDOF 4
ENDMDL
MODEL 2
REMARK VINA RESULT:    -5.582      0.943      4.133
REMARK INTER + INTRA:          -8.428
REMARK INTER:                  -6.872
REMARK INTRA:                  -1.557
REMARK UNBOUND:                -1.541
REMARK SMILES CC(C)=CCC[C@@H](C)c1ccc(C)cc1
REMARK SMILES IDX 6 1 7 2 8 3 9 4 13 5 12 6 11 7 14 8 10 9 15 10 5 11 4 12
REMARK SMILES IDX 2 13 1 14 3 15
REMARK H PARENT
REMARK Flexibility Score: inf
ROOT
ATOM      1  C   UNL     1     117.416 120.212 144.879  1.00  0.00     0.012 C 
ENDROOT
BRANCH   1   2
ATOM      2  C   UNL     1     118.725 120.811 144.305  1.00  0.00     0.016 C 
ATOM      3  C   UNL     1     119.490 121.649 145.341  1.00  0.00     0.013 C 
BRANCH   2   4
ATOM      4  C   UNL     1     119.610 119.705 143.758  1.00  0.00    -0.045 A 
ATOM      5  C   UNL     1     122.157 116.572 142.222  1.00  0.00     0.044 C 
ATOM      6  C   UNL     1     121.282 117.679 142.732  1.00  0.00    -0.051 A 
ATOM      7  C   UNL     1     121.775 118.593 143.672  1.00  0.00     0.004 A 
ATOM      8  C   UNL     1     119.943 117.766 142.322  1.00  0.00     0.004 A 
ATOM      9  C   UNL     1     120.950 119.603 144.175  1.00  0.00     0.004 A 
ATOM     10  C   UNL     1     119.116 118.775 142.825  1.00  0.00     0.004 A 
ENDBRANCH   2   4
ENDBRANCH   1   2
BRANCH   1  11
ATOM     11  C   UNL     1     117.626 119.261 146.071  1.00  0.00     0.028 C 
BRANCH  11  12
ATOM     12  C   UNL     1     117.141 117.860 145.781  1.00  0.00    -0.028 C 
ATOM     13  C   UNL     1     117.934 116.768 145.728  1.00  0.00    -0.080 C 
ATOM     14  C   UNL     1     119.415 116.836 146.018  1.00  0.00     0.039 C 
ATOM     15  C   UNL     1     117.305 115.441 145.388  1.00  0.00     0.039 C 
ENDBRANCH  11  12
ENDBRANCH   1  11
TORSDOF 4
ENDMDL
MODEL 3
REMARK VINA RESULT:    -5.502      1.480      2.310
REMARK INTER + INTRA:          -8.329
REMARK INTER:                  -6.955
REMARK INTRA:                  -1.374
REMARK UNBOUND:                -1.541
REMARK SMILES CC(C)=CCC[C@@H](C)c1ccc(C)cc1
REMARK SMILES IDX 6 1 7 2 8 3 9 4 13 5 12 6 11 7 14 8 10 9 15 10 5 11 4 12
REMARK SMILES IDX 2 13 1 14 3 15
REMARK H PARENT
REMARK Flexibility Score: inf
ROOT
ATOM      1  C   UNL     1     121.133 120.665 144.054  1.00  0.00     0.012 C 
ENDROOT
BRANCH   1   2
ATOM      2  C   UNL     1     119.944 120.349 143.112  1.00  0.00     0.016 C 
ATOM      3  C   UNL     1     120.403 119.992 141.689  1.00  0.00     0.013 C 
BRANCH   2   4
ATOM      4  C   UNL     1     119.100 119.230 143.694  1.00  0.00    -0.045 A 
ATOM      5  C   UNL     1     116.701 116.024 145.319  1.00  0.00     0.044 C 
ATOM      6  C   UNL     1     117.509 117.149 144.741  1.00  0.00    -0.051 A 
ATOM      7  C   UNL     1     118.111 117.014 143.483  1.00  0.00     0.004 A 
ATOM      8  C   UNL     1     117.722 118.319 145.485  1.00  0.00     0.004 A 
ATOM      9  C   UNL     1     118.893 118.047 142.959  1.00  0.00     0.004 A 
ATOM     10  C   UNL     1     118.505 119.353 144.963  1.00  0.00     0.004 A 
ENDBRANCH   2   4
ENDBRANCH   1   2
BRANCH   1  11
ATOM     11  C   UNL     1     122.195 119.554 144.127  1.00  0.00     0.028 C 
BRANCH  11  12
ATOM     12  C   UNL     1     121.865 118.510 145.167  1.00  0.00    -0.028 C 
ATOM     13  C   UNL     1     121.721 117.190 144.913  1.00  0.00    -0.080 C 
ATOM     14  C   UNL     1     121.939 116.610 143.536  1.00  0.00     0.039 C 
ATOM     15  C   UNL     1     121.352 116.278 146.054  1.00  0.00     0.039 C 
ENDBRANCH  11  12
ENDBRANCH   1  11
TORSDOF 4
ENDMDL
MODEL 4
REMARK VINA RESULT:    -5.422      1.197      4.222
REMARK INTER + INTRA:          -8.230
REMARK INTER:                  -6.860
REMARK INTRA:                  -1.370
REMARK UNBOUND:                -1.541
REMARK SMILES CC(C)=CCC[C@@H](C)c1ccc(C)cc1
REMARK SMILES IDX 6 1 7 2 8 3 9 4 13 5 12 6 11 7 14 8 10 9 15 10 5 11 4 12
REMARK SMILES IDX 2 13 1 14 3 15
REMARK H PARENT
REMARK Flexibility Score: inf
ROOT
ATOM      1  C   UNL     1     118.016 120.538 145.634  1.00  0.00     0.012 C 
ENDROOT
BRANCH   1   2
ATOM      2  C   UNL     1     119.195 121.204 144.882  1.00  0.00     0.016 C 
ATOM      3  C   UNL     1     120.064 122.072 145.806  1.00  0.00     0.013 C 
BRANCH   2   4
ATOM      4  C   UNL     1     120.042 120.147 144.197  1.00  0.00    -0.045 A 
ATOM      5  C   UNL     1     122.440 117.150 142.214  1.00  0.00     0.044 C 
ATOM      6  C   UNL     1     121.583 118.171 142.903  1.00  0.00    -0.051 A 
ATOM      7  C   UNL     1     120.831 119.084 142.152  1.00  0.00     0.004 A 
ATOM      8  C   UNL     1     121.581 118.262 144.302  1.00  0.00     0.004 A 
ATOM      9  C   UNL     1     120.060 120.059 142.793  1.00  0.00     0.004 A 
ATOM     10  C   UNL     1     120.811 119.236 144.944  1.00  0.00     0.004 A 
ENDBRANCH   2   4
ENDBRANCH   1   2
BRANCH   1  11
ATOM     11  C   UNL     1     117.259 119.479 144.813  1.00  0.00     0.028 C 
BRANCH  11  12
ATOM     12  C   UNL     1     117.254 118.126 145.484  1.00  0.00    -0.028 C 
ATOM     13  C   UNL     1     117.664 116.978 144.901  1.00  0.00    -0.080 C 
ATOM     14  C   UNL     1     118.235 116.947 143.503  1.00  0.00     0.039 C 
ATOM     15  C   UNL     1     117.562 115.698 145.689  1.00  0.00     0.039 C 
ENDBRANCH  11  12
ENDBRANCH   1  11
TORSDOF 4
ENDMDL
MODEL 5
REMARK VINA RESULT:    -5.313      1.264      3.959
REMARK INTER + INTRA:          -8.096
REMARK INTER:                  -6.550
REMARK INTRA:                  -1.546
REMARK UNBOUND:                -1.541
REMARK SMILES CC(C)=CCC[C@@H](C)c1ccc(C)cc1
REMARK SMILES IDX 6 1 7 2 8 3 9 4 13 5 12 6 11 7 14 8 10 9 15 10 5 11 4 12
REMARK SMILES IDX 2 13 1 14 3 15
REMARK H PARENT
REMARK Flexibility Score: inf
ROOT
ATOM      1  C   UNL     1     118.216 116.629 144.287  1.00  0.00     0.012 C 
ENDROOT
BRANCH   1   2
ATOM      2  C   UNL     1     118.731 117.104 145.669  1.00  0.00     0.016 C 
ATOM      3  C   UNL     1     120.066 116.447 146.054  1.00  0.00     0.013 C 
BRANCH   2   4
ATOM      4  C   UNL     1     118.859 118.616 145.687  1.00  0.00    -0.045 A 
ATOM      5  C   UNL     1     119.258 122.917 145.754  1.00  0.00     0.044 C 
ATOM      6  C   UNL     1     119.110 121.425 145.760  1.00  0.00    -0.051 A 
ATOM      7  C   UNL     1     120.189 120.609 146.125  1.00  0.00     0.004 A 
ATOM      8  C   UNL     1     117.911 120.832 145.337  1.00  0.00     0.004 A 
ATOM      9  C   UNL     1     120.064 119.217 146.097  1.00  0.00     0.004 A 
ATOM     10  C   UNL     1     117.784 119.441 145.308  1.00  0.00     0.004 A 
ENDBRANCH   2   4
ENDBRANCH   1   2
BRANCH   1  11
ATOM     11  C   UNL     1     119.285 116.626 143.180  1.00  0.00     0.028 C 
BRANCH  11  12
ATOM     12  C   UNL     1     119.369 117.951 142.459  1.00  0.00    -0.028 C 
ATOM     13  C   UNL     1     120.463 118.745 142.435  1.00  0.00    -0.080 C 
ATOM     14  C   UNL     1     121.760 118.345 143.099  1.00  0.00     0.039 C 
ATOM     15  C   UNL     1     120.378 120.058 141.702  1.00  0.00     0.039 C 
ENDBRANCH  11  12
ENDBRANCH   1  11
TORSDOF 4
ENDMDL
MODEL 6
REMARK VINA RESULT:    -5.145      1.534      3.907
REMARK INTER + INTRA:          -7.889
REMARK INTER:                  -6.714
REMARK INTRA:                  -1.174
REMARK UNBOUND:                -1.541
REMARK SMILES CC(C)=CCC[C@@H](C)c1ccc(C)cc1
REMARK SMILES IDX 6 1 7 2 8 3 9 4 13 5 12 6 11 7 14 8 10 9 15 10 5 11 4 12
REMARK SMILES IDX 2 13 1 14 3 15
REMARK H PARENT
REMARK Flexibility Score: inf
ROOT
ATOM      1  C   UNL     1     120.631 120.914 143.950  1.00  0.00     0.012 C 
ENDROOT
BRANCH   1   2
ATOM      2  C   UNL     1     121.180 119.500 143.632  1.00  0.00     0.016 C 
ATOM      3  C   UNL     1     122.564 119.255 144.252  1.00  0.00     0.013 C 
BRANCH   2   4
ATOM      4  C   UNL     1     120.196 118.441 144.096  1.00  0.00    -0.045 A 
ATOM      5  C   UNL     1     117.373 115.438 145.391  1.00  0.00     0.044 C 
ATOM      6  C   UNL     1     118.340 116.501 144.960  1.00  0.00    -0.051 A 
ATOM      7  C   UNL     1     118.045 117.322 143.864  1.00  0.00     0.004 A 
ATOM      8  C   UNL     1     119.575 116.637 145.610  1.00  0.00     0.004 A 
ATOM      9  C   UNL     1     118.961 118.290 143.439  1.00  0.00     0.004 A 
ATOM     10  C   UNL     1     120.493 117.603 145.187  1.00  0.00     0.004 A 
ENDBRANCH   2   4
ENDBRANCH   1   2
BRANCH   1  11
ATOM     11  C   UNL     1     120.375 121.171 145.445  1.00  0.00     0.028 C 
BRANCH  11  12
ATOM     12  C   UNL     1     119.265 122.169 145.675  1.00  0.00    -0.028 C 
ATOM     13  C   UNL     1     117.983 121.843 145.953  1.00  0.00    -0.080 C 
ATOM     14  C   UNL     1     117.539 120.409 146.123  1.00  0.00     0.039 C 
ATOM     15  C   UNL     1     116.981 122.955 146.119  1.00  0.00     0.039 C 
ENDBRANCH  11  12
ENDBRANCH   1  11
TORSDOF 4
ENDMDL
MODEL 7
REMARK VINA RESULT:    -4.853      1.153      4.601
REMARK INTER + INTRA:          -7.529
REMARK INTER:                  -6.574
REMARK INTRA:                  -0.954
REMARK UNBOUND:                -1.541
REMARK SMILES CC(C)=CCC[C@@H](C)c1ccc(C)cc1
REMARK SMILES IDX 6 1 7 2 8 3 9 4 13 5 12 6 11 7 14 8 10 9 15 10 5 11 4 12
REMARK SMILES IDX 2 13 1 14 3 15
REMARK H PARENT
REMARK Flexibility Score: inf
ROOT
ATOM      1  C   UNL     1     121.601 116.914 144.985  1.00  0.00     0.012 C 
ENDROOT
BRANCH   1   2
ATOM      2  C   UNL     1     121.860 118.099 144.020  1.00  0.00     0.016 C 
ATOM      3  C   UNL     1     121.703 117.699 142.545  1.00  0.00     0.013 C 
BRANCH   2   4
ATOM      4  C   UNL     1     120.939 119.258 144.356  1.00  0.00    -0.045 A 
ATOM      5  C   UNL     1     118.301 122.552 145.282  1.00  0.00     0.044 C 
ATOM      6  C   UNL     1     119.236 121.427 144.945  1.00  0.00    -0.051 A 
ATOM      7  C   UNL     1     119.033 120.663 143.788  1.00  0.00     0.004 A 
ATOM      8  C   UNL     1     120.279 121.091 145.819  1.00  0.00     0.004 A 
ATOM      9  C   UNL     1     119.882 119.592 143.491  1.00  0.00     0.004 A 
ATOM     10  C   UNL     1     121.129 120.020 145.524  1.00  0.00     0.004 A 
ENDBRANCH   2   4
ENDBRANCH   1   2
BRANCH   1  11
ATOM     11  C   UNL     1     120.402 117.118 145.929  1.00  0.00     0.028 C 
BRANCH  11  12
ATOM     12  C   UNL     1     119.153 116.433 145.429  1.00  0.00    -0.028 C 
ATOM     13  C   UNL     1     117.904 116.940 145.533  1.00  0.00    -0.080 C 
ATOM     14  C   UNL     1     117.639 118.304 146.125  1.00  0.00     0.039 C 
ATOM     15  C   UNL     1     116.752 116.117 145.019  1.00  0.00     0.039 C 
ENDBRANCH  11  12
ENDBRANCH   1  11
TORSDOF 4
ENDMDL
MODEL 8
REMARK VINA RESULT:    -4.700      1.302      4.082
REMARK INTER + INTRA:          -7.339
REMARK INTER:                  -6.636
REMARK INTRA:                  -0.703
REMARK UNBOUND:                -1.541
REMARK SMILES CC(C)=CCC[C@@H](C)c1ccc(C)cc1
REMARK SMILES IDX 6 1 7 2 8 3 9 4 13 5 12 6 11 7 14 8 10 9 15 10 5 11 4 12
REMARK SMILES IDX 2 13 1 14 3 15
REMARK H PARENT
REMARK Flexibility Score: inf
ROOT
ATOM      1  C   UNL     1     119.320 116.580 143.709  1.00  0.00     0.012 C 
ENDROOT
BRANCH   1   2
ATOM      2  C   UNL     1     118.018 117.372 143.989  1.00  0.00     0.016 C 
ATOM      3  C   UNL     1     117.105 116.660 145.001  1.00  0.00     0.013 C 
BRANCH   2   4
ATOM      4  C   UNL     1     118.350 118.773 144.468  1.00  0.00    -0.045 A 
ATOM      5  C   UNL     1     119.283 122.775 145.803  1.00  0.00     0.044 C 
ATOM      6  C   UNL     1     118.986 121.384 145.325  1.00  0.00    -0.051 A 
ATOM      7  C   UNL     1     118.323 121.181 144.108  1.00  0.00     0.004 A 
ATOM      8  C   UNL     1     119.311 120.278 146.125  1.00  0.00     0.004 A 
ATOM      9  C   UNL     1     118.014 119.887 143.678  1.00  0.00     0.004 A 
ATOM     10  C   UNL     1     119.003 118.984 145.697  1.00  0.00     0.004 A 
ENDBRANCH   2   4
ENDBRANCH   1   2
BRANCH   1  11
ATOM     11  C   UNL     1     120.088 117.047 142.460  1.00  0.00     0.028 C 
BRANCH  11  12
ATOM     12  C   UNL     1     120.940 118.265 142.730  1.00  0.00    -0.028 C 
ATOM     13  C   UNL     1     121.866 118.352 143.711  1.00  0.00    -0.080 C 
ATOM     14  C   UNL     1     122.186 117.188 144.618  1.00  0.00     0.039 C 
ATOM     15  C   UNL     1     122.611 119.651 143.878  1.00  0.00     0.039 C 
ENDBRANCH  11  12
ENDBRANCH   1  11
TORSDOF 4
ENDMDL
