MODEL 1
REMARK VINA RESULT:     0.000      0.000      0.000
REMARK INTER + INTRA:          -0.129
REMARK INTER:                   0.000
REMARK INTRA:                  -0.129
REMARK UNBOUND:                -0.129
REMARK SMILES CC(=O)[C@@H]1CC[C@@H]2[C@H]3CC=C4C[C@@H](O)CC[C@@]4(C)[C@H]3CC[C@]21C
REMARK SMILES IDX 4 1 5 2 6 3 7 4 22 5 21 6 20 7 19 8 8 9 9 10 10 11 11 12
REMARK SMILES IDX 17 13 16 14 15 15 13 16 12 17 18 18 23 19 2 20 1 21 3 22
REMARK SMILES IDX 14 23
REMARK H PARENT 14 24
REMARK Flexibility Score: inf
ROOT
ATOM      1  C   UNL     1      20.830  44.846  85.563  1.00  0.00     0.062 C 
ATOM      2  C   UNL     1      20.388  45.851  86.657  1.00  0.00     0.012 C 
ATOM      3  C   UNL     1      19.583  45.042  87.690  1.00  0.00     0.005 C 
ATOM      4  C   UNL     1      19.497  43.638  87.100  1.00  0.00    -0.001 C 
ATOM      5  C   UNL     1      20.777  43.468  86.267  1.00  0.00    -0.020 C 
ATOM      6  C   UNL     1      20.605  42.253  85.303  1.00  0.00     0.008 C 
ATOM      7  C   UNL     1      19.551  41.219  85.785  1.00  0.00     0.005 C 
ATOM      8  C   UNL     1      19.465  41.074  87.338  1.00  0.00     0.003 C 
ATOM      9  C   UNL     1      19.251  42.456  88.067  1.00  0.00     0.000 C 
ATOM     10  C   UNL     1      17.867  42.568  88.697  1.00  0.00     0.031 C 
ATOM     11  C   UNL     1      17.611  41.400  89.587  1.00  0.00    -0.027 C 
ATOM     12  C   UNL     1      17.875  40.144  89.180  1.00  0.00    -0.065 C 
ATOM     13  C   UNL     1      18.520  39.876  87.816  1.00  0.00    -0.008 C 
ATOM     14  C   UNL     1      17.328  39.596  86.844  1.00  0.00     0.014 C 
ATOM     15  C   UNL     1      16.340  38.519  87.362  1.00  0.00     0.033 C 
ATOM     16  C   UNL     1      15.850  38.768  88.806  1.00  0.00     0.118 C 
ATOM     17  C   UNL     1      17.025  39.039  89.767  1.00  0.00     0.063 C 
ATOM     18  C   UNL     1      19.417  38.605  87.900  1.00  0.00     0.016 C 
ATOM     19  C   UNL     1      22.053  43.273  87.151  1.00  0.00     0.012 C 
ENDROOT
BRANCH   1  20
ATOM     20  C   UNL     1      22.146  45.151  84.862  1.00  0.00     0.133 C 
ATOM     21  C   UNL     1      23.125  46.171  85.373  1.00  0.00     0.088 C 
ATOM     22  O   UNL     1      22.415  44.547  83.835  1.00  0.00    -0.300 OA
ENDBRANCH   1  20
BRANCH  16  23
ATOM     23  O   UNL     1      14.959  39.856  88.810  1.00  0.00    -0.393 OA
ATOM     24  H   UNL     1      14.386  39.754  89.614  1.00  0.00     0.210 HD
ENDBRANCH  16  23
TORSDOF 2
ENDMDL
MODEL 2
REMARK VINA RESULT:     0.000      7.400      9.584
REMARK INTER + INTRA:          -0.129
REMARK INTER:                   0.000
REMARK INTRA:                  -0.129
REMARK UNBOUND:                -0.129
REMARK SMILES CC(=O)[C@@H]1CC[C@@H]2[C@H]3CC=C4C[C@@H](O)CC[C@@]4(C)[C@H]3CC[C@]21C
REMARK SMILES IDX 4 1 5 2 6 3 7 4 22 5 21 6 20 7 19 8 8 9 9 10 10 11 11 12
REMARK SMILES IDX 17 13 16 14 15 15 13 16 12 17 18 18 23 19 2 20 1 21 3 22
REMARK SMILES IDX 14 23
REMARK H PARENT 14 24
REMARK Flexibility Score: inf
ROOT
ATOM      1  C   UNL     1      21.388  49.677  89.125  1.00  0.00     0.062 C 
ATOM      2  C   UNL     1      20.688  48.617  88.237  1.00  0.00     0.012 C 
ATOM      3  C   UNL     1      19.307  48.366  88.867  1.00  0.00     0.005 C 
ATOM      4  C   UNL     1      19.307  49.199  90.145  1.00  0.00    -0.001 C 
ATOM      5  C   UNL     1      20.223  50.396  89.850  1.00  0.00    -0.020 C 
ATOM      6  C   UNL     1      20.619  51.082  91.194  1.00  0.00     0.008 C 
ATOM      7  C   UNL     1      19.614  50.822  92.348  1.00  0.00     0.005 C 
ATOM      8  C   UNL     1      18.129  50.691  91.881  1.00  0.00     0.003 C 
ATOM      9  C   UNL     1      17.942  49.621  90.739  1.00  0.00     0.000 C 
ATOM     10  C   UNL     1      17.171  48.395  91.216  1.00  0.00     0.031 C 
ATOM     11  C   UNL     1      15.881  48.808  91.837  1.00  0.00    -0.027 C 
ATOM     12  C   UNL     1      15.829  49.812  92.733  1.00  0.00    -0.065 C 
ATOM     13  C   UNL     1      17.084  50.616  93.090  1.00  0.00    -0.008 C 
ATOM     14  C   UNL     1      17.661  49.932  94.371  1.00  0.00     0.014 C 
ATOM     15  C   UNL     1      16.618  49.745  95.503  1.00  0.00     0.033 C 
ATOM     16  C   UNL     1      15.310  49.069  95.037  1.00  0.00     0.118 C 
ATOM     17  C   UNL     1      14.736  49.745  93.776  1.00  0.00     0.063 C 
ATOM     18  C   UNL     1      16.688  52.083  93.431  1.00  0.00     0.016 C 
ATOM     19  C   UNL     1      19.563  51.440  88.890  1.00  0.00     0.012 C 
ENDROOT
BRANCH   1  20
ATOM     20  C   UNL     1      22.366  50.605  88.420  1.00  0.00     0.133 C 
ATOM     21  C   UNL     1      22.448  50.719  86.924  1.00  0.00     0.088 C 
ATOM     22  O   UNL     1      23.124  51.281  89.100  1.00  0.00    -0.300 OA
ENDBRANCH   1  20
BRANCH  16  23
ATOM     23  O   UNL     1      15.559  47.708  94.787  1.00  0.00    -0.393 OA
ATOM     24  H   UNL     1      15.509  47.583  93.804  1.00  0.00     0.210 HD
ENDBRANCH  16  23
TORSDOF 2
ENDMDL
MODEL 3
REMARK VINA RESULT:     0.000      4.250      9.162
REMARK INTER + INTRA:          -0.129
REMARK INTER:                   0.000
REMARK INTRA:                  -0.129
REMARK UNBOUND:                -0.129
REMARK SMILES CC(=O)[C@@H]1CC[C@@H]2[C@H]3CC=C4C[C@@H](O)CC[C@@]4(C)[C@H]3CC[C@]21C
REMARK SMILES IDX 4 1 5 2 6 3 7 4 22 5 21 6 20 7 19 8 8 9 9 10 10 11 11 12
REMARK SMILES IDX 17 13 16 14 15 15 13 16 12 17 18 18 23 19 2 20 1 21 3 22
REMARK SMILES IDX 14 23
REMARK H PARENT 14 24
REMARK Flexibility Score: inf
ROOT
ATOM      1  C   UNL     1      14.202  37.955  94.683  1.00  0.00     0.062 C 
ATOM      2  C   UNL     1      14.116  39.295  95.457  1.00  0.00     0.012 C 
ATOM      3  C   UNL     1      14.944  40.314  94.654  1.00  0.00     0.005 C 
ATOM      4  C   UNL     1      15.563  39.503  93.520  1.00  0.00    -0.001 C 
ATOM      5  C   UNL     1      14.561  38.373  93.235  1.00  0.00    -0.020 C 
ATOM      6  C   UNL     1      15.266  37.263  92.395  1.00  0.00     0.008 C 
ATOM      7  C   UNL     1      16.491  37.773  91.589  1.00  0.00     0.005 C 
ATOM      8  C   UNL     1      16.352  39.245  91.082  1.00  0.00     0.003 C 
ATOM      9  C   UNL     1      15.996  40.255  92.240  1.00  0.00     0.000 C 
ATOM     10  C   UNL     1      17.148  41.206  92.549  1.00  0.00     0.031 C 
ATOM     11  C   UNL     1      17.600  41.889  91.304  1.00  0.00    -0.027 C 
ATOM     12  C   UNL     1      17.814  41.198  90.168  1.00  0.00    -0.065 C 
ATOM     13  C   UNL     1      17.527  39.694  90.095  1.00  0.00    -0.008 C 
ATOM     14  C   UNL     1      18.894  38.999  90.396  1.00  0.00     0.014 C 
ATOM     15  C   UNL     1      20.065  39.520  89.523  1.00  0.00     0.033 C 
ATOM     16  C   UNL     1      20.199  41.058  89.517  1.00  0.00     0.118 C 
ATOM     17  C   UNL     1      18.852  41.746  89.216  1.00  0.00     0.063 C 
ATOM     18  C   UNL     1      17.070  39.316  88.655  1.00  0.00     0.016 C 
ATOM     19  C   UNL     1      13.279  38.873  92.493  1.00  0.00     0.012 C 
ENDROOT
BRANCH   1  20
ATOM     20  C   UNL     1      12.997  37.034  94.797  1.00  0.00     0.133 C 
ATOM     21  C   UNL     1      11.677  37.483  95.358  1.00  0.00     0.088 C 
ATOM     22  O   UNL     1      13.109  35.875  94.425  1.00  0.00    -0.300 OA
ENDBRANCH   1  20
BRANCH  16  23
ATOM     23  O   UNL     1      20.692  41.483  90.764  1.00  0.00    -0.393 OA
ATOM     24  H   UNL     1      21.596  41.861  90.601  1.00  0.00     0.210 HD
ENDBRANCH  16  23
TORSDOF 2
ENDMDL
MODEL 4
REMARK VINA RESULT:     0.000      3.464      8.381
REMARK INTER + INTRA:          -0.129
REMARK INTER:                   0.000
REMARK INTRA:                  -0.129
REMARK UNBOUND:                -0.129
REMARK SMILES CC(=O)[C@@H]1CC[C@@H]2[C@H]3CC=C4C[C@@H](O)CC[C@@]4(C)[C@H]3CC[C@]21C
REMARK SMILES IDX 4 1 5 2 6 3 7 4 22 5 21 6 20 7 19 8 8 9 9 10 10 11 11 12
REMARK SMILES IDX 17 13 16 14 15 15 13 16 12 17 18 18 23 19 2 20 1 21 3 22
REMARK SMILES IDX 14 23
REMARK H PARENT 14 24
REMARK Flexibility Score: inf
ROOT
ATOM      1  C   UNL     1      14.083  38.018  91.326  1.00  0.00     0.062 C 
ATOM      2  C   UNL     1      13.745  37.764  89.834  1.00  0.00     0.012 C 
ATOM      3  C   UNL     1      15.004  38.137  89.033  1.00  0.00     0.005 C 
ATOM      4  C   UNL     1      15.973  38.695  90.072  1.00  0.00    -0.001 C 
ATOM      5  C   UNL     1      15.631  37.965  91.380  1.00  0.00    -0.020 C 
ATOM      6  C   UNL     1      16.264  38.737  92.579  1.00  0.00     0.008 C 
ATOM      7  C   UNL     1      17.485  39.611  92.183  1.00  0.00     0.005 C 
ATOM      8  C   UNL     1      18.345  39.016  91.022  1.00  0.00     0.003 C 
ATOM      9  C   UNL     1      17.485  38.664  89.748  1.00  0.00     0.000 C 
ATOM     10  C   UNL     1      17.793  39.585  88.571  1.00  0.00     0.031 C 
ATOM     11  C   UNL     1      19.258  39.595  88.296  1.00  0.00    -0.027 C 
ATOM     12  C   UNL     1      20.153  39.739  89.291  1.00  0.00    -0.065 C 
ATOM     13  C   UNL     1      19.700  39.822  90.753  1.00  0.00    -0.008 C 
ATOM     14  C   UNL     1      19.589  41.349  91.064  1.00  0.00     0.014 C 
ATOM     15  C   UNL     1      20.860  42.157  90.691  1.00  0.00     0.033 C 
ATOM     16  C   UNL     1      21.354  41.904  89.249  1.00  0.00     0.118 C 
ATOM     17  C   UNL     1      21.469  40.398  88.941  1.00  0.00     0.063 C 
ATOM     18  C   UNL     1      20.786  39.192  91.675  1.00  0.00     0.016 C 
ATOM     19  C   UNL     1      16.111  36.477  91.387  1.00  0.00     0.012 C 
ENDROOT
BRANCH   1  20
ATOM     20  C   UNL     1      13.382  37.124  92.337  1.00  0.00     0.133 C 
ATOM     21  C   UNL     1      12.643  35.875  91.946  1.00  0.00     0.088 C 
ATOM     22  O   UNL     1      13.412  37.440  93.517  1.00  0.00    -0.300 OA
ENDBRANCH   1  20
BRANCH  16  23
ATOM     23  O   UNL     1      20.470  42.519  88.345  1.00  0.00    -0.393 OA
ATOM     24  H   UNL     1      20.695  42.172  87.442  1.00  0.00     0.210 HD
ENDBRANCH  16  23
TORSDOF 2
ENDMDL
MODEL 5
REMARK VINA RESULT:     0.000     14.162     15.973
REMARK INTER + INTRA:          -0.129
REMARK INTER:                   0.000
REMARK INTRA:                  -0.129
REMARK UNBOUND:                -0.129
REMARK SMILES CC(=O)[C@@H]1CC[C@@H]2[C@H]3CC=C4C[C@@H](O)CC[C@@]4(C)[C@H]3CC[C@]21C
REMARK SMILES IDX 4 1 5 2 6 3 7 4 22 5 21 6 20 7 19 8 8 9 9 10 10 11 11 12
REMARK SMILES IDX 17 13 16 14 15 15 13 16 12 17 18 18 23 19 2 20 1 21 3 22
REMARK SMILES IDX 14 23
REMARK H PARENT 14 24
REMARK Flexibility Score: inf
ROOT
ATOM      1  C   UNL     1       8.131  47.090  85.862  1.00  0.00     0.062 C 
ATOM      2  C   UNL     1       7.627  45.983  84.901  1.00  0.00     0.012 C 
ATOM      3  C   UNL     1       7.035  46.704  83.678  1.00  0.00     0.005 C 
ATOM      4  C   UNL     1       7.117  48.187  84.027  1.00  0.00    -0.001 C 
ATOM      5  C   UNL     1       8.340  48.322  84.946  1.00  0.00    -0.020 C 
ATOM      6  C   UNL     1       8.279  49.696  85.684  1.00  0.00     0.008 C 
ATOM      7  C   UNL     1       7.433  50.766  84.941  1.00  0.00     0.005 C 
ATOM      8  C   UNL     1       7.489  50.653  83.384  1.00  0.00     0.003 C 
ATOM      9  C   UNL     1       7.126  49.209  82.865  1.00  0.00     0.000 C 
ATOM     10  C   UNL     1       5.794  49.179  82.124  1.00  0.00     0.031 C 
ATOM     11  C   UNL     1       5.785  50.203  81.040  1.00  0.00    -0.027 C 
ATOM     12  C   UNL     1       6.203  51.462  81.267  1.00  0.00    -0.065 C 
ATOM     13  C   UNL     1       6.775  51.869  82.630  1.00  0.00    -0.008 C 
ATOM     14  C   UNL     1       5.568  52.469  83.420  1.00  0.00     0.014 C 
ATOM     15  C   UNL     1       4.795  53.566  82.641  1.00  0.00     0.033 C 
ATOM     16  C   UNL     1       4.386  53.143  81.213  1.00  0.00     0.118 C 
ATOM     17  C   UNL     1       5.577  52.555  80.430  1.00  0.00     0.063 C 
ATOM     18  C   UNL     1       7.856  52.973  82.436  1.00  0.00     0.016 C 
ATOM     19  C   UNL     1       9.694  48.188  84.176  1.00  0.00     0.012 C 
ENDROOT
BRANCH   1  20
ATOM     20  C   UNL     1       9.328  46.734  86.730  1.00  0.00     0.133 C 
ATOM     21  C   UNL     1      10.178  45.518  86.488  1.00  0.00     0.088 C 
ATOM     22  O   UNL     1       9.605  47.462  87.671  1.00  0.00    -0.300 OA
ENDBRANCH   1  20
BRANCH  16  23
ATOM     23  O   UNL     1       3.344  52.202  81.292  1.00  0.00    -0.393 OA
ATOM     24  H   UNL     1       3.653  51.483  81.904  1.00  0.00     0.210 HD
ENDBRANCH  16  23
TORSDOF 2
ENDMDL
MODEL 6
REMARK VINA RESULT:     0.000      3.245      6.233
REMARK INTER + INTRA:          -0.129
REMARK INTER:                   0.000
REMARK INTRA:                  -0.129
REMARK UNBOUND:                -0.129
REMARK SMILES CC(=O)[C@@H]1CC[C@@H]2[C@H]3CC=C4C[C@@H](O)CC[C@@]4(C)[C@H]3CC[C@]21C
REMARK SMILES IDX 4 1 5 2 6 3 7 4 22 5 21 6 20 7 19 8 8 9 9 10 10 11 11 12
REMARK SMILES IDX 17 13 16 14 15 15 13 16 12 17 18 18 23 19 2 20 1 21 3 22
REMARK SMILES IDX 14 23
REMARK H PARENT 14 24
REMARK Flexibility Score: inf
ROOT
ATOM      1  C   UNL     1      13.639  42.653  87.510  1.00  0.00     0.062 C 
ATOM      2  C   UNL     1      14.258  43.917  86.860  1.00  0.00     0.012 C 
ATOM      3  C   UNL     1      15.722  43.568  86.538  1.00  0.00     0.005 C 
ATOM      4  C   UNL     1      15.921  42.168  87.113  1.00  0.00    -0.001 C 
ATOM      5  C   UNL     1      14.544  41.493  87.025  1.00  0.00    -0.020 C 
ATOM      6  C   UNL     1      14.531  40.233  87.945  1.00  0.00     0.008 C 
ATOM      7  C   UNL     1      15.943  39.648  88.222  1.00  0.00     0.005 C 
ATOM      8  C   UNL     1      16.942  39.806  87.031  1.00  0.00     0.003 C 
ATOM      9  C   UNL     1      17.054  41.295  86.524  1.00  0.00     0.000 C 
ATOM     10  C   UNL     1      18.414  41.911  86.838  1.00  0.00     0.031 C 
ATOM     11  C   UNL     1      19.506  41.039  86.318  1.00  0.00    -0.027 C 
ATOM     12  C   UNL     1      19.497  39.709  86.532  1.00  0.00    -0.065 C 
ATOM     13  C   UNL     1      18.325  39.034  87.253  1.00  0.00    -0.008 C 
ATOM     14  C   UNL     1      18.758  38.948  88.752  1.00  0.00     0.014 C 
ATOM     15  C   UNL     1      20.156  38.310  88.963  1.00  0.00     0.033 C 
ATOM     16  C   UNL     1      21.263  38.936  88.086  1.00  0.00     0.118 C 
ATOM     17  C   UNL     1      20.840  39.018  86.605  1.00  0.00     0.063 C 
ATOM     18  C   UNL     1      18.128  37.593  86.697  1.00  0.00     0.016 C 
ATOM     19  C   UNL     1      14.157  41.093  85.564  1.00  0.00     0.012 C 
ENDROOT
BRANCH   1  20
ATOM     20  C   UNL     1      12.151  42.438  87.279  1.00  0.00     0.133 C 
ATOM     21  C   UNL     1      11.367  43.203  86.250  1.00  0.00     0.088 C 
ATOM     22  O   UNL     1      11.566  41.613  87.965  1.00  0.00    -0.300 OA
ENDBRANCH   1  20
BRANCH  16  23
ATOM     23  O   UNL     1      21.568  40.219  88.575  1.00  0.00    -0.393 OA
ATOM     24  H   UNL     1      21.742  40.794  87.784  1.00  0.00     0.210 HD
ENDBRANCH  16  23
TORSDOF 2
ENDMDL
MODEL 7
REMARK VINA RESULT:     0.000      4.938      7.431
REMARK INTER + INTRA:          -0.129
REMARK INTER:                   0.000
REMARK INTRA:                  -0.129
REMARK UNBOUND:                -0.129
REMARK SMILES CC(=O)[C@@H]1CC[C@@H]2[C@H]3CC=C4C[C@@H](O)CC[C@@]4(C)[C@H]3CC[C@]21C
REMARK SMILES IDX 4 1 5 2 6 3 7 4 22 5 21 6 20 7 19 8 8 9 9 10 10 11 11 12
REMARK SMILES IDX 17 13 16 14 15 15 13 16 12 17 18 18 23 19 2 20 1 21 3 22
REMARK SMILES IDX 14 23
REMARK H PARENT 14 24
REMARK Flexibility Score: inf
ROOT
ATOM      1  C   UNL     1      16.374  46.621  85.514  1.00  0.00     0.062 C 
ATOM      2  C   UNL     1      16.184  45.086  85.627  1.00  0.00     0.012 C 
ATOM      3  C   UNL     1      17.032  44.631  86.827  1.00  0.00     0.005 C 
ATOM      4  C   UNL     1      17.761  45.890  87.286  1.00  0.00    -0.001 C 
ATOM      5  C   UNL     1      16.824  47.055  86.931  1.00  0.00    -0.020 C 
ATOM      6  C   UNL     1      17.627  48.391  86.976  1.00  0.00     0.008 C 
ATOM      7  C   UNL     1      18.890  48.331  87.878  1.00  0.00     0.005 C 
ATOM      8  C   UNL     1      18.737  47.405  89.126  1.00  0.00     0.003 C 
ATOM      9  C   UNL     1      18.261  45.949  88.749  1.00  0.00     0.000 C 
ATOM     10  C   UNL     1      19.353  44.908  88.977  1.00  0.00     0.031 C 
ATOM     11  C   UNL     1      19.871  45.004  90.372  1.00  0.00    -0.027 C 
ATOM     12  C   UNL     1      20.192  46.193  90.915  1.00  0.00    -0.065 C 
ATOM     13  C   UNL     1      19.965  47.499  90.146  1.00  0.00    -0.008 C 
ATOM     14  C   UNL     1      21.329  47.811  89.451  1.00  0.00     0.014 C 
ATOM     15  C   UNL     1      22.543  47.783  90.416  1.00  0.00     0.033 C 
ATOM     16  C   UNL     1      22.622  46.503  91.277  1.00  0.00     0.118 C 
ATOM     17  C   UNL     1      21.278  46.196  91.968  1.00  0.00     0.063 C 
ATOM     18  C   UNL     1      19.630  48.646  91.146  1.00  0.00     0.016 C 
ATOM     19  C   UNL     1      15.583  47.144  87.879  1.00  0.00     0.012 C 
ENDROOT
BRANCH   1  20
ATOM     20  C   UNL     1      15.197  47.405  84.954  1.00  0.00     0.133 C 
ATOM     21  C   UNL     1      13.824  46.813  84.796  1.00  0.00     0.088 C 
ATOM     22  O   UNL     1      15.376  48.563  84.609  1.00  0.00    -0.300 OA
ENDBRANCH   1  20
BRANCH  16  23
ATOM     23  O   UNL     1      23.007  45.423  90.462  1.00  0.00    -0.393 OA
ATOM     24  H   UNL     1      22.293  44.737  90.539  1.00  0.00     0.210 HD
ENDBRANCH  16  23
TORSDOF 2
ENDMDL
MODEL 8
REMARK VINA RESULT:     0.000      9.671     12.609
REMARK INTER + INTRA:          -0.129
REMARK INTER:                   0.000
REMARK INTRA:                  -0.129
REMARK UNBOUND:                -0.129
REMARK SMILES CC(=O)[C@@H]1CC[C@@H]2[C@H]3CC=C4C[C@@H](O)CC[C@@]4(C)[C@H]3CC[C@]21C
REMARK SMILES IDX 4 1 5 2 6 3 7 4 22 5 21 6 20 7 19 8 8 9 9 10 10 11 11 12
REMARK SMILES IDX 17 13 16 14 15 15 13 16 12 17 18 18 23 19 2 20 1 21 3 22
REMARK SMILES IDX 14 23
REMARK H PARENT 14 24
REMARK Flexibility Score: inf
ROOT
ATOM      1  C   UNL     1      12.463  45.659  93.457  1.00  0.00     0.062 C 
ATOM      2  C   UNL     1      13.402  45.114  92.351  1.00  0.00     0.012 C 
ATOM      3  C   UNL     1      13.434  46.181  91.243  1.00  0.00     0.005 C 
ATOM      4  C   UNL     1      12.434  47.240  91.696  1.00  0.00    -0.001 C 
ATOM      5  C   UNL     1      12.458  47.192  93.232  1.00  0.00    -0.020 C 
ATOM      6  C   UNL     1      11.199  47.926  93.788  1.00  0.00     0.008 C 
ATOM      7  C   UNL     1      10.599  48.968  92.805  1.00  0.00     0.005 C 
ATOM      8  C   UNL     1      11.660  49.686  91.913  1.00  0.00     0.003 C 
ATOM      9  C   UNL     1      12.590  48.675  91.140  1.00  0.00     0.000 C 
ATOM     10  C   UNL     1      12.336  48.689  89.636  1.00  0.00     0.031 C 
ATOM     11  C   UNL     1      12.433  50.082  89.112  1.00  0.00    -0.027 C 
ATOM     12  C   UNL     1      11.818  51.105  89.734  1.00  0.00    -0.065 C 
ATOM     13  C   UNL     1      11.058  50.888  91.046  1.00  0.00    -0.008 C 
ATOM     14  C   UNL     1       9.568  50.668  90.627  1.00  0.00     0.014 C 
ATOM     15  C   UNL     1       9.015  51.769  89.685  1.00  0.00     0.033 C 
ATOM     16  C   UNL     1       9.915  52.048  88.461  1.00  0.00     0.118 C 
ATOM     17  C   UNL     1      11.384  52.270  88.872  1.00  0.00     0.063 C 
ATOM     18  C   UNL     1      11.155  52.168  91.927  1.00  0.00     0.016 C 
ATOM     19  C   UNL     1      13.756  47.822  93.836  1.00  0.00     0.012 C 
ENDROOT
BRANCH   1  20
ATOM     20  C   UNL     1      12.779  45.228  94.881  1.00  0.00     0.133 C 
ATOM     21  C   UNL     1      14.075  44.572  95.266  1.00  0.00     0.088 C 
ATOM     22  O   UNL     1      11.939  45.415  95.749  1.00  0.00    -0.300 OA
ENDBRANCH   1  20
BRANCH  16  23
ATOM     23  O   UNL     1       9.820  50.970  87.564  1.00  0.00    -0.393 OA
ATOM     24  H   UNL     1      10.730  50.819  87.199  1.00  0.00     0.210 HD
ENDBRANCH  16  23
TORSDOF 2
ENDMDL
MODEL 9
REMARK VINA RESULT:     0.000      9.075     11.880
REMARK INTER + INTRA:          -0.129
REMARK INTER:                   0.000
REMARK INTRA:                  -0.129
REMARK UNBOUND:                -0.129
REMARK SMILES CC(=O)[C@@H]1CC[C@@H]2[C@H]3CC=C4C[C@@H](O)CC[C@@]4(C)[C@H]3CC[C@]21C
REMARK SMILES IDX 4 1 5 2 6 3 7 4 22 5 21 6 20 7 19 8 8 9 9 10 10 11 11 12
REMARK SMILES IDX 17 13 16 14 15 15 13 16 12 17 18 18 23 19 2 20 1 21 3 22
REMARK SMILES IDX 14 23
REMARK H PARENT 14 24
REMARK Flexibility Score: inf
ROOT
ATOM      1  C   UNL     1      10.811  42.393  87.432  1.00  0.00     0.062 C 
ATOM      2  C   UNL     1      10.101  43.565  86.707  1.00  0.00     0.012 C 
ATOM      3  C   UNL     1       8.592  43.360  86.923  1.00  0.00     0.005 C 
ATOM      4  C   UNL     1       8.484  42.028  87.660  1.00  0.00    -0.001 C 
ATOM      5  C   UNL     1       9.777  41.912  88.481  1.00  0.00    -0.020 C 
ATOM      6  C   UNL     1       9.961  40.432  88.941  1.00  0.00     0.008 C 
ATOM      7  C   UNL     1       8.634  39.628  89.000  1.00  0.00     0.005 C 
ATOM      8  C   UNL     1       7.389  40.482  89.403  1.00  0.00     0.003 C 
ATOM      9  C   UNL     1       7.214  41.764  88.503  1.00  0.00     0.000 C 
ATOM     10  C   UNL     1       5.989  41.672  87.599  1.00  0.00     0.031 C 
ATOM     11  C   UNL     1       4.775  41.363  88.408  1.00  0.00    -0.027 C 
ATOM     12  C   UNL     1       4.786  40.388  89.336  1.00  0.00    -0.065 C 
ATOM     13  C   UNL     1       6.070  39.611  89.648  1.00  0.00    -0.008 C 
ATOM     14  C   UNL     1       5.999  38.325  88.763  1.00  0.00     0.014 C 
ATOM     15  C   UNL     1       4.668  37.542  88.906  1.00  0.00     0.033 C 
ATOM     16  C   UNL     1       3.409  38.420  88.735  1.00  0.00     0.118 C 
ATOM     17  C   UNL     1       3.475  39.687  89.612  1.00  0.00     0.063 C 
ATOM     18  C   UNL     1       6.080  39.195  91.149  1.00  0.00     0.016 C 
ATOM     19  C   UNL     1       9.795  42.865  89.720  1.00  0.00     0.012 C 
ENDROOT
BRANCH   1  20
ATOM     20  C   UNL     1      12.194  42.687  87.992  1.00  0.00     0.133 C 
ATOM     21  C   UNL     1      12.741  44.080  88.124  1.00  0.00     0.088 C 
ATOM     22  O   UNL     1      12.895  41.749  88.343  1.00  0.00    -0.300 OA
ENDBRANCH   1  20
BRANCH  16  23
ATOM     23  O   UNL     1       3.273  38.773  87.381  1.00  0.00    -0.393 OA
ATOM     24  H   UNL     1       2.727  39.602  87.354  1.00  0.00     0.210 HD
ENDBRANCH  16  23
TORSDOF 2
ENDMDL
