MODEL 1
REMARK VINA RESULT:    -2.778      0.000      0.000
REMARK INTER + INTRA:          -3.022
REMARK INTER:                  -3.022
REMARK INTRA:                   0.000
REMARK UNBOUND:                 0.000
REMARK SMILES [NH3+]CC(=O)[O-]
REMARK SMILES IDX 2 1 1 2 3 6 4 7 5 8
REMARK H PARENT 1 3 1 4 1 5
REMARK Flexibility Score: inf
ROOT
ATOM      1  C   UNL     1     147.580 143.865 132.017  1.00  0.00     0.312 C 
ENDROOT
BRANCH   1   2
ATOM      2  N   UNL     1     146.173 143.496 131.880  1.00  0.00    -0.353 N 
ATOM      3  H   UNL     1     145.945 142.754 132.581  1.00  0.00     0.344 HD
ATOM      4  H   UNL     1     145.565 144.328 132.058  1.00  0.00     0.344 HD
ATOM      5  H   UNL     1     145.990 143.124 130.920  1.00  0.00     0.344 HD
ENDBRANCH   1   2
BRANCH   1   6
ATOM      6  C   UNL     1     148.263 142.984 133.018  1.00  0.00     0.096 C 
ATOM      7  O   UNL     1     148.375 141.750 132.802  1.00  0.00    -0.544 OA
ATOM      8  O   UNL     1     148.727 143.520 134.213  1.00  0.00    -0.544 OA
ENDBRANCH   1   6
TORSDOF 2
ENDMDL
MODEL 2
REMARK VINA RESULT:    -2.763      0.904      1.657
REMARK INTER + INTRA:          -3.005
REMARK INTER:                  -3.005
REMARK INTRA:                   0.000
REMARK UNBOUND:                 0.000
REMARK SMILES [NH3+]CC(=O)[O-]
REMARK SMILES IDX 2 1 1 2 3 6 4 7 5 8
REMARK H PARENT 1 3 1 4 1 5
REMARK Flexibility Score: inf
ROOT
ATOM      1  C   UNL     1     147.537 143.783 131.939  1.00  0.00     0.312 C 
ENDROOT
BRANCH   1   2
ATOM      2  N   UNL     1     146.105 143.496 131.883  1.00  0.00    -0.353 N 
ATOM      3  H   UNL     1     145.576 144.398 131.874  1.00  0.00     0.344 HD
ATOM      4  H   UNL     1     145.881 142.964 131.011  1.00  0.00     0.344 HD
ATOM      5  H   UNL     1     145.817 142.941 132.720  1.00  0.00     0.344 HD
ENDBRANCH   1   2
BRANCH   1   6
ATOM      6  C   UNL     1     148.312 142.545 132.272  1.00  0.00     0.096 C 
ATOM      7  O   UNL     1     148.656 142.314 133.460  1.00  0.00    -0.544 OA
ATOM      8  O   UNL     1     148.698 141.673 131.261  1.00  0.00    -0.544 OA
ENDBRANCH   1   6
TORSDOF 2
ENDMDL
MODEL 3
REMARK VINA RESULT:    -2.745     17.392     17.585
REMARK INTER + INTRA:          -2.986
REMARK INTER:                  -2.986
REMARK INTRA:                   0.000
REMARK UNBOUND:                 0.000
REMARK SMILES [NH3+]CC(=O)[O-]
REMARK SMILES IDX 2 1 1 2 3 6 4 7 5 8
REMARK H PARENT 1 3 1 4 1 5
REMARK Flexibility Score: inf
ROOT
ATOM      1  C   UNL     1     129.759 143.869 131.744  1.00  0.00     0.312 C 
ENDROOT
BRANCH   1   2
ATOM      2  N   UNL     1     130.626 142.701 131.892  1.00  0.00    -0.353 N 
ATOM      3  H   UNL     1     130.373 141.994 131.163  1.00  0.00     0.344 HD
ATOM      4  H   UNL     1     131.626 142.979 131.762  1.00  0.00     0.344 HD
ATOM      5  H   UNL     1     130.497 142.276 132.838  1.00  0.00     0.344 HD
ENDBRANCH   1   2
BRANCH   1   6
ATOM      6  C   UNL     1     130.431 145.097 132.275  1.00  0.00     0.096 C 
ATOM      7  O   UNL     1     130.390 145.359 133.505  1.00  0.00    -0.544 OA
ATOM      8  O   UNL     1     131.059 145.979 131.404  1.00  0.00    -0.544 OA
ENDBRANCH   1   6
TORSDOF 2
ENDMDL
MODEL 4
REMARK VINA RESULT:    -2.737     17.305     17.471
REMARK INTER + INTRA:          -2.977
REMARK INTER:                  -2.977
REMARK INTRA:                   0.000
REMARK UNBOUND:                 0.000
REMARK SMILES [NH3+]CC(=O)[O-]
REMARK SMILES IDX 2 1 1 2 3 6 4 7 5 8
REMARK H PARENT 1 3 1 4 1 5
REMARK Flexibility Score: inf
ROOT
ATOM      1  C   UNL     1     130.245 143.491 132.254  1.00  0.00     0.312 C 
ENDROOT
BRANCH   1   2
ATOM      2  N   UNL     1     131.595 143.004 131.976  1.00  0.00    -0.353 N 
ATOM      3  H   UNL     1     131.534 142.165 131.354  1.00  0.00     0.344 HD
ATOM      4  H   UNL     1     132.150 143.746 131.490  1.00  0.00     0.344 HD
ATOM      5  H   UNL     1     132.071 142.734 132.866  1.00  0.00     0.344 HD
ENDBRANCH   1   2
BRANCH   1   6
ATOM      6  C   UNL     1     130.294 144.777 133.020  1.00  0.00     0.096 C 
ATOM      7  O   UNL     1     131.168 145.641 132.749  1.00  0.00    -0.544 OA
ATOM      8  O   UNL     1     129.408 144.998 134.066  1.00  0.00    -0.544 OA
ENDBRANCH   1   6
TORSDOF 2
ENDMDL
MODEL 5
REMARK VINA RESULT:    -2.571     20.447     20.738
REMARK INTER + INTRA:          -2.796
REMARK INTER:                  -2.796
REMARK INTRA:                   0.000
REMARK UNBOUND:                 0.000
REMARK SMILES [NH3+]CC(=O)[O-]
REMARK SMILES IDX 2 1 1 2 3 6 4 7 5 8
REMARK H PARENT 1 3 1 4 1 5
REMARK Flexibility Score: inf
ROOT
ATOM      1  C   UNL     1     131.901 131.856 133.806  1.00  0.00     0.312 C 
ENDROOT
BRANCH   1   2
ATOM      2  N   UNL     1     132.461 130.517 133.982  1.00  0.00    -0.353 N 
ATOM      3  H   UNL     1     133.238 130.562 134.681  1.00  0.00     0.344 HD
ATOM      4  H   UNL     1     131.725 129.864 134.336  1.00  0.00     0.344 HD
ATOM      5  H   UNL     1     132.840 130.164 133.074  1.00  0.00     0.344 HD
ENDBRANCH   1   2
BRANCH   1   6
ATOM      6  C   UNL     1     130.447 131.778 133.455  1.00  0.00     0.096 C 
ATOM      7  O   UNL     1     129.699 132.774 133.634  1.00  0.00    -0.544 OA
ATOM      8  O   UNL     1     129.909 130.589 132.979  1.00  0.00    -0.544 OA
ENDBRANCH   1   6
TORSDOF 2
ENDMDL
MODEL 6
REMARK VINA RESULT:    -2.482      1.948      2.068
REMARK INTER + INTRA:          -2.699
REMARK INTER:                  -2.699
REMARK INTRA:                   0.000
REMARK UNBOUND:                 0.000
REMARK SMILES [NH3+]CC(=O)[O-]
REMARK SMILES IDX 2 1 1 2 3 6 4 7 5 8
REMARK H PARENT 1 3 1 4 1 5
REMARK Flexibility Score: inf
ROOT
ATOM      1  C   UNL     1     148.852 141.666 131.544  1.00  0.00     0.312 C 
ENDROOT
BRANCH   1   2
ATOM      2  N   UNL     1     148.013 141.403 130.377  1.00  0.00    -0.353 N 
ATOM      3  H   UNL     1     147.140 141.974 130.448  1.00  0.00     0.344 HD
ATOM      4  H   UNL     1     148.522 141.670 129.502  1.00  0.00     0.344 HD
ATOM      5  H   UNL     1     147.755 140.391 130.340  1.00  0.00     0.344 HD
ENDBRANCH   1   2
BRANCH   1   6
ATOM      6  C   UNL     1     148.091 142.436 132.579  1.00  0.00     0.096 C 
ATOM      7  O   UNL     1     146.904 142.791 132.357  1.00  0.00    -0.544 OA
ATOM      8  O   UNL     1     148.710 142.804 133.768  1.00  0.00    -0.544 OA
ENDBRANCH   1   6
TORSDOF 2
ENDMDL
MODEL 7
REMARK VINA RESULT:    -2.470     17.563     17.799
REMARK INTER + INTRA:          -2.686
REMARK INTER:                  -2.686
REMARK INTRA:                   0.000
REMARK UNBOUND:                 0.000
REMARK SMILES [NH3+]CC(=O)[O-]
REMARK SMILES IDX 2 1 1 2 3 6 4 7 5 8
REMARK H PARENT 1 3 1 4 1 5
REMARK Flexibility Score: inf
ROOT
ATOM      1  C   UNL     1     130.293 145.009 131.734  1.00  0.00     0.312 C 
ENDROOT
BRANCH   1   2
ATOM      2  N   UNL     1     131.457 144.668 130.918  1.00  0.00    -0.353 N 
ATOM      3  H   UNL     1     131.187 143.929 130.229  1.00  0.00     0.344 HD
ATOM      4  H   UNL     1     131.788 145.513 130.397  1.00  0.00     0.344 HD
ATOM      5  H   UNL     1     132.226 144.303 131.524  1.00  0.00     0.344 HD
ENDBRANCH   1   2
BRANCH   1   6
ATOM      6  C   UNL     1     129.818 143.814 132.502  1.00  0.00     0.096 C 
ATOM      7  O   UNL     1     128.876 143.927 133.329  1.00  0.00    -0.544 OA
ATOM      8  O   UNL     1     130.449 142.587 132.341  1.00  0.00    -0.544 OA
ENDBRANCH   1   6
TORSDOF 2
ENDMDL
MODEL 8
REMARK VINA RESULT:    -2.440     17.850     18.082
REMARK INTER + INTRA:          -2.654
REMARK INTER:                  -2.654
REMARK INTRA:                   0.000
REMARK UNBOUND:                 0.000
REMARK SMILES [NH3+]CC(=O)[O-]
REMARK SMILES IDX 2 1 1 2 3 6 4 7 5 8
REMARK H PARENT 1 3 1 4 1 5
REMARK Flexibility Score: inf
ROOT
ATOM      1  C   UNL     1     130.403 145.134 132.858  1.00  0.00     0.312 C 
ENDROOT
BRANCH   1   2
ATOM      2  N   UNL     1     129.702 145.314 134.127  1.00  0.00    -0.353 N 
ATOM      3  H   UNL     1     130.146 144.704 134.852  1.00  0.00     0.344 HD
ATOM      4  H   UNL     1     129.771 146.312 134.436  1.00  0.00     0.344 HD
ATOM      5  H   UNL     1     128.698 145.044 134.025  1.00  0.00     0.344 HD
ENDBRANCH   1   2
BRANCH   1   6
ATOM      6  C   UNL     1     129.923 143.899 132.160  1.00  0.00     0.096 C 
ATOM      7  O   UNL     1     128.978 143.967 131.331  1.00  0.00    -0.544 OA
ATOM      8  O   UNL     1     130.486 142.665 132.463  1.00  0.00    -0.544 OA
ENDBRANCH   1   6
TORSDOF 2
ENDMDL
MODEL 9
REMARK VINA RESULT:    -2.402     17.228     17.339
REMARK INTER + INTRA:          -2.613
REMARK INTER:                  -2.613
REMARK INTRA:                   0.000
REMARK UNBOUND:                 0.000
REMARK SMILES [NH3+]CC(=O)[O-]
REMARK SMILES IDX 2 1 1 2 3 6 4 7 5 8
REMARK H PARENT 1 3 1 4 1 5
REMARK Flexibility Score: inf
ROOT
ATOM      1  C   UNL     1     130.607 145.394 131.201  1.00  0.00     0.312 C 
ENDROOT
BRANCH   1   2
ATOM      2  N   UNL     1     131.552 146.464 131.519  1.00  0.00    -0.353 N 
ATOM      3  H   UNL     1     132.383 146.383 130.888  1.00  0.00     0.344 HD
ATOM      4  H   UNL     1     131.101 147.396 131.367  1.00  0.00     0.344 HD
ATOM      5  H   UNL     1     131.868 146.381 132.511  1.00  0.00     0.344 HD
ENDBRANCH   1   2
BRANCH   1   6
ATOM      6  C   UNL     1     130.444 144.470 132.369  1.00  0.00     0.096 C 
ATOM      7  O   UNL     1     130.614 143.231 132.223  1.00  0.00    -0.544 OA
ATOM      8  O   UNL     1     130.052 144.971 133.604  1.00  0.00    -0.544 OA
ENDBRANCH   1   6
TORSDOF 2
ENDMDL
