MODEL 1
REMARK VINA RESULT:    -3.115      0.000      0.000
REMARK INTER + INTRA:          -3.510
REMARK INTER:                  -3.480
REMARK INTRA:                  -0.031
REMARK UNBOUND:                -0.031
REMARK SMILES CCCC(=O)[O-]
REMARK SMILES IDX 3 1 4 2 5 3 6 4 2 5 1 6
REMARK H PARENT
REMARK Flexibility Score: inf
ROOT
ATOM      1  C   UNL     1      26.670  -5.894  40.034  1.00  0.00     0.052 C 
ENDROOT
BRANCH   1   2
ATOM      2  C   UNL     1      26.898  -7.322  39.642  1.00  0.00     0.041 C 
ATOM      3  O   UNL     1      27.979  -7.664  39.093  1.00  0.00    -0.550 OA
ATOM      4  O   UNL     1      25.931  -8.281  39.914  1.00  0.00    -0.550 OA
ENDBRANCH   1   2
BRANCH   1   5
ATOM      5  C   UNL     1      25.207  -5.639  40.421  1.00  0.00     0.003 C 
ATOM      6  C   UNL     1      24.350  -5.237  39.221  1.00  0.00     0.004 C 
ENDBRANCH   1   5
TORSDOF 2
ENDMDL
MODEL 2
REMARK VINA RESULT:    -3.115      2.156      3.442
REMARK INTER + INTRA:          -3.510
REMARK INTER:                  -3.502
REMARK INTRA:                  -0.008
REMARK UNBOUND:                -0.031
REMARK SMILES CCCC(=O)[O-]
REMARK SMILES IDX 3 1 4 2 5 3 6 4 2 5 1 6
REMARK H PARENT
REMARK Flexibility Score: inf
ROOT
ATOM      1  C   UNL     1      28.185  -6.465  39.307  1.00  0.00     0.052 C 
ENDROOT
BRANCH   1   2
ATOM      2  C   UNL     1      26.743  -6.658  39.663  1.00  0.00     0.041 C 
ATOM      3  O   UNL     1      25.991  -5.661  39.828  1.00  0.00    -0.550 OA
ATOM      4  O   UNL     1      26.221  -7.939  39.780  1.00  0.00    -0.550 OA
ENDBRANCH   1   2
BRANCH   1   5
ATOM      5  C   UNL     1      28.768  -7.702  38.612  1.00  0.00     0.003 C 
ATOM      6  C   UNL     1      29.993  -7.369  37.763  1.00  0.00     0.004 C 
ENDBRANCH   1   5
TORSDOF 2
ENDMDL
MODEL 3
REMARK VINA RESULT:    -3.099      1.407      1.917
REMARK INTER + INTRA:          -3.492
REMARK INTER:                  -3.453
REMARK INTRA:                  -0.039
REMARK UNBOUND:                -0.031
REMARK SMILES CCCC(=O)[O-]
REMARK SMILES IDX 3 1 4 2 5 3 6 4 2 5 1 6
REMARK H PARENT
REMARK Flexibility Score: inf
ROOT
ATOM      1  C   UNL     1      26.514  -6.045  40.770  1.00  0.00     0.052 C 
ENDROOT
BRANCH   1   2
ATOM      2  C   UNL     1      27.531  -6.136  39.673  1.00  0.00     0.041 C 
ATOM      3  O   UNL     1      28.009  -7.253  39.342  1.00  0.00    -0.550 OA
ATOM      4  O   UNL     1      27.925  -4.990  38.995  1.00  0.00    -0.550 OA
ENDBRANCH   1   2
BRANCH   1   5
ATOM      5  C   UNL     1      25.114  -5.739  40.221  1.00  0.00     0.003 C 
ATOM      6  C   UNL     1      24.296  -7.006  39.977  1.00  0.00     0.004 C 
ENDBRANCH   1   5
TORSDOF 2
ENDMDL
MODEL 4
REMARK VINA RESULT:    -3.073      3.214      4.167
REMARK INTER + INTRA:          -3.463
REMARK INTER:                  -3.457
REMARK INTRA:                  -0.006
REMARK UNBOUND:                -0.031
REMARK SMILES CCCC(=O)[O-]
REMARK SMILES IDX 3 1 4 2 5 3 6 4 2 5 1 6
REMARK H PARENT
REMARK Flexibility Score: inf
ROOT
ATOM      1  C   UNL     1      22.925  -6.923  39.603  1.00  0.00     0.052 C 
ENDROOT
BRANCH   1   2
ATOM      2  C   UNL     1      22.063  -8.148  39.666  1.00  0.00     0.041 C 
ATOM      3  O   UNL     1      22.293  -9.125  38.906  1.00  0.00    -0.550 OA
ATOM      4  O   UNL     1      21.028  -8.222  40.588  1.00  0.00    -0.550 OA
ENDBRANCH   1   2
BRANCH   1   5
ATOM      5  C   UNL     1      24.385  -7.239  39.953  1.00  0.00     0.003 C 
ATOM      6  C   UNL     1      25.187  -5.983  40.288  1.00  0.00     0.004 C 
ENDBRANCH   1   5
TORSDOF 2
ENDMDL
MODEL 5
REMARK VINA RESULT:    -3.038     18.385     19.208
REMARK INTER + INTRA:          -3.424
REMARK INTER:                  -3.387
REMARK INTRA:                  -0.037
REMARK UNBOUND:                -0.031
REMARK SMILES CCCC(=O)[O-]
REMARK SMILES IDX 3 1 4 2 5 3 6 4 2 5 1 6
REMARK H PARENT
REMARK Flexibility Score: inf
ROOT
ATOM      1  C   UNL     1      12.322   5.140  39.040  1.00  0.00     0.052 C 
ENDROOT
BRANCH   1   2
ATOM      2  C   UNL     1      11.269   5.032  37.980  1.00  0.00     0.041 C 
ATOM      3  O   UNL     1      11.335   4.123  37.111  1.00  0.00    -0.550 OA
ATOM      4  O   UNL     1      10.197   5.915  37.972  1.00  0.00    -0.550 OA
ENDBRANCH   1   2
BRANCH   1   5
ATOM      5  C   UNL     1      12.527   6.593  39.489  1.00  0.00     0.003 C 
ATOM      6  C   UNL     1      11.996   6.847  40.898  1.00  0.00     0.004 C 
ENDBRANCH   1   5
TORSDOF 2
ENDMDL
MODEL 6
REMARK VINA RESULT:    -2.998     17.507     18.443
REMARK INTER + INTRA:          -3.379
REMARK INTER:                  -3.346
REMARK INTRA:                  -0.033
REMARK UNBOUND:                -0.031
REMARK SMILES CCCC(=O)[O-]
REMARK SMILES IDX 3 1 4 2 5 3 6 4 2 5 1 6
REMARK H PARENT
REMARK Flexibility Score: inf
ROOT
ATOM      1  C   UNL     1      10.881   3.336  37.619  1.00  0.00     0.052 C 
ENDROOT
BRANCH   1   2
ATOM      2  C   UNL     1      11.357   4.659  38.138  1.00  0.00     0.041 C 
ATOM      3  O   UNL     1      12.437   4.737  38.779  1.00  0.00    -0.550 OA
ATOM      4  O   UNL     1      10.622   5.809  37.883  1.00  0.00    -0.550 OA
ENDBRANCH   1   2
BRANCH   1   5
ATOM      5  C   UNL     1      12.022   2.536  36.975  1.00  0.00     0.003 C 
ATOM      6  C   UNL     1      12.043   2.676  35.453  1.00  0.00     0.004 C 
ENDBRANCH   1   5
TORSDOF 2
ENDMDL
MODEL 7
REMARK VINA RESULT:    -2.997      1.540      2.476
REMARK INTER + INTRA:          -3.378
REMARK INTER:                  -3.340
REMARK INTRA:                  -0.038
REMARK UNBOUND:                -0.031
REMARK SMILES CCCC(=O)[O-]
REMARK SMILES IDX 3 1 4 2 5 3 6 4 2 5 1 6
REMARK H PARENT
REMARK Flexibility Score: inf
ROOT
ATOM      1  C   UNL     1      25.242  -5.751  40.418  1.00  0.00     0.052 C 
ENDROOT
BRANCH   1   2
ATOM      2  C   UNL     1      24.605  -7.047  40.018  1.00  0.00     0.041 C 
ATOM      3  O   UNL     1      25.291  -8.101  39.967  1.00  0.00    -0.550 OA
ATOM      4  O   UNL     1      23.247  -7.095  39.735  1.00  0.00    -0.550 OA
ENDBRANCH   1   2
BRANCH   1   5
ATOM      5  C   UNL     1      26.768  -5.874  40.512  1.00  0.00     0.003 C 
ATOM      6  C   UNL     1      27.476  -5.272  39.299  1.00  0.00     0.004 C 
ENDBRANCH   1   5
TORSDOF 2
ENDMDL
MODEL 8
REMARK VINA RESULT:    -2.989     18.659     19.477
REMARK INTER + INTRA:          -3.370
REMARK INTER:                  -3.300
REMARK INTRA:                  -0.070
REMARK UNBOUND:                -0.031
REMARK SMILES CCCC(=O)[O-]
REMARK SMILES IDX 3 1 4 2 5 3 6 4 2 5 1 6
REMARK H PARENT
REMARK Flexibility Score: inf
ROOT
ATOM      1  C   UNL     1      12.236   5.994  39.283  1.00  0.00     0.052 C 
ENDROOT
BRANCH   1   2
ATOM      2  C   UNL     1      10.815   6.247  38.878  1.00  0.00     0.041 C 
ATOM      3  O   UNL     1      10.396   5.858  37.756  1.00  0.00    -0.550 OA
ATOM      4  O   UNL     1       9.946   6.884  39.755  1.00  0.00    -0.550 OA
ENDBRANCH   1   2
BRANCH   1   5
ATOM      5  C   UNL     1      12.576   4.498  39.252  1.00  0.00     0.003 C 
ATOM      6  C   UNL     1      11.752   3.694  40.256  1.00  0.00     0.004 C 
ENDBRANCH   1   5
TORSDOF 2
ENDMDL
MODEL 9
REMARK VINA RESULT:    -2.989     18.472     19.412
REMARK INTER + INTRA:          -3.369
REMARK INTER:                  -3.306
REMARK INTRA:                  -0.063
REMARK UNBOUND:                -0.031
REMARK SMILES CCCC(=O)[O-]
REMARK SMILES IDX 3 1 4 2 5 3 6 4 2 5 1 6
REMARK H PARENT
REMARK Flexibility Score: inf
ROOT
ATOM      1  C   UNL     1      10.805   6.238  39.014  1.00  0.00     0.052 C 
ENDROOT
BRANCH   1   2
ATOM      2  C   UNL     1      11.943   6.844  39.777  1.00  0.00     0.041 C 
ATOM      3  O   UNL     1      12.918   7.353  39.163  1.00  0.00    -0.550 OA
ATOM      4  O   UNL     1      11.911   6.877  41.164  1.00  0.00    -0.550 OA
ENDBRANCH   1   2
BRANCH   1   5
ATOM      5  C   UNL     1      11.293   5.196  38.000  1.00  0.00     0.003 C 
ATOM      6  C   UNL     1      11.935   3.985  38.674  1.00  0.00     0.004 C 
ENDBRANCH   1   5
TORSDOF 2
ENDMDL
