MODEL 1
REMARK VINA RESULT:    -6.133      0.000      0.000
REMARK INTER + INTRA:          -7.489
REMARK INTER:                  -7.209
REMARK INTRA:                  -0.280
REMARK UNBOUND:                -0.280
REMARK SMILES O=c1c(O)c(-c2ccc(O)cc2)oc2cc(O)cc(O)c12
REMARK SMILES IDX 5 1 3 2 2 3 1 4 21 5 19 6 18 7 16 8 15 9 14 10 13 11 6 12
REMARK SMILES IDX 7 13 8 14 9 15 12 16 11 17 10 18 4 20 20 22 17 24
REMARK H PARENT 10 19 4 21 20 23 17 25
REMARK Flexibility Score: inf
ROOT
ATOM      1  C   UNL     1      63.406   3.191  13.275  1.00  0.00     0.180 A 
ATOM      2  C   UNL     1      64.721   3.628  13.509  1.00  0.00     0.208 A 
ATOM      3  C   UNL     1      65.305   4.541  12.615  1.00  0.00     0.238 A 
ATOM      4  O   UNL     1      66.501   4.886  12.799  1.00  0.00    -0.285 OA
ATOM      5  C   UNL     1      64.561   5.016  11.508  1.00  0.00     0.111 A 
ATOM      6  C   UNL     1      65.038   5.971  10.562  1.00  0.00     0.134 A 
ATOM      7  C   UNL     1      64.266   6.272   9.433  1.00  0.00     0.093 A 
ATOM      8  C   UNL     1      63.004   5.699   9.251  1.00  0.00     0.123 A 
ATOM      9  C   UNL     1      62.505   4.811  10.200  1.00  0.00     0.094 A 
ATOM     10  C   UNL     1      63.268   4.464  11.318  1.00  0.00     0.146 A 
ATOM     11  O   UNL     1      62.758   3.605  12.193  1.00  0.00    -0.452 OA
ENDROOT
BRANCH   1  12
ATOM     12  C   UNL     1      62.715   2.250  14.187  1.00  0.00     0.021 A 
ATOM     13  C   UNL     1      62.087   2.743  15.343  1.00  0.00     0.016 A 
ATOM     14  C   UNL     1      61.449   1.870  16.228  1.00  0.00     0.047 A 
ATOM     15  C   UNL     1      61.444   0.494  15.980  1.00  0.00     0.115 A 
ATOM     16  C   UNL     1      62.725   0.863  13.953  1.00  0.00     0.016 A 
ATOM     17  C   UNL     1      62.086  -0.008  14.841  1.00  0.00     0.047 A 
BRANCH  15  18
ATOM     18  O   UNL     1      60.803  -0.364  16.871  1.00  0.00    -0.508 OA
ATOM     19  H   UNL     1      61.283  -1.158  17.278  1.00  0.00     0.293 HD
ENDBRANCH  15  18
ENDBRANCH   1  12
BRANCH   2  20
ATOM     20  O   UNL     1      65.446   3.129  14.595  1.00  0.00    -0.502 OA
ATOM     21  H   UNL     1      65.524   3.629  15.473  1.00  0.00     0.293 HD
ENDBRANCH   2  20
BRANCH   6  22
ATOM     22  O   UNL     1      66.242   6.670  10.697  1.00  0.00    -0.507 OA
ATOM     23  H   UNL     1      67.085   6.468  10.181  1.00  0.00     0.293 HD
ENDBRANCH   6  22
BRANCH   8  24
ATOM     24  O   UNL     1      62.235   6.015   8.134  1.00  0.00    -0.508 OA
ATOM     25  H   UNL     1      61.847   5.295   7.535  1.00  0.00     0.293 HD
ENDBRANCH   8  24
TORSDOF 5
ENDMDL
MODEL 2
REMARK VINA RESULT:    -6.008      2.955      5.170
REMARK INTER + INTRA:          -7.341
REMARK INTER:                  -7.058
REMARK INTRA:                  -0.283
REMARK UNBOUND:                -0.280
REMARK SMILES O=c1c(O)c(-c2ccc(O)cc2)oc2cc(O)cc(O)c12
REMARK SMILES IDX 5 1 3 2 2 3 1 4 21 5 19 6 18 7 16 8 15 9 14 10 13 11 6 12
REMARK SMILES IDX 7 13 8 14 9 15 12 16 11 17 10 18 4 20 20 22 17 24
REMARK H PARENT 10 19 4 21 20 23 17 25
REMARK Flexibility Score: inf
ROOT
ATOM      1  C   UNL     1      65.554   4.742  12.223  1.00  0.00     0.180 A 
ATOM      2  C   UNL     1      64.435   4.421  13.011  1.00  0.00     0.208 A 
ATOM      3  C   UNL     1      63.149   4.662  12.499  1.00  0.00     0.238 A 
ATOM      4  O   UNL     1      62.153   4.423  13.230  1.00  0.00    -0.285 OA
ATOM      5  C   UNL     1      62.998   5.206  11.201  1.00  0.00     0.111 A 
ATOM      6  C   UNL     1      61.744   5.455  10.567  1.00  0.00     0.134 A 
ATOM      7  C   UNL     1      61.712   6.116   9.333  1.00  0.00     0.093 A 
ATOM      8  C   UNL     1      62.893   6.480   8.681  1.00  0.00     0.123 A 
ATOM      9  C   UNL     1      64.124   6.188   9.264  1.00  0.00     0.094 A 
ATOM     10  C   UNL     1      64.187   5.561  10.511  1.00  0.00     0.146 A 
ATOM     11  O   UNL     1      65.380   5.311  11.036  1.00  0.00    -0.452 OA
ENDROOT
BRANCH   1  12
ATOM     12  C   UNL     1      66.939   4.493  12.684  1.00  0.00     0.021 A 
ATOM     13  C   UNL     1      67.704   5.561  13.182  1.00  0.00     0.016 A 
ATOM     14  C   UNL     1      69.021   5.353  13.601  1.00  0.00     0.047 A 
ATOM     15  C   UNL     1      69.595   4.081  13.513  1.00  0.00     0.115 A 
ATOM     16  C   UNL     1      67.529   3.221  12.578  1.00  0.00     0.016 A 
ATOM     17  C   UNL     1      68.847   3.015  12.997  1.00  0.00     0.047 A 
BRANCH  15  18
ATOM     18  O   UNL     1      70.909   3.889  13.935  1.00  0.00    -0.508 OA
ATOM     19  H   UNL     1      71.689   4.312  13.446  1.00  0.00     0.293 HD
ENDBRANCH  15  18
ENDBRANCH   1  12
BRANCH   2  20
ATOM     20  O   UNL     1      64.606   3.904  14.298  1.00  0.00    -0.502 OA
ATOM     21  H   UNL     1      64.789   4.494  15.101  1.00  0.00     0.293 HD
ENDBRANCH   2  20
BRANCH   6  22
ATOM     22  O   UNL     1      60.512   5.050  11.089  1.00  0.00    -0.507 OA
ATOM     23  H   UNL     1      59.906   5.631  11.649  1.00  0.00     0.293 HD
ENDBRANCH   6  22
BRANCH   8  24
ATOM     24  O   UNL     1      62.853   7.124   7.447  1.00  0.00    -0.508 OA
ATOM     25  H   UNL     1      63.545   7.817   7.186  1.00  0.00     0.293 HD
ENDBRANCH   8  24
TORSDOF 5
ENDMDL
MODEL 3
REMARK VINA RESULT:    -5.967      2.906      4.786
REMARK INTER + INTRA:          -7.293
REMARK INTER:                  -7.082
REMARK INTRA:                  -0.210
REMARK UNBOUND:                -0.280
REMARK SMILES O=c1c(O)c(-c2ccc(O)cc2)oc2cc(O)cc(O)c12
REMARK SMILES IDX 5 1 3 2 2 3 1 4 21 5 19 6 18 7 16 8 15 9 14 10 13 11 6 12
REMARK SMILES IDX 7 13 8 14 9 15 12 16 11 17 10 18 4 20 20 22 17 24
REMARK H PARENT 10 19 4 21 20 23 17 25
REMARK Flexibility Score: inf
ROOT
ATOM      1  C   UNL     1      65.736   3.517  13.684  1.00  0.00     0.180 A 
ATOM      2  C   UNL     1      65.541   4.720  12.984  1.00  0.00     0.208 A 
ATOM      3  C   UNL     1      66.650   5.536  12.708  1.00  0.00     0.238 A 
ATOM      4  O   UNL     1      66.461   6.638  12.130  1.00  0.00    -0.285 OA
ATOM      5  C   UNL     1      67.942   5.131  13.121  1.00  0.00     0.111 A 
ATOM      6  C   UNL     1      69.141   5.860  12.861  1.00  0.00     0.134 A 
ATOM      7  C   UNL     1      70.348   5.432  13.429  1.00  0.00     0.093 A 
ATOM      8  C   UNL     1      70.408   4.265  14.196  1.00  0.00     0.123 A 
ATOM      9  C   UNL     1      69.254   3.514  14.405  1.00  0.00     0.094 A 
ATOM     10  C   UNL     1      68.029   3.936  13.881  1.00  0.00     0.146 A 
ATOM     11  O   UNL     1      66.951   3.197  14.115  1.00  0.00    -0.452 OA
ENDROOT
BRANCH   1  12
ATOM     12  C   UNL     1      64.620   2.593  13.989  1.00  0.00     0.021 A 
ATOM     13  C   UNL     1      63.707   2.924  15.005  1.00  0.00     0.016 A 
ATOM     14  C   UNL     1      62.660   2.055  15.325  1.00  0.00     0.047 A 
ATOM     15  C   UNL     1      62.520   0.840  14.647  1.00  0.00     0.115 A 
ATOM     16  C   UNL     1      64.487   1.360  13.325  1.00  0.00     0.016 A 
ATOM     17  C   UNL     1      63.438   0.493  13.648  1.00  0.00     0.047 A 
BRANCH  15  18
ATOM     18  O   UNL     1      61.471  -0.015  14.977  1.00  0.00    -0.508 OA
ATOM     19  H   UNL     1      60.575   0.343  15.287  1.00  0.00     0.293 HD
ENDBRANCH  15  18
ENDBRANCH   1  12
BRANCH   2  20
ATOM     20  O   UNL     1      64.254   5.112  12.605  1.00  0.00    -0.502 OA
ATOM     21  H   UNL     1      63.433   4.553  12.806  1.00  0.00     0.293 HD
ENDBRANCH   2  20
BRANCH   6  22
ATOM     22  O   UNL     1      69.207   6.985  12.034  1.00  0.00    -0.507 OA
ATOM     23  H   UNL     1      69.936   7.682  12.068  1.00  0.00     0.293 HD
ENDBRANCH   6  22
BRANCH   8  24
ATOM     24  O   UNL     1      71.615   3.837  14.744  1.00  0.00    -0.508 OA
ATOM     25  H   UNL     1      72.282   3.299  14.205  1.00  0.00     0.293 HD
ENDBRANCH   8  24
TORSDOF 5
ENDMDL
MODEL 4
REMARK VINA RESULT:    -5.716      2.824      6.517
REMARK INTER + INTRA:          -6.998
REMARK INTER:                  -7.176
REMARK INTRA:                   0.178
REMARK UNBOUND:                -0.280
REMARK SMILES O=c1c(O)c(-c2ccc(O)cc2)oc2cc(O)cc(O)c12
REMARK SMILES IDX 5 1 3 2 2 3 1 4 21 5 19 6 18 7 16 8 15 9 14 10 13 11 6 12
REMARK SMILES IDX 7 13 8 14 9 15 12 16 11 17 10 18 4 20 20 22 17 24
REMARK H PARENT 10 19 4 21 20 23 17 25
REMARK Flexibility Score: inf
ROOT
ATOM      1  C   UNL     1      65.448   4.500  12.749  1.00  0.00     0.180 A 
ATOM      2  C   UNL     1      64.875   4.154  13.985  1.00  0.00     0.208 A 
ATOM      3  C   UNL     1      65.719   3.858  15.069  1.00  0.00     0.238 A 
ATOM      4  O   UNL     1      65.201   3.496  16.157  1.00  0.00    -0.285 OA
ATOM      5  C   UNL     1      67.124   3.927  14.906  1.00  0.00     0.111 A 
ATOM      6  C   UNL     1      68.072   3.686  15.945  1.00  0.00     0.134 A 
ATOM      7  C   UNL     1      69.438   3.654  15.640  1.00  0.00     0.093 A 
ATOM      8  C   UNL     1      69.893   3.918  14.345  1.00  0.00     0.123 A 
ATOM      9  C   UNL     1      68.979   4.213  13.338  1.00  0.00     0.094 A 
ATOM     10  C   UNL     1      67.607   4.216  13.604  1.00  0.00     0.146 A 
ATOM     11  O   UNL     1      66.769   4.492  12.612  1.00  0.00    -0.452 OA
ENDROOT
BRANCH   1  12
ATOM     12  C   UNL     1      64.624   4.850  11.570  1.00  0.00     0.021 A 
ATOM     13  C   UNL     1      64.986   5.951  10.775  1.00  0.00     0.016 A 
ATOM     14  C   UNL     1      64.209   6.312   9.671  1.00  0.00     0.047 A 
ATOM     15  C   UNL     1      63.055   5.590   9.355  1.00  0.00     0.115 A 
ATOM     16  C   UNL     1      63.450   4.140  11.259  1.00  0.00     0.016 A 
ATOM     17  C   UNL     1      62.675   4.504  10.154  1.00  0.00     0.047 A 
BRANCH  15  18
ATOM     18  O   UNL     1      62.291   5.961   8.251  1.00  0.00    -0.508 OA
ATOM     19  H   UNL     1      62.657   6.584   7.540  1.00  0.00     0.293 HD
ENDBRANCH  15  18
ENDBRANCH   1  12
BRANCH   2  20
ATOM     20  O   UNL     1      63.486   4.071  14.118  1.00  0.00    -0.502 OA
ATOM     21  H   UNL     1      62.859   4.748  13.703  1.00  0.00     0.293 HD
ENDBRANCH   2  20
BRANCH   6  22
ATOM     22  O   UNL     1      67.729   3.502  17.288  1.00  0.00    -0.507 OA
ATOM     23  H   UNL     1      66.830   3.727  17.688  1.00  0.00     0.293 HD
ENDBRANCH   6  22
BRANCH   8  24
ATOM     24  O   UNL     1      71.255   3.899  14.054  1.00  0.00    -0.508 OA
ATOM     25  H   UNL     1      71.629   3.334  13.301  1.00  0.00     0.293 HD
ENDBRANCH   8  24
TORSDOF 5
ENDMDL
MODEL 5
REMARK VINA RESULT:    -5.578      2.623      4.094
REMARK INTER + INTRA:          -6.836
REMARK INTER:                  -6.591
REMARK INTRA:                  -0.245
REMARK UNBOUND:                -0.280
REMARK SMILES O=c1c(O)c(-c2ccc(O)cc2)oc2cc(O)cc(O)c12
REMARK SMILES IDX 5 1 3 2 2 3 1 4 21 5 19 6 18 7 16 8 15 9 14 10 13 11 6 12
REMARK SMILES IDX 7 13 8 14 9 15 12 16 11 17 10 18 4 20 20 22 17 24
REMARK H PARENT 10 19 4 21 20 23 17 25
REMARK Flexibility Score: inf
ROOT
ATOM      1  C   UNL     1      64.220   3.754  12.461  1.00  0.00     0.180 A 
ATOM      2  C   UNL     1      63.011   3.943  13.152  1.00  0.00     0.208 A 
ATOM      3  C   UNL     1      62.002   4.722  12.561  1.00  0.00     0.238 A 
ATOM      4  O   UNL     1      60.944   4.933  13.208  1.00  0.00    -0.285 OA
ATOM      5  C   UNL     1      62.211   5.289  11.280  1.00  0.00     0.111 A 
ATOM      6  C   UNL     1      61.244   6.061  10.570  1.00  0.00     0.134 A 
ATOM      7  C   UNL     1      61.603   6.682   9.367  1.00  0.00     0.093 A 
ATOM      8  C   UNL     1      62.876   6.504   8.817  1.00  0.00     0.123 A 
ATOM      9  C   UNL     1      63.807   5.702   9.473  1.00  0.00     0.094 A 
ATOM     10  C   UNL     1      63.489   5.100  10.694  1.00  0.00     0.146 A 
ATOM     11  O   UNL     1      64.409   4.352  11.291  1.00  0.00    -0.452 OA
ENDROOT
BRANCH   1  12
ATOM     12  C   UNL     1      65.319   2.926  13.009  1.00  0.00     0.021 A 
ATOM     13  C   UNL     1      65.483   1.606  12.554  1.00  0.00     0.016 A 
ATOM     14  C   UNL     1      66.499   0.800  13.075  1.00  0.00     0.047 A 
ATOM     15  C   UNL     1      67.353   1.294  14.065  1.00  0.00     0.115 A 
ATOM     16  C   UNL     1      66.168   3.411  14.020  1.00  0.00     0.016 A 
ATOM     17  C   UNL     1      67.183   2.601  14.539  1.00  0.00     0.047 A 
BRANCH  15  18
ATOM     18  O   UNL     1      68.362   0.479  14.573  1.00  0.00    -0.508 OA
ATOM     19  H   UNL     1      69.185   0.253  14.027  1.00  0.00     0.293 HD
ENDBRANCH  15  18
ENDBRANCH   1  12
BRANCH   2  20
ATOM     20  O   UNL     1      62.834   3.393  14.425  1.00  0.00    -0.502 OA
ATOM     21  H   UNL     1      63.091   2.439  14.646  1.00  0.00     0.293 HD
ENDBRANCH   2  20
BRANCH   6  22
ATOM     22  O   UNL     1      59.919   6.226  10.984  1.00  0.00    -0.507 OA
ATOM     23  H   UNL     1      59.115   5.844  10.508  1.00  0.00     0.293 HD
ENDBRANCH   6  22
BRANCH   8  24
ATOM     24  O   UNL     1      63.221   7.112   7.612  1.00  0.00    -0.508 OA
ATOM     25  H   UNL     1      62.955   6.711   6.720  1.00  0.00     0.293 HD
ENDBRANCH   8  24
TORSDOF 5
ENDMDL
MODEL 6
REMARK VINA RESULT:    -5.465      2.404      3.953
REMARK INTER + INTRA:          -6.704
REMARK INTER:                  -6.408
REMARK INTRA:                  -0.295
REMARK UNBOUND:                -0.280
REMARK SMILES O=c1c(O)c(-c2ccc(O)cc2)oc2cc(O)cc(O)c12
REMARK SMILES IDX 5 1 3 2 2 3 1 4 21 5 19 6 18 7 16 8 15 9 14 10 13 11 6 12
REMARK SMILES IDX 7 13 8 14 9 15 12 16 11 17 10 18 4 20 20 22 17 24
REMARK H PARENT 10 19 4 21 20 23 17 25
REMARK Flexibility Score: inf
ROOT
ATOM      1  C   UNL     1      64.300   3.181  14.445  1.00  0.00     0.180 A 
ATOM      2  C   UNL     1      63.956   4.414  13.864  1.00  0.00     0.208 A 
ATOM      3  C   UNL     1      64.975   5.230  13.345  1.00  0.00     0.238 A 
ATOM      4  O   UNL     1      64.666   6.356  12.875  1.00  0.00    -0.285 OA
ATOM      5  C   UNL     1      66.321   4.796  13.399  1.00  0.00     0.111 A 
ATOM      6  C   UNL     1      67.429   5.523  12.869  1.00  0.00     0.134 A 
ATOM      7  C   UNL     1      68.731   5.061  13.094  1.00  0.00     0.093 A 
ATOM      8  C   UNL     1      68.962   3.862  13.776  1.00  0.00     0.123 A 
ATOM      9  C   UNL     1      67.884   3.115  14.245  1.00  0.00     0.094 A 
ATOM     10  C   UNL     1      66.575   3.570  14.067  1.00  0.00     0.146 A 
ATOM     11  O   UNL     1      65.578   2.832  14.539  1.00  0.00    -0.452 OA
ENDROOT
BRANCH   1  12
ATOM     12  C   UNL     1      63.280   2.255  14.990  1.00  0.00     0.021 A 
ATOM     13  C   UNL     1      62.921   2.343  16.346  1.00  0.00     0.016 A 
ATOM     14  C   UNL     1      61.978   1.465  16.886  1.00  0.00     0.047 A 
ATOM     15  C   UNL     1      61.393   0.479  16.085  1.00  0.00     0.115 A 
ATOM     16  C   UNL     1      62.704   1.249  14.194  1.00  0.00     0.016 A 
ATOM     17  C   UNL     1      61.761   0.370  14.738  1.00  0.00     0.047 A 
BRANCH  15  18
ATOM     18  O   UNL     1      60.454  -0.389  16.637  1.00  0.00    -0.508 OA
ATOM     19  H   UNL     1      60.612  -0.839  17.531  1.00  0.00     0.293 HD
ENDBRANCH  15  18
ENDBRANCH   1  12
BRANCH   2  20
ATOM     20  O   UNL     1      62.623   4.833  13.840  1.00  0.00    -0.502 OA
ATOM     21  H   UNL     1      62.361   5.811  13.825  1.00  0.00     0.293 HD
ENDBRANCH   2  20
BRANCH   6  22
ATOM     22  O   UNL     1      67.304   6.681  12.096  1.00  0.00    -0.507 OA
ATOM     23  H   UNL     1      66.533   6.878  11.475  1.00  0.00     0.293 HD
ENDBRANCH   6  22
BRANCH   8  24
ATOM     24  O   UNL     1      70.260   3.401  13.982  1.00  0.00    -0.508 OA
ATOM     25  H   UNL     1      70.906   3.271  13.212  1.00  0.00     0.293 HD
ENDBRANCH   8  24
TORSDOF 5
ENDMDL
MODEL 7
REMARK VINA RESULT:    -5.415      3.420      6.527
REMARK INTER + INTRA:          -6.644
REMARK INTER:                  -6.449
REMARK INTRA:                  -0.195
REMARK UNBOUND:                -0.280
REMARK SMILES O=c1c(O)c(-c2ccc(O)cc2)oc2cc(O)cc(O)c12
REMARK SMILES IDX 5 1 3 2 2 3 1 4 21 5 19 6 18 7 16 8 15 9 14 10 13 11 6 12
REMARK SMILES IDX 7 13 8 14 9 15 12 16 11 17 10 18 4 20 20 22 17 24
REMARK H PARENT 10 19 4 21 20 23 17 25
REMARK Flexibility Score: inf
ROOT
ATOM      1  C   UNL     1      65.600   4.110  12.354  1.00  0.00     0.180 A 
ATOM      2  C   UNL     1      66.043   2.777  12.385  1.00  0.00     0.208 A 
ATOM      3  C   UNL     1      66.902   2.368  13.419  1.00  0.00     0.238 A 
ATOM      4  O   UNL     1      67.338   1.188  13.411  1.00  0.00    -0.285 OA
ATOM      5  C   UNL     1      67.293   3.294  14.416  1.00  0.00     0.111 A 
ATOM      6  C   UNL     1      68.127   2.979  15.531  1.00  0.00     0.134 A 
ATOM      7  C   UNL     1      68.557   4.003  16.384  1.00  0.00     0.093 A 
ATOM      8  C   UNL     1      68.129   5.321  16.199  1.00  0.00     0.123 A 
ATOM      9  C   UNL     1      67.267   5.627  15.149  1.00  0.00     0.094 A 
ATOM     10  C   UNL     1      66.850   4.632  14.260  1.00  0.00     0.146 A 
ATOM     11  O   UNL     1      66.037   4.970  13.266  1.00  0.00    -0.452 OA
ENDROOT
BRANCH   1  12
ATOM     12  C   UNL     1      64.674   4.608  11.311  1.00  0.00     0.021 A 
ATOM     13  C   UNL     1      65.121   5.575  10.394  1.00  0.00     0.016 A 
ATOM     14  C   UNL     1      64.256   6.075   9.416  1.00  0.00     0.047 A 
ATOM     15  C   UNL     1      62.933   5.628   9.351  1.00  0.00     0.115 A 
ATOM     16  C   UNL     1      63.336   4.178  11.253  1.00  0.00     0.016 A 
ATOM     17  C   UNL     1      62.473   4.681  10.274  1.00  0.00     0.047 A 
BRANCH  15  18
ATOM     18  O   UNL     1      62.084   6.136   8.370  1.00  0.00    -0.508 OA
ATOM     19  H   UNL     1      61.956   5.661   7.483  1.00  0.00     0.293 HD
ENDBRANCH  15  18
ENDBRANCH   1  12
BRANCH   2  20
ATOM     20  O   UNL     1      65.662   1.885  11.379  1.00  0.00    -0.502 OA
ATOM     21  H   UNL     1      64.867   1.265  11.474  1.00  0.00     0.293 HD
ENDBRANCH   2  20
BRANCH   6  22
ATOM     22  O   UNL     1      68.536   1.683  15.858  1.00  0.00    -0.507 OA
ATOM     23  H   UNL     1      68.224   1.169  16.668  1.00  0.00     0.293 HD
ENDBRANCH   6  22
BRANCH   8  24
ATOM     24  O   UNL     1      68.548   6.332  17.060  1.00  0.00    -0.508 OA
ATOM     25  H   UNL     1      69.527   6.577  17.154  1.00  0.00     0.293 HD
ENDBRANCH   8  24
TORSDOF 5
ENDMDL
MODEL 8
REMARK VINA RESULT:    -5.388      3.561      6.468
REMARK INTER + INTRA:          -6.613
REMARK INTER:                  -6.355
REMARK INTRA:                  -0.258
REMARK UNBOUND:                -0.280
REMARK SMILES O=c1c(O)c(-c2ccc(O)cc2)oc2cc(O)cc(O)c12
REMARK SMILES IDX 5 1 3 2 2 3 1 4 21 5 19 6 18 7 16 8 15 9 14 10 13 11 6 12
REMARK SMILES IDX 7 13 8 14 9 15 12 16 11 17 10 18 4 20 20 22 17 24
REMARK H PARENT 10 19 4 21 20 23 17 25
REMARK Flexibility Score: inf
ROOT
ATOM      1  C   UNL     1      65.248   4.887  12.238  1.00  0.00     0.180 A 
ATOM      2  C   UNL     1      65.493   5.808  13.271  1.00  0.00     0.208 A 
ATOM      3  C   UNL     1      66.314   5.425  14.345  1.00  0.00     0.238 A 
ATOM      4  O   UNL     1      66.485   6.235  15.293  1.00  0.00    -0.285 OA
ATOM      5  C   UNL     1      66.893   4.133  14.363  1.00  0.00     0.111 A 
ATOM      6  C   UNL     1      67.772   3.654  15.379  1.00  0.00     0.134 A 
ATOM      7  C   UNL     1      68.182   2.315  15.364  1.00  0.00     0.093 A 
ATOM      8  C   UNL     1      67.794   1.455  14.332  1.00  0.00     0.123 A 
ATOM      9  C   UNL     1      66.985   1.931  13.303  1.00  0.00     0.094 A 
ATOM     10  C   UNL     1      66.531   3.252  13.311  1.00  0.00     0.146 A 
ATOM     11  O   UNL     1      65.752   3.661  12.316  1.00  0.00    -0.452 OA
ENDROOT
BRANCH   1  12
ATOM     12  C   UNL     1      64.414   5.226  11.062  1.00  0.00     0.021 A 
ATOM     13  C   UNL     1      64.963   5.997  10.024  1.00  0.00     0.016 A 
ATOM     14  C   UNL     1      64.186   6.348   8.916  1.00  0.00     0.047 A 
ATOM     15  C   UNL     1      62.850   5.947   8.838  1.00  0.00     0.115 A 
ATOM     16  C   UNL     1      63.062   4.843  10.987  1.00  0.00     0.016 A 
ATOM     17  C   UNL     1      62.287   5.196   9.878  1.00  0.00     0.047 A 
BRANCH  15  18
ATOM     18  O   UNL     1      62.088   6.304   7.727  1.00  0.00    -0.508 OA
ATOM     19  H   UNL     1      62.337   5.995   6.794  1.00  0.00     0.293 HD
ENDBRANCH  15  18
ENDBRANCH   1  12
BRANCH   2  20
ATOM     20  O   UNL     1      64.894   7.070  13.245  1.00  0.00    -0.502 OA
ATOM     21  H   UNL     1      65.417   7.924  13.398  1.00  0.00     0.293 HD
ENDBRANCH   2  20
BRANCH   6  22
ATOM     22  O   UNL     1      68.291   4.452  16.403  1.00  0.00    -0.507 OA
ATOM     23  H   UNL     1      67.864   4.576  17.309  1.00  0.00     0.293 HD
ENDBRANCH   6  22
BRANCH   8  24
ATOM     24  O   UNL     1      68.219   0.129  14.316  1.00  0.00    -0.508 OA
ATOM     25  H   UNL     1      68.966  -0.197  14.917  1.00  0.00     0.293 HD
ENDBRANCH   8  24
TORSDOF 5
ENDMDL
MODEL 9
REMARK VINA RESULT:    -4.995      3.016      5.185
REMARK INTER + INTRA:          -6.150
REMARK INTER:                  -5.862
REMARK INTRA:                  -0.288
REMARK UNBOUND:                -0.280
REMARK SMILES O=c1c(O)c(-c2ccc(O)cc2)oc2cc(O)cc(O)c12
REMARK SMILES IDX 5 1 3 2 2 3 1 4 21 5 19 6 18 7 16 8 15 9 14 10 13 11 6 12
REMARK SMILES IDX 7 13 8 14 9 15 12 16 11 17 10 18 4 20 20 22 17 24
REMARK H PARENT 10 19 4 21 20 23 17 25
REMARK Flexibility Score: inf
ROOT
ATOM      1  C   UNL     1      64.651   4.503  12.764  1.00  0.00     0.180 A 
ATOM      2  C   UNL     1      65.003   3.239  13.269  1.00  0.00     0.208 A 
ATOM      3  C   UNL     1      66.344   2.990  13.608  1.00  0.00     0.238 A 
ATOM      4  O   UNL     1      66.663   1.840  14.008  1.00  0.00    -0.285 OA
ATOM      5  C   UNL     1      67.311   4.013  13.453  1.00  0.00     0.111 A 
ATOM      6  C   UNL     1      68.688   3.884  13.801  1.00  0.00     0.134 A 
ATOM      7  C   UNL     1      69.581   4.915  13.484  1.00  0.00     0.093 A 
ATOM      8  C   UNL     1      69.133   6.097  12.887  1.00  0.00     0.123 A 
ATOM      9  C   UNL     1      67.780   6.256  12.598  1.00  0.00     0.094 A 
ATOM     10  C   UNL     1      66.871   5.230  12.871  1.00  0.00     0.146 A 
ATOM     11  O   UNL     1      65.592   5.419  12.569  1.00  0.00    -0.452 OA
ENDROOT
BRANCH   1  12
ATOM     12  C   UNL     1      63.255   4.847  12.409  1.00  0.00     0.021 A 
ATOM     13  C   UNL     1      62.407   5.393  13.388  1.00  0.00     0.016 A 
ATOM     14  C   UNL     1      61.080   5.704  13.080  1.00  0.00     0.047 A 
ATOM     15  C   UNL     1      60.579   5.460  11.798  1.00  0.00     0.115 A 
ATOM     16  C   UNL     1      62.739   4.585  11.127  1.00  0.00     0.016 A 
ATOM     17  C   UNL     1      61.410   4.896  10.822  1.00  0.00     0.047 A 
BRANCH  15  18
ATOM     18  O   UNL     1      59.253   5.776  11.506  1.00  0.00    -0.508 OA
ATOM     19  H   UNL     1      58.661   6.247  12.179  1.00  0.00     0.293 HD
ENDBRANCH  15  18
ENDBRANCH   1  12
BRANCH   2  20
ATOM     20  O   UNL     1      64.037   2.237  13.394  1.00  0.00    -0.502 OA
ATOM     21  H   UNL     1      64.114   1.345  12.921  1.00  0.00     0.293 HD
ENDBRANCH   2  20
BRANCH   6  22
ATOM     22  O   UNL     1      69.222   2.785  14.480  1.00  0.00    -0.507 OA
ATOM     23  H   UNL     1      70.056   2.809  15.049  1.00  0.00     0.293 HD
ENDBRANCH   6  22
BRANCH   8  24
ATOM     24  O   UNL     1      70.025   7.124  12.589  1.00  0.00    -0.508 OA
ATOM     25  H   UNL     1      70.938   7.178  13.023  1.00  0.00     0.293 HD
ENDBRANCH   8  24
TORSDOF 5
ENDMDL
