MODEL 1
REMARK VINA RESULT:    -3.542      0.000      0.000
REMARK INTER + INTRA:          -4.935
REMARK INTER:                  -4.681
REMARK INTRA:                  -0.255
REMARK UNBOUND:                -0.255
REMARK SMILES CCCCCCCO
REMARK SMILES IDX 5 1 4 2 3 3 2 4 1 5 6 6 7 7 8 8
REMARK H PARENT 8 9
REMARK Flexibility Score: inf
ROOT
ATOM      1  C   UNL     1      30.198  24.950  22.083  1.00  0.00     0.002 C 
ENDROOT
BRANCH   1   2
ATOM      2  C   UNL     1      30.853  25.581  23.322  1.00  0.00     0.000 C 
BRANCH   2   3
ATOM      3  C   UNL     1      32.115  26.391  22.976  1.00  0.00    -0.000 C 
BRANCH   3   4
ATOM      4  C   UNL     1      31.914  27.903  23.165  1.00  0.00    -0.003 C 
ATOM      5  C   UNL     1      31.400  28.594  21.902  1.00  0.00     0.004 C 
ENDBRANCH   3   4
ENDBRANCH   2   3
ENDBRANCH   1   2
BRANCH   1   6
ATOM      6  C   UNL     1      28.724  25.351  21.921  1.00  0.00     0.028 C 
BRANCH   6   7
ATOM      7  C   UNL     1      28.559  26.415  20.833  1.00  0.00     0.156 C 
BRANCH   7   8
ATOM      8  O   UNL     1      27.238  26.882  20.807  1.00  0.00    -0.396 OA
ATOM      9  H   UNL     1      27.250  27.742  20.311  1.00  0.00     0.210 HD
ENDBRANCH   7   8
ENDBRANCH   6   7
ENDBRANCH   1   6
TORSDOF 6
ENDMDL
MODEL 2
REMARK VINA RESULT:    -3.254      2.832      4.042
REMARK INTER + INTRA:          -4.555
REMARK INTER:                  -4.365
REMARK INTRA:                  -0.190
REMARK UNBOUND:                -0.255
REMARK SMILES CCCCCCCO
REMARK SMILES IDX 5 1 4 2 3 3 2 4 1 5 6 6 7 7 8 8
REMARK H PARENT 8 9
REMARK Flexibility Score: inf
ROOT
ATOM      1  C   UNL     1      26.341  26.722  22.905  1.00  0.00     0.002 C 
ENDROOT
BRANCH   1   2
ATOM      2  C   UNL     1      27.862  26.536  22.778  1.00  0.00     0.000 C 
BRANCH   2   3
ATOM      3  C   UNL     1      28.256  25.713  21.540  1.00  0.00    -0.000 C 
BRANCH   3   4
ATOM      4  C   UNL     1      29.572  24.945  21.738  1.00  0.00    -0.003 C 
ATOM      5  C   UNL     1      30.473  25.578  22.799  1.00  0.00     0.004 C 
ENDBRANCH   3   4
ENDBRANCH   2   3
ENDBRANCH   1   2
BRANCH   1   6
ATOM      6  C   UNL     1      25.774  26.117  24.199  1.00  0.00     0.028 C 
BRANCH   6   7
ATOM      7  C   UNL     1      24.773  25.000  23.891  1.00  0.00     0.156 C 
BRANCH   7   8
ATOM      8  O   UNL     1      25.390  23.989  23.142  1.00  0.00    -0.396 OA
ATOM      9  H   UNL     1      25.571  24.370  22.244  1.00  0.00     0.210 HD
ENDBRANCH   7   8
ENDBRANCH   6   7
ENDBRANCH   1   6
TORSDOF 6
ENDMDL
MODEL 3
REMARK VINA RESULT:    -3.246      4.509      5.515
REMARK INTER + INTRA:          -4.544
REMARK INTER:                  -4.360
REMARK INTRA:                  -0.184
REMARK UNBOUND:                -0.255
REMARK SMILES CCCCCCCO
REMARK SMILES IDX 5 1 4 2 3 3 2 4 1 5 6 6 7 7 8 8
REMARK H PARENT 8 9
REMARK Flexibility Score: inf
ROOT
ATOM      1  C   UNL     1      25.717  26.916  23.205  1.00  0.00     0.002 C 
ENDROOT
BRANCH   1   2
ATOM      2  C   UNL     1      25.118  28.097  23.988  1.00  0.00     0.000 C 
BRANCH   2   3
ATOM      3  C   UNL     1      25.973  29.371  23.882  1.00  0.00    -0.000 C 
BRANCH   3   4
ATOM      4  C   UNL     1      25.125  30.652  23.896  1.00  0.00    -0.003 C 
ATOM      5  C   UNL     1      23.748  30.443  24.527  1.00  0.00     0.004 C 
ENDBRANCH   3   4
ENDBRANCH   2   3
ENDBRANCH   1   2
BRANCH   1   6
ATOM      6  C   UNL     1      27.253  26.918  23.211  1.00  0.00     0.028 C 
BRANCH   6   7
ATOM      7  C   UNL     1      27.809  26.331  21.911  1.00  0.00     0.156 C 
BRANCH   7   8
ATOM      8  O   UNL     1      27.164  26.903  20.806  1.00  0.00    -0.396 OA
ATOM      9  H   UNL     1      27.609  26.538  19.997  1.00  0.00     0.210 HD
ENDBRANCH   7   8
ENDBRANCH   6   7
ENDBRANCH   1   6
TORSDOF 6
ENDMDL
MODEL 4
REMARK VINA RESULT:    -3.217      3.252      4.262
REMARK INTER + INTRA:          -4.505
REMARK INTER:                  -4.407
REMARK INTRA:                  -0.099
REMARK UNBOUND:                -0.255
REMARK SMILES CCCCCCCO
REMARK SMILES IDX 5 1 4 2 3 3 2 4 1 5 6 6 7 7 8 8
REMARK H PARENT 8 9
REMARK Flexibility Score: inf
ROOT
ATOM      1  C   UNL     1      26.452  27.111  23.168  1.00  0.00     0.002 C 
ENDROOT
BRANCH   1   2
ATOM      2  C   UNL     1      27.925  26.739  22.928  1.00  0.00     0.000 C 
BRANCH   2   3
ATOM      3  C   UNL     1      28.088  25.606  21.900  1.00  0.00    -0.000 C 
BRANCH   3   4
ATOM      4  C   UNL     1      29.543  25.123  21.783  1.00  0.00    -0.003 C 
ATOM      5  C   UNL     1      30.431  25.639  22.914  1.00  0.00     0.004 C 
ENDBRANCH   3   4
ENDBRANCH   2   3
ENDBRANCH   1   2
BRANCH   1   6
ATOM      6  C   UNL     1      26.275  28.565  23.632  1.00  0.00     0.028 C 
BRANCH   6   7
ATOM      7  C   UNL     1      24.803  28.879  23.909  1.00  0.00     0.156 C 
BRANCH   7   8
ATOM      8  O   UNL     1      24.359  29.907  23.067  1.00  0.00    -0.396 OA
ATOM      9  H   UNL     1      24.402  30.746  23.596  1.00  0.00     0.210 HD
ENDBRANCH   7   8
ENDBRANCH   6   7
ENDBRANCH   1   6
TORSDOF 6
ENDMDL
MODEL 5
REMARK VINA RESULT:    -3.192      2.025      2.509
REMARK INTER + INTRA:          -4.473
REMARK INTER:                  -4.080
REMARK INTRA:                  -0.393
REMARK UNBOUND:                -0.255
REMARK SMILES CCCCCCCO
REMARK SMILES IDX 5 1 4 2 3 3 2 4 1 5 6 6 7 7 8 8
REMARK H PARENT 8 9
REMARK Flexibility Score: inf
ROOT
ATOM      1  C   UNL     1      30.221  25.448  22.441  1.00  0.00     0.002 C 
ENDROOT
BRANCH   1   2
ATOM      2  C   UNL     1      30.397  26.846  23.056  1.00  0.00     0.000 C 
BRANCH   2   3
ATOM      3  C   UNL     1      29.552  27.044  24.327  1.00  0.00    -0.000 C 
BRANCH   3   4
ATOM      4  C   UNL     1      28.434  28.081  24.135  1.00  0.00    -0.003 C 
ATOM      5  C   UNL     1      27.039  27.489  24.331  1.00  0.00     0.004 C 
ENDBRANCH   3   4
ENDBRANCH   2   3
ENDBRANCH   1   2
BRANCH   1   6
ATOM      6  C   UNL     1      28.847  25.259  21.780  1.00  0.00     0.028 C 
BRANCH   6   7
ATOM      7  C   UNL     1      28.593  26.337  20.723  1.00  0.00     0.156 C 
BRANCH   7   8
ATOM      8  O   UNL     1      27.281  26.819  20.827  1.00  0.00    -0.396 OA
ATOM      9  H   UNL     1      27.082  26.894  21.796  1.00  0.00     0.210 HD
ENDBRANCH   7   8
ENDBRANCH   6   7
ENDBRANCH   1   6
TORSDOF 6
ENDMDL
MODEL 6
REMARK VINA RESULT:    -3.109      2.382      3.416
REMARK INTER + INTRA:          -4.363
REMARK INTER:                  -4.188
REMARK INTRA:                  -0.174
REMARK UNBOUND:                -0.255
REMARK SMILES CCCCCCCO
REMARK SMILES IDX 5 1 4 2 3 3 2 4 1 5 6 6 7 7 8 8
REMARK H PARENT 8 9
REMARK Flexibility Score: inf
ROOT
ATOM      1  C   UNL     1      27.838  26.609  22.975  1.00  0.00     0.002 C 
ENDROOT
BRANCH   1   2
ATOM      2  C   UNL     1      28.113  25.651  21.805  1.00  0.00     0.000 C 
BRANCH   2   3
ATOM      3  C   UNL     1      29.529  25.051  21.852  1.00  0.00    -0.000 C 
BRANCH   3   4
ATOM      4  C   UNL     1      30.516  25.932  22.634  1.00  0.00    -0.003 C 
ATOM      5  C   UNL     1      31.298  25.151  23.690  1.00  0.00     0.004 C 
ENDBRANCH   3   4
ENDBRANCH   2   3
ENDBRANCH   1   2
BRANCH   1   6
ATOM      6  C   UNL     1      26.384  27.105  23.008  1.00  0.00     0.028 C 
BRANCH   6   7
ATOM      7  C   UNL     1      25.533  26.252  23.951  1.00  0.00     0.156 C 
BRANCH   7   8
ATOM      8  O   UNL     1      24.543  25.571  23.230  1.00  0.00    -0.396 OA
ATOM      9  H   UNL     1      24.960  24.735  22.896  1.00  0.00     0.210 HD
ENDBRANCH   7   8
ENDBRANCH   6   7
ENDBRANCH   1   6
TORSDOF 6
ENDMDL
MODEL 7
REMARK VINA RESULT:    -3.039      2.109      2.871
REMARK INTER + INTRA:          -4.271
REMARK INTER:                  -3.913
REMARK INTRA:                  -0.358
REMARK UNBOUND:                -0.255
REMARK SMILES CCCCCCCO
REMARK SMILES IDX 5 1 4 2 3 3 2 4 1 5 6 6 7 7 8 8
REMARK H PARENT 8 9
REMARK Flexibility Score: inf
ROOT
ATOM      1  C   UNL     1      28.702  27.420  24.108  1.00  0.00     0.002 C 
ENDROOT
BRANCH   1   2
ATOM      2  C   UNL     1      29.835  28.139  23.355  1.00  0.00     0.000 C 
BRANCH   2   3
ATOM      3  C   UNL     1      30.659  27.184  22.475  1.00  0.00    -0.000 C 
BRANCH   3   4
ATOM      4  C   UNL     1      30.386  25.706  22.793  1.00  0.00    -0.003 C 
ATOM      5  C   UNL     1      29.695  24.971  21.645  1.00  0.00     0.004 C 
ENDBRANCH   3   4
ENDBRANCH   2   3
ENDBRANCH   1   2
BRANCH   1   6
ATOM      6  C   UNL     1      27.306  27.864  23.645  1.00  0.00     0.028 C 
BRANCH   6   7
ATOM      7  C   UNL     1      26.637  26.779  22.797  1.00  0.00     0.156 C 
BRANCH   7   8
ATOM      8  O   UNL     1      26.865  27.018  21.435  1.00  0.00    -0.396 OA
ATOM      9  H   UNL     1      26.762  26.146  20.973  1.00  0.00     0.210 HD
ENDBRANCH   7   8
ENDBRANCH   6   7
ENDBRANCH   1   6
TORSDOF 6
ENDMDL
