MODEL 1
REMARK VINA RESULT:    -3.330      0.000      0.000
REMARK INTER + INTRA:          -3.545
REMARK INTER:                  -3.525
REMARK INTRA:                  -0.020
REMARK UNBOUND:                -0.020
REMARK SMILES O=C([O-])c1cccnc1
REMARK SMILES IDX 4 1 5 2 9 3 6 4 8 5 7 6 2 7 1 8 3 9
REMARK H PARENT
REMARK Flexibility Score: inf
ROOT
ATOM      1  C   UNL     1      54.862  26.058  50.055  1.00  0.00     0.016 A 
ATOM      2  C   UNL     1      54.488  27.384  50.336  1.00  0.00     0.013 A 
ATOM      3  C   UNL     1      56.205  25.690  50.239  1.00  0.00     0.120 A 
ATOM      4  C   UNL     1      55.442  28.300  50.785  1.00  0.00     0.021 A 
ATOM      5  N   UNL     1      57.113  26.601  50.679  1.00  0.00    -0.264 NA
ATOM      6  C   UNL     1      56.763  27.886  50.952  1.00  0.00     0.111 A 
ENDROOT
BRANCH   1   7
ATOM      7  C   UNL     1      53.867  25.073  49.578  1.00  0.00     0.073 C 
ATOM      8  O   UNL     1      53.903  23.880  49.980  1.00  0.00    -0.545 OA
ATOM      9  O   UNL     1      52.877  25.453  48.678  1.00  0.00    -0.545 OA
ENDBRANCH   1   7
TORSDOF 1
ENDMDL
MODEL 2
REMARK VINA RESULT:    -3.323      2.982      4.009
REMARK INTER + INTRA:          -3.537
REMARK INTER:                  -3.517
REMARK INTRA:                  -0.021
REMARK UNBOUND:                -0.020
REMARK SMILES O=C([O-])c1cccnc1
REMARK SMILES IDX 4 1 5 2 9 3 6 4 8 5 7 6 2 7 1 8 3 9
REMARK H PARENT
REMARK Flexibility Score: inf
ROOT
ATOM      1  C   UNL     1      55.252  26.992  50.351  1.00  0.00     0.016 A 
ATOM      2  C   UNL     1      55.410  25.658  49.936  1.00  0.00     0.013 A 
ATOM      3  C   UNL     1      53.986  27.587  50.218  1.00  0.00     0.120 A 
ATOM      4  C   UNL     1      54.326  24.956  49.406  1.00  0.00     0.021 A 
ATOM      5  N   UNL     1      52.946  26.880  49.700  1.00  0.00    -0.264 NA
ATOM      6  C   UNL     1      53.088  25.590  49.296  1.00  0.00     0.111 A 
ENDROOT
BRANCH   1   7
ATOM      7  C   UNL     1      56.389  27.752  50.914  1.00  0.00     0.073 C 
ATOM      8  O   UNL     1      56.204  28.595  51.831  1.00  0.00    -0.545 OA
ATOM      9  O   UNL     1      57.678  27.545  50.436  1.00  0.00    -0.545 OA
ENDBRANCH   1   7
TORSDOF 1
ENDMDL
MODEL 3
REMARK VINA RESULT:    -3.274      2.988      3.956
REMARK INTER + INTRA:          -3.486
REMARK INTER:                  -3.464
REMARK INTRA:                  -0.022
REMARK UNBOUND:                -0.020
REMARK SMILES O=C([O-])c1cccnc1
REMARK SMILES IDX 4 1 5 2 9 3 6 4 8 5 7 6 2 7 1 8 3 9
REMARK H PARENT
REMARK Flexibility Score: inf
ROOT
ATOM      1  C   UNL     1      55.557  26.935  50.366  1.00  0.00     0.016 A 
ATOM      2  C   UNL     1      55.578  25.594  49.943  1.00  0.00     0.013 A 
ATOM      3  C   UNL     1      54.343  27.640  50.288  1.00  0.00     0.120 A 
ATOM      4  C   UNL     1      54.414  24.993  49.462  1.00  0.00     0.021 A 
ATOM      5  N   UNL     1      53.224  27.030  49.816  1.00  0.00    -0.264 NA
ATOM      6  C   UNL     1      53.234  25.735  49.405  1.00  0.00     0.111 A 
ENDROOT
BRANCH   1   7
ATOM      7  C   UNL     1      56.779  27.591  50.879  1.00  0.00     0.073 C 
ATOM      8  O   UNL     1      57.917  27.225  50.482  1.00  0.00    -0.545 OA
ATOM      9  O   UNL     1      56.687  28.621  51.807  1.00  0.00    -0.545 OA
ENDBRANCH   1   7
TORSDOF 1
ENDMDL
MODEL 4
REMARK VINA RESULT:    -3.251      3.072      4.088
REMARK INTER + INTRA:          -3.462
REMARK INTER:                  -3.438
REMARK INTRA:                  -0.024
REMARK UNBOUND:                -0.020
REMARK SMILES O=C([O-])c1cccnc1
REMARK SMILES IDX 4 1 5 2 9 3 6 4 8 5 7 6 2 7 1 8 3 9
REMARK H PARENT
REMARK Flexibility Score: inf
ROOT
ATOM      1  C   UNL     1      54.593  27.476  50.418  1.00  0.00     0.016 A 
ATOM      2  C   UNL     1      55.492  26.411  50.235  1.00  0.00     0.013 A 
ATOM      3  C   UNL     1      53.267  27.314  49.980  1.00  0.00     0.120 A 
ATOM      4  C   UNL     1      55.063  25.228  49.631  1.00  0.00     0.021 A 
ATOM      5  N   UNL     1      52.875  26.151  49.395  1.00  0.00    -0.264 NA
ATOM      6  C   UNL     1      53.736  25.115  49.214  1.00  0.00     0.111 A 
ENDROOT
BRANCH   1   7
ATOM      7  C   UNL     1      55.028  28.738  51.055  1.00  0.00     0.073 C 
ATOM      8  O   UNL     1      54.244  29.720  51.133  1.00  0.00    -0.545 OA
ATOM      9  O   UNL     1      56.311  28.855  51.577  1.00  0.00    -0.545 OA
ENDBRANCH   1   7
TORSDOF 1
ENDMDL
MODEL 5
REMARK VINA RESULT:    -3.246      2.864      3.670
REMARK INTER + INTRA:          -3.457
REMARK INTER:                  -3.434
REMARK INTRA:                  -0.023
REMARK UNBOUND:                -0.020
REMARK SMILES O=C([O-])c1cccnc1
REMARK SMILES IDX 4 1 5 2 9 3 6 4 8 5 7 6 2 7 1 8 3 9
REMARK H PARENT
REMARK Flexibility Score: inf
ROOT
ATOM      1  C   UNL     1      55.762  26.657  50.314  1.00  0.00     0.016 A 
ATOM      2  C   UNL     1      54.664  27.534  50.361  1.00  0.00     0.013 A 
ATOM      3  C   UNL     1      55.551  25.348  49.850  1.00  0.00     0.120 A 
ATOM      4  C   UNL     1      53.402  27.099  49.953  1.00  0.00     0.021 A 
ATOM      5  N   UNL     1      54.311  24.950  49.458  1.00  0.00    -0.264 NA
ATOM      6  C   UNL     1      53.243  25.789  49.500  1.00  0.00     0.111 A 
ENDROOT
BRANCH   1   7
ATOM      7  C   UNL     1      57.107  27.099  50.741  1.00  0.00     0.073 C 
ATOM      8  O   UNL     1      57.403  28.323  50.760  1.00  0.00    -0.545 OA
ATOM      9  O   UNL     1      58.063  26.166  51.129  1.00  0.00    -0.545 OA
ENDBRANCH   1   7
TORSDOF 1
ENDMDL
MODEL 6
REMARK VINA RESULT:    -3.228      1.876      2.503
REMARK INTER + INTRA:          -3.438
REMARK INTER:                  -3.414
REMARK INTRA:                  -0.024
REMARK UNBOUND:                -0.020
REMARK SMILES O=C([O-])c1cccnc1
REMARK SMILES IDX 4 1 5 2 9 3 6 4 8 5 7 6 2 7 1 8 3 9
REMARK H PARENT
REMARK Flexibility Score: inf
ROOT
ATOM      1  C   UNL     1      54.868  26.987  50.336  1.00  0.00     0.016 A 
ATOM      2  C   UNL     1      53.550  27.372  50.034  1.00  0.00     0.013 A 
ATOM      3  C   UNL     1      55.683  27.892  51.037  1.00  0.00     0.120 A 
ATOM      4  C   UNL     1      53.078  28.625  50.429  1.00  0.00     0.021 A 
ATOM      5  N   UNL     1      55.198  29.106  51.411  1.00  0.00    -0.264 NA
ATOM      6  C   UNL     1      53.926  29.487  51.124  1.00  0.00     0.111 A 
ENDROOT
BRANCH   1   7
ATOM      7  C   UNL     1      55.387  25.665  49.925  1.00  0.00     0.073 C 
ATOM      8  O   UNL     1      54.657  24.858  49.292  1.00  0.00    -0.545 OA
ATOM      9  O   UNL     1      56.691  25.295  50.235  1.00  0.00    -0.545 OA
ENDBRANCH   1   7
TORSDOF 1
ENDMDL
MODEL 7
REMARK VINA RESULT:    -3.149     14.541     15.738
REMARK INTER + INTRA:          -3.354
REMARK INTER:                  -3.331
REMARK INTRA:                  -0.023
REMARK UNBOUND:                -0.020
REMARK SMILES O=C([O-])c1cccnc1
REMARK SMILES IDX 4 1 5 2 9 3 6 4 8 5 7 6 2 7 1 8 3 9
REMARK H PARENT
REMARK Flexibility Score: inf
ROOT
ATOM      1  C   UNL     1      63.236  33.750  60.867  1.00  0.00     0.016 A 
ATOM      2  C   UNL     1      62.513  34.955  60.926  1.00  0.00     0.013 A 
ATOM      3  C   UNL     1      64.579  33.757  61.278  1.00  0.00     0.120 A 
ATOM      4  C   UNL     1      63.130  36.120  61.382  1.00  0.00     0.021 A 
ATOM      5  N   UNL     1      65.156  34.907  61.719  1.00  0.00    -0.264 NA
ATOM      6  C   UNL     1      64.466  36.076  61.779  1.00  0.00     0.111 A 
ENDROOT
BRANCH   1   7
ATOM      7  C   UNL     1      62.600  32.504  60.386  1.00  0.00     0.073 C 
ATOM      8  O   UNL     1      61.589  32.549  59.636  1.00  0.00    -0.545 OA
ATOM      9  O   UNL     1      63.112  31.266  60.756  1.00  0.00    -0.545 OA
ENDBRANCH   1   7
TORSDOF 1
ENDMDL
MODEL 8
REMARK VINA RESULT:    -3.144     14.916     15.745
REMARK INTER + INTRA:          -3.348
REMARK INTER:                  -3.332
REMARK INTRA:                  -0.016
REMARK UNBOUND:                -0.020
REMARK SMILES O=C([O-])c1cccnc1
REMARK SMILES IDX 4 1 5 2 9 3 6 4 8 5 7 6 2 7 1 8 3 9
REMARK H PARENT
REMARK Flexibility Score: inf
ROOT
ATOM      1  C   UNL     1      63.880  33.217  60.777  1.00  0.00     0.016 A 
ATOM      2  C   UNL     1      64.655  34.263  61.308  1.00  0.00     0.013 A 
ATOM      3  C   UNL     1      62.526  33.464  60.497  1.00  0.00     0.120 A 
ATOM      4  C   UNL     1      64.077  35.512  61.545  1.00  0.00     0.021 A 
ATOM      5  N   UNL     1      61.988  34.690  60.736  1.00  0.00    -0.264 NA
ATOM      6  C   UNL     1      62.728  35.708  61.249  1.00  0.00     0.111 A 
ENDROOT
BRANCH   1   7
ATOM      7  C   UNL     1      64.474  31.887  60.520  1.00  0.00     0.073 C 
ATOM      8  O   UNL     1      64.245  30.922  61.296  1.00  0.00    -0.545 OA
ATOM      9  O   UNL     1      65.293  31.685  59.414  1.00  0.00    -0.545 OA
ENDBRANCH   1   7
TORSDOF 1
ENDMDL
MODEL 9
REMARK VINA RESULT:    -3.066      9.295     10.075
REMARK INTER + INTRA:          -3.265
REMARK INTER:                  -3.243
REMARK INTRA:                  -0.022
REMARK UNBOUND:                -0.020
REMARK SMILES O=C([O-])c1cccnc1
REMARK SMILES IDX 4 1 5 2 9 3 6 4 8 5 7 6 2 7 1 8 3 9
REMARK H PARENT
REMARK Flexibility Score: inf
ROOT
ATOM      1  C   UNL     1      58.398  17.044  50.527  1.00  0.00     0.016 A 
ATOM      2  C   UNL     1      58.956  16.916  51.812  1.00  0.00     0.013 A 
ATOM      3  C   UNL     1      57.194  17.754  50.390  1.00  0.00     0.120 A 
ATOM      4  C   UNL     1      58.316  17.488  52.913  1.00  0.00     0.021 A 
ATOM      5  N   UNL     1      56.591  18.301  51.479  1.00  0.00    -0.264 NA
ATOM      6  C   UNL     1      57.122  18.184  52.725  1.00  0.00     0.111 A 
ENDROOT
BRANCH   1   7
ATOM      7  C   UNL     1      59.061  16.445  49.348  1.00  0.00     0.073 C 
ATOM      8  O   UNL     1      58.388  16.100  48.342  1.00  0.00    -0.545 OA
ATOM      9  O   UNL     1      60.439  16.257  49.337  1.00  0.00    -0.545 OA
ENDBRANCH   1   7
TORSDOF 1
ENDMDL
