MODEL 1
REMARK VINA RESULT:    -5.581      0.000      0.000
REMARK INTER + INTRA:         -12.634
REMARK INTER:                 -10.801
REMARK INTRA:                  -1.833
REMARK UNBOUND:                -1.833
REMARK SMILES CCCCCCCCCCCCCCCCCC(=O)[O-]
REMARK SMILES IDX 10 1 11 2 12 3 13 4 14 5 15 6 16 7 17 8 18 9 19 10 20 11
REMARK SMILES IDX 9 12 8 13 7 14 6 15 5 16 4 17 3 18 2 19 1 20
REMARK H PARENT
REMARK Flexibility Score: inf
ROOT
ATOM      1  C   UNL     1     171.288 144.692 148.442  1.00  0.00     0.000 C 
ENDROOT
BRANCH   1   2
ATOM      2  C   UNL     1     170.953 143.534 149.398  1.00  0.00     0.000 C 
BRANCH   2   3
ATOM      3  C   UNL     1     170.964 143.965 150.874  1.00  0.00     0.000 C 
BRANCH   3   4
ATOM      4  C   UNL     1     169.552 144.140 151.453  1.00  0.00     0.000 C 
BRANCH   4   5
ATOM      5  C   UNL     1     169.501 145.333 152.420  1.00  0.00     0.000 C 
BRANCH   5   6
ATOM      6  C   UNL     1     168.337 145.237 153.419  1.00  0.00     0.000 C 
BRANCH   6   7
ATOM      7  C   UNL     1     168.590 146.044 154.704  1.00  0.00     0.006 C 
BRANCH   7   8
ATOM      8  C   UNL     1     170.063 146.447 154.853  1.00  0.00     0.053 C 
BRANCH   8   9
ATOM      9  C   UNL     1     170.749 145.660 155.928  1.00  0.00     0.041 C 
ATOM     10  O   UNL     1     170.886 146.148 157.080  1.00  0.00    -0.550 OA
ATOM     11  O   UNL     1     171.204 144.374 155.665  1.00  0.00    -0.550 OA
ENDBRANCH   8   9
ENDBRANCH   7   8
ENDBRANCH   6   7
ENDBRANCH   5   6
ENDBRANCH   4   5
ENDBRANCH   3   4
ENDBRANCH   2   3
ENDBRANCH   1   2
BRANCH   1  12
ATOM     12  C   UNL     1     170.428 144.679 147.166  1.00  0.00     0.000 C 
BRANCH  12  13
ATOM     13  C   UNL     1     169.324 145.754 147.109  1.00  0.00    -0.000 C 
BRANCH  13  14
ATOM     14  C   UNL     1     169.215 146.651 148.358  1.00  0.00    -0.000 C 
BRANCH  14  15
ATOM     15  C   UNL     1     167.823 146.684 149.015  1.00  0.00    -0.000 C 
BRANCH  15  16
ATOM     16  C   UNL     1     167.752 147.642 150.214  1.00  0.00    -0.000 C 
BRANCH  16  17
ATOM     17  C   UNL     1     166.500 147.370 151.060  1.00  0.00    -0.000 C 
BRANCH  17  18
ATOM     18  C   UNL     1     165.410 148.442 150.882  1.00  0.00    -0.000 C 
BRANCH  18  19
ATOM     19  C   UNL     1     164.039 147.904 150.434  1.00  0.00    -0.003 C 
ATOM     20  C   UNL     1     163.861 147.910 148.915  1.00  0.00     0.004 C 
ENDBRANCH  18  19
ENDBRANCH  17  18
ENDBRANCH  16  17
ENDBRANCH  15  16
ENDBRANCH  14  15
ENDBRANCH  13  14
ENDBRANCH  12  13
ENDBRANCH   1  12
TORSDOF 16
ENDMDL
MODEL 2
REMARK VINA RESULT:    -5.493      1.797      4.680
REMARK INTER + INTRA:         -12.463
REMARK INTER:                 -10.147
REMARK INTRA:                  -2.316
REMARK UNBOUND:                -1.833
REMARK SMILES CCCCCCCCCCCCCCCCCC(=O)[O-]
REMARK SMILES IDX 10 1 11 2 12 3 13 4 14 5 15 6 16 7 17 8 18 9 19 10 20 11
REMARK SMILES IDX 9 12 8 13 7 14 6 15 5 16 4 17 3 18 2 19 1 20
REMARK H PARENT
REMARK Flexibility Score: inf
ROOT
ATOM      1  C   UNL     1     166.072 146.492 152.750  1.00  0.00     0.000 C 
ENDROOT
BRANCH   1   2
ATOM      2  C   UNL     1     167.576 146.168 152.730  1.00  0.00     0.000 C 
BRANCH   2   3
ATOM      3  C   UNL     1     167.922 144.924 153.563  1.00  0.00     0.000 C 
BRANCH   3   4
ATOM      4  C   UNL     1     169.241 145.074 154.337  1.00  0.00     0.000 C 
BRANCH   4   5
ATOM      5  C   UNL     1     169.668 146.548 154.410  1.00  0.00     0.000 C 
BRANCH   5   6
ATOM      6  C   UNL     1     169.457 147.156 155.806  1.00  0.00     0.000 C 
BRANCH   6   7
ATOM      7  C   UNL     1     170.781 147.498 156.510  1.00  0.00     0.006 C 
BRANCH   7   8
ATOM      8  C   UNL     1     171.449 146.259 157.120  1.00  0.00     0.053 C 
BRANCH   8   9
ATOM      9  C   UNL     1     172.786 145.985 156.500  1.00  0.00     0.041 C 
ATOM     10  O   UNL     1     173.837 146.403 157.052  1.00  0.00    -0.550 OA
ATOM     11  O   UNL     1     172.870 145.240 155.331  1.00  0.00    -0.550 OA
ENDBRANCH   8   9
ENDBRANCH   7   8
ENDBRANCH   6   7
ENDBRANCH   5   6
ENDBRANCH   4   5
ENDBRANCH   3   4
ENDBRANCH   2   3
ENDBRANCH   1   2
BRANCH   1  12
ATOM     12  C   UNL     1     165.622 147.310 151.526  1.00  0.00     0.000 C 
BRANCH  12  13
ATOM     13  C   UNL     1     166.765 147.880 150.662  1.00  0.00    -0.000 C 
BRANCH  13  14
ATOM     14  C   UNL     1     166.937 147.218 149.281  1.00  0.00    -0.000 C 
BRANCH  14  15
ATOM     15  C   UNL     1     168.306 146.554 149.044  1.00  0.00    -0.000 C 
BRANCH  15  16
ATOM     16  C   UNL     1     169.433 147.203 149.862  1.00  0.00    -0.000 C 
BRANCH  16  17
ATOM     17  C   UNL     1     170.399 146.139 150.404  1.00  0.00    -0.000 C 
BRANCH  17  18
ATOM     18  C   UNL     1     169.821 144.714 150.337  1.00  0.00    -0.000 C 
BRANCH  18  19
ATOM     19  C   UNL     1     170.736 143.617 150.912  1.00  0.00    -0.003 C 
ATOM     20  C   UNL     1     171.801 144.164 151.864  1.00  0.00     0.004 C 
ENDBRANCH  18  19
ENDBRANCH  17  18
ENDBRANCH  16  17
ENDBRANCH  15  16
ENDBRANCH  14  15
ENDBRANCH  13  14
ENDBRANCH  12  13
ENDBRANCH   1  12
TORSDOF 16
ENDMDL
MODEL 3
REMARK VINA RESULT:    -5.474      1.042      1.663
REMARK INTER + INTRA:         -12.427
REMARK INTER:                 -10.703
REMARK INTRA:                  -1.725
REMARK UNBOUND:                -1.833
REMARK SMILES CCCCCCCCCCCCCCCCCC(=O)[O-]
REMARK SMILES IDX 10 1 11 2 12 3 13 4 14 5 15 6 16 7 17 8 18 9 19 10 20 11
REMARK SMILES IDX 9 12 8 13 7 14 6 15 5 16 4 17 3 18 2 19 1 20
REMARK H PARENT
REMARK Flexibility Score: inf
ROOT
ATOM      1  C   UNL     1     171.276 143.342 149.810  1.00  0.00     0.000 C 
ENDROOT
BRANCH   1   2
ATOM      2  C   UNL     1     171.132 143.608 151.319  1.00  0.00     0.000 C 
BRANCH   2   3
ATOM      3  C   UNL     1     170.336 144.888 151.619  1.00  0.00     0.000 C 
BRANCH   3   4
ATOM      4  C   UNL     1     168.851 144.613 151.903  1.00  0.00     0.000 C 
BRANCH   4   5
ATOM      5  C   UNL     1     168.369 145.418 153.119  1.00  0.00     0.000 C 
BRANCH   5   6
ATOM      6  C   UNL     1     169.514 146.150 153.837  1.00  0.00     0.000 C 
BRANCH   6   7
ATOM      7  C   UNL     1     169.305 146.228 155.359  1.00  0.00     0.006 C 
BRANCH   7   8
ATOM      8  C   UNL     1     170.019 147.436 155.980  1.00  0.00     0.053 C 
BRANCH   8   9
ATOM      9  C   UNL     1     171.202 147.021 156.800  1.00  0.00     0.041 C 
ATOM     10  O   UNL     1     171.840 145.975 156.508  1.00  0.00    -0.550 OA
ATOM     11  O   UNL     1     171.621 147.809 157.865  1.00  0.00    -0.550 OA
ENDBRANCH   8   9
ENDBRANCH   7   8
ENDBRANCH   6   7
ENDBRANCH   5   6
ENDBRANCH   4   5
ENDBRANCH   3   4
ENDBRANCH   2   3
ENDBRANCH   1   2
BRANCH   1  12
ATOM     12  C   UNL     1     171.640 144.608 149.014  1.00  0.00     0.000 C 
BRANCH  12  13
ATOM     13  C   UNL     1     170.735 144.902 147.801  1.00  0.00    -0.000 C 
BRANCH  13  14
ATOM     14  C   UNL     1     169.974 146.241 147.859  1.00  0.00    -0.000 C 
BRANCH  14  15
ATOM     15  C   UNL     1     168.569 146.164 148.485  1.00  0.00    -0.000 C 
BRANCH  15  16
ATOM     16  C   UNL     1     168.322 147.259 149.532  1.00  0.00    -0.000 C 
BRANCH  16  17
ATOM     17  C   UNL     1     166.832 147.623 149.604  1.00  0.00    -0.000 C 
BRANCH  17  18
ATOM     18  C   UNL     1     166.250 147.494 151.024  1.00  0.00    -0.000 C 
BRANCH  18  19
ATOM     19  C   UNL     1     164.713 147.529 151.099  1.00  0.00    -0.003 C 
ATOM     20  C   UNL     1     164.060 147.980 149.793  1.00  0.00     0.004 C 
ENDBRANCH  18  19
ENDBRANCH  17  18
ENDBRANCH  16  17
ENDBRANCH  15  16
ENDBRANCH  14  15
ENDBRANCH  13  14
ENDBRANCH  12  13
ENDBRANCH   1  12
TORSDOF 16
ENDMDL
MODEL 4
REMARK VINA RESULT:    -5.378      2.796      5.226
REMARK INTER + INTRA:         -12.241
REMARK INTER:                  -9.978
REMARK INTRA:                  -2.263
REMARK UNBOUND:                -1.833
REMARK SMILES CCCCCCCCCCCCCCCCCC(=O)[O-]
REMARK SMILES IDX 10 1 11 2 12 3 13 4 14 5 15 6 16 7 17 8 18 9 19 10 20 11
REMARK SMILES IDX 9 12 8 13 7 14 6 15 5 16 4 17 3 18 2 19 1 20
REMARK H PARENT
REMARK Flexibility Score: inf
ROOT
ATOM      1  C   UNL     1     169.721 146.337 155.619  1.00  0.00     0.000 C 
ENDROOT
BRANCH   1   2
ATOM      2  C   UNL     1     170.148 144.918 156.036  1.00  0.00     0.000 C 
BRANCH   2   3
ATOM      3  C   UNL     1     171.667 144.796 156.241  1.00  0.00     0.000 C 
BRANCH   3   4
ATOM      4  C   UNL     1     172.343 143.920 155.175  1.00  0.00     0.000 C 
BRANCH   4   5
ATOM      5  C   UNL     1     172.978 144.788 154.078  1.00  0.00     0.000 C 
BRANCH   5   6
ATOM      6  C   UNL     1     172.341 144.557 152.698  1.00  0.00     0.000 C 
BRANCH   6   7
ATOM      7  C   UNL     1     172.328 143.073 152.292  1.00  0.00     0.006 C 
BRANCH   7   8
ATOM      8  C   UNL     1     171.447 142.817 151.063  1.00  0.00     0.053 C 
BRANCH   8   9
ATOM      9  C   UNL     1     172.118 143.255 149.797  1.00  0.00     0.041 C 
ATOM     10  O   UNL     1     171.763 144.320 149.227  1.00  0.00    -0.550 OA
ATOM     11  O   UNL     1     173.159 142.504 149.265  1.00  0.00    -0.550 OA
ENDBRANCH   8   9
ENDBRANCH   7   8
ENDBRANCH   6   7
ENDBRANCH   5   6
ENDBRANCH   4   5
ENDBRANCH   3   4
ENDBRANCH   2   3
ENDBRANCH   1   2
BRANCH   1  12
ATOM     12  C   UNL     1     169.466 146.461 154.106  1.00  0.00     0.000 C 
BRANCH  12  13
ATOM     13  C   UNL     1     168.334 145.570 153.557  1.00  0.00    -0.000 C 
BRANCH  13  14
ATOM     14  C   UNL     1     168.589 144.969 152.161  1.00  0.00    -0.000 C 
BRANCH  14  15
ATOM     15  C   UNL     1     169.306 145.906 151.172  1.00  0.00    -0.000 C 
BRANCH  15  16
ATOM     16  C   UNL     1     168.439 146.269 149.958  1.00  0.00    -0.000 C 
BRANCH  16  17
ATOM     17  C   UNL     1     167.716 147.605 150.180  1.00  0.00    -0.000 C 
BRANCH  17  18
ATOM     18  C   UNL     1     166.255 147.584 149.696  1.00  0.00    -0.000 C 
BRANCH  18  19
ATOM     19  C   UNL     1     165.209 147.902 150.781  1.00  0.00    -0.003 C 
ATOM     20  C   UNL     1     165.346 147.020 152.022  1.00  0.00     0.004 C 
ENDBRANCH  18  19
ENDBRANCH  17  18
ENDBRANCH  16  17
ENDBRANCH  15  16
ENDBRANCH  14  15
ENDBRANCH  13  14
ENDBRANCH  12  13
ENDBRANCH   1  12
TORSDOF 16
ENDMDL
MODEL 5
REMARK VINA RESULT:    -5.364      1.361      2.449
REMARK INTER + INTRA:         -12.215
REMARK INTER:                 -10.351
REMARK INTRA:                  -1.864
REMARK UNBOUND:                -1.833
REMARK SMILES CCCCCCCCCCCCCCCCCC(=O)[O-]
REMARK SMILES IDX 10 1 11 2 12 3 13 4 14 5 15 6 16 7 17 8 18 9 19 10 20 11
REMARK SMILES IDX 9 12 8 13 7 14 6 15 5 16 4 17 3 18 2 19 1 20
REMARK H PARENT
REMARK Flexibility Score: inf
ROOT
ATOM      1  C   UNL     1     171.607 143.891 151.117  1.00  0.00     0.000 C 
ENDROOT
BRANCH   1   2
ATOM      2  C   UNL     1     171.130 144.623 152.383  1.00  0.00     0.000 C 
BRANCH   2   3
ATOM      3  C   UNL     1     169.612 144.864 152.390  1.00  0.00     0.000 C 
BRANCH   3   4
ATOM      4  C   UNL     1     169.214 146.138 153.150  1.00  0.00     0.000 C 
BRANCH   4   5
ATOM      5  C   UNL     1     168.246 145.812 154.297  1.00  0.00     0.000 C 
BRANCH   5   6
ATOM      6  C   UNL     1     168.624 146.517 155.610  1.00  0.00     0.000 C 
BRANCH   6   7
ATOM      7  C   UNL     1     170.086 146.994 155.626  1.00  0.00     0.006 C 
BRANCH   7   8
ATOM      8  C   UNL     1     170.965 146.134 156.544  1.00  0.00     0.053 C 
BRANCH   8   9
ATOM      9  C   UNL     1     171.821 146.976 157.442  1.00  0.00     0.041 C 
ATOM     10  O   UNL     1     171.432 148.119 157.798  1.00  0.00    -0.550 OA
ATOM     11  O   UNL     1     173.031 146.481 157.912  1.00  0.00    -0.550 OA
ENDBRANCH   8   9
ENDBRANCH   7   8
ENDBRANCH   6   7
ENDBRANCH   5   6
ENDBRANCH   4   5
ENDBRANCH   3   4
ENDBRANCH   2   3
ENDBRANCH   1   2
BRANCH   1  12
ATOM     12  C   UNL     1     170.452 143.241 150.334  1.00  0.00     0.000 C 
BRANCH  12  13
ATOM     13  C   UNL     1     170.148 143.880 148.964  1.00  0.00    -0.000 C 
BRANCH  13  14
ATOM     14  C   UNL     1     170.915 145.182 148.662  1.00  0.00    -0.000 C 
BRANCH  14  15
ATOM     15  C   UNL     1     170.040 146.445 148.565  1.00  0.00    -0.000 C 
BRANCH  15  16
ATOM     16  C   UNL     1     168.596 146.207 149.033  1.00  0.00    -0.000 C 
BRANCH  16  17
ATOM     17  C   UNL     1     168.090 147.391 149.870  1.00  0.00    -0.000 C 
BRANCH  17  18
ATOM     18  C   UNL     1     166.734 147.113 150.544  1.00  0.00    -0.000 C 
BRANCH  18  19
ATOM     19  C   UNL     1     165.534 147.835 149.906  1.00  0.00    -0.003 C 
ATOM     20  C   UNL     1     164.240 147.667 150.704  1.00  0.00     0.004 C 
ENDBRANCH  18  19
ENDBRANCH  17  18
ENDBRANCH  16  17
ENDBRANCH  15  16
ENDBRANCH  14  15
ENDBRANCH  13  14
ENDBRANCH  12  13
ENDBRANCH   1  12
TORSDOF 16
ENDMDL
MODEL 6
REMARK VINA RESULT:    -5.325      1.298      2.747
REMARK INTER + INTRA:         -12.139
REMARK INTER:                 -10.695
REMARK INTRA:                  -1.444
REMARK UNBOUND:                -1.833
REMARK SMILES CCCCCCCCCCCCCCCCCC(=O)[O-]
REMARK SMILES IDX 10 1 11 2 12 3 13 4 14 5 15 6 16 7 17 8 18 9 19 10 20 11
REMARK SMILES IDX 9 12 8 13 7 14 6 15 5 16 4 17 3 18 2 19 1 20
REMARK H PARENT
REMARK Flexibility Score: inf
ROOT
ATOM      1  C   UNL     1     170.118 145.091 152.121  1.00  0.00     0.000 C 
ENDROOT
BRANCH   1   2
ATOM      2  C   UNL     1     168.681 144.688 152.495  1.00  0.00     0.000 C 
BRANCH   2   3
ATOM      3  C   UNL     1     168.103 145.550 153.629  1.00  0.00     0.000 C 
BRANCH   3   4
ATOM      4  C   UNL     1     168.634 145.148 155.013  1.00  0.00     0.000 C 
BRANCH   4   5
ATOM      5  C   UNL     1     168.671 146.358 155.958  1.00  0.00     0.000 C 
BRANCH   5   6
ATOM      6  C   UNL     1     169.854 147.297 155.670  1.00  0.00     0.000 C 
BRANCH   6   7
ATOM      7  C   UNL     1     171.216 146.600 155.829  1.00  0.00     0.006 C 
BRANCH   7   8
ATOM      8  C   UNL     1     171.583 146.376 157.301  1.00  0.00     0.053 C 
BRANCH   8   9
ATOM      9  C   UNL     1     171.766 144.921 157.613  1.00  0.00     0.041 C 
ATOM     10  O   UNL     1     170.766 144.193 157.847  1.00  0.00    -0.550 OA
ATOM     11  O   UNL     1     173.039 144.365 157.610  1.00  0.00    -0.550 OA
ENDBRANCH   8   9
ENDBRANCH   7   8
ENDBRANCH   6   7
ENDBRANCH   5   6
ENDBRANCH   4   5
ENDBRANCH   3   4
ENDBRANCH   2   3
ENDBRANCH   1   2
BRANCH   1  12
ATOM     12  C   UNL     1     170.666 144.299 150.921  1.00  0.00     0.000 C 
BRANCH  12  13
ATOM     13  C   UNL     1     169.852 144.436 149.619  1.00  0.00    -0.000 C 
BRANCH  13  14
ATOM     14  C   UNL     1     169.932 145.815 148.936  1.00  0.00    -0.000 C 
BRANCH  14  15
ATOM     15  C   UNL     1     168.574 146.494 148.679  1.00  0.00    -0.000 C 
BRANCH  15  16
ATOM     16  C   UNL     1     167.803 146.792 149.973  1.00  0.00    -0.000 C 
BRANCH  16  17
ATOM     17  C   UNL     1     166.537 147.610 149.681  1.00  0.00    -0.000 C 
BRANCH  17  18
ATOM     18  C   UNL     1     165.535 147.605 150.849  1.00  0.00    -0.000 C 
BRANCH  18  19
ATOM     19  C   UNL     1     164.084 147.941 150.460  1.00  0.00    -0.003 C 
ATOM     20  C   UNL     1     163.841 147.890 148.952  1.00  0.00     0.004 C 
ENDBRANCH  18  19
ENDBRANCH  17  18
ENDBRANCH  16  17
ENDBRANCH  15  16
ENDBRANCH  14  15
ENDBRANCH  13  14
ENDBRANCH  12  13
ENDBRANCH   1  12
TORSDOF 16
ENDMDL
MODEL 7
REMARK VINA RESULT:    -5.306      3.208      7.571
REMARK INTER + INTRA:         -12.101
REMARK INTER:                 -10.016
REMARK INTRA:                  -2.086
REMARK UNBOUND:                -1.833
REMARK SMILES CCCCCCCCCCCCCCCCCC(=O)[O-]
REMARK SMILES IDX 10 1 11 2 12 3 13 4 14 5 15 6 16 7 17 8 18 9 19 10 20 11
REMARK SMILES IDX 9 12 8 13 7 14 6 15 5 16 4 17 3 18 2 19 1 20
REMARK H PARENT
REMARK Flexibility Score: inf
ROOT
ATOM      1  C   UNL     1     168.787 145.666 154.519  1.00  0.00     0.000 C 
ENDROOT
BRANCH   1   2
ATOM      2  C   UNL     1     168.159 145.844 153.125  1.00  0.00     0.000 C 
BRANCH   2   3
ATOM      3  C   UNL     1     168.656 144.797 152.116  1.00  0.00     0.000 C 
BRANCH   3   4
ATOM      4  C   UNL     1     169.361 145.426 150.904  1.00  0.00     0.000 C 
BRANCH   4   5
ATOM      5  C   UNL     1     168.852 146.854 150.655  1.00  0.00     0.000 C 
BRANCH   5   6
ATOM      6  C   UNL     1     168.197 147.016 149.273  1.00  0.00     0.000 C 
BRANCH   6   7
ATOM      7  C   UNL     1     166.687 147.299 149.363  1.00  0.00     0.006 C 
BRANCH   7   8
ATOM      8  C   UNL     1     166.302 147.968 150.689  1.00  0.00     0.053 C 
BRANCH   8   9
ATOM      9  C   UNL     1     165.013 147.428 151.230  1.00  0.00     0.041 C 
ATOM     10  O   UNL     1     165.007 146.740 152.284  1.00  0.00    -0.550 OA
ATOM     11  O   UNL     1     163.815 147.716 150.588  1.00  0.00    -0.550 OA
ENDBRANCH   8   9
ENDBRANCH   7   8
ENDBRANCH   6   7
ENDBRANCH   5   6
ENDBRANCH   4   5
ENDBRANCH   3   4
ENDBRANCH   2   3
ENDBRANCH   1   2
BRANCH   1  12
ATOM     12  C   UNL     1     169.993 146.592 154.752  1.00  0.00     0.000 C 
BRANCH  12  13
ATOM     13  C   UNL     1     169.957 147.397 156.067  1.00  0.00    -0.000 C 
BRANCH  13  14
ATOM     14  C   UNL     1     171.240 147.322 156.918  1.00  0.00    -0.000 C 
BRANCH  14  15
ATOM     15  C   UNL     1     171.500 145.959 157.585  1.00  0.00    -0.000 C 
BRANCH  15  16
ATOM     16  C   UNL     1     172.750 145.255 157.037  1.00  0.00    -0.000 C 
BRANCH  16  17
ATOM     17  C   UNL     1     173.496 146.158 156.044  1.00  0.00    -0.000 C 
BRANCH  17  18
ATOM     18  C   UNL     1     173.781 145.465 154.699  1.00  0.00    -0.000 C 
BRANCH  18  19
ATOM     19  C   UNL     1     172.901 144.237 154.404  1.00  0.00    -0.003 C 
ATOM     20  C   UNL     1     172.258 144.281 153.017  1.00  0.00     0.004 C 
ENDBRANCH  18  19
ENDBRANCH  17  18
ENDBRANCH  16  17
ENDBRANCH  15  16
ENDBRANCH  14  15
ENDBRANCH  13  14
ENDBRANCH  12  13
ENDBRANCH   1  12
TORSDOF 16
ENDMDL
MODEL 8
REMARK VINA RESULT:    -5.304      1.627      5.098
REMARK INTER + INTRA:         -12.099
REMARK INTER:                  -9.845
REMARK INTRA:                  -2.254
REMARK UNBOUND:                -1.833
REMARK SMILES CCCCCCCCCCCCCCCCCC(=O)[O-]
REMARK SMILES IDX 10 1 11 2 12 3 13 4 14 5 15 6 16 7 17 8 18 9 19 10 20 11
REMARK SMILES IDX 9 12 8 13 7 14 6 15 5 16 4 17 3 18 2 19 1 20
REMARK H PARENT
REMARK Flexibility Score: inf
ROOT
ATOM      1  C   UNL     1     167.206 147.107 149.268  1.00  0.00     0.000 C 
ENDROOT
BRANCH   1   2
ATOM      2  C   UNL     1     167.411 147.481 150.747  1.00  0.00     0.000 C 
BRANCH   2   3
ATOM      3  C   UNL     1     166.342 146.867 151.665  1.00  0.00     0.000 C 
BRANCH   3   4
ATOM      4  C   UNL     1     166.943 146.158 152.888  1.00  0.00     0.000 C 
BRANCH   4   5
ATOM      5  C   UNL     1     168.216 145.388 152.504  1.00  0.00     0.000 C 
BRANCH   5   6
ATOM      6  C   UNL     1     169.307 145.471 153.584  1.00  0.00     0.000 C 
BRANCH   6   7
ATOM      7  C   UNL     1     168.823 146.180 154.861  1.00  0.00     0.006 C 
BRANCH   7   8
ATOM      8  C   UNL     1     169.906 147.081 155.468  1.00  0.00     0.053 C 
BRANCH   8   9
ATOM      9  C   UNL     1     170.635 146.399 156.586  1.00  0.00     0.041 C 
ATOM     10  O   UNL     1     171.592 146.978 157.164  1.00  0.00    -0.550 OA
ATOM     11  O   UNL     1     170.233 145.139 157.011  1.00  0.00    -0.550 OA
ENDBRANCH   8   9
ENDBRANCH   7   8
ENDBRANCH   6   7
ENDBRANCH   5   6
ENDBRANCH   4   5
ENDBRANCH   3   4
ENDBRANCH   2   3
ENDBRANCH   1   2
BRANCH   1  12
ATOM     12  C   UNL     1     168.436 146.417 148.652  1.00  0.00     0.000 C 
BRANCH  12  13
ATOM     13  C   UNL     1     169.791 146.822 149.267  1.00  0.00    -0.000 C 
BRANCH  13  14
ATOM     14  C   UNL     1     170.688 145.649 149.709  1.00  0.00    -0.000 C 
BRANCH  14  15
ATOM     15  C   UNL     1     170.054 144.253 149.558  1.00  0.00    -0.000 C 
BRANCH  15  16
ATOM     16  C   UNL     1     170.758 143.184 150.407  1.00  0.00    -0.000 C 
BRANCH  16  17
ATOM     17  C   UNL     1     171.732 143.828 151.404  1.00  0.00    -0.000 C 
BRANCH  17  18
ATOM     18  C   UNL     1     172.589 142.796 152.158  1.00  0.00    -0.000 C 
BRANCH  18  19
ATOM     19  C   UNL     1     172.944 143.183 153.605  1.00  0.00    -0.003 C 
ATOM     20  C   UNL     1     172.946 144.694 153.837  1.00  0.00     0.004 C 
ENDBRANCH  18  19
ENDBRANCH  17  18
ENDBRANCH  16  17
ENDBRANCH  15  16
ENDBRANCH  14  15
ENDBRANCH  13  14
ENDBRANCH  12  13
ENDBRANCH   1  12
TORSDOF 16
ENDMDL
MODEL 9
REMARK VINA RESULT:    -5.237      2.051      3.991
REMARK INTER + INTRA:         -11.968
REMARK INTER:                 -10.502
REMARK INTRA:                  -1.467
REMARK UNBOUND:                -1.833
REMARK SMILES CCCCCCCCCCCCCCCCCC(=O)[O-]
REMARK SMILES IDX 10 1 11 2 12 3 13 4 14 5 15 6 16 7 17 8 18 9 19 10 20 11
REMARK SMILES IDX 9 12 8 13 7 14 6 15 5 16 4 17 3 18 2 19 1 20
REMARK H PARENT
REMARK Flexibility Score: inf
ROOT
ATOM      1  C   UNL     1     168.657 144.718 152.558  1.00  0.00     0.000 C 
ENDROOT
BRANCH   1   2
ATOM      2  C   UNL     1     168.239 145.689 153.676  1.00  0.00     0.000 C 
BRANCH   2   3
ATOM      3  C   UNL     1     169.423 146.501 154.225  1.00  0.00     0.000 C 
BRANCH   3   4
ATOM      4  C   UNL     1     169.435 146.574 155.760  1.00  0.00     0.000 C 
BRANCH   4   5
ATOM      5  C   UNL     1     170.855 146.835 156.284  1.00  0.00     0.000 C 
BRANCH   5   6
ATOM      6  C   UNL     1     171.584 145.542 156.685  1.00  0.00     0.000 C 
BRANCH   6   7
ATOM      7  C   UNL     1     172.706 145.789 157.709  1.00  0.00     0.006 C 
BRANCH   7   8
ATOM      8  C   UNL     1     172.226 146.624 158.903  1.00  0.00     0.053 C 
BRANCH   8   9
ATOM      9  C   UNL     1     172.768 148.020 158.859  1.00  0.00     0.041 C 
ATOM     10  O   UNL     1     172.001 149.003 159.036  1.00  0.00    -0.550 OA
ATOM     11  O   UNL     1     174.125 148.233 158.656  1.00  0.00    -0.550 OA
ENDBRANCH   8   9
ENDBRANCH   7   8
ENDBRANCH   6   7
ENDBRANCH   5   6
ENDBRANCH   4   5
ENDBRANCH   3   4
ENDBRANCH   2   3
ENDBRANCH   1   2
BRANCH   1  12
ATOM     12  C   UNL     1     170.183 144.639 152.376  1.00  0.00     0.000 C 
BRANCH  12  13
ATOM     13  C   UNL     1     170.668 144.602 150.913  1.00  0.00    -0.000 C 
BRANCH  13  14
ATOM     14  C   UNL     1     170.420 145.892 150.106  1.00  0.00    -0.000 C 
BRANCH  14  15
ATOM     15  C   UNL     1     169.431 145.745 148.935  1.00  0.00    -0.000 C 
BRANCH  15  16
ATOM     16  C   UNL     1     168.435 146.911 148.846  1.00  0.00    -0.000 C 
BRANCH  16  17
ATOM     17  C   UNL     1     168.191 147.531 150.229  1.00  0.00    -0.000 C 
BRANCH  17  18
ATOM     18  C   UNL     1     166.749 147.332 150.729  1.00  0.00    -0.000 C 
BRANCH  18  19
ATOM     19  C   UNL     1     165.654 147.733 149.724  1.00  0.00    -0.003 C 
ATOM     20  C   UNL     1     164.336 148.120 150.397  1.00  0.00     0.004 C 
ENDBRANCH  18  19
ENDBRANCH  17  18
ENDBRANCH  16  17
ENDBRANCH  15  16
ENDBRANCH  14  15
ENDBRANCH  13  14
ENDBRANCH  12  13
ENDBRANCH   1  12
TORSDOF 16
ENDMDL
