MODEL 1
REMARK VINA RESULT:    -2.538      0.000      0.000
REMARK INTER + INTRA:          -5.019
REMARK INTER:                  -3.725
REMARK INTRA:                  -1.294
REMARK UNBOUND:                -1.294
REMARK SMILES CCCCCC(=O)CCCCC
REMARK SMILES IDX 6 1 7 2 5 3 4 4 3 5 2 6 1 7 8 8 9 9 10 10 11 11 12 12
REMARK H PARENT
REMARK Flexibility Score: inf
ROOT
ATOM      1  C   UNL     1     148.773 159.978 139.747  1.00  0.00     0.132 C 
ATOM      2  O   UNL     1     148.799 160.902 140.546  1.00  0.00    -0.300 OA
ENDROOT
BRANCH   1   3
ATOM      3  C   UNL     1     147.439 159.434 139.266  1.00  0.00     0.075 C 
BRANCH   3   4
ATOM      4  C   UNL     1     146.872 158.297 140.134  1.00  0.00     0.008 C 
BRANCH   4   5
ATOM      5  C   UNL     1     146.536 157.047 139.302  1.00  0.00     0.000 C 
BRANCH   5   6
ATOM      6  C   UNL     1     146.600 157.312 137.790  1.00  0.00    -0.003 C 
ATOM      7  C   UNL     1     146.546 156.030 136.960  1.00  0.00     0.004 C 
ENDBRANCH   5   6
ENDBRANCH   4   5
ENDBRANCH   3   4
ENDBRANCH   1   3
BRANCH   1   8
ATOM      8  C   UNL     1     150.097 159.373 139.333  1.00  0.00     0.075 C 
BRANCH   8   9
ATOM      9  C   UNL     1     150.025 158.453 138.101  1.00  0.00     0.008 C 
BRANCH   9  10
ATOM     10  C   UNL     1     150.307 156.977 138.438  1.00  0.00     0.000 C 
BRANCH  10  11
ATOM     11  C   UNL     1     150.502 156.678 139.936  1.00  0.00    -0.003 C 
ATOM     12  C   UNL     1     149.579 155.575 140.453  1.00  0.00     0.004 C 
ENDBRANCH  10  11
ENDBRANCH   9  10
ENDBRANCH   8   9
ENDBRANCH   1   8
TORSDOF 8
ENDMDL
MODEL 2
REMARK VINA RESULT:    -2.530      9.071     11.115
REMARK INTER + INTRA:          -5.007
REMARK INTER:                  -3.751
REMARK INTRA:                  -1.256
REMARK UNBOUND:                -1.294
REMARK SMILES CCCCCC(=O)CCCCC
REMARK SMILES IDX 6 1 7 2 5 3 4 4 3 5 2 6 1 7 8 8 9 9 10 10 11 11 12 12
REMARK H PARENT
REMARK Flexibility Score: inf
ROOT
ATOM      1  C   UNL     1     141.602 149.440 139.301  1.00  0.00     0.132 C 
ATOM      2  O   UNL     1     140.934 149.795 140.261  1.00  0.00    -0.300 OA
ENDROOT
BRANCH   1   3
ATOM      3  C   UNL     1     142.304 150.481 138.446  1.00  0.00     0.075 C 
BRANCH   3   4
ATOM      4  C   UNL     1     143.841 150.406 138.497  1.00  0.00     0.008 C 
BRANCH   4   5
ATOM      5  C   UNL     1     144.375 150.484 139.939  1.00  0.00     0.000 C 
BRANCH   5   6
ATOM      6  C   UNL     1     145.691 149.713 140.121  1.00  0.00    -0.003 C 
ATOM      7  C   UNL     1     146.557 149.711 138.862  1.00  0.00     0.004 C 
ENDBRANCH   5   6
ENDBRANCH   4   5
ENDBRANCH   3   4
ENDBRANCH   1   3
BRANCH   1   8
ATOM      8  C   UNL     1     141.630 147.963 138.974  1.00  0.00     0.075 C 
BRANCH   8   9
ATOM      9  C   UNL     1     142.214 147.070 140.083  1.00  0.00     0.008 C 
BRANCH   9  10
ATOM     10  C   UNL     1     143.711 146.766 139.881  1.00  0.00     0.000 C 
BRANCH  10  11
ATOM     11  C   UNL     1     144.163 146.675 138.412  1.00  0.00    -0.003 C 
ATOM     12  C   UNL     1     145.607 146.200 138.258  1.00  0.00     0.004 C 
ENDBRANCH  10  11
ENDBRANCH   9  10
ENDBRANCH   8   9
ENDBRANCH   1   8
TORSDOF 8
ENDMDL
MODEL 3
REMARK VINA RESULT:    -2.523      9.465     11.426
REMARK INTER + INTRA:          -4.996
REMARK INTER:                  -3.833
REMARK INTRA:                  -1.163
REMARK UNBOUND:                -1.294
REMARK SMILES CCCCCC(=O)CCCCC
REMARK SMILES IDX 6 1 7 2 5 3 4 4 3 5 2 6 1 7 8 8 9 9 10 10 11 11 12 12
REMARK H PARENT
REMARK Flexibility Score: inf
ROOT
ATOM      1  C   UNL     1     142.126 147.484 139.867  1.00  0.00     0.132 C 
ATOM      2  O   UNL     1     141.262 147.152 140.664  1.00  0.00    -0.300 OA
ENDROOT
BRANCH   1   3
ATOM      3  C   UNL     1     141.840 148.583 138.858  1.00  0.00     0.075 C 
BRANCH   3   4
ATOM      4  C   UNL     1     142.274 149.987 139.316  1.00  0.00     0.008 C 
BRANCH   4   5
ATOM      5  C   UNL     1     143.723 150.307 138.907  1.00  0.00     0.000 C 
BRANCH   5   6
ATOM      6  C   UNL     1     144.609 150.662 140.110  1.00  0.00    -0.003 C 
ATOM      7  C   UNL     1     145.617 149.564 140.448  1.00  0.00     0.004 C 
ENDBRANCH   5   6
ENDBRANCH   4   5
ENDBRANCH   3   4
ENDBRANCH   1   3
BRANCH   1   8
ATOM      8  C   UNL     1     143.430 146.715 139.886  1.00  0.00     0.075 C 
BRANCH   8   9
ATOM      9  C   UNL     1     144.061 146.486 138.501  1.00  0.00     0.008 C 
BRANCH   9  10
ATOM     10  C   UNL     1     145.575 146.210 138.571  1.00  0.00     0.000 C 
BRANCH  10  11
ATOM     11  C   UNL     1     146.454 147.207 137.795  1.00  0.00    -0.003 C 
ATOM     12  C   UNL     1     145.666 148.046 136.790  1.00  0.00     0.004 C 
ENDBRANCH  10  11
ENDBRANCH   9  10
ENDBRANCH   8   9
ENDBRANCH   1   8
TORSDOF 8
ENDMDL
MODEL 4
REMARK VINA RESULT:    -2.461      9.687     11.696
REMARK INTER + INTRA:          -4.907
REMARK INTER:                  -3.814
REMARK INTRA:                  -1.093
REMARK UNBOUND:                -1.294
REMARK SMILES CCCCCC(=O)CCCCC
REMARK SMILES IDX 6 1 7 2 5 3 4 4 3 5 2 6 1 7 8 8 9 9 10 10 11 11 12 12
REMARK H PARENT
REMARK Flexibility Score: inf
ROOT
ATOM      1  C   UNL     1     142.377 147.542 139.582  1.00  0.00     0.132 C 
ATOM      2  O   UNL     1     141.583 147.182 140.438  1.00  0.00    -0.300 OA
ENDROOT
BRANCH   1   3
ATOM      3  C   UNL     1     143.579 146.673 139.255  1.00  0.00     0.075 C 
BRANCH   3   4
ATOM      4  C   UNL     1     143.880 146.553 137.751  1.00  0.00     0.008 C 
BRANCH   4   5
ATOM      5  C   UNL     1     145.390 146.454 137.470  1.00  0.00     0.000 C 
BRANCH   5   6
ATOM      6  C   UNL     1     146.160 145.786 138.618  1.00  0.00    -0.003 C 
ATOM      7  C   UNL     1     147.295 144.887 138.128  1.00  0.00     0.004 C 
ENDBRANCH   5   6
ENDBRANCH   4   5
ENDBRANCH   3   4
ENDBRANCH   1   3
BRANCH   1   8
ATOM      8  C   UNL     1     142.149 148.893 138.938  1.00  0.00     0.075 C 
BRANCH   8   9
ATOM      9  C   UNL     1     143.099 150.004 139.423  1.00  0.00     0.008 C 
BRANCH   9  10
ATOM     10  C   UNL     1     144.269 150.256 138.453  1.00  0.00     0.000 C 
BRANCH  10  11
ATOM     11  C   UNL     1     145.660 149.894 139.005  1.00  0.00    -0.003 C 
ATOM     12  C   UNL     1     145.636 149.500 140.481  1.00  0.00     0.004 C 
ENDBRANCH  10  11
ENDBRANCH   9  10
ENDBRANCH   8   9
ENDBRANCH   1   8
TORSDOF 8
ENDMDL
MODEL 5
REMARK VINA RESULT:    -2.456      9.182     11.214
REMARK INTER + INTRA:          -4.899
REMARK INTER:                  -3.566
REMARK INTRA:                  -1.333
REMARK UNBOUND:                -1.294
REMARK SMILES CCCCCC(=O)CCCCC
REMARK SMILES IDX 6 1 7 2 5 3 4 4 3 5 2 6 1 7 8 8 9 9 10 10 11 11 12 12
REMARK H PARENT
REMARK Flexibility Score: inf
ROOT
ATOM      1  C   UNL     1     159.602 152.070 139.262  1.00  0.00     0.132 C 
ATOM      2  O   UNL     1     160.244 151.668 140.222  1.00  0.00    -0.300 OA
ENDROOT
BRANCH   1   3
ATOM      3  C   UNL     1     159.047 151.076 138.257  1.00  0.00     0.075 C 
BRANCH   3   4
ATOM      4  C   UNL     1     157.513 150.954 138.273  1.00  0.00     0.008 C 
BRANCH   4   5
ATOM      5  C   UNL     1     156.974 150.630 139.679  1.00  0.00     0.000 C 
BRANCH   5   6
ATOM      6  C   UNL     1     155.765 151.497 140.059  1.00  0.00    -0.003 C 
ATOM      7  C   UNL     1     154.747 151.623 138.926  1.00  0.00     0.004 C 
ENDBRANCH   5   6
ENDBRANCH   4   5
ENDBRANCH   3   4
ENDBRANCH   1   3
BRANCH   1   8
ATOM      8  C   UNL     1     159.460 153.567 139.093  1.00  0.00     0.075 C 
BRANCH   8   9
ATOM      9  C   UNL     1     158.446 154.228 140.044  1.00  0.00     0.008 C 
BRANCH   9  10
ATOM     10  C   UNL     1     157.190 154.742 139.317  1.00  0.00     0.000 C 
BRANCH  10  11
ATOM     11  C   UNL     1     157.249 154.662 137.780  1.00  0.00    -0.003 C 
ATOM     12  C   UNL     1     155.872 154.740 137.122  1.00  0.00     0.004 C 
ENDBRANCH  10  11
ENDBRANCH   9  10
ENDBRANCH   8   9
ENDBRANCH   1   8
TORSDOF 8
ENDMDL
MODEL 6
REMARK VINA RESULT:    -2.437     13.609     15.480
REMARK INTER + INTRA:          -4.870
REMARK INTER:                  -3.982
REMARK INTRA:                  -0.888
REMARK UNBOUND:                -1.294
REMARK SMILES CCCCCC(=O)CCCCC
REMARK SMILES IDX 6 1 7 2 5 3 4 4 3 5 2 6 1 7 8 8 9 9 10 10 11 11 12 12
REMARK H PARENT
REMARK Flexibility Score: inf
ROOT
ATOM      1  C   UNL     1     153.913 142.317 139.641  1.00  0.00     0.132 C 
ATOM      2  O   UNL     1     154.215 141.519 140.517  1.00  0.00    -0.300 OA
ENDROOT
BRANCH   1   3
ATOM      3  C   UNL     1     154.634 143.651 139.555  1.00  0.00     0.075 C 
BRANCH   3   4
ATOM      4  C   UNL     1     154.768 144.203 138.124  1.00  0.00     0.008 C 
BRANCH   4   5
ATOM      5  C   UNL     1     154.278 145.659 138.019  1.00  0.00     0.000 C 
BRANCH   5   6
ATOM      6  C   UNL     1     155.400 146.629 137.620  1.00  0.00    -0.003 C 
ATOM      7  C   UNL     1     156.399 146.877 138.750  1.00  0.00     0.004 C 
ENDBRANCH   5   6
ENDBRANCH   4   5
ENDBRANCH   3   4
ENDBRANCH   1   3
BRANCH   1   8
ATOM      8  C   UNL     1     152.766 141.948 138.724  1.00  0.00     0.075 C 
BRANCH   8   9
ATOM      9  C   UNL     1     151.372 142.318 139.260  1.00  0.00     0.008 C 
BRANCH   9  10
ATOM     10  C   UNL     1     150.940 143.745 138.875  1.00  0.00     0.000 C 
BRANCH  10  11
ATOM     11  C   UNL     1     150.557 144.651 140.060  1.00  0.00    -0.003 C 
ATOM     12  C   UNL     1     151.690 145.577 140.498  1.00  0.00     0.004 C 
ENDBRANCH  10  11
ENDBRANCH   9  10
ENDBRANCH   8   9
ENDBRANCH   1   8
TORSDOF 8
ENDMDL
MODEL 7
REMARK VINA RESULT:    -2.388      1.418      2.096
REMARK INTER + INTRA:          -4.799
REMARK INTER:                  -3.634
REMARK INTRA:                  -1.166
REMARK UNBOUND:                -1.294
REMARK SMILES CCCCCC(=O)CCCCC
REMARK SMILES IDX 6 1 7 2 5 3 4 4 3 5 2 6 1 7 8 8 9 9 10 10 11 11 12 12
REMARK H PARENT
REMARK Flexibility Score: inf
ROOT
ATOM      1  C   UNL     1     147.271 158.530 139.571  1.00  0.00     0.132 C 
ATOM      2  O   UNL     1     146.890 159.146 140.555  1.00  0.00    -0.300 OA
ENDROOT
BRANCH   1   3
ATOM      3  C   UNL     1     146.490 157.320 139.089  1.00  0.00     0.075 C 
BRANCH   3   4
ATOM      4  C   UNL     1     146.449 157.165 137.559  1.00  0.00     0.008 C 
BRANCH   4   5
ATOM      5  C   UNL     1     146.639 155.702 137.121  1.00  0.00     0.000 C 
BRANCH   5   6
ATOM      6  C   UNL     1     146.261 154.703 138.225  1.00  0.00    -0.003 C 
ATOM      7  C   UNL     1     144.855 154.130 138.049  1.00  0.00     0.004 C 
ENDBRANCH   5   6
ENDBRANCH   4   5
ENDBRANCH   3   4
ENDBRANCH   1   3
BRANCH   1   8
ATOM      8  C   UNL     1     148.565 158.976 138.923  1.00  0.00     0.075 C 
BRANCH   8   9
ATOM      9  C   UNL     1     149.808 158.181 139.358  1.00  0.00     0.008 C 
BRANCH   9  10
ATOM     10  C   UNL     1     150.144 157.023 138.399  1.00  0.00     0.000 C 
BRANCH  10  11
ATOM     11  C   UNL     1     149.932 155.614 138.981  1.00  0.00    -0.003 C 
ATOM     12  C   UNL     1     149.516 155.628 140.451  1.00  0.00     0.004 C 
ENDBRANCH  10  11
ENDBRANCH   9  10
ENDBRANCH   8   9
ENDBRANCH   1   8
TORSDOF 8
ENDMDL
MODEL 8
REMARK VINA RESULT:    -2.375     13.287     15.346
REMARK INTER + INTRA:          -4.780
REMARK INTER:                  -3.623
REMARK INTRA:                  -1.157
REMARK UNBOUND:                -1.294
REMARK SMILES CCCCCC(=O)CCCCC
REMARK SMILES IDX 6 1 7 2 5 3 4 4 3 5 2 6 1 7 8 8 9 9 10 10 11 11 12 12
REMARK H PARENT
REMARK Flexibility Score: inf
ROOT
ATOM      1  C   UNL     1     151.586 141.905 138.926  1.00  0.00     0.132 C 
ATOM      2  O   UNL     1     151.253 141.482 140.023  1.00  0.00    -0.300 OA
ENDROOT
BRANCH   1   3
ATOM      3  C   UNL     1     150.527 142.396 137.954  1.00  0.00     0.075 C 
BRANCH   3   4
ATOM      4  C   UNL     1     150.646 143.887 137.592  1.00  0.00     0.008 C 
BRANCH   4   5
ATOM      5  C   UNL     1     150.257 144.800 138.769  1.00  0.00     0.000 C 
BRANCH   5   6
ATOM      6  C   UNL     1     151.390 145.756 139.171  1.00  0.00    -0.003 C 
ATOM      7  C   UNL     1     151.741 145.668 140.656  1.00  0.00     0.004 C 
ENDBRANCH   5   6
ENDBRANCH   4   5
ENDBRANCH   3   4
ENDBRANCH   1   3
BRANCH   1   8
ATOM      8  C   UNL     1     153.056 141.846 138.569  1.00  0.00     0.075 C 
BRANCH   8   9
ATOM      9  C   UNL     1     154.013 142.125 139.741  1.00  0.00     0.008 C 
BRANCH   9  10
ATOM     10  C   UNL     1     154.482 143.591 139.795  1.00  0.00     0.000 C 
BRANCH  10  11
ATOM     11  C   UNL     1     154.738 144.243 138.423  1.00  0.00    -0.003 C 
ATOM     12  C   UNL     1     155.137 145.714 138.523  1.00  0.00     0.004 C 
ENDBRANCH  10  11
ENDBRANCH   9  10
ENDBRANCH   8   9
ENDBRANCH   1   8
TORSDOF 8
ENDMDL
MODEL 9
REMARK VINA RESULT:    -2.360      9.047     10.794
REMARK INTER + INTRA:          -4.757
REMARK INTER:                  -3.384
REMARK INTRA:                  -1.374
REMARK UNBOUND:                -1.294
REMARK SMILES CCCCCC(=O)CCCCC
REMARK SMILES IDX 6 1 7 2 5 3 4 4 3 5 2 6 1 7 8 8 9 9 10 10 11 11 12 12
REMARK H PARENT
REMARK Flexibility Score: inf
ROOT
ATOM      1  C   UNL     1     142.497 149.435 139.365  1.00  0.00     0.132 C 
ATOM      2  O   UNL     1     141.472 149.910 139.832  1.00  0.00    -0.300 OA
ENDROOT
BRANCH   1   3
ATOM      3  C   UNL     1     142.605 147.935 139.153  1.00  0.00     0.075 C 
BRANCH   3   4
ATOM      4  C   UNL     1     142.775 147.517 137.681  1.00  0.00     0.008 C 
BRANCH   4   5
ATOM      5  C   UNL     1     144.018 146.635 137.470  1.00  0.00     0.000 C 
BRANCH   5   6
ATOM      6  C   UNL     1     144.719 146.281 138.790  1.00  0.00    -0.003 C 
ATOM      7  C   UNL     1     146.157 145.803 138.589  1.00  0.00     0.004 C 
ENDBRANCH   5   6
ENDBRANCH   4   5
ENDBRANCH   3   4
ENDBRANCH   1   3
BRANCH   1   8
ATOM      8  C   UNL     1     143.645 150.383 139.089  1.00  0.00     0.075 C 
BRANCH   8   9
ATOM      9  C   UNL     1     144.877 150.177 139.989  1.00  0.00     0.008 C 
BRANCH   9  10
ATOM     10  C   UNL     1     146.115 149.697 139.208  1.00  0.00     0.000 C 
BRANCH  10  11
ATOM     11  C   UNL     1     146.010 149.826 137.678  1.00  0.00    -0.003 C 
ATOM     12  C   UNL     1     147.075 149.023 136.933  1.00  0.00     0.004 C 
ENDBRANCH  10  11
ENDBRANCH   9  10
ENDBRANCH   8   9
ENDBRANCH   1   8
TORSDOF 8
ENDMDL
