MODEL 1
REMARK VINA RESULT:    -6.272      0.000      0.000
REMARK INTER + INTRA:          -7.669
REMARK INTER:                  -7.372
REMARK INTRA:                  -0.298
REMARK UNBOUND:                -0.298
REMARK SMILES O=c1c(O)c(-c2ccc(O)cc2)oc2cc(O)cc(O)c12
REMARK SMILES IDX 5 1 3 2 2 3 1 4 21 5 19 6 18 7 16 8 15 9 14 10 13 11 6 12
REMARK SMILES IDX 7 13 8 14 9 15 12 16 11 17 10 18 4 20 20 22 17 24
REMARK H PARENT 10 19 4 21 20 23 17 25
REMARK Flexibility Score: inf
ROOT
ATOM      1  C   UNL     1      17.313  42.368  25.425  1.00  0.00     0.180 A 
ATOM      2  C   UNL     1      17.271  41.566  26.582  1.00  0.00     0.208 A 
ATOM      3  C   UNL     1      18.478  41.112  27.137  1.00  0.00     0.238 A 
ATOM      4  O   UNL     1      18.453  40.402  28.178  1.00  0.00    -0.285 OA
ATOM      5  C   UNL     1      19.700  41.449  26.518  1.00  0.00     0.111 A 
ATOM      6  C   UNL     1      20.959  41.029  27.012  1.00  0.00     0.134 A 
ATOM      7  C   UNL     1      22.130  41.399  26.333  1.00  0.00     0.093 A 
ATOM      8  C   UNL     1      22.065  42.178  25.174  1.00  0.00     0.123 A 
ATOM      9  C   UNL     1      20.826  42.596  24.685  1.00  0.00     0.094 A 
ATOM     10  C   UNL     1      19.648  42.239  25.346  1.00  0.00     0.146 A 
ATOM     11  O   UNL     1      18.483  42.654  24.861  1.00  0.00    -0.452 OA
ENDROOT
BRANCH   1  12
ATOM     12  C   UNL     1      16.085  42.901  24.792  1.00  0.00     0.021 A 
ATOM     13  C   UNL     1      15.554  44.151  25.158  1.00  0.00     0.016 A 
ATOM     14  C   UNL     1      14.406  44.644  24.528  1.00  0.00     0.047 A 
ATOM     15  C   UNL     1      13.786  43.904  23.517  1.00  0.00     0.115 A 
ATOM     16  C   UNL     1      15.467  42.173  23.760  1.00  0.00     0.016 A 
ATOM     17  C   UNL     1      14.320  42.668  23.133  1.00  0.00     0.047 A 
BRANCH  15  18
ATOM     18  O   UNL     1      12.643  44.408  22.900  1.00  0.00    -0.508 OA
ATOM     19  H   UNL     1      12.371  45.379  23.003  1.00  0.00     0.293 HD
ENDBRANCH  15  18
ENDBRANCH   1  12
BRANCH   2  20
ATOM     20  O   UNL     1      16.045  41.205  27.146  1.00  0.00    -0.502 OA
ATOM     21  H   UNL     1      15.934  41.030  28.137  1.00  0.00     0.293 HD
ENDBRANCH   2  20
BRANCH   6  22
ATOM     22  O   UNL     1      21.054  40.250  28.165  1.00  0.00    -0.507 OA
ATOM     23  H   UNL     1      20.830  39.262  28.161  1.00  0.00     0.293 HD
ENDBRANCH   6  22
BRANCH   8  24
ATOM     24  O   UNL     1      23.227  42.545  24.499  1.00  0.00    -0.508 OA
ATOM     25  H   UNL     1      23.252  42.620  23.488  1.00  0.00     0.293 HD
ENDBRANCH   8  24
TORSDOF 5
ENDMDL
MODEL 2
REMARK VINA RESULT:    -6.192      1.240      3.101
REMARK INTER + INTRA:          -7.576
REMARK INTER:                  -7.287
REMARK INTRA:                  -0.288
REMARK UNBOUND:                -0.298
REMARK SMILES O=c1c(O)c(-c2ccc(O)cc2)oc2cc(O)cc(O)c12
REMARK SMILES IDX 5 1 3 2 2 3 1 4 21 5 19 6 18 7 16 8 15 9 14 10 13 11 6 12
REMARK SMILES IDX 7 13 8 14 9 15 12 16 11 17 10 18 4 20 20 22 17 24
REMARK H PARENT 10 19 4 21 20 23 17 25
REMARK Flexibility Score: inf
ROOT
ATOM      1  C   UNL     1      17.962  42.990  24.104  1.00  0.00     0.180 A 
ATOM      2  C   UNL     1      19.016  43.442  23.288  1.00  0.00     0.208 A 
ATOM      3  C   UNL     1      20.335  43.114  23.639  1.00  0.00     0.238 A 
ATOM      4  O   UNL     1      21.286  43.504  22.910  1.00  0.00    -0.285 OA
ATOM      5  C   UNL     1      20.579  42.360  24.806  1.00  0.00     0.111 A 
ATOM      6  C   UNL     1      21.878  41.992  25.232  1.00  0.00     0.134 A 
ATOM      7  C   UNL     1      22.038  41.248  26.411  1.00  0.00     0.093 A 
ATOM      8  C   UNL     1      20.926  40.869  27.170  1.00  0.00     0.123 A 
ATOM      9  C   UNL     1      19.643  41.229  26.753  1.00  0.00     0.094 A 
ATOM     10  C   UNL     1      19.462  41.969  25.581  1.00  0.00     0.146 A 
ATOM     11  O   UNL     1      18.231  42.294  25.206  1.00  0.00    -0.452 OA
ENDROOT
BRANCH   1  12
ATOM     12  C   UNL     1      16.544  43.278  23.791  1.00  0.00     0.021 A 
ATOM     13  C   UNL     1      15.899  44.421  24.299  1.00  0.00     0.016 A 
ATOM     14  C   UNL     1      14.565  44.685  23.969  1.00  0.00     0.047 A 
ATOM     15  C   UNL     1      13.866  43.822  23.118  1.00  0.00     0.115 A 
ATOM     16  C   UNL     1      15.840  42.428  22.920  1.00  0.00     0.016 A 
ATOM     17  C   UNL     1      14.508  42.694  22.593  1.00  0.00     0.047 A 
BRANCH  15  18
ATOM     18  O   UNL     1      12.538  44.099  22.800  1.00  0.00    -0.508 OA
ATOM     19  H   UNL     1      11.830  44.189  23.520  1.00  0.00     0.293 HD
ENDBRANCH  15  18
ENDBRANCH   1  12
BRANCH   2  20
ATOM     20  O   UNL     1      18.750  44.229  22.164  1.00  0.00    -0.502 OA
ATOM     21  H   UNL     1      18.341  45.153  22.234  1.00  0.00     0.293 HD
ENDBRANCH   2  20
BRANCH   6  22
ATOM     22  O   UNL     1      23.005  42.357  24.497  1.00  0.00    -0.507 OA
ATOM     23  H   UNL     1      23.021  43.192  23.923  1.00  0.00     0.293 HD
ENDBRANCH   6  22
BRANCH   8  24
ATOM     24  O   UNL     1      21.084  40.131  28.342  1.00  0.00    -0.508 OA
ATOM     25  H   UNL     1      20.545  39.290  28.515  1.00  0.00     0.293 HD
ENDBRANCH   8  24
TORSDOF 5
ENDMDL
MODEL 3
REMARK VINA RESULT:    -6.124      5.546      7.454
REMARK INTER + INTRA:          -7.496
REMARK INTER:                  -7.278
REMARK INTRA:                  -0.218
REMARK UNBOUND:                -0.298
REMARK SMILES O=c1c(O)c(-c2ccc(O)cc2)oc2cc(O)cc(O)c12
REMARK SMILES IDX 5 1 3 2 2 3 1 4 21 5 19 6 18 7 16 8 15 9 14 10 13 11 6 12
REMARK SMILES IDX 7 13 8 14 9 15 12 16 11 17 10 18 4 20 20 22 17 24
REMARK H PARENT 10 19 4 21 20 23 17 25
REMARK Flexibility Score: inf
ROOT
ATOM      1  C   UNL     1      21.011  38.959  22.560  1.00  0.00     0.180 A 
ATOM      2  C   UNL     1      21.190  39.884  21.512  1.00  0.00     0.208 A 
ATOM      3  C   UNL     1      21.985  39.520  20.414  1.00  0.00     0.238 A 
ATOM      4  O   UNL     1      22.143  40.335  19.466  1.00  0.00    -0.285 OA
ATOM      5  C   UNL     1      22.603  38.252  20.391  1.00  0.00     0.111 A 
ATOM      6  C   UNL     1      23.422  37.811  19.324  1.00  0.00     0.134 A 
ATOM      7  C   UNL     1      24.009  36.537  19.379  1.00  0.00     0.093 A 
ATOM      8  C   UNL     1      23.793  35.701  20.479  1.00  0.00     0.123 A 
ATOM      9  C   UNL     1      22.985  36.132  21.532  1.00  0.00     0.094 A 
ATOM     10  C   UNL     1      22.390  37.396  21.496  1.00  0.00     0.146 A 
ATOM     11  O   UNL     1      21.622  37.778  22.510  1.00  0.00    -0.452 OA
ENDROOT
BRANCH   1  12
ATOM     12  C   UNL     1      20.173  39.261  23.742  1.00  0.00     0.021 A 
ATOM     13  C   UNL     1      20.606  40.155  24.739  1.00  0.00     0.016 A 
ATOM     14  C   UNL     1      19.786  40.443  25.835  1.00  0.00     0.047 A 
ATOM     15  C   UNL     1      18.521  39.856  25.941  1.00  0.00     0.115 A 
ATOM     16  C   UNL     1      18.892  38.693  23.846  1.00  0.00     0.016 A 
ATOM     17  C   UNL     1      18.075  38.982  24.942  1.00  0.00     0.047 A 
BRANCH  15  18
ATOM     18  O   UNL     1      17.716  40.153  27.039  1.00  0.00    -0.508 OA
ATOM     19  H   UNL     1      17.014  39.501  27.371  1.00  0.00     0.293 HD
ENDBRANCH  15  18
ENDBRANCH   1  12
BRANCH   2  20
ATOM     20  O   UNL     1      20.607  41.152  21.584  1.00  0.00    -0.502 OA
ATOM     21  H   UNL     1      20.143  41.489  22.419  1.00  0.00     0.293 HD
ENDBRANCH   2  20
BRANCH   6  22
ATOM     22  O   UNL     1      23.657  38.623  18.215  1.00  0.00    -0.507 OA
ATOM     23  H   UNL     1      22.903  39.090  17.726  1.00  0.00     0.293 HD
ENDBRANCH   6  22
BRANCH   8  24
ATOM     24  O   UNL     1      24.376  34.437  20.535  1.00  0.00    -0.508 OA
ATOM     25  H   UNL     1      25.352  34.293  20.302  1.00  0.00     0.293 HD
ENDBRANCH   8  24
TORSDOF 5
ENDMDL
MODEL 4
REMARK VINA RESULT:    -5.987     10.806     14.520
REMARK INTER + INTRA:          -7.335
REMARK INTER:                  -7.085
REMARK INTRA:                  -0.250
REMARK UNBOUND:                -0.298
REMARK SMILES O=c1c(O)c(-c2ccc(O)cc2)oc2cc(O)cc(O)c12
REMARK SMILES IDX 5 1 3 2 2 3 1 4 21 5 19 6 18 7 16 8 15 9 14 10 13 11 6 12
REMARK SMILES IDX 7 13 8 14 9 15 12 16 11 17 10 18 4 20 20 22 17 24
REMARK H PARENT 10 19 4 21 20 23 17 25
REMARK Flexibility Score: inf
ROOT
ATOM      1  C   UNL     1      12.634  38.014  14.984  1.00  0.00     0.180 A 
ATOM      2  C   UNL     1      13.813  38.359  14.296  1.00  0.00     0.208 A 
ATOM      3  C   UNL     1      13.729  38.717  12.942  1.00  0.00     0.238 A 
ATOM      4  O   UNL     1      14.777  39.038  12.319  1.00  0.00    -0.285 OA
ATOM      5  C   UNL     1      12.476  38.706  12.295  1.00  0.00     0.111 A 
ATOM      6  C   UNL     1      12.306  39.051  10.932  1.00  0.00     0.134 A 
ATOM      7  C   UNL     1      11.026  39.006  10.358  1.00  0.00     0.093 A 
ATOM      8  C   UNL     1       9.917  38.624  11.120  1.00  0.00     0.123 A 
ATOM      9  C   UNL     1      10.080  38.285  12.464  1.00  0.00     0.094 A 
ATOM     10  C   UNL     1      11.346  38.324  13.055  1.00  0.00     0.146 A 
ATOM     11  O   UNL     1      11.471  38.000  14.337  1.00  0.00    -0.452 OA
ENDROOT
BRANCH   1  12
ATOM     12  C   UNL     1      12.638  37.642  16.417  1.00  0.00     0.021 A 
ATOM     13  C   UNL     1      13.061  36.370  16.843  1.00  0.00     0.016 A 
ATOM     14  C   UNL     1      13.079  36.050  18.205  1.00  0.00     0.047 A 
ATOM     15  C   UNL     1      12.691  36.999  19.156  1.00  0.00     0.115 A 
ATOM     16  C   UNL     1      12.270  38.597  17.381  1.00  0.00     0.016 A 
ATOM     17  C   UNL     1      12.288  38.274  18.741  1.00  0.00     0.047 A 
BRANCH  15  18
ATOM     18  O   UNL     1      12.713  36.665  20.509  1.00  0.00    -0.508 OA
ATOM     19  H   UNL     1      12.708  35.698  20.814  1.00  0.00     0.293 HD
ENDBRANCH  15  18
ENDBRANCH   1  12
BRANCH   2  20
ATOM     20  O   UNL     1      15.048  38.313  14.948  1.00  0.00    -0.502 OA
ATOM     21  H   UNL     1      15.798  38.961  14.736  1.00  0.00     0.293 HD
ENDBRANCH   2  20
BRANCH   6  22
ATOM     22  O   UNL     1      13.393  39.434  10.147  1.00  0.00    -0.507 OA
ATOM     23  H   UNL     1      13.474  40.371   9.769  1.00  0.00     0.293 HD
ENDBRANCH   6  22
BRANCH   8  24
ATOM     24  O   UNL     1       8.646  38.578  10.551  1.00  0.00    -0.508 OA
ATOM     25  H   UNL     1       8.266  39.367  10.041  1.00  0.00     0.293 HD
ENDBRANCH   8  24
TORSDOF 5
ENDMDL
MODEL 5
REMARK VINA RESULT:    -5.897      3.391      6.529
REMARK INTER + INTRA:          -7.228
REMARK INTER:                  -6.935
REMARK INTRA:                  -0.293
REMARK UNBOUND:                -0.298
REMARK SMILES O=c1c(O)c(-c2ccc(O)cc2)oc2cc(O)cc(O)c12
REMARK SMILES IDX 5 1 3 2 2 3 1 4 21 5 19 6 18 7 16 8 15 9 14 10 13 11 6 12
REMARK SMILES IDX 7 13 8 14 9 15 12 16 11 17 10 18 4 20 20 22 17 24
REMARK H PARENT 10 19 4 21 20 23 17 25
REMARK Flexibility Score: inf
ROOT
ATOM      1  C   UNL     1      20.036  40.102  23.754  1.00  0.00     0.180 A 
ATOM      2  C   UNL     1      20.618  40.312  25.020  1.00  0.00     0.208 A 
ATOM      3  C   UNL     1      19.804  40.747  26.077  1.00  0.00     0.238 A 
ATOM      4  O   UNL     1      20.311  40.928  27.217  1.00  0.00    -0.285 OA
ATOM      5  C   UNL     1      18.432  40.984  25.849  1.00  0.00     0.111 A 
ATOM      6  C   UNL     1      17.545  41.427  26.860  1.00  0.00     0.134 A 
ATOM      7  C   UNL     1      16.194  41.649  26.550  1.00  0.00     0.093 A 
ATOM      8  C   UNL     1      15.717  41.437  25.252  1.00  0.00     0.123 A 
ATOM      9  C   UNL     1      16.588  41.000  24.254  1.00  0.00     0.094 A 
ATOM     10  C   UNL     1      17.937  40.772  24.541  1.00  0.00     0.146 A 
ATOM     11  O   UNL     1      18.742  40.351  23.573  1.00  0.00    -0.452 OA
ENDROOT
BRANCH   1  12
ATOM     12  C   UNL     1      20.824  39.626  22.595  1.00  0.00     0.021 A 
ATOM     13  C   UNL     1      21.069  38.257  22.387  1.00  0.00     0.016 A 
ATOM     14  C   UNL     1      21.795  37.829  21.271  1.00  0.00     0.047 A 
ATOM     15  C   UNL     1      22.272  38.761  20.343  1.00  0.00     0.115 A 
ATOM     16  C   UNL     1      21.289  40.553  21.646  1.00  0.00     0.016 A 
ATOM     17  C   UNL     1      22.016  40.124  20.533  1.00  0.00     0.047 A 
BRANCH  15  18
ATOM     18  O   UNL     1      22.996  38.319  19.237  1.00  0.00    -0.508 OA
ATOM     19  H   UNL     1      23.974  38.062  19.313  1.00  0.00     0.293 HD
ENDBRANCH  15  18
ENDBRANCH   1  12
BRANCH   2  20
ATOM     20  O   UNL     1      21.989  40.118  25.206  1.00  0.00    -0.502 OA
ATOM     21  H   UNL     1      22.529  39.479  24.635  1.00  0.00     0.293 HD
ENDBRANCH   2  20
BRANCH   6  22
ATOM     22  O   UNL     1      17.993  41.648  28.162  1.00  0.00    -0.507 OA
ATOM     23  H   UNL     1      18.948  41.920  28.358  1.00  0.00     0.293 HD
ENDBRANCH   6  22
BRANCH   8  24
ATOM     24  O   UNL     1      14.376  41.659  24.944  1.00  0.00    -0.508 OA
ATOM     25  H   UNL     1      14.031  42.584  24.717  1.00  0.00     0.293 HD
ENDBRANCH   8  24
TORSDOF 5
ENDMDL
MODEL 6
REMARK VINA RESULT:    -5.776      2.038      3.494
REMARK INTER + INTRA:          -7.086
REMARK INTER:                  -6.947
REMARK INTRA:                  -0.140
REMARK UNBOUND:                -0.298
REMARK SMILES O=c1c(O)c(-c2ccc(O)cc2)oc2cc(O)cc(O)c12
REMARK SMILES IDX 5 1 3 2 2 3 1 4 21 5 19 6 18 7 16 8 15 9 14 10 13 11 6 12
REMARK SMILES IDX 7 13 8 14 9 15 12 16 11 17 10 18 4 20 20 22 17 24
REMARK H PARENT 10 19 4 21 20 23 17 25
REMARK Flexibility Score: inf
ROOT
ATOM      1  C   UNL     1      17.480  43.352  25.756  1.00  0.00     0.180 A 
ATOM      2  C   UNL     1      17.909  43.742  24.473  1.00  0.00     0.208 A 
ATOM      3  C   UNL     1      19.192  43.368  24.044  1.00  0.00     0.238 A 
ATOM      4  O   UNL     1      19.584  43.703  22.894  1.00  0.00    -0.285 OA
ATOM      5  C   UNL     1      20.029  42.631  24.908  1.00  0.00     0.111 A 
ATOM      6  C   UNL     1      21.336  42.219  24.553  1.00  0.00     0.134 A 
ATOM      7  C   UNL     1      22.110  41.495  25.474  1.00  0.00     0.093 A 
ATOM      8  C   UNL     1      21.602  41.178  26.738  1.00  0.00     0.123 A 
ATOM      9  C   UNL     1      20.314  41.582  27.091  1.00  0.00     0.094 A 
ATOM     10  C   UNL     1      19.526  42.303  26.188  1.00  0.00     0.146 A 
ATOM     11  O   UNL     1      18.302  42.670  26.549  1.00  0.00    -0.452 OA
ENDROOT
BRANCH   1  12
ATOM     12  C   UNL     1      16.135  43.691  26.273  1.00  0.00     0.021 A 
ATOM     13  C   UNL     1      14.967  43.213  25.650  1.00  0.00     0.016 A 
ATOM     14  C   UNL     1      13.708  43.527  26.171  1.00  0.00     0.047 A 
ATOM     15  C   UNL     1      13.599  44.308  27.326  1.00  0.00     0.115 A 
ATOM     16  C   UNL     1      16.016  44.458  27.445  1.00  0.00     0.016 A 
ATOM     17  C   UNL     1      14.757  44.771  27.963  1.00  0.00     0.047 A 
BRANCH  15  18
ATOM     18  O   UNL     1      12.337  44.614  27.832  1.00  0.00    -0.508 OA
ATOM     19  H   UNL     1      12.093  45.558  28.109  1.00  0.00     0.293 HD
ENDBRANCH  15  18
ENDBRANCH   1  12
BRANCH   2  20
ATOM     20  O   UNL     1      17.079  44.515  23.657  1.00  0.00    -0.502 OA
ATOM     21  H   UNL     1      17.436  45.261  23.073  1.00  0.00     0.293 HD
ENDBRANCH   2  20
BRANCH   6  22
ATOM     22  O   UNL     1      21.870  42.522  23.301  1.00  0.00    -0.507 OA
ATOM     23  H   UNL     1      21.829  41.865  22.531  1.00  0.00     0.293 HD
ENDBRANCH   6  22
BRANCH   8  24
ATOM     24  O   UNL     1      22.371  40.461  27.652  1.00  0.00    -0.508 OA
ATOM     25  H   UNL     1      21.974  40.108  28.516  1.00  0.00     0.293 HD
ENDBRANCH   8  24
TORSDOF 5
ENDMDL
MODEL 7
REMARK VINA RESULT:    -5.741      9.410     11.860
REMARK INTER + INTRA:          -7.045
REMARK INTER:                  -6.793
REMARK INTRA:                  -0.252
REMARK UNBOUND:                -0.298
REMARK SMILES O=c1c(O)c(-c2ccc(O)cc2)oc2cc(O)cc(O)c12
REMARK SMILES IDX 5 1 3 2 2 3 1 4 21 5 19 6 18 7 16 8 15 9 14 10 13 11 6 12
REMARK SMILES IDX 7 13 8 14 9 15 12 16 11 17 10 18 4 20 20 22 17 24
REMARK H PARENT 10 19 4 21 20 23 17 25
REMARK Flexibility Score: inf
ROOT
ATOM      1  C   UNL     1      12.530  36.951  16.540  1.00  0.00     0.180 A 
ATOM      2  C   UNL     1      13.083  35.657  16.600  1.00  0.00     0.208 A 
ATOM      3  C   UNL     1      13.356  35.093  17.857  1.00  0.00     0.238 A 
ATOM      4  O   UNL     1      13.840  33.932  17.923  1.00  0.00    -0.285 OA
ATOM      5  C   UNL     1      13.092  35.837  19.026  1.00  0.00     0.111 A 
ATOM      6  C   UNL     1      13.342  35.343  20.329  1.00  0.00     0.134 A 
ATOM      7  C   UNL     1      13.060  36.149  21.443  1.00  0.00     0.093 A 
ATOM      8  C   UNL     1      12.536  37.435  21.278  1.00  0.00     0.123 A 
ATOM      9  C   UNL     1      12.287  37.925  19.995  1.00  0.00     0.094 A 
ATOM     10  C   UNL     1      12.560  37.138  18.872  1.00  0.00     0.146 A 
ATOM     11  O   UNL     1      12.309  37.628  17.664  1.00  0.00    -0.452 OA
ENDROOT
BRANCH   1  12
ATOM     12  C   UNL     1      12.198  37.606  15.255  1.00  0.00     0.021 A 
ATOM     13  C   UNL     1      11.054  37.241  14.521  1.00  0.00     0.016 A 
ATOM     14  C   UNL     1      10.747  37.891  13.320  1.00  0.00     0.047 A 
ATOM     15  C   UNL     1      11.568  38.920  12.847  1.00  0.00     0.115 A 
ATOM     16  C   UNL     1      13.005  38.655  14.783  1.00  0.00     0.016 A 
ATOM     17  C   UNL     1      12.697  39.301  13.583  1.00  0.00     0.047 A 
BRANCH  15  18
ATOM     18  O   UNL     1      11.250  39.557  11.650  1.00  0.00    -0.508 OA
ATOM     19  H   UNL     1      11.308  39.072  10.761  1.00  0.00     0.293 HD
ENDBRANCH  15  18
ENDBRANCH   1  12
BRANCH   2  20
ATOM     20  O   UNL     1      13.381  34.962  15.425  1.00  0.00    -0.502 OA
ATOM     21  H   UNL     1      12.997  35.228  14.526  1.00  0.00     0.293 HD
ENDBRANCH   2  20
BRANCH   6  22
ATOM     22  O   UNL     1      13.865  34.065  20.525  1.00  0.00    -0.507 OA
ATOM     23  H   UNL     1      14.697  33.909  21.082  1.00  0.00     0.293 HD
ENDBRANCH   6  22
BRANCH   8  24
ATOM     24  O   UNL     1      12.257  38.235  22.384  1.00  0.00    -0.508 OA
ATOM     25  H   UNL     1      12.995  38.581  22.987  1.00  0.00     0.293 HD
ENDBRANCH   8  24
TORSDOF 5
ENDMDL
MODEL 8
REMARK VINA RESULT:    -5.714     10.713     12.977
REMARK INTER + INTRA:          -7.014
REMARK INTER:                  -6.866
REMARK INTRA:                  -0.149
REMARK UNBOUND:                -0.298
REMARK SMILES O=c1c(O)c(-c2ccc(O)cc2)oc2cc(O)cc(O)c12
REMARK SMILES IDX 5 1 3 2 2 3 1 4 21 5 19 6 18 7 16 8 15 9 14 10 13 11 6 12
REMARK SMILES IDX 7 13 8 14 9 15 12 16 11 17 10 18 4 20 20 22 17 24
REMARK H PARENT 10 19 4 21 20 23 17 25
REMARK Flexibility Score: inf
ROOT
ATOM      1  C   UNL     1      12.590  38.554  13.981  1.00  0.00     0.180 A 
ATOM      2  C   UNL     1      12.442  39.159  15.244  1.00  0.00     0.208 A 
ATOM      3  C   UNL     1      13.510  39.104  16.152  1.00  0.00     0.238 A 
ATOM      4  O   UNL     1      13.393  39.651  17.282  1.00  0.00    -0.285 OA
ATOM      5  C   UNL     1      14.697  38.432  15.792  1.00  0.00     0.111 A 
ATOM      6  C   UNL     1      15.818  38.329  16.650  1.00  0.00     0.134 A 
ATOM      7  C   UNL     1      16.960  37.635  16.221  1.00  0.00     0.093 A 
ATOM      8  C   UNL     1      17.000  37.043  14.954  1.00  0.00     0.123 A 
ATOM      9  C   UNL     1      15.897  37.144  14.104  1.00  0.00     0.094 A 
ATOM     10  C   UNL     1      14.751  37.832  14.512  1.00  0.00     0.146 A 
ATOM     11  O   UNL     1      13.718  37.916  13.682  1.00  0.00    -0.452 OA
ENDROOT
BRANCH   1  12
ATOM     12  C   UNL     1      11.515  38.585  12.962  1.00  0.00     0.021 A 
ATOM     13  C   UNL     1      11.679  39.269  11.744  1.00  0.00     0.016 A 
ATOM     14  C   UNL     1      10.659  39.264  10.787  1.00  0.00     0.047 A 
ATOM     15  C   UNL     1       9.472  38.565  11.028  1.00  0.00     0.115 A 
ATOM     16  C   UNL     1      10.328  37.868  13.187  1.00  0.00     0.016 A 
ATOM     17  C   UNL     1       9.309  37.865  12.230  1.00  0.00     0.047 A 
BRANCH  15  18
ATOM     18  O   UNL     1       8.465  38.570  10.065  1.00  0.00    -0.508 OA
ATOM     19  H   UNL     1       7.510  38.322  10.298  1.00  0.00     0.293 HD
ENDBRANCH  15  18
ENDBRANCH   1  12
BRANCH   2  20
ATOM     20  O   UNL     1      11.237  39.775  15.594  1.00  0.00    -0.502 OA
ATOM     21  H   UNL     1      11.194  40.730  15.927  1.00  0.00     0.293 HD
ENDBRANCH   2  20
BRANCH   6  22
ATOM     22  O   UNL     1      15.807  38.906  17.919  1.00  0.00    -0.507 OA
ATOM     23  H   UNL     1      15.472  39.850  18.073  1.00  0.00     0.293 HD
ENDBRANCH   6  22
BRANCH   8  24
ATOM     24  O   UNL     1      18.133  36.353  14.528  1.00  0.00    -0.508 OA
ATOM     25  H   UNL     1      18.992  36.361  15.066  1.00  0.00     0.293 HD
ENDBRANCH   8  24
TORSDOF 5
ENDMDL
MODEL 9
REMARK VINA RESULT:    -5.672      2.512      3.031
REMARK INTER + INTRA:          -6.965
REMARK INTER:                  -6.679
REMARK INTRA:                  -0.285
REMARK UNBOUND:                -0.298
REMARK SMILES O=c1c(O)c(-c2ccc(O)cc2)oc2cc(O)cc(O)c12
REMARK SMILES IDX 5 1 3 2 2 3 1 4 21 5 19 6 18 7 16 8 15 9 14 10 13 11 6 12
REMARK SMILES IDX 7 13 8 14 9 15 12 16 11 17 10 18 4 20 20 22 17 24
REMARK H PARENT 10 19 4 21 20 23 17 25
REMARK Flexibility Score: inf
ROOT
ATOM      1  C   UNL     1      18.131  40.807  23.777  1.00  0.00     0.180 A 
ATOM      2  C   UNL     1      18.291  40.648  25.167  1.00  0.00     0.208 A 
ATOM      3  C   UNL     1      19.475  41.101  25.770  1.00  0.00     0.238 A 
ATOM      4  O   UNL     1      19.625  40.973  27.015  1.00  0.00    -0.285 OA
ATOM      5  C   UNL     1      20.484  41.684  24.975  1.00  0.00     0.111 A 
ATOM      6  C   UNL     1      21.707  42.162  25.505  1.00  0.00     0.134 A 
ATOM      7  C   UNL     1      22.665  42.721  24.645  1.00  0.00     0.093 A 
ATOM      8  C   UNL     1      22.423  42.811  23.270  1.00  0.00     0.123 A 
ATOM      9  C   UNL     1      21.218  42.342  22.745  1.00  0.00     0.094 A 
ATOM     10  C   UNL     1      20.250  41.782  23.584  1.00  0.00     0.146 A 
ATOM     11  O   UNL     1      19.111  41.348  23.057  1.00  0.00    -0.452 OA
ENDROOT
BRANCH   1  12
ATOM     12  C   UNL     1      16.905  40.373  23.070  1.00  0.00     0.021 A 
ATOM     13  C   UNL     1      15.862  41.274  22.790  1.00  0.00     0.016 A 
ATOM     14  C   UNL     1      14.723  40.846  22.100  1.00  0.00     0.047 A 
ATOM     15  C   UNL     1      14.619  39.519  21.670  1.00  0.00     0.115 A 
ATOM     16  C   UNL     1      16.801  39.047  22.615  1.00  0.00     0.016 A 
ATOM     17  C   UNL     1      15.662  38.621  21.927  1.00  0.00     0.047 A 
BRANCH  15  18
ATOM     18  O   UNL     1      13.478  39.108  20.984  1.00  0.00    -0.508 OA
ATOM     19  H   UNL     1      13.534  38.469  20.198  1.00  0.00     0.293 HD
ENDBRANCH  15  18
ENDBRANCH   1  12
BRANCH   2  20
ATOM     20  O   UNL     1      17.297  40.022  25.924  1.00  0.00    -0.502 OA
ATOM     21  H   UNL     1      17.460  39.154  26.420  1.00  0.00     0.293 HD
ENDBRANCH   2  20
BRANCH   6  22
ATOM     22  O   UNL     1      21.977  42.085  26.871  1.00  0.00    -0.507 OA
ATOM     23  H   UNL     1      21.768  41.253  27.410  1.00  0.00     0.293 HD
ENDBRANCH   6  22
BRANCH   8  24
ATOM     24  O   UNL     1      23.374  43.365  22.417  1.00  0.00    -0.508 OA
ATOM     25  H   UNL     1      23.518  44.367  22.364  1.00  0.00     0.293 HD
ENDBRANCH   8  24
TORSDOF 5
ENDMDL
