MODEL 1
REMARK VINA RESULT:    -4.749      0.000      0.000
REMARK INTER + INTRA:          -5.043
REMARK INTER:                  -5.027
REMARK INTRA:                  -0.016
REMARK UNBOUND:                -0.016
REMARK SMILES O=C([O-])c1cccnc1
REMARK SMILES IDX 4 1 5 2 9 3 6 4 8 5 7 6 2 7 1 8 3 9
REMARK H PARENT
REMARK Flexibility Score: inf
ROOT
ATOM      1  C   UNL     1       0.891   0.009   8.090  1.00  0.00     0.016 A 
ATOM      2  C   UNL     1       1.878  -0.356   9.021  1.00  0.00     0.013 A 
ATOM      3  C   UNL     1       1.243   0.057   6.730  1.00  0.00     0.120 A 
ATOM      4  C   UNL     1       3.170  -0.661   8.592  1.00  0.00     0.021 A 
ATOM      5  N   UNL     1       2.510  -0.246   6.337  1.00  0.00    -0.264 NA
ATOM      6  C   UNL     1       3.471  -0.599   7.230  1.00  0.00     0.111 A 
ENDROOT
BRANCH   1   7
ATOM      7  C   UNL     1      -0.483   0.336   8.524  1.00  0.00     0.073 C 
ATOM      8  O   UNL     1      -0.781   1.508   8.880  1.00  0.00    -0.545 OA
ATOM      9  O   UNL     1      -1.467  -0.646   8.546  1.00  0.00    -0.545 OA
ENDBRANCH   1   7
TORSDOF 1
ENDMDL
MODEL 2
REMARK VINA RESULT:    -4.504      9.458     10.045
REMARK INTER + INTRA:          -4.783
REMARK INTER:                  -4.759
REMARK INTRA:                  -0.024
REMARK UNBOUND:                -0.016
REMARK SMILES O=C([O-])c1cccnc1
REMARK SMILES IDX 4 1 5 2 9 3 6 4 8 5 7 6 2 7 1 8 3 9
REMARK H PARENT
REMARK Flexibility Score: inf
ROOT
ATOM      1  C   UNL     1       7.012   2.471   0.554  1.00  0.00     0.016 A 
ATOM      2  C   UNL     1       6.540   1.152   0.667  1.00  0.00     0.013 A 
ATOM      3  C   UNL     1       8.147   2.839   1.298  1.00  0.00     0.120 A 
ATOM      4  C   UNL     1       7.191   0.243   1.502  1.00  0.00     0.021 A 
ATOM      5  N   UNL     1       8.764   1.932   2.103  1.00  0.00    -0.264 NA
ATOM      6  C   UNL     1       8.314   0.656   2.220  1.00  0.00     0.111 A 
ENDROOT
BRANCH   1   7
ATOM      7  C   UNL     1       6.337   3.450  -0.324  1.00  0.00     0.073 C 
ATOM      8  O   UNL     1       5.334   3.111  -1.008  1.00  0.00    -0.545 OA
ATOM      9  O   UNL     1       6.799   4.758  -0.406  1.00  0.00    -0.545 OA
ENDBRANCH   1   7
TORSDOF 1
ENDMDL
MODEL 3
REMARK VINA RESULT:    -4.387      8.331      9.340
REMARK INTER + INTRA:          -4.660
REMARK INTER:                  -4.643
REMARK INTRA:                  -0.017
REMARK UNBOUND:                -0.016
REMARK SMILES O=C([O-])c1cccnc1
REMARK SMILES IDX 4 1 5 2 9 3 6 4 8 5 7 6 2 7 1 8 3 9
REMARK H PARENT
REMARK Flexibility Score: inf
ROOT
ATOM      1  C   UNL     1       6.378   1.475   1.115  1.00  0.00     0.016 A 
ATOM      2  C   UNL     1       6.006   2.245  -0.000  1.00  0.00     0.013 A 
ATOM      3  C   UNL     1       7.500   1.878   1.860  1.00  0.00     0.120 A 
ATOM      4  C   UNL     1       6.743   3.378  -0.348  1.00  0.00     0.021 A 
ATOM      5  N   UNL     1       8.200   2.987   1.500  1.00  0.00    -0.264 NA
ATOM      6  C   UNL     1       7.849   3.737   0.423  1.00  0.00     0.111 A 
ENDROOT
BRANCH   1   7
ATOM      7  C   UNL     1       5.611   0.271   1.500  1.00  0.00     0.073 C 
ATOM      8  O   UNL     1       6.158  -0.864   1.500  1.00  0.00    -0.545 OA
ATOM      9  O   UNL     1       4.275   0.375   1.867  1.00  0.00    -0.545 OA
ENDBRANCH   1   7
TORSDOF 1
ENDMDL
MODEL 4
REMARK VINA RESULT:    -4.341      9.369     10.272
REMARK INTER + INTRA:          -4.610
REMARK INTER:                  -4.590
REMARK INTRA:                  -0.020
REMARK UNBOUND:                -0.016
REMARK SMILES O=C([O-])c1cccnc1
REMARK SMILES IDX 4 1 5 2 9 3 6 4 8 5 7 6 2 7 1 8 3 9
REMARK H PARENT
REMARK Flexibility Score: inf
ROOT
ATOM      1  C   UNL     1       7.307   1.803   0.853  1.00  0.00     0.016 A 
ATOM      2  C   UNL     1       6.416   1.890  -0.230  1.00  0.00     0.013 A 
ATOM      3  C   UNL     1       7.891   2.988   1.333  1.00  0.00     0.120 A 
ATOM      4  C   UNL     1       6.129   3.129  -0.805  1.00  0.00     0.021 A 
ATOM      5  N   UNL     1       7.593   4.183   0.756  1.00  0.00    -0.264 NA
ATOM      6  C   UNL     1       6.734   4.277  -0.292  1.00  0.00     0.111 A 
ENDROOT
BRANCH   1   7
ATOM      7  C   UNL     1       7.625   0.500   1.476  1.00  0.00     0.073 C 
ATOM      8  O   UNL     1       6.719  -0.354   1.672  1.00  0.00    -0.545 OA
ATOM      9  O   UNL     1       8.928   0.200   1.853  1.00  0.00    -0.545 OA
ENDBRANCH   1   7
TORSDOF 1
ENDMDL
MODEL 5
REMARK VINA RESULT:    -4.257      9.469     10.290
REMARK INTER + INTRA:          -4.521
REMARK INTER:                  -4.500
REMARK INTRA:                  -0.021
REMARK UNBOUND:                -0.016
REMARK SMILES O=C([O-])c1cccnc1
REMARK SMILES IDX 4 1 5 2 9 3 6 4 8 5 7 6 2 7 1 8 3 9
REMARK H PARENT
REMARK Flexibility Score: inf
ROOT
ATOM      1  C   UNL     1       7.554   2.190   0.999  1.00  0.00     0.016 A 
ATOM      2  C   UNL     1       7.876   3.545   1.184  1.00  0.00     0.013 A 
ATOM      3  C   UNL     1       6.675   1.848  -0.043  1.00  0.00     0.120 A 
ATOM      4  C   UNL     1       7.327   4.517   0.346  1.00  0.00     0.021 A 
ATOM      5  N   UNL     1       6.155   2.815  -0.846  1.00  0.00    -0.264 NA
ATOM      6  C   UNL     1       6.459   4.128  -0.675  1.00  0.00     0.111 A 
ENDROOT
BRANCH   1   7
ATOM      7  C   UNL     1       8.124   1.145   1.877  1.00  0.00     0.073 C 
ATOM      8  O   UNL     1       9.305   1.244   2.306  1.00  0.00    -0.545 OA
ATOM      9  O   UNL     1       7.365   0.039   2.239  1.00  0.00    -0.545 OA
ENDBRANCH   1   7
TORSDOF 1
ENDMDL
MODEL 6
REMARK VINA RESULT:    -4.230      7.625      8.543
REMARK INTER + INTRA:          -4.493
REMARK INTER:                  -4.477
REMARK INTRA:                  -0.016
REMARK UNBOUND:                -0.016
REMARK SMILES O=C([O-])c1cccnc1
REMARK SMILES IDX 4 1 5 2 9 3 6 4 8 5 7 6 2 7 1 8 3 9
REMARK H PARENT
REMARK Flexibility Score: inf
ROOT
ATOM      1  C   UNL     1       6.789  -0.600   2.136  1.00  0.00     0.016 A 
ATOM      2  C   UNL     1       7.655   0.270   1.452  1.00  0.00     0.013 A 
ATOM      3  C   UNL     1       7.310  -1.363   3.196  1.00  0.00     0.120 A 
ATOM      4  C   UNL     1       8.996   0.363   1.827  1.00  0.00     0.021 A 
ATOM      5  N   UNL     1       8.621  -1.253   3.542  1.00  0.00    -0.264 NA
ATOM      6  C   UNL     1       9.466  -0.415   2.886  1.00  0.00     0.111 A 
ENDROOT
BRANCH   1   7
ATOM      7  C   UNL     1       5.365  -0.714   1.754  1.00  0.00     0.073 C 
ATOM      8  O   UNL     1       4.969  -1.673   1.040  1.00  0.00    -0.545 OA
ATOM      9  O   UNL     1       4.445   0.237   2.179  1.00  0.00    -0.545 OA
ENDBRANCH   1   7
TORSDOF 1
ENDMDL
MODEL 7
REMARK VINA RESULT:    -4.223      8.747      9.499
REMARK INTER + INTRA:          -4.486
REMARK INTER:                  -4.463
REMARK INTRA:                  -0.023
REMARK UNBOUND:                -0.016
REMARK SMILES O=C([O-])c1cccnc1
REMARK SMILES IDX 4 1 5 2 9 3 6 4 8 5 7 6 2 7 1 8 3 9
REMARK H PARENT
REMARK Flexibility Score: inf
ROOT
ATOM      1  C   UNL     1       7.113   1.537   1.252  1.00  0.00     0.016 A 
ATOM      2  C   UNL     1       5.789   1.098   1.091  1.00  0.00     0.013 A 
ATOM      3  C   UNL     1       8.032   0.673   1.873  1.00  0.00     0.120 A 
ATOM      4  C   UNL     1       5.408  -0.167   1.543  1.00  0.00     0.021 A 
ATOM      5  N   UNL     1       7.636  -0.555   2.303  1.00  0.00    -0.264 NA
ATOM      6  C   UNL     1       6.357  -0.988   2.153  1.00  0.00     0.111 A 
ENDROOT
BRANCH   1   7
ATOM      7  C   UNL     1       7.536   2.873   0.781  1.00  0.00     0.073 C 
ATOM      8  O   UNL     1       8.630   3.369   1.161  1.00  0.00    -0.545 OA
ATOM      9  O   UNL     1       6.731   3.600  -0.088  1.00  0.00    -0.545 OA
ENDBRANCH   1   7
TORSDOF 1
ENDMDL
MODEL 8
REMARK VINA RESULT:    -4.187      8.338      9.308
REMARK INTER + INTRA:          -4.448
REMARK INTER:                  -4.432
REMARK INTRA:                  -0.016
REMARK UNBOUND:                -0.016
REMARK SMILES O=C([O-])c1cccnc1
REMARK SMILES IDX 4 1 5 2 9 3 6 4 8 5 7 6 2 7 1 8 3 9
REMARK H PARENT
REMARK Flexibility Score: inf
ROOT
ATOM      1  C   UNL     1       6.440   1.267   0.778  1.00  0.00     0.016 A 
ATOM      2  C   UNL     1       7.473   0.472   1.304  1.00  0.00     0.013 A 
ATOM      3  C   UNL     1       5.116   0.965   1.140  1.00  0.00     0.120 A 
ATOM      4  C   UNL     1       7.176  -0.587   2.163  1.00  0.00     0.021 A 
ATOM      5  N   UNL     1       4.854  -0.073   1.980  1.00  0.00    -0.264 NA
ATOM      6  C   UNL     1       5.846  -0.847   2.493  1.00  0.00     0.111 A 
ENDROOT
BRANCH   1   7
ATOM      7  C   UNL     1       6.733   2.393  -0.134  1.00  0.00     0.073 C 
ATOM      8  O   UNL     1       7.039   3.526   0.325  1.00  0.00    -0.545 OA
ATOM      9  O   UNL     1       6.676   2.217  -1.511  1.00  0.00    -0.545 OA
ENDBRANCH   1   7
TORSDOF 1
ENDMDL
MODEL 9
REMARK VINA RESULT:    -4.186      7.783      8.455
REMARK INTER + INTRA:          -4.447
REMARK INTER:                  -4.428
REMARK INTRA:                  -0.019
REMARK UNBOUND:                -0.016
REMARK SMILES O=C([O-])c1cccnc1
REMARK SMILES IDX 4 1 5 2 9 3 6 4 8 5 7 6 2 7 1 8 3 9
REMARK H PARENT
REMARK Flexibility Score: inf
ROOT
ATOM      1  C   UNL     1       6.658  -0.138   1.993  1.00  0.00     0.016 A 
ATOM      2  C   UNL     1       7.465  -1.022   2.728  1.00  0.00     0.013 A 
ATOM      3  C   UNL     1       7.216   1.082   1.574  1.00  0.00     0.120 A 
ATOM      4  C   UNL     1       8.786  -0.684   3.028  1.00  0.00     0.021 A 
ATOM      5  N   UNL     1       8.507   1.387   1.878  1.00  0.00    -0.264 NA
ATOM      6  C   UNL     1       9.294   0.539   2.589  1.00  0.00     0.111 A 
ENDROOT
BRANCH   1   7
ATOM      7  C   UNL     1       5.257  -0.477   1.666  1.00  0.00     0.073 C 
ATOM      8  O   UNL     1       4.975  -1.578   1.121  1.00  0.00    -0.545 OA
ATOM      9  O   UNL     1       4.231   0.415   1.955  1.00  0.00    -0.545 OA
ENDBRANCH   1   7
TORSDOF 1
ENDMDL
