MODEL 1
REMARK VINA RESULT:    -7.707      0.000      0.000
REMARK INTER + INTRA:         -13.460
REMARK INTER:                 -12.213
REMARK INTRA:                  -1.247
REMARK UNBOUND:                -1.247
REMARK SMILES C[C@H]1O[C@H](O[C@@H]2[C@@H](Oc3cc(O)c4c(c3)O[C@@H](c3ccc(O)cc3)CC4=O)O[C@@H](CO)[C@H](O)[C@@H]2O)[C@@H](O)[C@@H](O)[C@@H]1O
REMARK SMILES IDX 6 1 34 2 32 3 29 4 28 5 7 6 5 7 4 8 1 9 2 10 40 11 3 12
REMARK SMILES IDX 38 13 36 14 41 15 39 17 37 19 35 21 8 23 9 24 10 25 15 26
REMARK SMILES IDX 11 27 14 28 13 29 16 30 26 31 17 32 27 33 25 34 12 35 18 37
REMARK SMILES IDX 19 38 24 39 20 40 23 41 21 42 22 43 33 45 30 47 31 48
REMARK H PARENT 41 16 39 18 37 20 35 22 12 36 22 44 33 46 31 49
REMARK Flexibility Score: inf
ROOT
ATOM      1  C   UNL     1      15.150 -55.022  21.327  1.00  0.00     0.221 C 
ATOM      2  C   UNL     1      14.119 -55.209  22.446  1.00  0.00     0.181 C 
ATOM      3  C   UNL     1      13.172 -53.996  22.514  1.00  0.00     0.177 C 
ATOM      4  C   UNL     1      12.586 -53.668  21.118  1.00  0.00     0.179 C 
ATOM      5  O   UNL     1      13.574 -53.580  20.093  1.00  0.00    -0.332 OA
ATOM      6  C   UNL     1      14.429 -54.713  20.004  1.00  0.00     0.339 C 
ENDROOT
BRANCH   1   7
ATOM      7  O   UNL     1      16.019 -53.945  21.656  1.00  0.00    -0.337 OA
BRANCH   7   8
ATOM      8  C   UNL     1      17.342 -54.387  21.931  1.00  0.00     0.282 C 
ATOM      9  C   UNL     1      19.125 -52.752  19.154  1.00  0.00     0.041 C 
ATOM     10  C   UNL     1      18.284 -52.838  20.430  1.00  0.00     0.150 C 
ATOM     11  C   UNL     1      18.913 -51.985  21.555  1.00  0.00     0.174 C 
ATOM     12  O   UNL     1      18.189 -54.205  20.806  1.00  0.00    -0.344 OA
ATOM     13  C   UNL     1      18.092 -52.165  22.850  1.00  0.00     0.179 C 
ATOM     14  C   UNL     1      17.900 -53.658  23.164  1.00  0.00     0.202 C 
BRANCH  11  15
ATOM     15  O   UNL     1      18.915 -50.635  21.169  1.00  0.00    -0.388 OA
ATOM     16  H   UNL     1      18.122 -50.209  21.587  1.00  0.00     0.211 HD
ENDBRANCH  11  15
BRANCH  13  17
ATOM     17  O   UNL     1      18.680 -51.495  23.940  1.00  0.00    -0.387 OA
ATOM     18  H   UNL     1      19.281 -52.133  24.404  1.00  0.00     0.211 HD
ENDBRANCH  13  17
BRANCH  14  19
ATOM     19  O   UNL     1      19.125 -54.248  23.525  1.00  0.00    -0.385 OA
ATOM     20  H   UNL     1      19.559 -53.644  24.181  1.00  0.00     0.211 HD
ENDBRANCH  14  19
ENDBRANCH   7   8
ENDBRANCH   1   7
BRANCH   2  21
ATOM     21  O   UNL     1      14.780 -55.387  23.670  1.00  0.00    -0.387 OA
ATOM     22  H   UNL     1      14.089 -55.320  24.379  1.00  0.00     0.211 HD
ENDBRANCH   2  21
BRANCH   6  23
ATOM     23  O   UNL     1      13.725 -55.868  19.544  1.00  0.00    -0.462 OA
BRANCH  23  24
ATOM     24  C   UNL     1      13.382 -56.131  18.208  1.00  0.00     0.130 A 
ATOM     25  C   UNL     1      14.314 -56.068  17.155  1.00  0.00     0.093 A 
ATOM     26  C   UNL     1      12.055 -56.469  17.927  1.00  0.00     0.094 A 
ATOM     27  C   UNL     1      13.918 -56.325  15.835  1.00  0.00     0.133 A 
ATOM     28  C   UNL     1      11.654 -56.751  16.620  1.00  0.00     0.138 A 
ATOM     29  C   UNL     1      12.575 -56.660  15.561  1.00  0.00     0.102 A 
ATOM     30  O   UNL     1      10.327 -57.122  16.372  1.00  0.00    -0.484 OA
ATOM     31  C   UNL     1      12.073 -56.899  14.184  1.00  0.00     0.174 C 
ATOM     32  C   UNL     1       9.937 -57.744  15.146  1.00  0.00     0.211 C 
ATOM     33  O   UNL     1      12.858 -56.949  13.200  1.00  0.00    -0.294 OA
ATOM     34  C   UNL     1      10.593 -57.034  13.953  1.00  0.00     0.131 C 
BRANCH  27  35
ATOM     35  O   UNL     1      14.854 -56.239  14.802  1.00  0.00    -0.507 OA
ATOM     36  H   UNL     1      15.416 -55.408  14.662  1.00  0.00     0.293 HD
ENDBRANCH  27  35
BRANCH  32  37
ATOM     37  C   UNL     1       8.435 -57.747  15.020  1.00  0.00    -0.007 A 
ATOM     38  C   UNL     1       7.816 -57.141  13.911  1.00  0.00     0.011 A 
ATOM     39  C   UNL     1       7.635 -58.328  16.017  1.00  0.00     0.011 A 
ATOM     40  C   UNL     1       6.423 -57.139  13.795  1.00  0.00     0.046 A 
ATOM     41  C   UNL     1       6.241 -58.318  15.901  1.00  0.00     0.046 A 
ATOM     42  C   UNL     1       5.632 -57.729  14.786  1.00  0.00     0.115 A 
BRANCH  42  43
ATOM     43  O   UNL     1       4.246 -57.720  14.652  1.00  0.00    -0.508 OA
ATOM     44  H   UNL     1       3.653 -57.252  15.328  1.00  0.00     0.293 HD
ENDBRANCH  42  43
ENDBRANCH  32  37
ENDBRANCH  23  24
ENDBRANCH   6  23
BRANCH   3  45
ATOM     45  O   UNL     1      13.859 -52.866  22.996  1.00  0.00    -0.387 OA
ATOM     46  H   UNL     1      13.701 -52.128  22.353  1.00  0.00     0.211 HD
ENDBRANCH   3  45
BRANCH   4  47
ATOM     47  C   UNL     1      11.400 -54.573  20.720  1.00  0.00     0.191 C 
BRANCH  47  48
ATOM     48  O   UNL     1      11.388 -55.740  21.500  1.00  0.00    -0.394 OA
ATOM     49  H   UNL     1      12.295 -55.829  21.895  1.00  0.00     0.210 HD
ENDBRANCH  47  48
ENDBRANCH   4  47
TORSDOF 14
ENDMDL
MODEL 2
REMARK VINA RESULT:    -7.641      3.034      6.212
REMARK INTER + INTRA:         -13.356
REMARK INTER:                 -11.767
REMARK INTRA:                  -1.589
REMARK UNBOUND:                -1.247
REMARK SMILES C[C@H]1O[C@H](O[C@@H]2[C@@H](Oc3cc(O)c4c(c3)O[C@@H](c3ccc(O)cc3)CC4=O)O[C@@H](CO)[C@H](O)[C@@H]2O)[C@@H](O)[C@@H](O)[C@@H]1O
REMARK SMILES IDX 6 1 34 2 32 3 29 4 28 5 7 6 5 7 4 8 1 9 2 10 40 11 3 12
REMARK SMILES IDX 38 13 36 14 41 15 39 17 37 19 35 21 8 23 9 24 10 25 15 26
REMARK SMILES IDX 11 27 14 28 13 29 16 30 26 31 17 32 27 33 25 34 12 35 18 37
REMARK SMILES IDX 19 38 24 39 20 40 23 41 21 42 22 43 33 45 30 47 31 48
REMARK H PARENT 41 16 39 18 37 20 35 22 12 36 22 44 33 46 31 49
REMARK Flexibility Score: inf
ROOT
ATOM      1  C   UNL     1      12.036 -55.962  17.313  1.00  0.00     0.221 C 
ATOM      2  C   UNL     1      12.568 -57.252  16.680  1.00  0.00     0.181 C 
ATOM      3  C   UNL     1      11.912 -58.483  17.334  1.00  0.00     0.177 C 
ATOM      4  C   UNL     1      10.370 -58.344  17.362  1.00  0.00     0.179 C 
ATOM      5  O   UNL     1       9.922 -57.096  17.888  1.00  0.00    -0.332 OA
ATOM      6  C   UNL     1      10.498 -55.955  17.264  1.00  0.00     0.339 C 
ENDROOT
BRANCH   1   7
ATOM      7  O   UNL     1      12.466 -55.883  18.667  1.00  0.00    -0.337 OA
BRANCH   7   8
ATOM      8  C   UNL     1      13.144 -54.664  18.945  1.00  0.00     0.282 C 
ATOM      9  C   UNL     1      11.750 -53.931  22.273  1.00  0.00     0.041 C 
ATOM     10  C   UNL     1      12.529 -54.717  21.216  1.00  0.00     0.150 C 
ATOM     11  C   UNL     1      13.969 -55.001  21.698  1.00  0.00     0.174 C 
ATOM     12  O   UNL     1      12.524 -53.963  20.012  1.00  0.00    -0.344 OA
ATOM     13  C   UNL     1      14.751 -55.715  20.575  1.00  0.00     0.179 C 
ATOM     14  C   UNL     1      14.625 -54.939  19.253  1.00  0.00     0.202 C 
BRANCH  11  15
ATOM     15  O   UNL     1      13.923 -55.813  22.844  1.00  0.00    -0.388 OA
ATOM     16  H   UNL     1      14.561 -56.558  22.701  1.00  0.00     0.211 HD
ENDBRANCH  11  15
BRANCH  13  17
ATOM     17  O   UNL     1      16.104 -55.904  20.918  1.00  0.00    -0.387 OA
ATOM     18  H   UNL     1      16.139 -56.477  21.727  1.00  0.00     0.211 HD
ENDBRANCH  13  17
BRANCH  14  19
ATOM     19  O   UNL     1      15.308 -53.712  19.334  1.00  0.00    -0.385 OA
ATOM     20  H   UNL     1      14.922 -53.116  18.641  1.00  0.00     0.211 HD
ENDBRANCH  14  19
ENDBRANCH   7   8
ENDBRANCH   1   7
BRANCH   2  21
ATOM     21  O   UNL     1      13.963 -57.305  16.820  1.00  0.00    -0.387 OA
ATOM     22  H   UNL     1      14.325 -57.617  15.951  1.00  0.00     0.211 HD
ENDBRANCH   2  21
BRANCH   6  23
ATOM     23  O   UNL     1      10.049 -55.811  15.916  1.00  0.00    -0.462 OA
BRANCH  23  24
ATOM     24  C   UNL     1       8.934 -55.059  15.507  1.00  0.00     0.130 A 
ATOM     25  C   UNL     1       8.984 -53.666  15.315  1.00  0.00     0.093 A 
ATOM     26  C   UNL     1       7.732 -55.738  15.286  1.00  0.00     0.094 A 
ATOM     27  C   UNL     1       7.838 -52.959  14.922  1.00  0.00     0.133 A 
ATOM     28  C   UNL     1       6.592 -55.049  14.871  1.00  0.00     0.138 A 
ATOM     29  C   UNL     1       6.628 -53.652  14.707  1.00  0.00     0.102 A 
ATOM     30  O   UNL     1       5.411 -55.758  14.623  1.00  0.00    -0.484 OA
ATOM     31  C   UNL     1       5.365 -52.966  14.335  1.00  0.00     0.174 C 
ATOM     32  C   UNL     1       4.331 -55.185  13.882  1.00  0.00     0.211 C 
ATOM     33  O   UNL     1       5.345 -51.736  14.057  1.00  0.00    -0.294 OA
ATOM     34  C   UNL     1       4.077 -53.741  14.338  1.00  0.00     0.131 C 
BRANCH  27  35
ATOM     35  O   UNL     1       7.903 -51.574  14.754  1.00  0.00    -0.507 OA
ATOM     36  H   UNL     1       7.762 -51.142  13.849  1.00  0.00     0.293 HD
ENDBRANCH  27  35
BRANCH  32  37
ATOM     37  C   UNL     1       3.092 -56.030  14.033  1.00  0.00    -0.007 A 
ATOM     38  C   UNL     1       1.818 -55.455  13.870  1.00  0.00     0.011 A 
ATOM     39  C   UNL     1       3.191 -57.392  14.364  1.00  0.00     0.011 A 
ATOM     40  C   UNL     1       0.668 -56.236  14.014  1.00  0.00     0.046 A 
ATOM     41  C   UNL     1       2.038 -58.169  14.513  1.00  0.00     0.046 A 
ATOM     42  C   UNL     1       0.774 -57.594  14.332  1.00  0.00     0.115 A 
BRANCH  42  43
ATOM     43  O   UNL     1      -0.383 -58.358  14.469  1.00  0.00    -0.508 OA
ATOM     44  H   UNL     1      -0.662 -58.738  15.366  1.00  0.00     0.293 HD
ENDBRANCH  42  43
ENDBRANCH  32  37
ENDBRANCH  23  24
ENDBRANCH   6  23
BRANCH   3  45
ATOM     45  O   UNL     1      12.380 -58.643  18.653  1.00  0.00    -0.387 OA
ATOM     46  H   UNL     1      13.151 -58.031  18.767  1.00  0.00     0.211 HD
ENDBRANCH   3  45
BRANCH   4  47
ATOM     47  C   UNL     1       9.695 -58.696  16.020  1.00  0.00     0.191 C 
BRANCH  47  48
ATOM     48  O   UNL     1       8.349 -59.042  16.221  1.00  0.00    -0.394 OA
ATOM     49  H   UNL     1       7.876 -58.850  15.369  1.00  0.00     0.210 HD
ENDBRANCH  47  48
ENDBRANCH   4  47
TORSDOF 14
ENDMDL
MODEL 3
REMARK VINA RESULT:    -7.634      1.842      2.181
REMARK INTER + INTRA:         -13.343
REMARK INTER:                 -12.243
REMARK INTRA:                  -1.100
REMARK UNBOUND:                -1.247
REMARK SMILES C[C@H]1O[C@H](O[C@@H]2[C@@H](Oc3cc(O)c4c(c3)O[C@@H](c3ccc(O)cc3)CC4=O)O[C@@H](CO)[C@H](O)[C@@H]2O)[C@@H](O)[C@@H](O)[C@@H]1O
REMARK SMILES IDX 6 1 34 2 32 3 29 4 28 5 7 6 5 7 4 8 1 9 2 10 40 11 3 12
REMARK SMILES IDX 38 13 36 14 41 15 39 17 37 19 35 21 8 23 9 24 10 25 15 26
REMARK SMILES IDX 11 27 14 28 13 29 16 30 26 31 17 32 27 33 25 34 12 35 18 37
REMARK SMILES IDX 19 38 24 39 20 40 23 41 21 42 22 43 33 45 30 47 31 48
REMARK H PARENT 41 16 39 18 37 20 35 22 12 36 22 44 33 46 31 49
REMARK Flexibility Score: inf
ROOT
ATOM      1  C   UNL     1      14.892 -55.105  21.151  1.00  0.00     0.221 C 
ATOM      2  C   UNL     1      14.334 -55.239  22.572  1.00  0.00     0.181 C 
ATOM      3  C   UNL     1      13.429 -54.039  22.911  1.00  0.00     0.177 C 
ATOM      4  C   UNL     1      12.374 -53.807  21.801  1.00  0.00     0.179 C 
ATOM      5  O   UNL     1      12.929 -53.766  20.488  1.00  0.00    -0.332 OA
ATOM      6  C   UNL     1      13.737 -54.889  20.158  1.00  0.00     0.339 C 
ENDROOT
BRANCH   1   7
ATOM      7  O   UNL     1      15.781 -53.996  21.091  1.00  0.00    -0.337 OA
BRANCH   7   8
ATOM      8  C   UNL     1      17.109 -54.352  21.453  1.00  0.00     0.282 C 
ATOM      9  C   UNL     1      18.506 -54.992  18.106  1.00  0.00     0.041 C 
ATOM     10  C   UNL     1      17.874 -54.173  19.234  1.00  0.00     0.150 C 
ATOM     11  C   UNL     1      18.710 -52.907  19.523  1.00  0.00     0.174 C 
ATOM     12  O   UNL     1      17.775 -55.005  20.382  1.00  0.00    -0.344 OA
ATOM     13  C   UNL     1      18.096 -52.153  20.723  1.00  0.00     0.179 C 
ATOM     14  C   UNL     1      17.887 -53.108  21.910  1.00  0.00     0.202 C 
BRANCH  11  15
ATOM     15  O   UNL     1      18.713 -52.082  18.387  1.00  0.00    -0.388 OA
ATOM     16  H   UNL     1      18.810 -52.673  17.596  1.00  0.00     0.211 HD
ENDBRANCH  11  15
BRANCH  13  17
ATOM     17  O   UNL     1      18.879 -51.046  21.102  1.00  0.00    -0.387 OA
ATOM     18  H   UNL     1      19.388 -50.743  20.306  1.00  0.00     0.211 HD
ENDBRANCH  13  17
BRANCH  14  19
ATOM     19  O   UNL     1      19.125 -53.515  22.439  1.00  0.00    -0.385 OA
ATOM     20  H   UNL     1      19.511 -54.175  21.808  1.00  0.00     0.211 HD
ENDBRANCH  14  19
ENDBRANCH   7   8
ENDBRANCH   1   7
BRANCH   2  21
ATOM     21  O   UNL     1      15.393 -55.331  23.487  1.00  0.00    -0.387 OA
ATOM     22  H   UNL     1      15.164 -56.064  24.115  1.00  0.00     0.211 HD
ENDBRANCH   2  21
BRANCH   6  23
ATOM     23  O   UNL     1      12.958 -56.080  20.041  1.00  0.00    -0.462 OA
BRANCH  23  24
ATOM     24  C   UNL     1      12.378 -56.558  18.853  1.00  0.00     0.130 A 
ATOM     25  C   UNL     1      13.021 -57.482  18.010  1.00  0.00     0.093 A 
ATOM     26  C   UNL     1      11.108 -56.086  18.509  1.00  0.00     0.094 A 
ATOM     27  C   UNL     1      12.405 -57.916  16.826  1.00  0.00     0.133 A 
ATOM     28  C   UNL     1      10.475 -56.529  17.347  1.00  0.00     0.138 A 
ATOM     29  C   UNL     1      11.126 -57.430  16.485  1.00  0.00     0.102 A 
ATOM     30  O   UNL     1       9.188 -56.067  17.045  1.00  0.00    -0.484 OA
ATOM     31  C   UNL     1      10.433 -57.807  15.227  1.00  0.00     0.174 C 
ATOM     32  C   UNL     1       8.361 -56.723  16.082  1.00  0.00     0.211 C 
ATOM     33  O   UNL     1      10.899 -58.695  14.464  1.00  0.00    -0.294 OA
ATOM     34  C   UNL     1       9.176 -57.082  14.831  1.00  0.00     0.131 C 
BRANCH  27  35
ATOM     35  O   UNL     1      13.067 -58.820  15.993  1.00  0.00    -0.507 OA
ATOM     36  H   UNL     1      14.059 -58.738  15.801  1.00  0.00     0.293 HD
ENDBRANCH  27  35
BRANCH  32  37
ATOM     37  C   UNL     1       7.181 -55.852  15.731  1.00  0.00    -0.007 A 
ATOM     38  C   UNL     1       6.711 -54.894  16.648  1.00  0.00     0.011 A 
ATOM     39  C   UNL     1       6.521 -56.004  14.501  1.00  0.00     0.011 A 
ATOM     40  C   UNL     1       5.615 -54.089  16.327  1.00  0.00     0.046 A 
ATOM     41  C   UNL     1       5.420 -55.201  14.185  1.00  0.00     0.046 A 
ATOM     42  C   UNL     1       4.968 -54.237  15.095  1.00  0.00     0.115 A 
BRANCH  42  43
ATOM     43  O   UNL     1       3.879 -53.424  14.791  1.00  0.00    -0.508 OA
ATOM     44  H   UNL     1       3.719 -52.552  15.280  1.00  0.00     0.293 HD
ENDBRANCH  42  43
ENDBRANCH  32  37
ENDBRANCH  23  24
ENDBRANCH   6  23
BRANCH   3  45
ATOM     45  O   UNL     1      14.201 -52.871  23.057  1.00  0.00    -0.387 OA
ATOM     46  H   UNL     1      13.625 -52.189  23.487  1.00  0.00     0.211 HD
ENDBRANCH   3  45
BRANCH   4  47
ATOM     47  C   UNL     1      11.158 -54.752  21.900  1.00  0.00     0.191 C 
BRANCH  47  48
ATOM     48  O   UNL     1      10.530 -54.619  23.149  1.00  0.00    -0.394 OA
ATOM     49  H   UNL     1      10.123 -55.501  23.359  1.00  0.00     0.210 HD
ENDBRANCH  47  48
ENDBRANCH   4  47
TORSDOF 14
ENDMDL
MODEL 4
REMARK VINA RESULT:    -6.996     11.488     14.489
REMARK INTER + INTRA:         -12.334
REMARK INTER:                 -11.134
REMARK INTRA:                  -1.200
REMARK UNBOUND:                -1.247
REMARK SMILES C[C@H]1O[C@H](O[C@@H]2[C@@H](Oc3cc(O)c4c(c3)O[C@@H](c3ccc(O)cc3)CC4=O)O[C@@H](CO)[C@H](O)[C@@H]2O)[C@@H](O)[C@@H](O)[C@@H]1O
REMARK SMILES IDX 6 1 34 2 32 3 29 4 28 5 7 6 5 7 4 8 1 9 2 10 40 11 3 12
REMARK SMILES IDX 38 13 36 14 41 15 39 17 37 19 35 21 8 23 9 24 10 25 15 26
REMARK SMILES IDX 11 27 14 28 13 29 16 30 26 31 17 32 27 33 25 34 12 35 18 37
REMARK SMILES IDX 19 38 24 39 20 40 23 41 21 42 22 43 33 45 30 47 31 48
REMARK H PARENT 41 16 39 18 37 20 35 22 12 36 22 44 33 46 31 49
REMARK Flexibility Score: inf
ROOT
ATOM      1  C   UNL     1       0.589 -47.458  22.524  1.00  0.00     0.221 C 
ATOM      2  C   UNL     1       1.063 -47.989  23.881  1.00  0.00     0.181 C 
ATOM      3  C   UNL     1      -0.087 -48.715  24.606  1.00  0.00     0.177 C 
ATOM      4  C   UNL     1      -0.758 -49.759  23.681  1.00  0.00     0.179 C 
ATOM      5  O   UNL     1      -1.112 -49.241  22.400  1.00  0.00    -0.332 OA
ATOM      6  C   UNL     1      -0.044 -48.601  21.712  1.00  0.00     0.339 C 
ENDROOT
BRANCH   1   7
ATOM      7  O   UNL     1      -0.373 -46.430  22.724  1.00  0.00    -0.337 OA
BRANCH   7   8
ATOM      8  C   UNL     1      -0.500 -45.584  21.588  1.00  0.00     0.282 C 
ATOM      9  C   UNL     1      -1.125 -42.374  23.281  1.00  0.00     0.041 C 
ATOM     10  C   UNL     1      -0.344 -43.632  22.894  1.00  0.00     0.150 C 
ATOM     11  C   UNL     1       1.050 -43.259  22.342  1.00  0.00     0.174 C 
ATOM     12  O   UNL     1      -1.109 -44.348  21.934  1.00  0.00    -0.344 OA
ATOM     13  C   UNL     1       1.774 -44.542  21.879  1.00  0.00     0.179 C 
ATOM     14  C   UNL     1       0.873 -45.360  20.937  1.00  0.00     0.202 C 
BRANCH  11  15
ATOM     15  O   UNL     1       1.794 -42.624  23.349  1.00  0.00    -0.388 OA
ATOM     16  H   UNL     1       2.496 -42.085  22.901  1.00  0.00     0.211 HD
ENDBRANCH  11  15
BRANCH  13  17
ATOM     17  O   UNL     1       3.009 -44.254  21.266  1.00  0.00    -0.387 OA
ATOM     18  H   UNL     1       2.996 -43.304  20.981  1.00  0.00     0.211 HD
ENDBRANCH  13  17
BRANCH  14  19
ATOM     19  O   UNL     1       0.693 -44.683  19.717  1.00  0.00    -0.385 OA
ATOM     20  H   UNL     1       1.588 -44.384  19.412  1.00  0.00     0.211 HD
ENDBRANCH  14  19
ENDBRANCH   7   8
ENDBRANCH   1   7
BRANCH   2  21
ATOM     21  O   UNL     1       1.544 -46.927  24.661  1.00  0.00    -0.387 OA
ATOM     22  H   UNL     1       1.732 -47.297  25.562  1.00  0.00     0.211 HD
ENDBRANCH   2  21
BRANCH   6  23
ATOM     23  O   UNL     1       0.958 -49.536  21.311  1.00  0.00    -0.462 OA
BRANCH  23  24
ATOM     24  C   UNL     1       1.527 -49.617  20.029  1.00  0.00     0.130 A 
ATOM     25  C   UNL     1       1.363 -48.611  19.058  1.00  0.00     0.093 A 
ATOM     26  C   UNL     1       2.285 -50.749  19.719  1.00  0.00     0.094 A 
ATOM     27  C   UNL     1       1.939 -48.748  17.786  1.00  0.00     0.133 A 
ATOM     28  C   UNL     1       2.883 -50.885  18.466  1.00  0.00     0.138 A 
ATOM     29  C   UNL     1       2.698 -49.897  17.481  1.00  0.00     0.102 A 
ATOM     30  O   UNL     1       3.667 -52.013  18.195  1.00  0.00    -0.484 OA
ATOM     31  C   UNL     1       3.298 -50.132  16.144  1.00  0.00     0.174 C 
ATOM     32  C   UNL     1       4.569 -52.053  17.087  1.00  0.00     0.211 C 
ATOM     33  O   UNL     1       3.273 -49.243  15.250  1.00  0.00    -0.294 OA
ATOM     34  C   UNL     1       3.902 -51.473  15.832  1.00  0.00     0.131 C 
BRANCH  27  35
ATOM     35  O   UNL     1       1.750 -47.747  16.830  1.00  0.00    -0.507 OA
ATOM     36  H   UNL     1       2.526 -47.212  16.461  1.00  0.00     0.293 HD
ENDBRANCH  27  35
BRANCH  32  37
ATOM     37  C   UNL     1       5.039 -53.466  16.851  1.00  0.00    -0.007 A 
ATOM     38  C   UNL     1       5.163 -53.962  15.540  1.00  0.00     0.011 A 
ATOM     39  C   UNL     1       5.332 -54.312  17.933  1.00  0.00     0.011 A 
ATOM     40  C   UNL     1       5.594 -55.273  15.319  1.00  0.00     0.046 A 
ATOM     41  C   UNL     1       5.756 -55.626  17.709  1.00  0.00     0.046 A 
ATOM     42  C   UNL     1       5.894 -56.107  16.401  1.00  0.00     0.115 A 
BRANCH  42  43
ATOM     43  O   UNL     1       6.325 -57.410  16.162  1.00  0.00    -0.508 OA
ATOM     44  H   UNL     1       6.554 -57.727  15.227  1.00  0.00     0.293 HD
ENDBRANCH  42  43
ENDBRANCH  32  37
ENDBRANCH  23  24
ENDBRANCH   6  23
BRANCH   3  45
ATOM     45  O   UNL     1      -1.059 -47.789  25.029  1.00  0.00    -0.387 OA
ATOM     46  H   UNL     1      -1.415 -48.110  25.896  1.00  0.00     0.211 HD
ENDBRANCH   3  45
BRANCH   4  47
ATOM     47  C   UNL     1       0.022 -51.089  23.585  1.00  0.00     0.191 C 
BRANCH  47  48
ATOM     48  O   UNL     1       1.400 -50.863  23.730  1.00  0.00    -0.394 OA
ATOM     49  H   UNL     1       1.829 -51.165  22.886  1.00  0.00     0.210 HD
ENDBRANCH  47  48
ENDBRANCH   4  47
TORSDOF 14
ENDMDL
MODEL 5
REMARK VINA RESULT:    -6.976     12.893     15.729
REMARK INTER + INTRA:         -12.301
REMARK INTER:                 -10.794
REMARK INTRA:                  -1.507
REMARK UNBOUND:                -1.247
REMARK SMILES C[C@H]1O[C@H](O[C@@H]2[C@@H](Oc3cc(O)c4c(c3)O[C@@H](c3ccc(O)cc3)CC4=O)O[C@@H](CO)[C@H](O)[C@@H]2O)[C@@H](O)[C@@H](O)[C@@H]1O
REMARK SMILES IDX 6 1 34 2 32 3 29 4 28 5 7 6 5 7 4 8 1 9 2 10 40 11 3 12
REMARK SMILES IDX 38 13 36 14 41 15 39 17 37 19 35 21 8 23 9 24 10 25 15 26
REMARK SMILES IDX 11 27 14 28 13 29 16 30 26 31 17 32 27 33 25 34 12 35 18 37
REMARK SMILES IDX 19 38 24 39 20 40 23 41 21 42 22 43 33 45 30 47 31 48
REMARK H PARENT 41 16 39 18 37 20 35 22 12 36 22 44 33 46 31 49
REMARK Flexibility Score: inf
ROOT
ATOM      1  C   UNL     1       0.648 -47.439  22.798  1.00  0.00     0.221 C 
ATOM      2  C   UNL     1       1.198 -47.966  24.128  1.00  0.00     0.181 C 
ATOM      3  C   UNL     1       0.078 -48.637  24.946  1.00  0.00     0.177 C 
ATOM      4  C   UNL     1      -0.695 -49.670  24.089  1.00  0.00     0.179 C 
ATOM      5  O   UNL     1      -1.121 -49.158  22.828  1.00  0.00    -0.332 OA
ATOM      6  C   UNL     1      -0.083 -48.569  22.054  1.00  0.00     0.339 C 
ENDROOT
BRANCH   1   7
ATOM      7  O   UNL     1      -0.259 -46.372  23.048  1.00  0.00    -0.337 OA
BRANCH   7   8
ATOM      8  C   UNL     1      -0.482 -45.574  21.892  1.00  0.00     0.282 C 
ATOM      9  C   UNL     1      -1.123 -42.326  23.503  1.00  0.00     0.041 C 
ATOM     10  C   UNL     1      -0.321 -43.570  23.115  1.00  0.00     0.150 C 
ATOM     11  C   UNL     1       1.024 -43.172  22.470  1.00  0.00     0.174 C 
ATOM     12  O   UNL     1      -1.113 -44.348  22.228  1.00  0.00    -0.344 OA
ATOM     13  C   UNL     1       1.766 -44.446  22.011  1.00  0.00     0.179 C 
ATOM     14  C   UNL     1       0.843 -45.328  21.153  1.00  0.00     0.202 C 
BRANCH  11  15
ATOM     15  O   UNL     1       1.802 -42.474  23.408  1.00  0.00    -0.388 OA
ATOM     16  H   UNL     1       1.574 -41.512  23.321  1.00  0.00     0.211 HD
ENDBRANCH  11  15
BRANCH  13  17
ATOM     17  O   UNL     1       2.952 -44.139  21.316  1.00  0.00    -0.387 OA
ATOM     18  H   UNL     1       3.387 -43.374  21.773  1.00  0.00     0.211 HD
ENDBRANCH  13  17
BRANCH  14  19
ATOM     19  O   UNL     1       0.568 -44.705  19.922  1.00  0.00    -0.385 OA
ATOM     20  H   UNL     1      -0.384 -44.883  19.710  1.00  0.00     0.211 HD
ENDBRANCH  14  19
ENDBRANCH   7   8
ENDBRANCH   1   7
BRANCH   2  21
ATOM     21  O   UNL     1       1.772 -46.912  24.852  1.00  0.00    -0.387 OA
ATOM     22  H   UNL     1       1.998 -47.271  25.749  1.00  0.00     0.211 HD
ENDBRANCH   2  21
BRANCH   6  23
ATOM     23  O   UNL     1       0.854 -49.547  21.599  1.00  0.00    -0.462 OA
BRANCH  23  24
ATOM     24  C   UNL     1       1.405 -49.606  20.309  1.00  0.00     0.130 A 
ATOM     25  C   UNL     1       2.368 -50.561  19.934  1.00  0.00     0.093 A 
ATOM     26  C   UNL     1       0.970 -48.668  19.367  1.00  0.00     0.094 A 
ATOM     27  C   UNL     1       2.900 -50.567  18.637  1.00  0.00     0.133 A 
ATOM     28  C   UNL     1       1.474 -48.680  18.066  1.00  0.00     0.138 A 
ATOM     29  C   UNL     1       2.458 -49.614  17.695  1.00  0.00     0.102 A 
ATOM     30  O   UNL     1       0.994 -47.752  17.133  1.00  0.00    -0.484 OA
ATOM     31  C   UNL     1       3.008 -49.530  16.319  1.00  0.00     0.174 C 
ATOM     32  C   UNL     1       1.202 -47.922  15.730  1.00  0.00     0.211 C 
ATOM     33  O   UNL     1       3.806 -50.402  15.878  1.00  0.00    -0.294 OA
ATOM     34  C   UNL     1       2.648 -48.356  15.451  1.00  0.00     0.131 C 
BRANCH  27  35
ATOM     35  O   UNL     1       3.867 -51.513  18.290  1.00  0.00    -0.507 OA
ATOM     36  H   UNL     1       4.727 -51.611  18.817  1.00  0.00     0.293 HD
ENDBRANCH  27  35
BRANCH  32  37
ATOM     37  C   UNL     1       0.865 -46.648  14.998  1.00  0.00    -0.007 A 
ATOM     38  C   UNL     1       0.221 -45.593  15.670  1.00  0.00     0.011 A 
ATOM     39  C   UNL     1       1.164 -46.507  13.632  1.00  0.00     0.011 A 
ATOM     40  C   UNL     1      -0.096 -44.413  14.992  1.00  0.00     0.046 A 
ATOM     41  C   UNL     1       0.840 -45.327  12.955  1.00  0.00     0.046 A 
ATOM     42  C   UNL     1       0.215 -44.275  13.635  1.00  0.00     0.115 A 
BRANCH  42  43
ATOM     43  O   UNL     1      -0.106 -43.090  12.976  1.00  0.00    -0.508 OA
ATOM     44  H   UNL     1       0.603 -42.401  12.756  1.00  0.00     0.293 HD
ENDBRANCH  42  43
ENDBRANCH  32  37
ENDBRANCH  23  24
ENDBRANCH   6  23
BRANCH   3  45
ATOM     45  O   UNL     1      -0.828 -47.668  25.419  1.00  0.00    -0.387 OA
ATOM     46  H   UNL     1      -1.353 -47.351  24.640  1.00  0.00     0.211 HD
ENDBRANCH   3  45
BRANCH   4  47
ATOM     47  C   UNL     1       0.027 -51.029  23.962  1.00  0.00     0.191 C 
BRANCH  47  48
ATOM     48  O   UNL     1       1.418 -50.857  24.041  1.00  0.00    -0.394 OA
ATOM     49  H   UNL     1       1.811 -51.763  24.145  1.00  0.00     0.210 HD
ENDBRANCH  47  48
ENDBRANCH   4  47
TORSDOF 14
ENDMDL
MODEL 6
REMARK VINA RESULT:    -6.828      5.840      9.482
REMARK INTER + INTRA:         -12.067
REMARK INTER:                 -10.636
REMARK INTRA:                  -1.431
REMARK UNBOUND:                -1.247
REMARK SMILES C[C@H]1O[C@H](O[C@@H]2[C@@H](Oc3cc(O)c4c(c3)O[C@@H](c3ccc(O)cc3)CC4=O)O[C@@H](CO)[C@H](O)[C@@H]2O)[C@@H](O)[C@@H](O)[C@@H]1O
REMARK SMILES IDX 6 1 34 2 32 3 29 4 28 5 7 6 5 7 4 8 1 9 2 10 40 11 3 12
REMARK SMILES IDX 38 13 36 14 41 15 39 17 37 19 35 21 8 23 9 24 10 25 15 26
REMARK SMILES IDX 11 27 14 28 13 29 16 30 26 31 17 32 27 33 25 34 12 35 18 37
REMARK SMILES IDX 19 38 24 39 20 40 23 41 21 42 22 43 33 45 30 47 31 48
REMARK H PARENT 41 16 39 18 37 20 35 22 12 36 22 44 33 46 31 49
REMARK Flexibility Score: inf
ROOT
ATOM      1  C   UNL     1       8.921 -55.750  15.667  1.00  0.00     0.221 C 
ATOM      2  C   UNL     1       8.519 -57.135  15.147  1.00  0.00     0.181 C 
ATOM      3  C   UNL     1       7.818 -57.944  16.256  1.00  0.00     0.177 C 
ATOM      4  C   UNL     1       6.680 -57.122  16.909  1.00  0.00     0.179 C 
ATOM      5  O   UNL     1       7.080 -55.812  17.307  1.00  0.00    -0.332 OA
ATOM      6  C   UNL     1       7.695 -55.049  16.277  1.00  0.00     0.339 C 
ENDROOT
BRANCH   1   7
ATOM      7  O   UNL     1       9.930 -55.889  16.659  1.00  0.00    -0.337 OA
BRANCH   7   8
ATOM      8  C   UNL     1      11.087 -55.118  16.360  1.00  0.00     0.282 C 
ATOM      9  C   UNL     1      12.085 -54.161  19.773  1.00  0.00     0.041 C 
ATOM     10  C   UNL     1      11.788 -55.106  18.607  1.00  0.00     0.150 C 
ATOM     11  C   UNL     1      12.995 -56.031  18.335  1.00  0.00     0.174 C 
ATOM     12  O   UNL     1      11.471 -54.318  17.468  1.00  0.00    -0.344 OA
ATOM     13  C   UNL     1      12.697 -56.908  17.099  1.00  0.00     0.179 C 
ATOM     14  C   UNL     1      12.237 -56.036  15.918  1.00  0.00     0.202 C 
BRANCH  11  15
ATOM     15  O   UNL     1      13.221 -56.844  19.458  1.00  0.00    -0.388 OA
ATOM     16  H   UNL     1      13.777 -56.322  20.092  1.00  0.00     0.211 HD
ENDBRANCH  11  15
BRANCH  13  17
ATOM     17  O   UNL     1      13.806 -57.697  16.737  1.00  0.00    -0.387 OA
ATOM     18  H   UNL     1      14.551 -57.088  16.496  1.00  0.00     0.211 HD
ENDBRANCH  13  17
BRANCH  14  19
ATOM     19  O   UNL     1      13.299 -55.241  15.449  1.00  0.00    -0.385 OA
ATOM     20  H   UNL     1      13.018 -54.294  15.540  1.00  0.00     0.211 HD
ENDBRANCH  14  19
ENDBRANCH   7   8
ENDBRANCH   1   7
BRANCH   2  21
ATOM     21  O   UNL     1       9.656 -57.814  14.686  1.00  0.00    -0.387 OA
ATOM     22  H   UNL     1       9.502 -58.778  14.859  1.00  0.00     0.211 HD
ENDBRANCH   2  21
BRANCH   6  23
ATOM     23  O   UNL     1       6.763 -54.702  15.252  1.00  0.00    -0.462 OA
BRANCH  23  24
ATOM     24  C   UNL     1       6.025 -53.508  15.195  1.00  0.00     0.130 A 
ATOM     25  C   UNL     1       6.073 -52.635  14.092  1.00  0.00     0.093 A 
ATOM     26  C   UNL     1       5.214 -53.188  16.286  1.00  0.00     0.094 A 
ATOM     27  C   UNL     1       5.329 -51.446  14.091  1.00  0.00     0.133 A 
ATOM     28  C   UNL     1       4.449 -52.020  16.286  1.00  0.00     0.138 A 
ATOM     29  C   UNL     1       4.516 -51.129  15.200  1.00  0.00     0.102 A 
ATOM     30  O   UNL     1       3.617 -51.741  17.378  1.00  0.00    -0.484 OA
ATOM     31  C   UNL     1       3.738 -49.868  15.290  1.00  0.00     0.174 C 
ATOM     32  C   UNL     1       2.573 -50.769  17.298  1.00  0.00     0.211 C 
ATOM     33  O   UNL     1       3.656 -49.078  14.311  1.00  0.00    -0.294 OA
ATOM     34  C   UNL     1       3.074 -49.502  16.589  1.00  0.00     0.131 C 
BRANCH  27  35
ATOM     35  O   UNL     1       5.403 -50.584  12.995  1.00  0.00    -0.507 OA
ATOM     36  H   UNL     1       4.603 -50.044  12.688  1.00  0.00     0.293 HD
ENDBRANCH  27  35
BRANCH  32  37
ATOM     37  C   UNL     1       2.053 -50.451  18.677  1.00  0.00    -0.007 A 
ATOM     38  C   UNL     1       2.252 -51.357  19.735  1.00  0.00     0.011 A 
ATOM     39  C   UNL     1       1.341 -49.264  18.916  1.00  0.00     0.011 A 
ATOM     40  C   UNL     1       1.766 -51.067  21.013  1.00  0.00     0.046 A 
ATOM     41  C   UNL     1       0.851 -48.980  20.195  1.00  0.00     0.046 A 
ATOM     42  C   UNL     1       1.067 -49.878  21.248  1.00  0.00     0.115 A 
BRANCH  42  43
ATOM     43  O   UNL     1       0.593 -49.604  22.528  1.00  0.00    -0.508 OA
ATOM     44  H   UNL     1       1.099 -48.992  23.158  1.00  0.00     0.293 HD
ENDBRANCH  42  43
ENDBRANCH  32  37
ENDBRANCH  23  24
ENDBRANCH   6  23
BRANCH   3  45
ATOM     45  O   UNL     1       8.744 -58.311  17.251  1.00  0.00    -0.387 OA
ATOM     46  H   UNL     1       8.232 -58.737  17.986  1.00  0.00     0.211 HD
ENDBRANCH   3  45
BRANCH   4  47
ATOM     47  C   UNL     1       5.373 -57.117  16.087  1.00  0.00     0.191 C 
BRANCH  47  48
ATOM     48  O   UNL     1       4.556 -58.199  16.453  1.00  0.00    -0.394 OA
ATOM     49  H   UNL     1       3.740 -58.142  15.890  1.00  0.00     0.210 HD
ENDBRANCH  47  48
ENDBRANCH   4  47
TORSDOF 14
ENDMDL
MODEL 7
REMARK VINA RESULT:    -6.828      4.364      6.845
REMARK INTER + INTRA:         -12.066
REMARK INTER:                 -10.707
REMARK INTRA:                  -1.359
REMARK UNBOUND:                -1.247
REMARK SMILES C[C@H]1O[C@H](O[C@@H]2[C@@H](Oc3cc(O)c4c(c3)O[C@@H](c3ccc(O)cc3)CC4=O)O[C@@H](CO)[C@H](O)[C@@H]2O)[C@@H](O)[C@@H](O)[C@@H]1O
REMARK SMILES IDX 6 1 34 2 32 3 29 4 28 5 7 6 5 7 4 8 1 9 2 10 40 11 3 12
REMARK SMILES IDX 38 13 36 14 41 15 39 17 37 19 35 21 8 23 9 24 10 25 15 26
REMARK SMILES IDX 11 27 14 28 13 29 16 30 26 31 17 32 27 33 25 34 12 35 18 37
REMARK SMILES IDX 19 38 24 39 20 40 23 41 21 42 22 43 33 45 30 47 31 48
REMARK H PARENT 41 16 39 18 37 20 35 22 12 36 22 44 33 46 31 49
REMARK Flexibility Score: inf
ROOT
ATOM      1  C   UNL     1      11.420 -55.750  17.186  1.00  0.00     0.221 C 
ATOM      2  C   UNL     1      12.350 -56.384  16.145  1.00  0.00     0.181 C 
ATOM      3  C   UNL     1      12.649 -57.850  16.513  1.00  0.00     0.177 C 
ATOM      4  C   UNL     1      11.342 -58.630  16.800  1.00  0.00     0.179 C 
ATOM      5  O   UNL     1      10.473 -57.965  17.715  1.00  0.00    -0.332 OA
ATOM      6  C   UNL     1      10.165 -56.622  17.361  1.00  0.00     0.339 C 
ENDROOT
BRANCH   1   7
ATOM      7  O   UNL     1      12.101 -55.644  18.431  1.00  0.00    -0.337 OA
BRANCH   7   8
ATOM      8  C   UNL     1      12.302 -54.291  18.820  1.00  0.00     0.282 C 
ATOM      9  C   UNL     1      11.143 -54.478  22.310  1.00  0.00     0.041 C 
ATOM     10  C   UNL     1      12.027 -54.797  21.102  1.00  0.00     0.150 C 
ATOM     11  C   UNL     1      13.515 -54.549  21.435  1.00  0.00     0.174 C 
ATOM     12  O   UNL     1      11.596 -53.990  20.014  1.00  0.00    -0.344 OA
ATOM     13  C   UNL     1      14.367 -54.793  20.171  1.00  0.00     0.179 C 
ATOM     14  C   UNL     1      13.803 -54.002  18.978  1.00  0.00     0.202 C 
BRANCH  11  15
ATOM     15  O   UNL     1      13.913 -55.421  22.460  1.00  0.00    -0.388 OA
ATOM     16  H   UNL     1      13.891 -54.907  23.308  1.00  0.00     0.211 HD
ENDBRANCH  11  15
BRANCH  13  17
ATOM     17  O   UNL     1      15.723 -54.478  20.385  1.00  0.00    -0.387 OA
ATOM     18  H   UNL     1      16.217 -55.326  20.526  1.00  0.00     0.211 HD
ENDBRANCH  13  17
BRANCH  14  19
ATOM     19  O   UNL     1      13.982 -52.620  19.174  1.00  0.00    -0.385 OA
ATOM     20  H   UNL     1      13.524 -52.157  18.426  1.00  0.00     0.211 HD
ENDBRANCH  14  19
ENDBRANCH   7   8
ENDBRANCH   1   7
BRANCH   2  21
ATOM     21  O   UNL     1      13.539 -55.645  16.063  1.00  0.00    -0.387 OA
ATOM     22  H   UNL     1      13.277 -54.700  15.909  1.00  0.00     0.211 HD
ENDBRANCH   2  21
BRANCH   6  23
ATOM     23  O   UNL     1       9.354 -56.560  16.188  1.00  0.00    -0.462 OA
BRANCH  23  24
ATOM     24  C   UNL     1       8.840 -55.384  15.617  1.00  0.00     0.130 A 
ATOM     25  C   UNL     1       9.437 -54.750  14.511  1.00  0.00     0.093 A 
ATOM     26  C   UNL     1       7.686 -54.832  16.181  1.00  0.00     0.094 A 
ATOM     27  C   UNL     1       8.893 -53.567  13.988  1.00  0.00     0.133 A 
ATOM     28  C   UNL     1       7.123 -53.669  15.654  1.00  0.00     0.138 A 
ATOM     29  C   UNL     1       7.732 -53.015  14.568  1.00  0.00     0.102 A 
ATOM     30  O   UNL     1       5.947 -53.158  16.217  1.00  0.00    -0.484 OA
ATOM     31  C   UNL     1       7.128 -51.743  14.099  1.00  0.00     0.174 C 
ATOM     32  C   UNL     1       5.142 -52.195  15.532  1.00  0.00     0.211 C 
ATOM     33  O   UNL     1       7.547 -51.162  13.062  1.00  0.00    -0.294 OA
ATOM     34  C   UNL     1       6.027 -51.108  14.903  1.00  0.00     0.131 C 
BRANCH  27  35
ATOM     35  O   UNL     1       9.511 -52.943  12.902  1.00  0.00    -0.507 OA
ATOM     36  H   UNL     1       9.183 -53.082  11.954  1.00  0.00     0.293 HD
ENDBRANCH  27  35
BRANCH  32  37
ATOM     37  C   UNL     1       4.132 -51.596  16.476  1.00  0.00    -0.007 A 
ATOM     38  C   UNL     1       3.183 -50.670  16.005  1.00  0.00     0.011 A 
ATOM     39  C   UNL     1       4.142 -51.932  17.841  1.00  0.00     0.011 A 
ATOM     40  C   UNL     1       2.248 -50.111  16.881  1.00  0.00     0.046 A 
ATOM     41  C   UNL     1       3.209 -51.365  18.715  1.00  0.00     0.046 A 
ATOM     42  C   UNL     1       2.256 -50.457  18.236  1.00  0.00     0.115 A 
BRANCH  42  43
ATOM     43  O   UNL     1       1.315 -49.892  19.093  1.00  0.00    -0.508 OA
ATOM     44  H   UNL     1       1.567 -49.155  19.741  1.00  0.00     0.293 HD
ENDBRANCH  42  43
ENDBRANCH  32  37
ENDBRANCH  23  24
ENDBRANCH   6  23
BRANCH   3  45
ATOM     45  O   UNL     1      13.475 -57.909  17.651  1.00  0.00    -0.387 OA
ATOM     46  H   UNL     1      14.324 -57.451  17.423  1.00  0.00     0.211 HD
ENDBRANCH   3  45
BRANCH   4  47
ATOM     47  C   UNL     1      10.611 -59.098  15.523  1.00  0.00     0.191 C 
BRANCH  47  48
ATOM     48  O   UNL     1      11.071 -58.388  14.403  1.00  0.00    -0.394 OA
ATOM     49  H   UNL     1      10.398 -57.681  14.217  1.00  0.00     0.210 HD
ENDBRANCH  47  48
ENDBRANCH   4  47
TORSDOF 14
ENDMDL
MODEL 8
REMARK VINA RESULT:    -6.772      4.060      7.220
REMARK INTER + INTRA:         -11.978
REMARK INTER:                 -10.922
REMARK INTRA:                  -1.056
REMARK UNBOUND:                -1.247
REMARK SMILES C[C@H]1O[C@H](O[C@@H]2[C@@H](Oc3cc(O)c4c(c3)O[C@@H](c3ccc(O)cc3)CC4=O)O[C@@H](CO)[C@H](O)[C@@H]2O)[C@@H](O)[C@@H](O)[C@@H]1O
REMARK SMILES IDX 6 1 34 2 32 3 29 4 28 5 7 6 5 7 4 8 1 9 2 10 40 11 3 12
REMARK SMILES IDX 38 13 36 14 41 15 39 17 37 19 35 21 8 23 9 24 10 25 15 26
REMARK SMILES IDX 11 27 14 28 13 29 16 30 26 31 17 32 27 33 25 34 12 35 18 37
REMARK SMILES IDX 19 38 24 39 20 40 23 41 21 42 22 43 33 45 30 47 31 48
REMARK H PARENT 41 16 39 18 37 20 35 22 12 36 22 44 33 46 31 49
REMARK Flexibility Score: inf
ROOT
ATOM      1  C   UNL     1      11.495 -55.785  17.425  1.00  0.00     0.221 C 
ATOM      2  C   UNL     1      12.316 -56.887  16.747  1.00  0.00     0.181 C 
ATOM      3  C   UNL     1      11.964 -58.264  17.342  1.00  0.00     0.177 C 
ATOM      4  C   UNL     1      10.433 -58.490  17.357  1.00  0.00     0.179 C 
ATOM      5  O   UNL     1       9.704 -57.405  17.928  1.00  0.00    -0.332 OA
ATOM      6  C   UNL     1       9.999 -56.136  17.357  1.00  0.00     0.339 C 
ENDROOT
BRANCH   1   7
ATOM      7  O   UNL     1      11.891 -55.666  18.786  1.00  0.00    -0.337 OA
BRANCH   7   8
ATOM      8  C   UNL     1      12.365 -54.361  19.095  1.00  0.00     0.282 C 
ATOM      9  C   UNL     1      11.302 -54.141  22.615  1.00  0.00     0.041 C 
ATOM     10  C   UNL     1      12.069 -54.687  21.407  1.00  0.00     0.150 C 
ATOM     11  C   UNL     1      13.586 -54.720  21.694  1.00  0.00     0.174 C 
ATOM     12  O   UNL     1      11.769 -53.867  20.286  1.00  0.00    -0.344 OA
ATOM     13  C   UNL     1      14.334 -55.190  20.428  1.00  0.00     0.179 C 
ATOM     14  C   UNL     1      13.898 -54.364  19.206  1.00  0.00     0.202 C 
BRANCH  11  15
ATOM     15  O   UNL     1      13.839 -55.601  22.758  1.00  0.00    -0.388 OA
ATOM     16  H   UNL     1      14.213 -56.433  22.368  1.00  0.00     0.211 HD
ENDBRANCH  11  15
BRANCH  13  17
ATOM     17  O   UNL     1      15.731 -55.136  20.596  1.00  0.00    -0.387 OA
ATOM     18  H   UNL     1      15.921 -55.019  21.562  1.00  0.00     0.211 HD
ENDBRANCH  13  17
BRANCH  14  19
ATOM     19  O   UNL     1      14.348 -53.036  19.321  1.00  0.00    -0.385 OA
ATOM     20  H   UNL     1      15.332 -53.049  19.200  1.00  0.00     0.211 HD
ENDBRANCH  14  19
ENDBRANCH   7   8
ENDBRANCH   1   7
BRANCH   2  21
ATOM     21  O   UNL     1      13.684 -56.619  16.901  1.00  0.00    -0.387 OA
ATOM     22  H   UNL     1      14.151 -57.493  16.872  1.00  0.00     0.211 HD
ENDBRANCH   2  21
BRANCH   6  23
ATOM     23  O   UNL     1       9.531 -56.043  16.011  1.00  0.00    -0.462 OA
BRANCH  23  24
ATOM     24  C   UNL     1       8.196 -55.833  15.628  1.00  0.00     0.130 A 
ATOM     25  C   UNL     1       7.349 -56.878  15.214  1.00  0.00     0.093 A 
ATOM     26  C   UNL     1       7.702 -54.526  15.664  1.00  0.00     0.094 A 
ATOM     27  C   UNL     1       6.027 -56.613  14.825  1.00  0.00     0.133 A 
ATOM     28  C   UNL     1       6.382 -54.254  15.303  1.00  0.00     0.138 A 
ATOM     29  C   UNL     1       5.540 -55.290  14.860  1.00  0.00     0.102 A 
ATOM     30  O   UNL     1       5.903 -52.940  15.383  1.00  0.00    -0.484 OA
ATOM     31  C   UNL     1       4.169 -54.927  14.420  1.00  0.00     0.174 C 
ATOM     32  C   UNL     1       4.504 -52.648  15.363  1.00  0.00     0.211 C 
ATOM     33  O   UNL     1       3.322 -55.812  14.121  1.00  0.00    -0.294 OA
ATOM     34  C   UNL     1       3.799 -53.477  14.280  1.00  0.00     0.131 C 
BRANCH  27  35
ATOM     35  O   UNL     1       5.208 -57.661  14.401  1.00  0.00    -0.507 OA
ATOM     36  H   UNL     1       4.945 -58.415  15.024  1.00  0.00     0.293 HD
ENDBRANCH  27  35
BRANCH  32  37
ATOM     37  C   UNL     1       4.285 -51.172  15.148  1.00  0.00    -0.007 A 
ATOM     38  C   UNL     1       3.299 -50.487  15.882  1.00  0.00     0.011 A 
ATOM     39  C   UNL     1       5.042 -50.468  14.196  1.00  0.00     0.011 A 
ATOM     40  C   UNL     1       3.092 -49.120  15.681  1.00  0.00     0.046 A 
ATOM     41  C   UNL     1       4.827 -49.101  13.992  1.00  0.00     0.046 A 
ATOM     42  C   UNL     1       3.856 -48.422  14.739  1.00  0.00     0.115 A 
BRANCH  42  43
ATOM     43  O   UNL     1       3.638 -47.059  14.554  1.00  0.00    -0.508 OA
ATOM     44  H   UNL     1       3.927 -46.589  13.704  1.00  0.00     0.293 HD
ENDBRANCH  42  43
ENDBRANCH  32  37
ENDBRANCH  23  24
ENDBRANCH   6  23
BRANCH   3  45
ATOM     45  O   UNL     1      12.453 -58.367  18.658  1.00  0.00    -0.387 OA
ATOM     46  H   UNL     1      11.774 -58.859  19.186  1.00  0.00     0.211 HD
ENDBRANCH   3  45
BRANCH   4  47
ATOM     47  C   UNL     1       9.862 -58.933  15.992  1.00  0.00     0.191 C 
BRANCH  47  48
ATOM     48  O   UNL     1      10.794 -58.699  14.969  1.00  0.00    -0.394 OA
ATOM     49  H   UNL     1      11.628 -59.172  15.229  1.00  0.00     0.210 HD
ENDBRANCH  47  48
ENDBRANCH   4  47
TORSDOF 14
ENDMDL
MODEL 9
REMARK VINA RESULT:    -6.690      3.279      5.582
REMARK INTER + INTRA:         -11.848
REMARK INTER:                 -10.283
REMARK INTRA:                  -1.565
REMARK UNBOUND:                -1.247
REMARK SMILES C[C@H]1O[C@H](O[C@@H]2[C@@H](Oc3cc(O)c4c(c3)O[C@@H](c3ccc(O)cc3)CC4=O)O[C@@H](CO)[C@H](O)[C@@H]2O)[C@@H](O)[C@@H](O)[C@@H]1O
REMARK SMILES IDX 6 1 34 2 32 3 29 4 28 5 7 6 5 7 4 8 1 9 2 10 40 11 3 12
REMARK SMILES IDX 38 13 36 14 41 15 39 17 37 19 35 21 8 23 9 24 10 25 15 26
REMARK SMILES IDX 11 27 14 28 13 29 16 30 26 31 17 32 27 33 25 34 12 35 18 37
REMARK SMILES IDX 19 38 24 39 20 40 23 41 21 42 22 43 33 45 30 47 31 48
REMARK H PARENT 41 16 39 18 37 20 35 22 12 36 22 44 33 46 31 49
REMARK Flexibility Score: inf
ROOT
ATOM      1  C   UNL     1      13.208 -55.132  17.598  1.00  0.00     0.221 C 
ATOM      2  C   UNL     1      13.907 -56.365  17.017  1.00  0.00     0.181 C 
ATOM      3  C   UNL     1      13.129 -57.645  17.378  1.00  0.00     0.177 C 
ATOM      4  C   UNL     1      11.628 -57.503  17.025  1.00  0.00     0.179 C 
ATOM      5  O   UNL     1      11.038 -56.303  17.521  1.00  0.00    -0.332 OA
ATOM      6  C   UNL     1      11.733 -55.116  17.160  1.00  0.00     0.339 C 
ENDROOT
BRANCH   1   7
ATOM      7  O   UNL     1      13.279 -55.169  19.019  1.00  0.00    -0.337 OA
BRANCH   7   8
ATOM      8  C   UNL     1      13.741 -53.941  19.566  1.00  0.00     0.282 C 
ATOM      9  C   UNL     1      11.726 -53.846  22.647  1.00  0.00     0.041 C 
ATOM     10  C   UNL     1      12.765 -54.386  21.661  1.00  0.00     0.150 C 
ATOM     11  C   UNL     1      14.127 -54.588  22.360  1.00  0.00     0.174 C 
ATOM     12  O   UNL     1      12.866 -53.469  20.580  1.00  0.00    -0.344 OA
ATOM     13  C   UNL     1      15.171 -55.047  21.319  1.00  0.00     0.179 C 
ATOM     14  C   UNL     1      15.172 -54.104  20.104  1.00  0.00     0.202 C 
BRANCH  11  15
ATOM     15  O   UNL     1      13.993 -55.557  23.368  1.00  0.00    -0.388 OA
ATOM     16  H   UNL     1      13.878 -55.074  24.226  1.00  0.00     0.211 HD
ENDBRANCH  11  15
BRANCH  13  17
ATOM     17  O   UNL     1      16.460 -55.143  21.878  1.00  0.00    -0.387 OA
ATOM     18  H   UNL     1      16.715 -56.102  21.898  1.00  0.00     0.211 HD
ENDBRANCH  13  17
BRANCH  14  19
ATOM     19  O   UNL     1      15.670 -52.838  20.461  1.00  0.00    -0.385 OA
ATOM     20  H   UNL     1      15.557 -52.745  21.442  1.00  0.00     0.211 HD
ENDBRANCH  14  19
ENDBRANCH   7   8
ENDBRANCH   1   7
BRANCH   2  21
ATOM     21  O   UNL     1      15.221 -56.434  17.502  1.00  0.00    -0.387 OA
ATOM     22  H   UNL     1      15.804 -56.614  16.720  1.00  0.00     0.211 HD
ENDBRANCH   2  21
BRANCH   6  23
ATOM     23  O   UNL     1      11.638 -54.856  15.759  1.00  0.00    -0.462 OA
BRANCH  23  24
ATOM     24  C   UNL     1      10.670 -54.041  15.148  1.00  0.00     0.130 A 
ATOM     25  C   UNL     1      10.948 -52.738  14.695  1.00  0.00     0.093 A 
ATOM     26  C   UNL     1       9.382 -54.560  14.990  1.00  0.00     0.094 A 
ATOM     27  C   UNL     1       9.942 -51.958  14.106  1.00  0.00     0.133 A 
ATOM     28  C   UNL     1       8.380 -53.803  14.383  1.00  0.00     0.138 A 
ATOM     29  C   UNL     1       8.643 -52.489  13.955  1.00  0.00     0.102 A 
ATOM     30  O   UNL     1       7.107 -54.362  14.205  1.00  0.00    -0.484 OA
ATOM     31  C   UNL     1       7.517 -51.708  13.384  1.00  0.00     0.174 C 
ATOM     32  C   UNL     1       6.155 -53.790  13.305  1.00  0.00     0.211 C 
ATOM     33  O   UNL     1       7.702 -50.569  12.875  1.00  0.00    -0.294 OA
ATOM     34  C   UNL     1       6.122 -52.263  13.459  1.00  0.00     0.131 C 
BRANCH  27  35
ATOM     35  O   UNL     1      10.232 -50.661  13.679  1.00  0.00    -0.507 OA
ATOM     36  H   UNL     1      10.295 -50.426  12.696  1.00  0.00     0.293 HD
ENDBRANCH  27  35
BRANCH  32  37
ATOM     37  C   UNL     1       4.793 -54.391  13.540  1.00  0.00    -0.007 A 
ATOM     38  C   UNL     1       4.673 -55.686  14.079  1.00  0.00     0.011 A 
ATOM     39  C   UNL     1       3.629 -53.681  13.201  1.00  0.00     0.011 A 
ATOM     40  C   UNL     1       3.411 -56.246  14.294  1.00  0.00     0.046 A 
ATOM     41  C   UNL     1       2.368 -54.247  13.411  1.00  0.00     0.046 A 
ATOM     42  C   UNL     1       2.256 -55.530  13.964  1.00  0.00     0.115 A 
BRANCH  42  43
ATOM     43  O   UNL     1       1.007 -56.103  14.188  1.00  0.00    -0.508 OA
ATOM     44  H   UNL     1       0.907 -57.093  14.381  1.00  0.00     0.293 HD
ENDBRANCH  42  43
ENDBRANCH  32  37
ENDBRANCH  23  24
ENDBRANCH   6  23
BRANCH   3  45
ATOM     45  O   UNL     1      13.249 -57.918  18.754  1.00  0.00    -0.387 OA
ATOM     46  H   UNL     1      12.833 -57.161  19.241  1.00  0.00     0.211 HD
ENDBRANCH   3  45
BRANCH   4  47
ATOM     47  C   UNL     1      11.322 -57.738  15.530  1.00  0.00     0.191 C 
BRANCH  47  48
ATOM     48  O   UNL     1      12.128 -58.768  15.018  1.00  0.00    -0.394 OA
ATOM     49  H   UNL     1      12.971 -58.344  14.710  1.00  0.00     0.210 HD
ENDBRANCH  47  48
ENDBRANCH   4  47
TORSDOF 14
ENDMDL
