MODEL 1
REMARK VINA RESULT:    -3.593      0.000      0.000
REMARK INTER + INTRA:          -4.559
REMARK INTER:                  -4.433
REMARK INTRA:                  -0.126
REMARK UNBOUND:                -0.126
REMARK SMILES CCCCCC(=O)[O-]
REMARK SMILES IDX 4 1 5 2 6 3 7 4 8 5 3 6 2 7 1 8
REMARK H PARENT
REMARK Flexibility Score: inf
ROOT
ATOM      1  C   UNL     1     -21.168  -5.727 -13.012  1.00  0.00     0.006 C 
ENDROOT
BRANCH   1   2
ATOM      2  C   UNL     1     -20.054  -4.672 -13.009  1.00  0.00     0.053 C 
BRANCH   2   3
ATOM      3  C   UNL     1     -19.685  -4.248 -14.398  1.00  0.00     0.041 C 
ATOM      4  O   UNL     1     -19.245  -5.092 -15.222  1.00  0.00    -0.550 OA
ATOM      5  O   UNL     1     -19.860  -2.927 -14.792  1.00  0.00    -0.550 OA
ENDBRANCH   2   3
ENDBRANCH   1   2
BRANCH   1   6
ATOM      6  C   UNL     1     -20.653  -7.118 -12.613  1.00  0.00     0.000 C 
BRANCH   6   7
ATOM      7  C   UNL     1     -20.497  -8.019 -13.843  1.00  0.00    -0.003 C 
ATOM      8  C   UNL     1     -20.260  -9.470 -13.437  1.00  0.00     0.004 C 
ENDBRANCH   6   7
ENDBRANCH   1   6
TORSDOF 4
ENDMDL
MODEL 2
REMARK VINA RESULT:    -3.591     18.219     18.597
REMARK INTER + INTRA:          -4.557
REMARK INTER:                  -4.490
REMARK INTRA:                  -0.067
REMARK UNBOUND:                -0.126
REMARK SMILES CCCCCC(=O)[O-]
REMARK SMILES IDX 4 1 5 2 6 3 7 4 8 5 3 6 2 7 1 8
REMARK H PARENT
REMARK Flexibility Score: inf
ROOT
ATOM      1  C   UNL     1      -7.976  -8.603  -0.268  1.00  0.00     0.006 C 
ENDROOT
BRANCH   1   2
ATOM      2  C   UNL     1      -9.472  -8.630   0.070  1.00  0.00     0.053 C 
BRANCH   2   3
ATOM      3  C   UNL     1     -10.009  -7.256   0.330  1.00  0.00     0.041 C 
ATOM      4  O   UNL     1      -9.310  -6.409   0.946  1.00  0.00    -0.550 OA
ATOM      5  O   UNL     1     -11.267  -6.900  -0.139  1.00  0.00    -0.550 OA
ENDBRANCH   2   3
ENDBRANCH   1   2
BRANCH   1   6
ATOM      6  C   UNL     1      -7.198  -9.722   0.441  1.00  0.00     0.000 C 
BRANCH   6   7
ATOM      7  C   UNL     1      -6.473 -10.613  -0.573  1.00  0.00    -0.003 C 
ATOM      8  C   UNL     1      -5.749 -11.762   0.123  1.00  0.00     0.004 C 
ENDBRANCH   6   7
ENDBRANCH   1   6
TORSDOF 4
ENDMDL
MODEL 3
REMARK VINA RESULT:    -3.488      1.956      2.340
REMARK INTER + INTRA:          -4.430
REMARK INTER:                  -4.345
REMARK INTRA:                  -0.085
REMARK UNBOUND:                -0.126
REMARK SMILES CCCCCC(=O)[O-]
REMARK SMILES IDX 4 1 5 2 6 3 7 4 8 5 3 6 2 7 1 8
REMARK H PARENT
REMARK Flexibility Score: inf
ROOT
ATOM      1  C   UNL     1     -20.608  -6.510 -12.951  1.00  0.00     0.006 C 
ENDROOT
BRANCH   1   2
ATOM      2  C   UNL     1     -20.168  -5.042 -12.864  1.00  0.00     0.053 C 
BRANCH   2   3
ATOM      3  C   UNL     1     -21.318  -4.134 -12.555  1.00  0.00     0.041 C 
ATOM      4  O   UNL     1     -21.114  -2.921 -12.286  1.00  0.00    -0.550 OA
ATOM      5  O   UNL     1     -22.620  -4.619 -12.599  1.00  0.00    -0.550 OA
ENDBRANCH   2   3
ENDBRANCH   1   2
BRANCH   1   6
ATOM      6  C   UNL     1     -20.051  -7.212 -14.198  1.00  0.00     0.000 C 
BRANCH   6   7
ATOM      7  C   UNL     1     -19.386  -8.542 -13.827  1.00  0.00    -0.003 C 
ATOM      8  C   UNL     1     -20.356  -9.454 -13.081  1.00  0.00     0.004 C 
ENDBRANCH   6   7
ENDBRANCH   1   6
TORSDOF 4
ENDMDL
MODEL 4
REMARK VINA RESULT:    -3.434      1.546      1.940
REMARK INTER + INTRA:          -4.363
REMARK INTER:                  -4.320
REMARK INTRA:                  -0.043
REMARK UNBOUND:                -0.126
REMARK SMILES CCCCCC(=O)[O-]
REMARK SMILES IDX 4 1 5 2 6 3 7 4 8 5 3 6 2 7 1 8
REMARK H PARENT
REMARK Flexibility Score: inf
ROOT
ATOM      1  C   UNL     1     -20.268  -5.505 -13.075  1.00  0.00     0.006 C 
ENDROOT
BRANCH   1   2
ATOM      2  C   UNL     1     -21.404  -4.537 -12.719  1.00  0.00     0.053 C 
BRANCH   2   3
ATOM      3  C   UNL     1     -20.954  -3.109 -12.771  1.00  0.00     0.041 C 
ATOM      4  O   UNL     1     -20.548  -2.611 -13.854  1.00  0.00    -0.550 OA
ATOM      5  O   UNL     1     -21.015  -2.317 -11.630  1.00  0.00    -0.550 OA
ENDBRANCH   2   3
ENDBRANCH   1   2
BRANCH   1   6
ATOM      6  C   UNL     1     -20.625  -6.964 -12.756  1.00  0.00     0.000 C 
BRANCH   6   7
ATOM      7  C   UNL     1     -19.979  -7.920 -13.764  1.00  0.00    -0.003 C 
ATOM      8  C   UNL     1     -20.243  -9.376 -13.391  1.00  0.00     0.004 C 
ENDBRANCH   6   7
ENDBRANCH   1   6
TORSDOF 4
ENDMDL
MODEL 5
REMARK VINA RESULT:    -3.399     18.391     18.935
REMARK INTER + INTRA:          -4.320
REMARK INTER:                  -4.157
REMARK INTRA:                  -0.163
REMARK UNBOUND:                -0.126
REMARK SMILES CCCCCC(=O)[O-]
REMARK SMILES IDX 4 1 5 2 6 3 7 4 8 5 3 6 2 7 1 8
REMARK H PARENT
REMARK Flexibility Score: inf
ROOT
ATOM      1  C   UNL     1      -7.560  -7.439   0.196  1.00  0.00     0.006 C 
ENDROOT
BRANCH   1   2
ATOM      2  C   UNL     1      -7.825  -8.764  -0.531  1.00  0.00     0.053 C 
BRANCH   2   3
ATOM      3  C   UNL     1      -7.079  -9.901   0.097  1.00  0.00     0.041 C 
ATOM      4  O   UNL     1      -6.338 -10.637  -0.606  1.00  0.00    -0.550 OA
ATOM      5  O   UNL     1      -7.175 -10.126   1.465  1.00  0.00    -0.550 OA
ENDBRANCH   2   3
ENDBRANCH   1   2
BRANCH   1   6
ATOM      6  C   UNL     1      -8.851  -6.795   0.724  1.00  0.00     0.000 C 
BRANCH   6   7
ATOM      7  C   UNL     1     -10.083  -7.581   0.261  1.00  0.00    -0.003 C 
ATOM      8  C   UNL     1     -11.270  -6.652   0.022  1.00  0.00     0.004 C 
ENDBRANCH   6   7
ENDBRANCH   1   6
TORSDOF 4
ENDMDL
MODEL 6
REMARK VINA RESULT:    -3.228     18.158     18.670
REMARK INTER + INTRA:          -4.108
REMARK INTER:                  -3.986
REMARK INTRA:                  -0.122
REMARK UNBOUND:                -0.126
REMARK SMILES CCCCCC(=O)[O-]
REMARK SMILES IDX 4 1 5 2 6 3 7 4 8 5 3 6 2 7 1 8
REMARK H PARENT
REMARK Flexibility Score: inf
ROOT
ATOM      1  C   UNL     1      -8.143  -8.294   0.669  1.00  0.00     0.006 C 
ENDROOT
BRANCH   1   2
ATOM      2  C   UNL     1      -9.542  -8.341   0.041  1.00  0.00     0.053 C 
BRANCH   2   3
ATOM      3  C   UNL     1     -10.375  -7.165   0.449  1.00  0.00     0.041 C 
ATOM      4  O   UNL     1     -11.395  -6.848  -0.217  1.00  0.00    -0.550 OA
ATOM      5  O   UNL     1     -10.044  -6.439   1.587  1.00  0.00    -0.550 OA
ENDBRANCH   2   3
ENDBRANCH   1   2
BRANCH   1   6
ATOM      6  C   UNL     1      -7.121  -7.593  -0.238  1.00  0.00     0.000 C 
BRANCH   6   7
ATOM      7  C   UNL     1      -6.283  -6.585   0.557  1.00  0.00    -0.003 C 
ATOM      8  C   UNL     1      -5.605  -5.581  -0.371  1.00  0.00     0.004 C 
ENDBRANCH   6   7
ENDBRANCH   1   6
TORSDOF 4
ENDMDL
MODEL 7
REMARK VINA RESULT:    -3.127     19.598     20.164
REMARK INTER + INTRA:          -3.985
REMARK INTER:                  -3.843
REMARK INTRA:                  -0.142
REMARK UNBOUND:                -0.126
REMARK SMILES CCCCCC(=O)[O-]
REMARK SMILES IDX 4 1 5 2 6 3 7 4 8 5 3 6 2 7 1 8
REMARK H PARENT
REMARK Flexibility Score: inf
ROOT
ATOM      1  C   UNL     1      -6.888 -10.068  -0.562  1.00  0.00     0.006 C 
ENDROOT
BRANCH   1   2
ATOM      2  C   UNL     1      -5.877 -10.401   0.544  1.00  0.00     0.053 C 
BRANCH   2   3
ATOM      3  C   UNL     1      -6.516 -11.151   1.673  1.00  0.00     0.041 C 
ATOM      4  O   UNL     1      -6.564 -12.409   1.651  1.00  0.00    -0.550 OA
ATOM      5  O   UNL     1      -7.028 -10.461   2.765  1.00  0.00    -0.550 OA
ENDBRANCH   2   3
ENDBRANCH   1   2
BRANCH   1   6
ATOM      6  C   UNL     1      -7.586  -8.720  -0.326  1.00  0.00     0.000 C 
BRANCH   6   7
ATOM      7  C   UNL     1      -9.078  -8.918  -0.039  1.00  0.00    -0.003 C 
ATOM      8  C   UNL     1      -9.749  -7.597   0.326  1.00  0.00     0.004 C 
ENDBRANCH   6   7
ENDBRANCH   1   6
TORSDOF 4
ENDMDL
MODEL 8
REMARK VINA RESULT:    -3.117     17.949     18.326
REMARK INTER + INTRA:          -3.972
REMARK INTER:                  -3.809
REMARK INTRA:                  -0.163
REMARK UNBOUND:                -0.126
REMARK SMILES CCCCCC(=O)[O-]
REMARK SMILES IDX 4 1 5 2 6 3 7 4 8 5 3 6 2 7 1 8
REMARK H PARENT
REMARK Flexibility Score: inf
ROOT
ATOM      1  C   UNL     1      -9.036  -7.831   1.536  1.00  0.00     0.006 C 
ENDROOT
BRANCH   1   2
ATOM      2  C   UNL     1     -10.368  -7.140   1.856  1.00  0.00     0.053 C 
BRANCH   2   3
ATOM      3  C   UNL     1     -10.492  -5.821   1.156  1.00  0.00     0.041 C 
ATOM      4  O   UNL     1     -11.057  -5.750   0.033  1.00  0.00    -0.550 OA
ATOM      5  O   UNL     1     -10.014  -4.664   1.760  1.00  0.00    -0.550 OA
ENDBRANCH   2   3
ENDBRANCH   1   2
BRANCH   1   6
ATOM      6  C   UNL     1      -9.110  -8.672   0.252  1.00  0.00     0.000 C 
BRANCH   6   7
ATOM      7  C   UNL     1      -7.787  -8.611  -0.520  1.00  0.00    -0.003 C 
ATOM      8  C   UNL     1      -6.961  -7.398  -0.101  1.00  0.00     0.004 C 
ENDBRANCH   6   7
ENDBRANCH   1   6
TORSDOF 4
ENDMDL
MODEL 9
REMARK VINA RESULT:    -2.992      1.902      2.502
REMARK INTER + INTRA:          -3.818
REMARK INTER:                  -3.620
REMARK INTRA:                  -0.198
REMARK UNBOUND:                -0.126
REMARK SMILES CCCCCC(=O)[O-]
REMARK SMILES IDX 4 1 5 2 6 3 7 4 8 5 3 6 2 7 1 8
REMARK H PARENT
REMARK Flexibility Score: inf
ROOT
ATOM      1  C   UNL     1     -20.882  -6.426 -13.041  1.00  0.00     0.006 C 
ENDROOT
BRANCH   1   2
ATOM      2  C   UNL     1     -20.083  -5.179 -12.639  1.00  0.00     0.053 C 
BRANCH   2   3
ATOM      3  C   UNL     1     -20.871  -3.922 -12.852  1.00  0.00     0.041 C 
ATOM      4  O   UNL     1     -20.654  -3.202 -13.861  1.00  0.00    -0.550 OA
ATOM      5  O   UNL     1     -21.868  -3.564 -11.952  1.00  0.00    -0.550 OA
ENDBRANCH   2   3
ENDBRANCH   1   2
BRANCH   1   6
ATOM      6  C   UNL     1     -20.077  -7.365 -13.951  1.00  0.00     0.000 C 
BRANCH   6   7
ATOM      7  C   UNL     1     -19.393  -6.583 -15.078  1.00  0.00    -0.003 C 
ATOM      8  C   UNL     1     -20.399  -6.161 -16.144  1.00  0.00     0.004 C 
ENDBRANCH   6   7
ENDBRANCH   1   6
TORSDOF 4
ENDMDL
