MODEL 1
REMARK VINA RESULT:    -6.160      0.000      0.000
REMARK INTER + INTRA:         -11.367
REMARK INTER:                  -9.401
REMARK INTRA:                  -1.966
REMARK UNBOUND:                -1.966
REMARK SMILES CC(=O)CCC=C(C)CCC=C(C)CCC=C(C)C
REMARK SMILES IDX 10 1 11 2 12 3 13 4 14 5 15 6 16 7 18 8 17 9 19 10 9 11 7 12
REMARK SMILES IDX 6 13 8 14 5 15 4 16 2 17 3 18 1 19
REMARK H PARENT
REMARK Flexibility Score: inf
ROOT
ATOM      1  C   UNL     1      -9.120  29.299  25.362  1.00  0.00     0.032 C 
ENDROOT
BRANCH   1   2
ATOM      2  C   UNL     1      -9.087  29.509  23.868  1.00  0.00    -0.028 C 
ATOM      3  C   UNL     1      -8.059  30.078  23.199  1.00  0.00    -0.077 C 
ATOM      4  C   UNL     1      -6.776  30.473  23.892  1.00  0.00     0.039 C 
BRANCH   3   5
ATOM      5  C   UNL     1      -8.194  30.321  21.709  1.00  0.00     0.034 C 
BRANCH   5   6
ATOM      6  C   UNL     1      -9.233  31.408  21.395  1.00  0.00     0.032 C 
BRANCH   6   7
ATOM      7  C   UNL     1      -8.788  32.772  21.872  1.00  0.00    -0.028 C 
ATOM      8  C   UNL     1      -7.130  33.072  20.017  1.00  0.00     0.039 C 
ATOM      9  C   UNL     1      -7.822  33.514  21.283  1.00  0.00    -0.080 C 
ATOM     10  C   UNL     1      -7.441  34.847  21.871  1.00  0.00     0.039 C 
ENDBRANCH   6   7
ENDBRANCH   5   6
ENDBRANCH   3   5
ENDBRANCH   1   2
BRANCH   1  11
ATOM     11  C   UNL     1     -10.117  30.270  26.016  1.00  0.00     0.034 C 
BRANCH  11  12
ATOM     12  C   UNL     1      -9.542  31.113  27.149  1.00  0.00    -0.077 C 
ATOM     13  C   UNL     1      -8.950  32.301  26.884  1.00  0.00    -0.028 C 
ATOM     14  C   UNL     1      -9.618  30.643  28.584  1.00  0.00     0.039 C 
BRANCH  13  15
ATOM     15  C   UNL     1      -8.813  32.867  25.488  1.00  0.00     0.035 C 
BRANCH  15  16
ATOM     16  C   UNL     1      -7.845  34.057  25.438  1.00  0.00     0.079 C 
BRANCH  16  17
ATOM     17  C   UNL     1      -8.533  35.351  25.796  1.00  0.00     0.130 C 
ATOM     18  O   UNL     1      -8.464  35.772  26.940  1.00  0.00    -0.300 OA
ATOM     19  C   UNL     1      -9.311  36.129  24.776  1.00  0.00     0.087 C 
ENDBRANCH  16  17
ENDBRANCH  15  16
ENDBRANCH  13  15
ENDBRANCH  11  12
ENDBRANCH   1  11
TORSDOF 9
ENDMDL
MODEL 2
REMARK VINA RESULT:    -6.124      2.000      4.770
REMARK INTER + INTRA:         -11.313
REMARK INTER:                  -9.518
REMARK INTRA:                  -1.795
REMARK UNBOUND:                -1.966
REMARK SMILES CC(=O)CCC=C(C)CCC=C(C)CCC=C(C)C
REMARK SMILES IDX 10 1 11 2 12 3 13 4 14 5 15 6 16 7 18 8 17 9 19 10 9 11 7 12
REMARK SMILES IDX 6 13 8 14 5 15 4 16 2 17 3 18 1 19
REMARK H PARENT
REMARK Flexibility Score: inf
ROOT
ATOM      1  C   UNL     1      -7.219  30.788  21.470  1.00  0.00     0.032 C 
ENDROOT
BRANCH   1   2
ATOM      2  C   UNL     1      -7.293  32.270  21.739  1.00  0.00    -0.028 C 
ATOM      3  C   UNL     1      -8.440  32.985  21.778  1.00  0.00    -0.077 C 
ATOM      4  C   UNL     1      -9.795  32.327  21.654  1.00  0.00     0.039 C 
BRANCH   3   5
ATOM      5  C   UNL     1      -8.367  34.487  21.960  1.00  0.00     0.034 C 
BRANCH   5   6
ATOM      6  C   UNL     1      -7.228  34.899  22.904  1.00  0.00     0.032 C 
BRANCH   6   7
ATOM      7  C   UNL     1      -7.368  34.266  24.270  1.00  0.00    -0.028 C 
ATOM      8  C   UNL     1      -9.103  35.901  25.042  1.00  0.00     0.039 C 
ATOM      9  C   UNL     1      -8.179  34.726  25.250  1.00  0.00    -0.080 C 
ATOM     10  C   UNL     1      -8.208  34.029  26.585  1.00  0.00     0.039 C 
ENDBRANCH   6   7
ENDBRANCH   5   6
ENDBRANCH   3   5
ENDBRANCH   1   2
BRANCH   1  11
ATOM     11  C   UNL     1      -7.116  30.009  22.791  1.00  0.00     0.034 C 
BRANCH  11  12
ATOM     12  C   UNL     1      -8.350  29.190  23.151  1.00  0.00    -0.077 C 
ATOM     13  C   UNL     1      -9.118  29.539  24.210  1.00  0.00    -0.028 C 
ATOM     14  C   UNL     1      -8.742  27.975  22.340  1.00  0.00     0.039 C 
BRANCH  13  15
ATOM     15  C   UNL     1      -8.819  30.730  25.094  1.00  0.00     0.035 C 
BRANCH  15  16
ATOM     16  C   UNL     1      -7.830  30.385  26.215  1.00  0.00     0.079 C 
BRANCH  16  17
ATOM     17  C   UNL     1      -8.542  29.946  27.471  1.00  0.00     0.130 C 
ATOM     18  O   UNL     1      -8.788  28.761  27.640  1.00  0.00    -0.300 OA
ATOM     19  C   UNL     1      -8.963  30.936  28.516  1.00  0.00     0.087 C 
ENDBRANCH  16  17
ENDBRANCH  15  16
ENDBRANCH  13  15
ENDBRANCH  11  12
ENDBRANCH   1  11
TORSDOF 9
ENDMDL
MODEL 3
REMARK VINA RESULT:    -5.985      2.234      4.431
REMARK INTER + INTRA:         -11.100
REMARK INTER:                  -9.391
REMARK INTRA:                  -1.709
REMARK UNBOUND:                -1.966
REMARK SMILES CC(=O)CCC=C(C)CCC=C(C)CCC=C(C)C
REMARK SMILES IDX 10 1 11 2 12 3 13 4 14 5 15 6 16 7 18 8 17 9 19 10 9 11 7 12
REMARK SMILES IDX 6 13 8 14 5 15 4 16 2 17 3 18 1 19
REMARK H PARENT
REMARK Flexibility Score: inf
ROOT
ATOM      1  C   UNL     1      -8.247  33.058  27.589  1.00  0.00     0.032 C 
ENDROOT
BRANCH   1   2
ATOM      2  C   UNL     1      -8.241  33.406  26.121  1.00  0.00    -0.028 C 
ATOM      3  C   UNL     1      -8.387  34.658  25.631  1.00  0.00    -0.077 C 
ATOM      4  C   UNL     1      -8.470  35.864  26.537  1.00  0.00     0.039 C 
BRANCH   3   5
ATOM      5  C   UNL     1      -8.463  34.857  24.131  1.00  0.00     0.034 C 
BRANCH   5   6
ATOM      6  C   UNL     1      -8.447  33.523  23.371  1.00  0.00     0.032 C 
BRANCH   6   7
ATOM      7  C   UNL     1      -7.620  33.600  22.108  1.00  0.00    -0.028 C 
ATOM      8  C   UNL     1      -9.156  32.112  20.803  1.00  0.00     0.039 C 
ATOM      9  C   UNL     1      -7.909  32.946  20.960  1.00  0.00    -0.080 C 
ATOM     10  C   UNL     1      -6.989  33.075  19.774  1.00  0.00     0.039 C 
ENDBRANCH   6   7
ENDBRANCH   5   6
ENDBRANCH   3   5
ENDBRANCH   1   2
BRANCH   1  11
ATOM     11  C   UNL     1      -7.890  31.576  27.789  1.00  0.00     0.034 C 
BRANCH  11  12
ATOM     12  C   UNL     1      -9.064  30.611  27.669  1.00  0.00    -0.077 C 
ATOM     13  C   UNL     1      -9.236  29.879  26.544  1.00  0.00    -0.028 C 
ATOM     14  C   UNL     1     -10.060  30.453  28.797  1.00  0.00     0.039 C 
BRANCH  13  15
ATOM     15  C   UNL     1      -8.307  29.960  25.353  1.00  0.00     0.035 C 
BRANCH  15  16
ATOM     16  C   UNL     1      -9.068  29.907  24.021  1.00  0.00     0.079 C 
BRANCH  16  17
ATOM     17  C   UNL     1      -8.194  29.404  22.899  1.00  0.00     0.130 C 
ATOM     18  O   UNL     1      -8.645  28.596  22.102  1.00  0.00    -0.300 OA
ATOM     19  C   UNL     1      -6.776  29.869  22.746  1.00  0.00     0.087 C 
ENDBRANCH  16  17
ENDBRANCH  15  16
ENDBRANCH  13  15
ENDBRANCH  11  12
ENDBRANCH   1  11
TORSDOF 9
ENDMDL
MODEL 4
REMARK VINA RESULT:    -5.966      1.133      4.617
REMARK INTER + INTRA:         -11.071
REMARK INTER:                  -9.203
REMARK INTRA:                  -1.868
REMARK UNBOUND:                -1.966
REMARK SMILES CC(=O)CCC=C(C)CCC=C(C)CCC=C(C)C
REMARK SMILES IDX 10 1 11 2 12 3 13 4 14 5 15 6 16 7 18 8 17 9 19 10 9 11 7 12
REMARK SMILES IDX 6 13 8 14 5 15 4 16 2 17 3 18 1 19
REMARK H PARENT
REMARK Flexibility Score: inf
ROOT
ATOM      1  C   UNL     1      -9.128  31.334  20.635  1.00  0.00     0.032 C 
ENDROOT
BRANCH   1   2
ATOM      2  C   UNL     1      -9.359  30.147  21.536  1.00  0.00    -0.028 C 
ATOM      3  C   UNL     1      -8.404  29.570  22.301  1.00  0.00    -0.077 C 
ATOM      4  C   UNL     1      -7.009  30.141  22.402  1.00  0.00     0.039 C 
BRANCH   3   5
ATOM      5  C   UNL     1      -8.745  28.319  23.085  1.00  0.00     0.034 C 
BRANCH   5   6
ATOM      6  C   UNL     1      -9.746  28.603  24.216  1.00  0.00     0.032 C 
BRANCH   6   7
ATOM      7  C   UNL     1      -9.066  29.148  25.451  1.00  0.00    -0.028 C 
ATOM      8  C   UNL     1      -9.838  31.497  25.051  1.00  0.00     0.039 C 
ATOM      9  C   UNL     1      -9.071  30.449  25.819  1.00  0.00    -0.080 C 
ATOM     10  C   UNL     1      -8.328  30.879  27.057  1.00  0.00     0.039 C 
ENDBRANCH   6   7
ENDBRANCH   5   6
ENDBRANCH   3   5
ENDBRANCH   1   2
BRANCH   1  11
ATOM     11  C   UNL     1      -8.998  32.620  21.467  1.00  0.00     0.034 C 
BRANCH  11  12
ATOM     12  C   UNL     1      -7.814  33.507  21.097  1.00  0.00    -0.077 C 
ATOM     13  C   UNL     1      -7.450  34.534  21.901  1.00  0.00    -0.028 C 
ATOM     14  C   UNL     1      -7.024  33.262  19.830  1.00  0.00     0.039 C 
BRANCH  13  15
ATOM     15  C   UNL     1      -8.169  34.874  23.187  1.00  0.00     0.035 C 
BRANCH  15  16
ATOM     16  C   UNL     1      -7.480  34.263  24.415  1.00  0.00     0.079 C 
BRANCH  16  17
ATOM     17  C   UNL     1      -8.076  34.777  25.702  1.00  0.00     0.130 C 
ATOM     18  O   UNL     1      -7.832  34.200  26.751  1.00  0.00    -0.300 OA
ATOM     19  C   UNL     1      -8.973  35.979  25.721  1.00  0.00     0.087 C 
ENDBRANCH  16  17
ENDBRANCH  15  16
ENDBRANCH  13  15
ENDBRANCH  11  12
ENDBRANCH   1  11
TORSDOF 9
ENDMDL
MODEL 5
REMARK VINA RESULT:    -5.946      1.152      4.755
REMARK INTER + INTRA:         -11.040
REMARK INTER:                  -9.222
REMARK INTRA:                  -1.818
REMARK UNBOUND:                -1.966
REMARK SMILES CC(=O)CCC=C(C)CCC=C(C)CCC=C(C)C
REMARK SMILES IDX 10 1 11 2 12 3 13 4 14 5 15 6 16 7 18 8 17 9 19 10 9 11 7 12
REMARK SMILES IDX 6 13 8 14 5 15 4 16 2 17 3 18 1 19
REMARK H PARENT
REMARK Flexibility Score: inf
ROOT
ATOM      1  C   UNL     1      -6.799  30.538  21.999  1.00  0.00     0.032 C 
ENDROOT
BRANCH   1   2
ATOM      2  C   UNL     1      -7.689  30.367  23.205  1.00  0.00    -0.028 C 
ATOM      3  C   UNL     1      -8.565  29.350  23.373  1.00  0.00    -0.077 C 
ATOM      4  C   UNL     1      -8.659  28.209  22.387  1.00  0.00     0.039 C 
BRANCH   3   5
ATOM      5  C   UNL     1      -9.472  29.351  24.586  1.00  0.00     0.034 C 
BRANCH   5   6
ATOM      6  C   UNL     1      -9.815  30.776  25.048  1.00  0.00     0.032 C 
BRANCH   6   7
ATOM      7  C   UNL     1     -10.071  30.842  26.536  1.00  0.00    -0.028 C 
ATOM      8  C   UNL     1      -7.644  30.680  27.137  1.00  0.00     0.039 C 
ATOM      9  C   UNL     1      -9.109  30.766  27.485  1.00  0.00    -0.080 C 
ATOM     10  C   UNL     1      -9.491  30.811  28.942  1.00  0.00     0.039 C 
ENDBRANCH   6   7
ENDBRANCH   5   6
ENDBRANCH   3   5
ENDBRANCH   1   2
BRANCH   1  11
ATOM     11  C   UNL     1      -7.151  31.835  21.254  1.00  0.00     0.034 C 
BRANCH  11  12
ATOM     12  C   UNL     1      -8.591  32.305  21.429  1.00  0.00    -0.077 C 
ATOM     13  C   UNL     1      -8.866  33.403  22.171  1.00  0.00    -0.028 C 
ATOM     14  C   UNL     1      -9.738  31.558  20.784  1.00  0.00     0.039 C 
BRANCH  13  15
ATOM     15  C   UNL     1      -7.802  34.223  22.866  1.00  0.00     0.035 C 
BRANCH  15  16
ATOM     16  C   UNL     1      -7.536  33.735  24.296  1.00  0.00     0.079 C 
BRANCH  16  17
ATOM     17  C   UNL     1      -8.341  34.512  25.309  1.00  0.00     0.130 C 
ATOM     18  O   UNL     1      -8.418  34.104  26.457  1.00  0.00    -0.300 OA
ATOM     19  C   UNL     1      -9.058  35.774  24.932  1.00  0.00     0.087 C 
ENDBRANCH  16  17
ENDBRANCH  15  16
ENDBRANCH  13  15
ENDBRANCH  11  12
ENDBRANCH   1  11
TORSDOF 9
ENDMDL
MODEL 6
REMARK VINA RESULT:    -5.663      1.717      4.720
REMARK INTER + INTRA:         -10.609
REMARK INTER:                  -8.218
REMARK INTRA:                  -2.391
REMARK UNBOUND:                -1.966
REMARK SMILES CC(=O)CCC=C(C)CCC=C(C)CCC=C(C)C
REMARK SMILES IDX 10 1 11 2 12 3 13 4 14 5 15 6 16 7 18 8 17 9 19 10 9 11 7 12
REMARK SMILES IDX 6 13 8 14 5 15 4 16 2 17 3 18 1 19
REMARK H PARENT
REMARK Flexibility Score: inf
ROOT
ATOM      1  C   UNL     1      -6.784  29.890  24.532  1.00  0.00     0.032 C 
ENDROOT
BRANCH   1   2
ATOM      2  C   UNL     1      -7.420  30.882  25.474  1.00  0.00    -0.028 C 
ATOM      3  C   UNL     1      -8.629  30.717  26.056  1.00  0.00    -0.077 C 
ATOM      4  C   UNL     1      -9.427  29.445  25.892  1.00  0.00     0.039 C 
BRANCH   3   5
ATOM      5  C   UNL     1      -9.197  31.837  26.904  1.00  0.00     0.034 C 
BRANCH   5   6
ATOM      6  C   UNL     1      -8.260  33.053  26.956  1.00  0.00     0.032 C 
BRANCH   6   7
ATOM      7  C   UNL     1      -8.860  34.261  26.274  1.00  0.00    -0.028 C 
ATOM      8  C   UNL     1      -7.154  34.292  24.440  1.00  0.00     0.039 C 
ATOM      9  C   UNL     1      -8.354  34.847  25.165  1.00  0.00    -0.080 C 
ATOM     10  C   UNL     1      -9.023  36.071  24.594  1.00  0.00     0.039 C 
ENDBRANCH   6   7
ENDBRANCH   5   6
ENDBRANCH   3   5
ENDBRANCH   1   2
BRANCH   1  11
ATOM     11  C   UNL     1      -6.956  30.348  23.075  1.00  0.00     0.034 C 
BRANCH  11  12
ATOM     12  C   UNL     1      -8.221  29.843  22.390  1.00  0.00    -0.077 C 
ATOM     13  C   UNL     1      -9.242  30.693  22.126  1.00  0.00    -0.028 C 
ATOM     14  C   UNL     1      -8.365  28.391  21.993  1.00  0.00     0.039 C 
BRANCH  13  15
ATOM     15  C   UNL     1      -9.210  32.162  22.483  1.00  0.00     0.035 C 
BRANCH  15  16
ATOM     16  C   UNL     1      -9.192  33.060  21.238  1.00  0.00     0.079 C 
BRANCH  16  17
ATOM     17  C   UNL     1      -7.794  33.517  20.901  1.00  0.00     0.130 C 
ATOM     18  O   UNL     1      -7.418  34.620  21.264  1.00  0.00    -0.300 OA
ATOM     19  C   UNL     1      -6.856  32.645  20.120  1.00  0.00     0.087 C 
ENDBRANCH  16  17
ENDBRANCH  15  16
ENDBRANCH  13  15
ENDBRANCH  11  12
ENDBRANCH   1  11
TORSDOF 9
ENDMDL
MODEL 7
REMARK VINA RESULT:    -4.815      2.139      5.374
REMARK INTER + INTRA:          -9.314
REMARK INTER:                  -8.031
REMARK INTRA:                  -1.283
REMARK UNBOUND:                -1.966
REMARK SMILES CC(=O)CCC=C(C)CCC=C(C)CCC=C(C)C
REMARK SMILES IDX 10 1 11 2 12 3 13 4 14 5 15 6 16 7 18 8 17 9 19 10 9 11 7 12
REMARK SMILES IDX 6 13 8 14 5 15 4 16 2 17 3 18 1 19
REMARK H PARENT
REMARK Flexibility Score: inf
ROOT
ATOM      1  C   UNL     1      -9.504  32.480  24.143  1.00  0.00     0.032 C 
ENDROOT
BRANCH   1   2
ATOM      2  C   UNL     1     -10.005  31.164  24.685  1.00  0.00    -0.028 C 
ATOM      3  C   UNL     1      -9.434  29.965  24.430  1.00  0.00    -0.077 C 
ATOM      4  C   UNL     1      -8.152  29.843  23.640  1.00  0.00     0.039 C 
BRANCH   3   5
ATOM      5  C   UNL     1     -10.096  28.708  24.955  1.00  0.00     0.034 C 
BRANCH   5   6
ATOM      6  C   UNL     1      -9.479  28.244  26.284  1.00  0.00     0.032 C 
BRANCH   6   7
ATOM      7  C   UNL     1      -9.851  29.157  27.430  1.00  0.00    -0.028 C 
ATOM      8  C   UNL     1      -7.670  30.388  27.387  1.00  0.00     0.039 C 
ATOM      9  C   UNL     1      -9.036  30.100  27.956  1.00  0.00    -0.080 C 
ATOM     10  C   UNL     1      -9.507  30.929  29.123  1.00  0.00     0.039 C 
ENDBRANCH   6   7
ENDBRANCH   5   6
ENDBRANCH   3   5
ENDBRANCH   1   2
BRANCH   1  11
ATOM     11  C   UNL     1      -8.594  33.171  25.171  1.00  0.00     0.034 C 
BRANCH  11  12
ATOM     12  C   UNL     1      -8.325  34.647  24.900  1.00  0.00    -0.077 C 
ATOM     13  C   UNL     1      -7.649  35.027  23.790  1.00  0.00    -0.028 C 
ATOM     14  C   UNL     1      -8.802  35.714  25.861  1.00  0.00     0.039 C 
BRANCH  13  15
ATOM     15  C   UNL     1      -7.121  34.048  22.765  1.00  0.00     0.035 C 
BRANCH  15  16
ATOM     16  C   UNL     1      -7.892  34.125  21.440  1.00  0.00     0.079 C 
BRANCH  16  17
ATOM     17  C   UNL     1      -7.803  32.833  20.668  1.00  0.00     0.130 C 
ATOM     18  O   UNL     1      -6.749  32.520  20.137  1.00  0.00    -0.300 OA
ATOM     19  C   UNL     1      -8.989  31.924  20.529  1.00  0.00     0.087 C 
ENDBRANCH  16  17
ENDBRANCH  15  16
ENDBRANCH  13  15
ENDBRANCH  11  12
ENDBRANCH   1  11
TORSDOF 9
ENDMDL
MODEL 8
REMARK VINA RESULT:    -4.679      2.065      5.379
REMARK INTER + INTRA:          -9.107
REMARK INTER:                  -7.401
REMARK INTRA:                  -1.706
REMARK UNBOUND:                -1.966
REMARK SMILES CC(=O)CCC=C(C)CCC=C(C)CCC=C(C)C
REMARK SMILES IDX 10 1 11 2 12 3 13 4 14 5 15 6 16 7 18 8 17 9 19 10 9 11 7 12
REMARK SMILES IDX 6 13 8 14 5 15 4 16 2 17 3 18 1 19
REMARK H PARENT
REMARK Flexibility Score: inf
ROOT
ATOM      1  C   UNL     1      -8.247  34.254  26.461  1.00  0.00     0.032 C 
ENDROOT
BRANCH   1   2
ATOM      2  C   UNL     1      -9.005  32.950  26.458  1.00  0.00    -0.028 C 
ATOM      3  C   UNL     1      -8.988  32.052  27.470  1.00  0.00    -0.077 C 
ATOM      4  C   UNL     1      -8.270  32.330  28.770  1.00  0.00     0.039 C 
BRANCH   3   5
ATOM      5  C   UNL     1      -9.714  30.734  27.299  1.00  0.00     0.034 C 
BRANCH   5   6
ATOM      6  C   UNL     1      -8.802  29.645  26.715  1.00  0.00     0.032 C 
BRANCH   6   7
ATOM      7  C   UNL     1      -9.138  29.337  25.274  1.00  0.00    -0.028 C 
ATOM      8  C   UNL     1      -7.101  30.484  24.372  1.00  0.00     0.039 C 
ATOM      9  C   UNL     1      -8.401  29.736  24.211  1.00  0.00    -0.080 C 
ATOM     10  C   UNL     1      -8.856  29.396  22.816  1.00  0.00     0.039 C 
ENDBRANCH   6   7
ENDBRANCH   5   6
ENDBRANCH   3   5
ENDBRANCH   1   2
BRANCH   1  11
ATOM     11  C   UNL     1      -8.421  34.977  25.116  1.00  0.00     0.034 C 
BRANCH  11  12
ATOM     12  C   UNL     1      -7.326  34.698  24.092  1.00  0.00    -0.077 C 
ATOM     13  C   UNL     1      -7.573  33.903  23.024  1.00  0.00    -0.028 C 
ATOM     14  C   UNL     1      -5.946  35.299  24.245  1.00  0.00     0.039 C 
BRANCH  13  15
ATOM     15  C   UNL     1      -8.912  33.246  22.773  1.00  0.00     0.035 C 
BRANCH  15  16
ATOM     16  C   UNL     1      -9.035  32.712  21.339  1.00  0.00     0.079 C 
BRANCH  16  17
ATOM     17  C   UNL     1      -7.682  32.463  20.720  1.00  0.00     0.130 C 
ATOM     18  O   UNL     1      -7.059  31.457  21.020  1.00  0.00    -0.300 OA
ATOM     19  C   UNL     1      -7.080  33.432  19.745  1.00  0.00     0.087 C 
ENDBRANCH  16  17
ENDBRANCH  15  16
ENDBRANCH  13  15
ENDBRANCH  11  12
ENDBRANCH   1  11
TORSDOF 9
ENDMDL
