MODEL 1
REMARK VINA RESULT:    -3.213      0.000      0.000
REMARK INTER + INTRA:          -3.594
REMARK INTER:                  -3.589
REMARK INTRA:                  -0.005
REMARK UNBOUND:                -0.005
REMARK SMILES CCCC(=O)[O-]
REMARK SMILES IDX 3 1 4 2 5 3 6 4 2 5 1 6
REMARK H PARENT
REMARK Flexibility Score: inf
ROOT
ATOM      1  C   UNL     1      53.813  45.439  10.688  1.00  0.00     0.052 C 
ENDROOT
BRANCH   1   2
ATOM      2  C   UNL     1      54.278  44.176  11.342  1.00  0.00     0.041 C 
ATOM      3  O   UNL     1      54.348  43.108  10.680  1.00  0.00    -0.550 OA
ATOM      4  O   UNL     1      54.679  44.189  12.672  1.00  0.00    -0.550 OA
ENDBRANCH   1   2
BRANCH   1   5
ATOM      5  C   UNL     1      52.323  45.665  10.959  1.00  0.00     0.003 C 
ATOM      6  C   UNL     1      51.796  46.860  10.170  1.00  0.00     0.004 C 
ENDBRANCH   1   5
TORSDOF 2
ENDMDL
MODEL 2
REMARK VINA RESULT:    -3.171      1.861      2.105
REMARK INTER + INTRA:          -3.547
REMARK INTER:                  -3.505
REMARK INTRA:                  -0.042
REMARK UNBOUND:                -0.005
REMARK SMILES CCCC(=O)[O-]
REMARK SMILES IDX 3 1 4 2 5 3 6 4 2 5 1 6
REMARK H PARENT
REMARK Flexibility Score: inf
ROOT
ATOM      1  C   UNL     1      54.375  44.634  12.270  1.00  0.00     0.052 C 
ENDROOT
BRANCH   1   2
ATOM      2  C   UNL     1      54.237  44.121  10.871  1.00  0.00     0.041 C 
ATOM      3  O   UNL     1      54.309  44.914   9.895  1.00  0.00    -0.550 OA
ATOM      4  O   UNL     1      54.077  42.761  10.642  1.00  0.00    -0.550 OA
ENDBRANCH   1   2
BRANCH   1   5
ATOM      5  C   UNL     1      53.754  46.029  12.392  1.00  0.00     0.003 C 
ATOM      6  C   UNL     1      52.300  45.945  12.846  1.00  0.00     0.004 C 
ENDBRANCH   1   5
TORSDOF 2
ENDMDL
MODEL 3
REMARK VINA RESULT:    -3.142      2.312      3.148
REMARK INTER + INTRA:          -3.515
REMARK INTER:                  -3.461
REMARK INTRA:                  -0.053
REMARK UNBOUND:                -0.005
REMARK SMILES CCCC(=O)[O-]
REMARK SMILES IDX 3 1 4 2 5 3 6 4 2 5 1 6
REMARK H PARENT
REMARK Flexibility Score: inf
ROOT
ATOM      1  C   UNL     1      54.282  45.858  11.684  1.00  0.00     0.052 C 
ENDROOT
BRANCH   1   2
ATOM      2  C   UNL     1      52.920  45.811  12.302  1.00  0.00     0.041 C 
ATOM      3  O   UNL     1      52.794  45.760  13.554  1.00  0.00    -0.550 OA
ATOM      4  O   UNL     1      51.790  45.873  11.498  1.00  0.00    -0.550 OA
ENDBRANCH   1   2
BRANCH   1   5
ATOM      5  C   UNL     1      54.322  45.008  10.411  1.00  0.00     0.003 C 
ATOM      6  C   UNL     1      54.274  43.519  10.743  1.00  0.00     0.004 C 
ENDBRANCH   1   5
TORSDOF 2
ENDMDL
MODEL 4
REMARK VINA RESULT:    -3.140      2.235      3.303
REMARK INTER + INTRA:          -3.512
REMARK INTER:                  -3.441
REMARK INTRA:                  -0.072
REMARK UNBOUND:                -0.005
REMARK SMILES CCCC(=O)[O-]
REMARK SMILES IDX 3 1 4 2 5 3 6 4 2 5 1 6
REMARK H PARENT
REMARK Flexibility Score: inf
ROOT
ATOM      1  C   UNL     1      54.076  45.891  11.235  1.00  0.00     0.052 C 
ENDROOT
BRANCH   1   2
ATOM      2  C   UNL     1      52.588  46.001  11.122  1.00  0.00     0.041 C 
ATOM      3  O   UNL     1      51.862  45.840  12.139  1.00  0.00    -0.550 OA
ATOM      4  O   UNL     1      52.005  46.328   9.905  1.00  0.00    -0.550 OA
ENDBRANCH   1   2
BRANCH   1   5
ATOM      5  C   UNL     1      54.479  44.465  11.618  1.00  0.00     0.003 C 
ATOM      6  C   UNL     1      54.126  43.477  10.511  1.00  0.00     0.004 C 
ENDBRANCH   1   5
TORSDOF 2
ENDMDL
MODEL 5
REMARK VINA RESULT:    -3.138     12.663     13.356
REMARK INTER + INTRA:          -3.510
REMARK INTER:                  -3.504
REMARK INTRA:                  -0.006
REMARK UNBOUND:                -0.005
REMARK SMILES CCCC(=O)[O-]
REMARK SMILES IDX 3 1 4 2 5 3 6 4 2 5 1 6
REMARK H PARENT
REMARK Flexibility Score: inf
ROOT
ATOM      1  C   UNL     1      49.585  33.423   4.898  1.00  0.00     0.052 C 
ENDROOT
BRANCH   1   2
ATOM      2  C   UNL     1      49.966  33.524   6.341  1.00  0.00     0.041 C 
ATOM      3  O   UNL     1      50.517  32.551   6.921  1.00  0.00    -0.550 OA
ATOM      4  O   UNL     1      49.758  34.710   7.033  1.00  0.00    -0.550 OA
ENDBRANCH   1   2
BRANCH   1   5
ATOM      5  C   UNL     1      50.836  33.368   4.016  1.00  0.00     0.003 C 
ATOM      6  C   UNL     1      50.520  33.800   2.587  1.00  0.00     0.004 C 
ENDBRANCH   1   5
TORSDOF 2
ENDMDL
MODEL 6
REMARK VINA RESULT:    -3.080     12.605     13.409
REMARK INTER + INTRA:          -3.445
REMARK INTER:                  -3.408
REMARK INTRA:                  -0.037
REMARK UNBOUND:                -0.005
REMARK SMILES CCCC(=O)[O-]
REMARK SMILES IDX 3 1 4 2 5 3 6 4 2 5 1 6
REMARK H PARENT
REMARK Flexibility Score: inf
ROOT
ATOM      1  C   UNL     1      49.595  33.556   5.453  1.00  0.00     0.052 C 
ENDROOT
BRANCH   1   2
ATOM      2  C   UNL     1      50.780  32.791   4.953  1.00  0.00     0.041 C 
ATOM      3  O   UNL     1      51.333  31.929   5.686  1.00  0.00    -0.550 OA
ATOM      4  O   UNL     1      51.244  32.995   3.660  1.00  0.00    -0.550 OA
ENDBRANCH   1   2
BRANCH   1   5
ATOM      5  C   UNL     1      49.463  33.404   6.971  1.00  0.00     0.003 C 
ATOM      6  C   UNL     1      49.881  34.682   7.691  1.00  0.00     0.004 C 
ENDBRANCH   1   5
TORSDOF 2
ENDMDL
MODEL 7
REMARK VINA RESULT:    -3.031     12.624     13.737
REMARK INTER + INTRA:          -3.391
REMARK INTER:                  -3.384
REMARK INTRA:                  -0.007
REMARK UNBOUND:                -0.005
REMARK SMILES CCCC(=O)[O-]
REMARK SMILES IDX 3 1 4 2 5 3 6 4 2 5 1 6
REMARK H PARENT
REMARK Flexibility Score: inf
ROOT
ATOM      1  C   UNL     1      47.195  51.574   1.842  1.00  0.00     0.052 C 
ENDROOT
BRANCH   1   2
ATOM      2  C   UNL     1      45.898  51.100   1.267  1.00  0.00     0.041 C 
ATOM      3  O   UNL     1      45.207  50.244   1.881  1.00  0.00    -0.550 OA
ATOM      4  O   UNL     1      45.428  51.637   0.075  1.00  0.00    -0.550 OA
ENDBRANCH   1   2
BRANCH   1   5
ATOM      5  C   UNL     1      48.351  51.253   0.891  1.00  0.00     0.003 C 
ATOM      6  C   UNL     1      49.596  50.828   1.664  1.00  0.00     0.004 C 
ENDBRANCH   1   5
TORSDOF 2
ENDMDL
MODEL 8
REMARK VINA RESULT:    -3.015     11.391     12.557
REMARK INTER + INTRA:          -3.373
REMARK INTER:                  -3.365
REMARK INTRA:                  -0.008
REMARK UNBOUND:                -0.005
REMARK SMILES CCCC(=O)[O-]
REMARK SMILES IDX 3 1 4 2 5 3 6 4 2 5 1 6
REMARK H PARENT
REMARK Flexibility Score: inf
ROOT
ATOM      1  C   UNL     1      48.630  50.984   1.688  1.00  0.00     0.052 C 
ENDROOT
BRANCH   1   2
ATOM      2  C   UNL     1      50.125  50.954   1.741  1.00  0.00     0.041 C 
ATOM      3  O   UNL     1      50.718  50.836   2.846  1.00  0.00    -0.550 OA
ATOM      4  O   UNL     1      50.863  51.009   0.566  1.00  0.00    -0.550 OA
ENDBRANCH   1   2
BRANCH   1   5
ATOM      5  C   UNL     1      48.153  51.931   0.583  1.00  0.00     0.003 C 
ATOM      6  C   UNL     1      46.629  51.998   0.537  1.00  0.00     0.004 C 
ENDBRANCH   1   5
TORSDOF 2
ENDMDL
MODEL 9
REMARK VINA RESULT:    -2.947     13.677     14.083
REMARK INTER + INTRA:          -3.296
REMARK INTER:                  -3.286
REMARK INTRA:                  -0.011
REMARK UNBOUND:                -0.005
REMARK SMILES CCCC(=O)[O-]
REMARK SMILES IDX 3 1 4 2 5 3 6 4 2 5 1 6
REMARK H PARENT
REMARK Flexibility Score: inf
ROOT
ATOM      1  C   UNL     1      51.246  32.958   3.967  1.00  0.00     0.052 C 
ENDROOT
BRANCH   1   2
ATOM      2  C   UNL     1      50.480  32.960   5.252  1.00  0.00     0.041 C 
ATOM      3  O   UNL     1      50.895  32.296   6.239  1.00  0.00    -0.550 OA
ATOM      4  O   UNL     1      49.333  33.733   5.377  1.00  0.00    -0.550 OA
ENDBRANCH   1   2
BRANCH   1   5
ATOM      5  C   UNL     1      50.503  33.766   2.901  1.00  0.00     0.003 C 
ATOM      6  C   UNL     1      51.026  33.445   1.504  1.00  0.00     0.004 C 
ENDBRANCH   1   5
TORSDOF 2
ENDMDL
