MODEL 1
REMARK VINA RESULT:    56.204      0.000      0.000
REMARK INTER + INTRA:          74.886
REMARK INTER:                  74.275
REMARK INTRA:                   0.610
REMARK UNBOUND:                 0.610
REMARK SMILES CC[C@H](C=C[C@H](C)[C@@H]1CC[C@@H]2[C@@H]3CC=C4C[C@H](O)CC[C@@]4(C)[C@H]3CC[C@@]21C)C(C)C
REMARK SMILES IDX 6 1 7 2 5 3 4 4 3 5 2 6 1 7 28 8 29 9 30 10 8 11 9 12 26 13
REMARK SMILES IDX 10 14 11 15 25 16 27 17 12 18 24 19 23 20 13 21 21 22 14 23
REMARK SMILES IDX 15 24 20 25 22 26 16 27 19 28 17 29 18 30
REMARK H PARENT 18 31
REMARK Flexibility Score: inf
ROOT
ATOM      1  C   UNL     1     -24.256  28.166  -8.156  1.00  0.00     0.012 C 
ATOM      2  C   UNL     1     -24.406  27.109  -9.275  1.00  0.00     0.012 C 
ENDROOT
BRANCH   1   3
ATOM      3  C   UNL     1     -22.809  28.617  -8.095  1.00  0.00    -0.028 C 
ATOM      4  C   UNL     1     -21.822  28.171  -7.281  1.00  0.00    -0.027 C 
BRANCH   4   5
ATOM      5  C   UNL     1     -21.888  27.230  -6.076  1.00  0.00     0.014 C 
BRANCH   5   6
ATOM      6  C   UNL     1     -22.431  25.837  -6.500  1.00  0.00     0.004 C 
ATOM      7  C   UNL     1     -21.492  24.690  -6.120  1.00  0.00     0.004 C 
ENDBRANCH   5   6
BRANCH   5   8
ATOM      8  C   UNL     1     -20.601  27.143  -5.191  1.00  0.00    -0.011 C 
ATOM      9  C   UNL     1     -20.839  26.376  -3.877  1.00  0.00     0.008 C 
ATOM     10  C   UNL     1     -19.445  26.470  -5.949  1.00  0.00     0.008 C 
ENDBRANCH   5   8
ENDBRANCH   4   5
ENDBRANCH   1   3
BRANCH   1  11
ATOM     11  C   UNL     1     -25.274  29.361  -8.167  1.00  0.00     0.002 C 
ATOM     12  C   UNL     1     -24.653  30.698  -8.618  1.00  0.00     0.005 C 
ATOM     13  C   UNL     1     -26.181  29.687  -6.934  1.00  0.00    -0.026 C 
ATOM     14  C   UNL     1     -25.430  31.802  -7.909  1.00  0.00     0.005 C 
ATOM     15  C   UNL     1     -26.648  31.125  -7.266  1.00  0.00    -0.001 C 
ATOM     16  C   UNL     1     -25.396  29.671  -5.594  1.00  0.00     0.007 C 
ATOM     17  C   UNL     1     -27.403  28.734  -6.863  1.00  0.00     0.012 C 
ATOM     18  C   UNL     1     -27.300  31.904  -6.083  1.00  0.00     0.000 C 
ATOM     19  C   UNL     1     -26.144  30.355  -4.445  1.00  0.00     0.005 C 
ATOM     20  C   UNL     1     -26.490  31.828  -4.772  1.00  0.00     0.003 C 
ATOM     21  C   UNL     1     -27.520  33.377  -6.456  1.00  0.00     0.031 C 
ATOM     22  C   UNL     1     -27.204  32.595  -3.571  1.00  0.00    -0.008 C 
ATOM     23  C   UNL     1     -28.193  34.120  -5.350  1.00  0.00    -0.027 C 
ATOM     24  C   UNL     1     -28.006  33.824  -4.047  1.00  0.00    -0.065 C 
ATOM     25  C   UNL     1     -28.209  31.669  -2.809  1.00  0.00     0.014 C 
ATOM     26  C   UNL     1     -26.097  33.070  -2.595  1.00  0.00     0.016 C 
ATOM     27  C   UNL     1     -28.825  34.580  -3.019  1.00  0.00     0.063 C 
ATOM     28  C   UNL     1     -29.062  32.396  -1.749  1.00  0.00     0.033 C 
ATOM     29  C   UNL     1     -29.803  33.608  -2.342  1.00  0.00     0.118 C 
BRANCH  29  30
ATOM     30  O   UNL     1     -30.553  34.263  -1.350  1.00  0.00    -0.393 OA
ATOM     31  H   UNL     1     -31.292  33.658  -1.082  1.00  0.00     0.210 HD
ENDBRANCH  29  30
ENDBRANCH   1  11
TORSDOF 6
ENDMDL
MODEL 2
REMARK VINA RESULT:    57.056      3.562      8.590
REMARK INTER + INTRA:          76.012
REMARK INTER:                  76.553
REMARK INTRA:                  -0.540
REMARK UNBOUND:                 0.610
REMARK SMILES CC[C@H](C=C[C@H](C)[C@@H]1CC[C@@H]2[C@@H]3CC=C4C[C@H](O)CC[C@@]4(C)[C@H]3CC[C@@]21C)C(C)C
REMARK SMILES IDX 6 1 7 2 5 3 4 4 3 5 2 6 1 7 28 8 29 9 30 10 8 11 9 12 26 13
REMARK SMILES IDX 10 14 11 15 25 16 27 17 12 18 24 19 23 20 13 21 21 22 14 23
REMARK SMILES IDX 15 24 20 25 22 26 16 27 19 28 17 29 18 30
REMARK H PARENT 18 31
REMARK Flexibility Score: inf
ROOT
ATOM      1  C   UNL     1     -29.410  31.457  -0.581  1.00  0.00     0.012 C 
ATOM      2  C   UNL     1     -28.599  31.509   0.735  1.00  0.00     0.012 C 
ENDROOT
BRANCH   1   3
ATOM      3  C   UNL     1     -30.886  31.594  -0.256  1.00  0.00    -0.028 C 
ATOM      4  C   UNL     1     -31.949  31.168  -0.979  1.00  0.00    -0.027 C 
BRANCH   4   5
ATOM      5  C   UNL     1     -32.013  30.593  -2.396  1.00  0.00     0.014 C 
BRANCH   5   6
ATOM      6  C   UNL     1     -31.452  29.144  -2.422  1.00  0.00     0.004 C 
ATOM      7  C   UNL     1     -32.122  28.228  -1.395  1.00  0.00     0.004 C 
ENDBRANCH   5   6
BRANCH   5   8
ATOM      8  C   UNL     1     -33.380  30.735  -3.144  1.00  0.00    -0.011 C 
ATOM      9  C   UNL     1     -33.499  29.776  -4.342  1.00  0.00     0.008 C 
ATOM     10  C   UNL     1     -34.564  30.488  -2.196  1.00  0.00     0.008 C 
ENDBRANCH   5   8
ENDBRANCH   4   5
ENDBRANCH   1   3
BRANCH   1  11
ATOM     11  C   UNL     1     -28.944  32.407  -1.740  1.00  0.00     0.002 C 
ATOM     12  C   UNL     1     -30.090  32.873  -2.658  1.00  0.00     0.005 C 
ATOM     13  C   UNL     1     -27.745  32.041  -2.678  1.00  0.00    -0.026 C 
ATOM     14  C   UNL     1     -29.481  33.105  -4.036  1.00  0.00     0.005 C 
ATOM     15  C   UNL     1     -27.960  33.028  -3.851  1.00  0.00    -0.001 C 
ATOM     16  C   UNL     1     -27.812  30.575  -3.188  1.00  0.00     0.007 C 
ATOM     17  C   UNL     1     -26.383  32.318  -1.992  1.00  0.00     0.012 C 
ATOM     18  C   UNL     1     -27.143  32.716  -5.143  1.00  0.00     0.000 C 
ATOM     19  C   UNL     1     -26.901  30.309  -4.390  1.00  0.00     0.005 C 
ATOM     20  C   UNL     1     -27.224  31.240  -5.584  1.00  0.00     0.003 C 
ATOM     21  C   UNL     1     -27.594  33.616  -6.302  1.00  0.00     0.031 C 
ATOM     22  C   UNL     1     -26.344  30.943  -6.878  1.00  0.00    -0.008 C 
ATOM     23  C   UNL     1     -26.782  33.362  -7.530  1.00  0.00    -0.027 C 
ATOM     24  C   UNL     1     -26.273  32.151  -7.836  1.00  0.00    -0.065 C 
ATOM     25  C   UNL     1     -24.870  30.577  -6.505  1.00  0.00     0.014 C 
ATOM     26  C   UNL     1     -26.999  29.753  -7.627  1.00  0.00     0.016 C 
ATOM     27  C   UNL     1     -25.377  32.041  -9.054  1.00  0.00     0.063 C 
ATOM     28  C   UNL     1     -23.922  30.450  -7.716  1.00  0.00     0.033 C 
ATOM     29  C   UNL     1     -23.947  31.711  -8.598  1.00  0.00     0.118 C 
BRANCH  29  30
ATOM     30  O   UNL     1     -23.093  31.558  -9.704  1.00  0.00    -0.393 OA
ATOM     31  H   UNL     1     -22.383  30.913  -9.450  1.00  0.00     0.210 HD
ENDBRANCH  29  30
ENDBRANCH   1  11
TORSDOF 6
ENDMDL
MODEL 3
REMARK VINA RESULT:    58.812      3.144      5.465
REMARK INTER + INTRA:          78.332
REMARK INTER:                  77.538
REMARK INTRA:                   0.794
REMARK UNBOUND:                 0.610
REMARK SMILES CC[C@H](C=C[C@H](C)[C@@H]1CC[C@@H]2[C@@H]3CC=C4C[C@H](O)CC[C@@]4(C)[C@H]3CC[C@@]21C)C(C)C
REMARK SMILES IDX 6 1 7 2 5 3 4 4 3 5 2 6 1 7 28 8 29 9 30 10 8 11 9 12 26 13
REMARK SMILES IDX 10 14 11 15 25 16 27 17 12 18 24 19 23 20 13 21 21 22 14 23
REMARK SMILES IDX 15 24 20 25 22 26 16 27 19 28 17 29 18 30
REMARK H PARENT 18 31
REMARK Flexibility Score: inf
ROOT
ATOM      1  C   UNL     1     -25.252  31.121  -7.399  1.00  0.00     0.012 C 
ATOM      2  C   UNL     1     -24.915  30.044  -8.457  1.00  0.00     0.012 C 
ENDROOT
BRANCH   1   3
ATOM      3  C   UNL     1     -26.238  32.107  -7.995  1.00  0.00    -0.028 C 
ATOM      4  C   UNL     1     -26.000  33.102  -8.883  1.00  0.00    -0.027 C 
BRANCH   4   5
ATOM      5  C   UNL     1     -24.675  33.655  -9.413  1.00  0.00     0.014 C 
BRANCH   5   6
ATOM      6  C   UNL     1     -24.755  35.199  -9.573  1.00  0.00     0.004 C 
ATOM      7  C   UNL     1     -25.868  35.643 -10.524  1.00  0.00     0.004 C 
ENDBRANCH   5   6
BRANCH   5   8
ATOM      8  C   UNL     1     -23.379  33.181  -8.677  1.00  0.00    -0.011 C 
ATOM      9  C   UNL     1     -22.793  31.894  -9.285  1.00  0.00     0.008 C 
ATOM     10  C   UNL     1     -22.295  34.271  -8.696  1.00  0.00     0.008 C 
ENDBRANCH   5   8
ENDBRANCH   4   5
ENDBRANCH   1   3
BRANCH   1  11
ATOM     11  C   UNL     1     -25.676  30.609  -5.977  1.00  0.00     0.002 C 
ATOM     12  C   UNL     1     -26.682  29.442  -6.014  1.00  0.00     0.005 C 
ATOM     13  C   UNL     1     -26.172  31.587  -4.860  1.00  0.00    -0.026 C 
ATOM     14  C   UNL     1     -27.525  29.550  -4.749  1.00  0.00     0.005 C 
ATOM     15  C   UNL     1     -26.843  30.606  -3.868  1.00  0.00    -0.001 C 
ATOM     16  C   UNL     1     -27.210  32.616  -5.385  1.00  0.00     0.007 C 
ATOM     17  C   UNL     1     -24.985  32.310  -4.172  1.00  0.00     0.012 C 
ATOM     18  C   UNL     1     -27.755  31.268  -2.789  1.00  0.00     0.000 C 
ATOM     19  C   UNL     1     -27.993  33.312  -4.268  1.00  0.00     0.005 C 
ATOM     20  C   UNL     1     -28.744  32.302  -3.367  1.00  0.00     0.003 C 
ATOM     21  C   UNL     1     -28.536  30.203  -2.008  1.00  0.00     0.031 C 
ATOM     22  C   UNL     1     -29.628  32.994  -2.236  1.00  0.00    -0.008 C 
ATOM     23  C   UNL     1     -29.372  30.823  -0.937  1.00  0.00    -0.027 C 
ATOM     24  C   UNL     1     -29.926  32.047  -1.055  1.00  0.00    -0.065 C 
ATOM     25  C   UNL     1     -28.920  34.254  -1.637  1.00  0.00     0.014 C 
ATOM     26  C   UNL     1     -30.972  33.416  -2.886  1.00  0.00     0.016 C 
ATOM     27  C   UNL     1     -30.666  32.614   0.141  1.00  0.00     0.063 C 
ATOM     28  C   UNL     1     -29.643  34.867  -0.418  1.00  0.00     0.033 C 
ATOM     29  C   UNL     1     -29.891  33.823   0.685  1.00  0.00     0.118 C 
BRANCH  29  30
ATOM     30  O   UNL     1     -30.568  34.403   1.771  1.00  0.00    -0.393 OA
ATOM     31  H   UNL     1     -29.912  34.526   2.506  1.00  0.00     0.210 HD
ENDBRANCH  29  30
ENDBRANCH   1  11
TORSDOF 6
ENDMDL
MODEL 4
REMARK VINA RESULT:    58.876      4.511      7.182
REMARK INTER + INTRA:          78.417
REMARK INTER:                  78.945
REMARK INTRA:                  -0.527
REMARK UNBOUND:                 0.610
REMARK SMILES CC[C@H](C=C[C@H](C)[C@@H]1CC[C@@H]2[C@@H]3CC=C4C[C@H](O)CC[C@@]4(C)[C@H]3CC[C@@]21C)C(C)C
REMARK SMILES IDX 6 1 7 2 5 3 4 4 3 5 2 6 1 7 28 8 29 9 30 10 8 11 9 12 26 13
REMARK SMILES IDX 10 14 11 15 25 16 27 17 12 18 24 19 23 20 13 21 21 22 14 23
REMARK SMILES IDX 15 24 20 25 22 26 16 27 19 28 17 29 18 30
REMARK H PARENT 18 31
REMARK Flexibility Score: inf
ROOT
ATOM      1  C   UNL     1     -26.643  24.254  -7.967  1.00  0.00     0.012 C 
ATOM      2  C   UNL     1     -25.581  24.083  -9.078  1.00  0.00     0.012 C 
ENDROOT
BRANCH   1   3
ATOM      3  C   UNL     1     -26.511  23.111  -6.978  1.00  0.00    -0.028 C 
ATOM      4  C   UNL     1     -27.345  22.061  -6.789  1.00  0.00    -0.027 C 
BRANCH   4   5
ATOM      5  C   UNL     1     -28.739  21.793  -7.362  1.00  0.00     0.014 C 
BRANCH   5   6
ATOM      6  C   UNL     1     -29.272  20.417  -6.875  1.00  0.00     0.004 C 
ATOM      7  C   UNL     1     -30.006  19.640  -7.970  1.00  0.00     0.004 C 
ENDBRANCH   5   6
BRANCH   5   8
ATOM      8  C   UNL     1     -29.787  22.945  -7.212  1.00  0.00    -0.011 C 
ATOM      9  C   UNL     1     -30.677  23.098  -8.459  1.00  0.00     0.008 C 
ATOM     10  C   UNL     1     -30.690  22.723  -5.988  1.00  0.00     0.008 C 
ENDBRANCH   5   8
ENDBRANCH   4   5
ENDBRANCH   1   3
BRANCH   1  11
ATOM     11  C   UNL     1     -26.727  25.660  -7.276  1.00  0.00     0.002 C 
ATOM     12  C   UNL     1     -28.119  26.315  -7.369  1.00  0.00     0.005 C 
ATOM     13  C   UNL     1     -25.685  26.791  -7.571  1.00  0.00    -0.026 C 
ATOM     14  C   UNL     1     -27.895  27.822  -7.370  1.00  0.00     0.005 C 
ATOM     15  C   UNL     1     -26.418  28.037  -7.017  1.00  0.00    -0.001 C 
ATOM     16  C   UNL     1     -25.404  26.962  -9.089  1.00  0.00     0.007 C 
ATOM     17  C   UNL     1     -24.364  26.560  -6.793  1.00  0.00     0.012 C 
ATOM     18  C   UNL     1     -25.817  29.410  -7.450  1.00  0.00     0.000 C 
ATOM     19  C   UNL     1     -24.711  28.284  -9.432  1.00  0.00     0.005 C 
ATOM     20  C   UNL     1     -25.532  29.510  -8.964  1.00  0.00     0.003 C 
ATOM     21  C   UNL     1     -26.741  30.564  -7.033  1.00  0.00     0.031 C 
ATOM     22  C   UNL     1     -24.879  30.905  -9.367  1.00  0.00    -0.008 C 
ATOM     23  C   UNL     1     -26.150  31.886  -7.396  1.00  0.00    -0.027 C 
ATOM     24  C   UNL     1     -25.369  32.069  -8.480  1.00  0.00    -0.065 C 
ATOM     25  C   UNL     1     -23.319  30.872  -9.245  1.00  0.00     0.014 C 
ATOM     26  C   UNL     1     -25.275  31.200 -10.838  1.00  0.00     0.016 C 
ATOM     27  C   UNL     1     -24.741  33.433  -8.686  1.00  0.00     0.063 C 
ATOM     28  C   UNL     1     -22.638  32.241  -9.452  1.00  0.00     0.033 C 
ATOM     29  C   UNL     1     -23.219  33.317  -8.519  1.00  0.00     0.118 C 
BRANCH  29  30
ATOM     30  O   UNL     1     -22.596  34.557  -8.745  1.00  0.00    -0.393 OA
ATOM     31  H   UNL     1     -21.678  34.377  -9.078  1.00  0.00     0.210 HD
ENDBRANCH  29  30
ENDBRANCH   1  11
TORSDOF 6
ENDMDL
