MODEL 1
REMARK VINA RESULT:    -5.810      0.000      0.000
REMARK INTER + INTRA:          -6.421
REMARK INTER:                  -6.150
REMARK INTRA:                  -0.271
REMARK UNBOUND:                -0.271
REMARK SMILES C=C1CC[C@H](C(C)C)[C@@H]2C=C(C)CC[C@@H]12
REMARK SMILES IDX 12 1 11 2 10 3 9 4 15 5 14 6 13 7 2 8 1 9 3 10 4 11 5 12
REMARK SMILES IDX 6 13 7 14 8 15
REMARK H PARENT
REMARK Flexibility Score: inf
ROOT
ATOM      1  C   UNL     1       9.752  10.057  30.582  1.00  0.00     0.039 C 
ATOM      2  C   UNL     1       9.649   8.733  29.874  1.00  0.00    -0.077 C 
ATOM      3  C   UNL     1      10.140   8.621  28.619  1.00  0.00    -0.024 C 
ATOM      4  C   UNL     1       9.978   7.338  27.816  1.00  0.00     0.022 C 
ATOM      5  C   UNL     1      10.149   6.154  28.805  1.00  0.00     0.022 C 
ATOM      6  C   UNL     1       9.023   6.223  29.851  1.00  0.00     0.013 C 
ATOM      7  C   UNL     1       9.093   7.544  30.645  1.00  0.00     0.031 C 
ATOM      8  C   UNL     1      10.301   4.844  28.052  1.00  0.00    -0.074 C 
ATOM      9  C   UNL     1       9.519   3.768  28.252  1.00  0.00     0.008 C 
ATOM     10  C   UNL     1      11.415   4.768  27.035  1.00  0.00     0.031 C 
ATOM     11  C   UNL     1      11.992   6.161  26.708  1.00  0.00     0.009 C 
ATOM     12  C   UNL     1      10.844   7.185  26.496  1.00  0.00    -0.001 C 
ENDROOT
BRANCH  12  13
ATOM     13  C   UNL     1      11.303   8.523  25.818  1.00  0.00    -0.014 C 
ATOM     14  C   UNL     1      12.815   8.558  25.518  1.00  0.00     0.007 C 
ATOM     15  C   UNL     1      10.553   8.750  24.488  1.00  0.00     0.007 C 
ENDBRANCH  12  13
TORSDOF 1
ENDMDL
MODEL 2
REMARK VINA RESULT:    -5.731      2.628      6.702
REMARK INTER + INTRA:          -6.337
REMARK INTER:                  -6.067
REMARK INTRA:                  -0.271
REMARK UNBOUND:                -0.271
REMARK SMILES C=C1CC[C@H](C(C)C)[C@@H]2C=C(C)CC[C@@H]12
REMARK SMILES IDX 12 1 11 2 10 3 9 4 15 5 14 6 13 7 2 8 1 9 3 10 4 11 5 12
REMARK SMILES IDX 6 13 7 14 8 15
REMARK H PARENT
REMARK Flexibility Score: inf
ROOT
ATOM      1  C   UNL     1      10.972   6.742  21.278  1.00  0.00     0.039 C 
ATOM      2  C   UNL     1      12.007   7.476  22.088  1.00  0.00    -0.077 C 
ATOM      3  C   UNL     1      11.945   7.418  23.438  1.00  0.00    -0.024 C 
ATOM      4  C   UNL     1      12.902   8.217  24.310  1.00  0.00     0.022 C 
ATOM      5  C   UNL     1      14.289   8.189  23.615  1.00  0.00     0.022 C 
ATOM      6  C   UNL     1      14.167   8.890  22.250  1.00  0.00     0.013 C 
ATOM      7  C   UNL     1      13.147   8.163  21.350  1.00  0.00     0.031 C 
ATOM      8  C   UNL     1      15.369   8.700  24.551  1.00  0.00    -0.074 C 
ATOM      9  C   UNL     1      16.205   9.710  24.252  1.00  0.00     0.008 C 
ATOM     10  C   UNL     1      15.501   8.004  25.885  1.00  0.00     0.031 C 
ATOM     11  C   UNL     1      14.283   7.106  26.188  1.00  0.00     0.009 C 
ATOM     12  C   UNL     1      12.964   7.854  25.853  1.00  0.00    -0.001 C 
ENDROOT
BRANCH  12  13
ATOM     13  C   UNL     1      11.681   7.178  26.451  1.00  0.00    -0.014 C 
ATOM     14  C   UNL     1      11.997   5.920  27.284  1.00  0.00     0.007 C 
ATOM     15  C   UNL     1      10.914   8.164  27.358  1.00  0.00     0.007 C 
ENDBRANCH  12  13
TORSDOF 1
ENDMDL
MODEL 3
REMARK VINA RESULT:    -5.596     10.410     13.267
REMARK INTER + INTRA:          -6.195
REMARK INTER:                  -5.921
REMARK INTRA:                  -0.274
REMARK UNBOUND:                -0.271
REMARK SMILES C=C1CC[C@H](C(C)C)[C@@H]2C=C(C)CC[C@@H]12
REMARK SMILES IDX 12 1 11 2 10 3 9 4 15 5 14 6 13 7 2 8 1 9 3 10 4 11 5 12
REMARK SMILES IDX 6 13 7 14 8 15
REMARK H PARENT
REMARK Flexibility Score: inf
ROOT
ATOM      1  C   UNL     1       6.825   7.175  19.667  1.00  0.00     0.039 C 
ATOM      2  C   UNL     1       5.919   7.607  18.546  1.00  0.00    -0.077 C 
ATOM      3  C   UNL     1       6.378   7.551  17.275  1.00  0.00    -0.024 C 
ATOM      4  C   UNL     1       5.546   8.066  16.109  1.00  0.00     0.022 C 
ATOM      5  C   UNL     1       4.069   7.690  16.398  1.00  0.00     0.022 C 
ATOM      6  C   UNL     1       3.620   8.415  17.678  1.00  0.00     0.013 C 
ATOM      7  C   UNL     1       4.485   7.987  18.883  1.00  0.00     0.031 C 
ATOM      8  C   UNL     1       3.212   7.895  15.161  1.00  0.00    -0.074 C 
ATOM      9  C   UNL     1       2.106   8.659  15.133  1.00  0.00     0.008 C 
ATOM     10  C   UNL     1       3.642   7.171  13.906  1.00  0.00     0.031 C 
ATOM     11  C   UNL     1       5.075   6.614  14.026  1.00  0.00     0.009 C 
ATOM     12  C   UNL     1       6.019   7.680  14.645  1.00  0.00    -0.001 C 
ENDROOT
BRANCH  12  13
ATOM     13  C   UNL     1       7.544   7.351  14.480  1.00  0.00    -0.014 C 
ATOM     14  C   UNL     1       7.797   5.938  13.915  1.00  0.00     0.007 C 
ATOM     15  C   UNL     1       8.227   8.365  13.538  1.00  0.00     0.007 C 
ENDBRANCH  12  13
TORSDOF 1
ENDMDL
MODEL 4
REMARK VINA RESULT:    -5.483      3.300      5.686
REMARK INTER + INTRA:          -6.074
REMARK INTER:                  -5.804
REMARK INTRA:                  -0.270
REMARK UNBOUND:                -0.271
REMARK SMILES C=C1CC[C@H](C(C)C)[C@@H]2C=C(C)CC[C@@H]12
REMARK SMILES IDX 12 1 11 2 10 3 9 4 15 5 14 6 13 7 2 8 1 9 3 10 4 11 5 12
REMARK SMILES IDX 6 13 7 14 8 15
REMARK H PARENT
REMARK Flexibility Score: inf
ROOT
ATOM      1  C   UNL     1      13.491   5.306  28.382  1.00  0.00     0.039 C 
ATOM      2  C   UNL     1      13.235   6.219  27.214  1.00  0.00    -0.077 C 
ATOM      3  C   UNL     1      14.258   6.952  26.719  1.00  0.00    -0.024 C 
ATOM      4  C   UNL     1      14.040   7.965  25.604  1.00  0.00     0.022 C 
ATOM      5  C   UNL     1      13.004   7.353  24.624  1.00  0.00     0.022 C 
ATOM      6  C   UNL     1      11.676   7.158  25.376  1.00  0.00     0.013 C 
ATOM      7  C   UNL     1      11.857   6.196  26.569  1.00  0.00     0.031 C 
ATOM      8  C   UNL     1      12.947   8.153  23.335  1.00  0.00    -0.074 C 
ATOM      9  C   UNL     1      11.820   8.684  22.830  1.00  0.00     0.008 C 
ATOM     10  C   UNL     1      14.248   8.333  22.587  1.00  0.00     0.031 C 
ATOM     11  C   UNL     1      15.466   7.949  23.451  1.00  0.00     0.009 C 
ATOM     12  C   UNL     1      15.327   8.544  24.878  1.00  0.00    -0.001 C 
ENDROOT
BRANCH  12  13
ATOM     13  C   UNL     1      16.656   8.516  25.711  1.00  0.00    -0.014 C 
ATOM     14  C   UNL     1      17.853   7.960  24.915  1.00  0.00     0.007 C 
ATOM     15  C   UNL     1      17.029   9.933  26.196  1.00  0.00     0.007 C 
ENDBRANCH  12  13
TORSDOF 1
ENDMDL
MODEL 5
REMARK VINA RESULT:    -5.462      1.943      5.709
REMARK INTER + INTRA:          -6.052
REMARK INTER:                  -5.772
REMARK INTRA:                  -0.280
REMARK UNBOUND:                -0.271
REMARK SMILES C=C1CC[C@H](C(C)C)[C@@H]2C=C(C)CC[C@@H]12
REMARK SMILES IDX 12 1 11 2 10 3 9 4 15 5 14 6 13 7 2 8 1 9 3 10 4 11 5 12
REMARK SMILES IDX 6 13 7 14 8 15
REMARK H PARENT
REMARK Flexibility Score: inf
ROOT
ATOM      1  C   UNL     1      10.585   7.234  21.935  1.00  0.00     0.039 C 
ATOM      2  C   UNL     1      11.583   7.512  23.026  1.00  0.00    -0.077 C 
ATOM      3  C   UNL     1      11.238   7.260  24.309  1.00  0.00    -0.024 C 
ATOM      4  C   UNL     1      12.166   7.611  25.463  1.00  0.00     0.022 C 
ATOM      5  C   UNL     1      13.614   7.309  24.995  1.00  0.00     0.022 C 
ATOM      6  C   UNL     1      13.945   8.224  23.803  1.00  0.00     0.013 C 
ATOM      7  C   UNL     1      12.981   7.963  22.628  1.00  0.00     0.031 C 
ATOM      8  C   UNL     1      14.575   7.343  26.170  1.00  0.00    -0.074 C 
ATOM      9  C   UNL     1      15.676   8.115  26.217  1.00  0.00     0.008 C 
ATOM     10  C   UNL     1      14.261   6.434  27.335  1.00  0.00     0.031 C 
ATOM     11  C   UNL     1      12.825   5.875  27.258  1.00  0.00     0.009 C 
ATOM     12  C   UNL     1      11.825   7.004  26.889  1.00  0.00    -0.001 C 
ENDROOT
BRANCH  12  13
ATOM     13  C   UNL     1      10.322   6.626  27.132  1.00  0.00    -0.014 C 
ATOM     14  C   UNL     1      10.093   5.104  27.229  1.00  0.00     0.007 C 
ATOM     15  C   UNL     1       9.800   7.266  28.436  1.00  0.00     0.007 C 
ENDBRANCH  12  13
TORSDOF 1
ENDMDL
MODEL 6
REMARK VINA RESULT:    -5.349      3.131      6.061
REMARK INTER + INTRA:          -5.933
REMARK INTER:                  -5.700
REMARK INTRA:                  -0.233
REMARK UNBOUND:                -0.271
REMARK SMILES C=C1CC[C@H](C(C)C)[C@@H]2C=C(C)CC[C@@H]12
REMARK SMILES IDX 12 1 11 2 10 3 9 4 15 5 14 6 13 7 2 8 1 9 3 10 4 11 5 12
REMARK SMILES IDX 6 13 7 14 8 15
REMARK H PARENT
REMARK Flexibility Score: inf
ROOT
ATOM      1  C   UNL     1      10.879   6.799  26.285  1.00  0.00     0.039 C 
ATOM      2  C   UNL     1      12.313   7.054  25.907  1.00  0.00    -0.077 C 
ATOM      3  C   UNL     1      12.585   7.604  24.701  1.00  0.00    -0.024 C 
ATOM      4  C   UNL     1      14.017   7.795  24.222  1.00  0.00     0.022 C 
ATOM      5  C   UNL     1      14.860   8.217  25.454  1.00  0.00     0.022 C 
ATOM      6  C   UNL     1      14.835   7.071  26.481  1.00  0.00     0.013 C 
ATOM      7  C   UNL     1      13.393   6.782  26.945  1.00  0.00     0.031 C 
ATOM      8  C   UNL     1      16.227   8.717  25.023  1.00  0.00    -0.074 C 
ATOM      9  C   UNL     1      17.388   8.220  25.485  1.00  0.00     0.008 C 
ATOM     10  C   UNL     1      16.255   9.853  24.027  1.00  0.00     0.031 C 
ATOM     11  C   UNL     1      14.876  10.077  23.372  1.00  0.00     0.009 C 
ATOM     12  C   UNL     1      14.249   8.720  22.954  1.00  0.00    -0.001 C 
ENDROOT
BRANCH  12  13
ATOM     13  C   UNL     1      13.032   8.857  21.974  1.00  0.00    -0.014 C 
ATOM     14  C   UNL     1      13.151  10.073  21.033  1.00  0.00     0.007 C 
ATOM     15  C   UNL     1      12.888   7.595  21.098  1.00  0.00     0.007 C 
ENDBRANCH  12  13
TORSDOF 1
ENDMDL
MODEL 7
REMARK VINA RESULT:    -5.342     10.143     13.564
REMARK INTER + INTRA:          -5.925
REMARK INTER:                  -5.646
REMARK INTRA:                  -0.279
REMARK UNBOUND:                -0.271
REMARK SMILES C=C1CC[C@H](C(C)C)[C@@H]2C=C(C)CC[C@@H]12
REMARK SMILES IDX 12 1 11 2 10 3 9 4 15 5 14 6 13 7 2 8 1 9 3 10 4 11 5 12
REMARK SMILES IDX 6 13 7 14 8 15
REMARK H PARENT
REMARK Flexibility Score: inf
ROOT
ATOM      1  C   UNL     1       7.745   5.922  13.970  1.00  0.00     0.039 C 
ATOM      2  C   UNL     1       6.438   6.427  14.517  1.00  0.00    -0.077 C 
ATOM      3  C   UNL     1       6.365   6.778  15.821  1.00  0.00    -0.024 C 
ATOM      4  C   UNL     1       5.047   7.201  16.456  1.00  0.00     0.022 C 
ATOM      5  C   UNL     1       4.281   8.043  15.402  1.00  0.00     0.022 C 
ATOM      6  C   UNL     1       3.975   7.148  14.188  1.00  0.00     0.013 C 
ATOM      7  C   UNL     1       5.279   6.625  13.550  1.00  0.00     0.031 C 
ATOM      8  C   UNL     1       3.101   8.755  16.039  1.00  0.00    -0.074 C 
ATOM      9  C   UNL     1       1.834   8.645  15.604  1.00  0.00     0.008 C 
ATOM     10  C   UNL     1       3.401   9.647  17.222  1.00  0.00     0.031 C 
ATOM     11  C   UNL     1       4.820   9.409  17.777  1.00  0.00     0.009 C 
ATOM     12  C   UNL     1       5.110   7.887  17.885  1.00  0.00    -0.001 C 
ENDROOT
BRANCH  12  13
ATOM     13  C   UNL     1       6.366   7.540  18.759  1.00  0.00    -0.014 C 
ATOM     14  C   UNL     1       7.330   8.731  18.926  1.00  0.00     0.007 C 
ATOM     15  C   UNL     1       5.941   7.075  20.168  1.00  0.00     0.007 C 
ENDBRANCH  12  13
TORSDOF 1
ENDMDL
MODEL 8
REMARK VINA RESULT:    -5.299      9.644     12.489
REMARK INTER + INTRA:          -5.880
REMARK INTER:                  -5.618
REMARK INTRA:                  -0.262
REMARK UNBOUND:                -0.271
REMARK SMILES C=C1CC[C@H](C(C)C)[C@@H]2C=C(C)CC[C@@H]12
REMARK SMILES IDX 12 1 11 2 10 3 9 4 15 5 14 6 13 7 2 8 1 9 3 10 4 11 5 12
REMARK SMILES IDX 6 13 7 14 8 15
REMARK H PARENT
REMARK Flexibility Score: inf
ROOT
ATOM      1  C   UNL     1      -0.522   8.594  18.388  1.00  0.00     0.039 C 
ATOM      2  C   UNL     1       0.910   8.801  17.975  1.00  0.00    -0.077 C 
ATOM      3  C   UNL     1       1.881   8.717  18.913  1.00  0.00    -0.024 C 
ATOM      4  C   UNL     1       3.336   9.014  18.577  1.00  0.00     0.022 C 
ATOM      5  C   UNL     1       3.604   8.446  17.158  1.00  0.00     0.022 C 
ATOM      6  C   UNL     1       2.706   9.192  16.155  1.00  0.00     0.013 C 
ATOM      7  C   UNL     1       1.216   8.989  16.496  1.00  0.00     0.031 C 
ATOM      8  C   UNL     1       5.092   8.428  16.860  1.00  0.00    -0.074 C 
ATOM      9  C   UNL     1       5.650   9.016  15.787  1.00  0.00     0.008 C 
ATOM     10  C   UNL     1       5.974   7.683  17.835  1.00  0.00     0.031 C 
ATOM     11  C   UNL     1       5.231   7.355  19.147  1.00  0.00     0.009 C 
ATOM     12  C   UNL     1       4.434   8.592  19.641  1.00  0.00    -0.001 C 
ENDROOT
BRANCH  12  13
ATOM     13  C   UNL     1       3.944   8.480  21.127  1.00  0.00    -0.014 C 
ATOM     14  C   UNL     1       4.818   7.540  21.980  1.00  0.00     0.007 C 
ATOM     15  C   UNL     1       3.936   9.865  21.808  1.00  0.00     0.007 C 
ENDBRANCH  12  13
TORSDOF 1
ENDMDL
MODEL 9
REMARK VINA RESULT:    -5.299      2.267      6.040
REMARK INTER + INTRA:          -5.880
REMARK INTER:                  -5.600
REMARK INTRA:                  -0.280
REMARK UNBOUND:                -0.271
REMARK SMILES C=C1CC[C@H](C(C)C)[C@@H]2C=C(C)CC[C@@H]12
REMARK SMILES IDX 12 1 11 2 10 3 9 4 15 5 14 6 13 7 2 8 1 9 3 10 4 11 5 12
REMARK SMILES IDX 6 13 7 14 8 15
REMARK H PARENT
REMARK Flexibility Score: inf
ROOT
ATOM      1  C   UNL     1      16.378   8.255  26.583  1.00  0.00     0.039 C 
ATOM      2  C   UNL     1      15.360   7.961  25.515  1.00  0.00    -0.077 C 
ATOM      3  C   UNL     1      14.122   7.559  25.883  1.00  0.00    -0.024 C 
ATOM      4  C   UNL     1      13.081   7.152  24.849  1.00  0.00     0.022 C 
ATOM      5  C   UNL     1      13.238   8.110  23.639  1.00  0.00     0.022 C 
ATOM      6  C   UNL     1      14.637   7.908  23.032  1.00  0.00     0.013 C 
ATOM      7  C   UNL     1      15.735   8.233  24.065  1.00  0.00     0.031 C 
ATOM      8  C   UNL     1      12.057   7.977  22.694  1.00  0.00    -0.074 C 
ATOM      9  C   UNL     1      12.174   7.699  21.383  1.00  0.00     0.008 C 
ATOM     10  C   UNL     1      10.683   8.190  23.284  1.00  0.00     0.031 C 
ATOM     11  C   UNL     1      10.712   8.178  24.826  1.00  0.00     0.009 C 
ATOM     12  C   UNL     1      11.581   6.999  25.342  1.00  0.00    -0.001 C 
ENDROOT
BRANCH  12  13
ATOM     13  C   UNL     1      11.387   6.686  26.867  1.00  0.00    -0.014 C 
ATOM     14  C   UNL     1      10.745   7.853  27.644  1.00  0.00     0.007 C 
ATOM     15  C   UNL     1      10.495   5.441  27.062  1.00  0.00     0.007 C 
ENDBRANCH  12  13
TORSDOF 1
ENDMDL
