MODEL 1
REMARK VINA RESULT:    -4.368      0.000      0.000
REMARK INTER + INTRA:          -7.087
REMARK INTER:                  -6.411
REMARK INTRA:                  -0.676
REMARK UNBOUND:                -0.676
REMARK SMILES O=C([O-])CCCCCCCC(=O)[O-]
REMARK SMILES IDX 7 1 6 2 5 3 4 4 2 5 1 6 3 7 8 8 9 9 10 10 11 11 12 12 13 13
REMARK H PARENT
REMARK Flexibility Score: inf
ROOT
ATOM      1  C   UNL     1      23.080  -4.567  38.552  1.00  0.00     0.000 C 
ENDROOT
BRANCH   1   2
ATOM      2  C   UNL     1      22.421  -5.182  37.312  1.00  0.00     0.000 C 
BRANCH   2   3
ATOM      3  C   UNL     1      21.845  -6.568  37.625  1.00  0.00     0.006 C 
BRANCH   3   4
ATOM      4  C   UNL     1      21.245  -6.609  39.033  1.00  0.00     0.053 C 
BRANCH   4   5
ATOM      5  C   UNL     1      21.546  -7.918  39.693  1.00  0.00     0.041 C 
ATOM      6  O   UNL     1      21.024  -8.203  40.802  1.00  0.00    -0.550 OA
ATOM      7  O   UNL     1      22.365  -8.843  39.058  1.00  0.00    -0.550 OA
ENDBRANCH   4   5
ENDBRANCH   3   4
ENDBRANCH   2   3
ENDBRANCH   1   2
BRANCH   1   8
ATOM      8  C   UNL     1      24.528  -5.058  38.705  1.00  0.00     0.000 C 
BRANCH   8   9
ATOM      9  C   UNL     1      24.774  -5.766  40.047  1.00  0.00     0.006 C 
BRANCH   9  10
ATOM     10  C   UNL     1      25.437  -7.139  39.878  1.00  0.00     0.053 C 
BRANCH  10  11
ATOM     11  C   UNL     1      26.925  -6.994  39.803  1.00  0.00     0.041 C 
ATOM     12  O   UNL     1      27.521  -6.175  40.551  1.00  0.00    -0.550 OA
ATOM     13  O   UNL     1      27.660  -7.802  38.944  1.00  0.00    -0.550 OA
ENDBRANCH  10  11
ENDBRANCH   9  10
ENDBRANCH   8   9
ENDBRANCH   1   8
TORSDOF 8
ENDMDL
MODEL 2
REMARK VINA RESULT:    -4.341      0.956      4.685
REMARK INTER + INTRA:          -7.048
REMARK INTER:                  -6.669
REMARK INTRA:                  -0.379
REMARK UNBOUND:                -0.676
REMARK SMILES O=C([O-])CCCCCCCC(=O)[O-]
REMARK SMILES IDX 7 1 6 2 5 3 4 4 2 5 1 6 3 7 8 8 9 9 10 10 11 11 12 12 13 13
REMARK H PARENT
REMARK Flexibility Score: inf
ROOT
ATOM      1  C   UNL     1      23.740  -4.627  37.488  1.00  0.00     0.000 C 
ENDROOT
BRANCH   1   2
ATOM      2  C   UNL     1      24.795  -5.584  38.055  1.00  0.00     0.000 C 
BRANCH   2   3
ATOM      3  C   UNL     1      24.928  -5.419  39.574  1.00  0.00     0.006 C 
BRANCH   3   4
ATOM      4  C   UNL     1      26.316  -5.854  40.054  1.00  0.00     0.053 C 
BRANCH   4   5
ATOM      5  C   UNL     1      26.555  -7.295  39.731  1.00  0.00     0.041 C 
ATOM      6  O   UNL     1      27.646  -7.658  39.220  1.00  0.00    -0.550 OA
ATOM      7  O   UNL     1      25.588  -8.245  40.039  1.00  0.00    -0.550 OA
ENDBRANCH   4   5
ENDBRANCH   3   4
ENDBRANCH   2   3
ENDBRANCH   1   2
BRANCH   1   8
ATOM      8  C   UNL     1      22.396  -4.798  38.213  1.00  0.00     0.000 C 
BRANCH   8   9
ATOM      9  C   UNL     1      21.853  -6.233  38.124  1.00  0.00     0.006 C 
BRANCH   9  10
ATOM     10  C   UNL     1      20.926  -6.587  39.294  1.00  0.00     0.053 C 
BRANCH  10  11
ATOM     11  C   UNL     1      21.305  -7.911  39.879  1.00  0.00     0.041 C 
ATOM     12  O   UNL     1      20.754  -8.319  40.935  1.00  0.00    -0.550 OA
ATOM     13  O   UNL     1      22.231  -8.719  39.230  1.00  0.00    -0.550 OA
ENDBRANCH  10  11
ENDBRANCH   9  10
ENDBRANCH   8   9
ENDBRANCH   1   8
TORSDOF 8
ENDMDL
MODEL 3
REMARK VINA RESULT:    -4.330      3.619      7.098
REMARK INTER + INTRA:          -7.031
REMARK INTER:                  -6.689
REMARK INTRA:                  -0.342
REMARK UNBOUND:                -0.676
REMARK SMILES O=C([O-])CCCCCCCC(=O)[O-]
REMARK SMILES IDX 7 1 6 2 5 3 4 4 2 5 1 6 3 7 8 8 9 9 10 10 11 11 12 12 13 13
REMARK H PARENT
REMARK Flexibility Score: inf
ROOT
ATOM      1  C   UNL     1      19.949  -6.706  39.742  1.00  0.00     0.000 C 
ENDROOT
BRANCH   1   2
ATOM      2  C   UNL     1      20.557  -7.967  40.367  1.00  0.00     0.000 C 
BRANCH   2   3
ATOM      3  C   UNL     1      22.064  -8.046  40.094  1.00  0.00     0.006 C 
BRANCH   3   4
ATOM      4  C   UNL     1      22.547  -6.815  39.323  1.00  0.00     0.053 C 
BRANCH   4   5
ATOM      5  C   UNL     1      23.948  -6.466  39.719  1.00  0.00     0.041 C 
ATOM      6  O   UNL     1      24.835  -7.358  39.765  1.00  0.00    -0.550 OA
ATOM      7  O   UNL     1      24.284  -5.145  39.988  1.00  0.00    -0.550 OA
ENDBRANCH   4   5
ENDBRANCH   3   4
ENDBRANCH   2   3
ENDBRANCH   1   2
BRANCH   1   8
ATOM      8  C   UNL     1      18.416  -6.804  39.688  1.00  0.00     0.000 C 
BRANCH   8   9
ATOM      9  C   UNL     1      17.722  -5.612  40.367  1.00  0.00     0.006 C 
BRANCH   9  10
ATOM     10  C   UNL     1      17.699  -5.735  41.895  1.00  0.00     0.053 C 
BRANCH  10  11
ATOM     11  C   UNL     1      16.480  -6.479  42.341  1.00  0.00     0.041 C 
ATOM     12  O   UNL     1      15.454  -6.511  41.611  1.00  0.00    -0.550 OA
ATOM     13  O   UNL     1      16.492  -7.182  43.539  1.00  0.00    -0.550 OA
ENDBRANCH  10  11
ENDBRANCH   9  10
ENDBRANCH   8   9
ENDBRANCH   1   8
TORSDOF 8
ENDMDL
MODEL 4
REMARK VINA RESULT:    -4.314      3.062      3.941
REMARK INTER + INTRA:          -7.007
REMARK INTER:                  -6.817
REMARK INTRA:                  -0.190
REMARK UNBOUND:                -0.676
REMARK SMILES O=C([O-])CCCCCCCC(=O)[O-]
REMARK SMILES IDX 7 1 6 2 5 3 4 4 2 5 1 6 3 7 8 8 9 9 10 10 11 11 12 12 13 13
REMARK H PARENT
REMARK Flexibility Score: inf
ROOT
ATOM      1  C   UNL     1      21.110  -6.988  39.471  1.00  0.00     0.000 C 
ENDROOT
BRANCH   1   2
ATOM      2  C   UNL     1      20.024  -7.534  40.405  1.00  0.00     0.000 C 
BRANCH   2   3
ATOM      3  C   UNL     1      18.734  -6.714  40.289  1.00  0.00     0.006 C 
BRANCH   3   4
ATOM      4  C   UNL     1      18.264  -6.231  41.664  1.00  0.00     0.053 C 
BRANCH   4   5
ATOM      5  C   UNL     1      16.801  -6.494  41.840  1.00  0.00     0.041 C 
ATOM      6  O   UNL     1      16.025  -6.448  40.849  1.00  0.00    -0.550 OA
ATOM      7  O   UNL     1      16.303  -6.839  43.090  1.00  0.00    -0.550 OA
ENDBRANCH   4   5
ENDBRANCH   3   4
ENDBRANCH   2   3
ENDBRANCH   1   2
BRANCH   1   8
ATOM      8  C   UNL     1      22.471  -7.633  39.774  1.00  0.00     0.000 C 
BRANCH   8   9
ATOM      9  C   UNL     1      23.631  -6.943  39.040  1.00  0.00     0.006 C 
BRANCH   9  10
ATOM     10  C   UNL     1      24.508  -6.104  39.979  1.00  0.00     0.053 C 
BRANCH  10  11
ATOM     11  C   UNL     1      25.829  -6.773  40.194  1.00  0.00     0.041 C 
ATOM     12  O   UNL     1      26.796  -6.126  40.679  1.00  0.00    -0.550 OA
ATOM     13  O   UNL     1      25.981  -8.124  39.908  1.00  0.00    -0.550 OA
ENDBRANCH  10  11
ENDBRANCH   9  10
ENDBRANCH   8   9
ENDBRANCH   1   8
TORSDOF 8
ENDMDL
MODEL 5
REMARK VINA RESULT:    -4.311     14.191     15.952
REMARK INTER + INTRA:          -7.004
REMARK INTER:                  -6.624
REMARK INTRA:                  -0.380
REMARK UNBOUND:                -0.676
REMARK SMILES O=C([O-])CCCCCCCC(=O)[O-]
REMARK SMILES IDX 7 1 6 2 5 3 4 4 2 5 1 6 3 7 8 8 9 9 10 10 11 11 12 12 13 13
REMARK H PARENT
REMARK Flexibility Score: inf
ROOT
ATOM      1  C   UNL     1      11.966   2.442  37.961  1.00  0.00     0.000 C 
ENDROOT
BRANCH   1   2
ATOM      2  C   UNL     1      12.444   3.649  38.776  1.00  0.00     0.000 C 
BRANCH   2   3
ATOM      3  C   UNL     1      11.784   4.943  38.283  1.00  0.00     0.006 C 
BRANCH   3   4
ATOM      4  C   UNL     1      10.998   5.622  39.407  1.00  0.00     0.053 C 
BRANCH   4   5
ATOM      5  C   UNL     1      11.622   6.936  39.763  1.00  0.00     0.041 C 
ATOM      6  O   UNL     1      11.031   7.728  40.543  1.00  0.00    -0.550 OA
ATOM      7  O   UNL     1      12.879   7.263  39.271  1.00  0.00    -0.550 OA
ENDBRANCH   4   5
ENDBRANCH   3   4
ENDBRANCH   2   3
ENDBRANCH   1   2
BRANCH   1   8
ATOM      8  C   UNL     1      11.590   2.858  36.531  1.00  0.00     0.000 C 
BRANCH   8   9
ATOM      9  C   UNL     1      12.502   2.221  35.470  1.00  0.00     0.006 C 
BRANCH   9  10
ATOM     10  C   UNL     1      13.214   0.962  35.982  1.00  0.00     0.053 C 
BRANCH  10  11
ATOM     11  C   UNL     1      14.230   0.497  34.987  1.00  0.00     0.041 C 
ATOM     12  O   UNL     1      14.337  -0.728  34.716  1.00  0.00    -0.550 OA
ATOM     13  O   UNL     1      15.026   1.421  34.321  1.00  0.00    -0.550 OA
ENDBRANCH  10  11
ENDBRANCH   9  10
ENDBRANCH   8   9
ENDBRANCH   1   8
TORSDOF 8
ENDMDL
MODEL 6
REMARK VINA RESULT:    -4.307      1.951      2.798
REMARK INTER + INTRA:          -6.997
REMARK INTER:                  -6.643
REMARK INTRA:                  -0.355
REMARK UNBOUND:                -0.676
REMARK SMILES O=C([O-])CCCCCCCC(=O)[O-]
REMARK SMILES IDX 7 1 6 2 5 3 4 4 2 5 1 6 3 7 8 8 9 9 10 10 11 11 12 12 13 13
REMARK H PARENT
REMARK Flexibility Score: inf
ROOT
ATOM      1  C   UNL     1      22.249  -6.742  38.816  1.00  0.00     0.000 C 
ENDROOT
BRANCH   1   2
ATOM      2  C   UNL     1      22.065  -7.750  39.957  1.00  0.00     0.000 C 
BRANCH   2   3
ATOM      3  C   UNL     1      20.581  -7.937  40.293  1.00  0.00     0.006 C 
BRANCH   3   4
ATOM      4  C   UNL     1      19.748  -6.761  39.776  1.00  0.00     0.053 C 
BRANCH   4   5
ATOM      5  C   UNL     1      18.457  -6.663  40.528  1.00  0.00     0.041 C 
ATOM      6  O   UNL     1      17.361  -6.804  39.926  1.00  0.00    -0.550 OA
ATOM      7  O   UNL     1      18.468  -6.465  41.903  1.00  0.00    -0.550 OA
ENDBRANCH   4   5
ENDBRANCH   3   4
ENDBRANCH   2   3
ENDBRANCH   1   2
BRANCH   1   8
ATOM      8  C   UNL     1      23.593  -6.009  38.942  1.00  0.00     0.000 C 
BRANCH   8   9
ATOM      9  C   UNL     1      24.501  -6.618  40.022  1.00  0.00     0.006 C 
BRANCH   9  10
ATOM     10  C   UNL     1      25.852  -5.899  40.131  1.00  0.00     0.053 C 
BRANCH  10  11
ATOM     11  C   UNL     1      26.964  -6.812  39.720  1.00  0.00     0.041 C 
ATOM     12  O   UNL     1      26.760  -8.050  39.611  1.00  0.00    -0.550 OA
ATOM     13  O   UNL     1      28.213  -6.291  39.407  1.00  0.00    -0.550 OA
ENDBRANCH  10  11
ENDBRANCH   9  10
ENDBRANCH   8   9
ENDBRANCH   1   8
TORSDOF 8
ENDMDL
MODEL 7
REMARK VINA RESULT:    -4.250      2.248      6.256
REMARK INTER + INTRA:          -6.914
REMARK INTER:                  -6.667
REMARK INTRA:                  -0.247
REMARK UNBOUND:                -0.676
REMARK SMILES O=C([O-])CCCCCCCC(=O)[O-]
REMARK SMILES IDX 7 1 6 2 5 3 4 4 2 5 1 6 3 7 8 8 9 9 10 10 11 11 12 12 13 13
REMARK H PARENT
REMARK Flexibility Score: inf
ROOT
ATOM      1  C   UNL     1      22.962  -7.746  38.706  1.00  0.00     0.000 C 
ENDROOT
BRANCH   1   2
ATOM      2  C   UNL     1      23.786  -6.931  39.709  1.00  0.00     0.000 C 
BRANCH   2   3
ATOM      3  C   UNL     1      25.112  -7.631  40.030  1.00  0.00     0.006 C 
BRANCH   3   4
ATOM      4  C   UNL     1      26.167  -6.623  40.495  1.00  0.00     0.053 C 
BRANCH   4   5
ATOM      5  C   UNL     1      27.373  -6.682  39.611  1.00  0.00     0.041 C 
ATOM      6  O   UNL     1      27.838  -7.793  39.246  1.00  0.00    -0.550 OA
ATOM      7  O   UNL     1      27.954  -5.507  39.149  1.00  0.00    -0.550 OA
ENDBRANCH   4   5
ENDBRANCH   3   4
ENDBRANCH   2   3
ENDBRANCH   1   2
BRANCH   1   8
ATOM      8  C   UNL     1      22.033  -8.732  39.430  1.00  0.00     0.000 C 
BRANCH   8   9
ATOM      9  C   UNL     1      21.013  -8.028  40.337  1.00  0.00     0.006 C 
BRANCH   9  10
ATOM     10  C   UNL     1      20.203  -6.957  39.596  1.00  0.00     0.053 C 
BRANCH  10  11
ATOM     11  C   UNL     1      18.838  -6.827  40.194  1.00  0.00     0.041 C 
ATOM     12  O   UNL     1      17.817  -6.846  39.455  1.00  0.00    -0.550 OA
ATOM     13  O   UNL     1      18.687  -6.737  41.572  1.00  0.00    -0.550 OA
ENDBRANCH  10  11
ENDBRANCH   9  10
ENDBRANCH   8   9
ENDBRANCH   1   8
TORSDOF 8
ENDMDL
MODEL 8
REMARK VINA RESULT:    -4.100     12.571     14.158
REMARK INTER + INTRA:          -6.694
REMARK INTER:                  -5.703
REMARK INTRA:                  -0.992
REMARK UNBOUND:                -0.676
REMARK SMILES O=C([O-])CCCCCCCC(=O)[O-]
REMARK SMILES IDX 7 1 6 2 5 3 4 4 2 5 1 6 3 7 8 8 9 9 10 10 11 11 12 12 13 13
REMARK H PARENT
REMARK Flexibility Score: inf
ROOT
ATOM      1  C   UNL     1      29.890   4.651  43.623  1.00  0.00     0.000 C 
ENDROOT
BRANCH   1   2
ATOM      2  C   UNL     1      28.914   3.514  43.949  1.00  0.00     0.000 C 
BRANCH   2   3
ATOM      3  C   UNL     1      27.573   4.065  44.448  1.00  0.00     0.006 C 
BRANCH   3   4
ATOM      4  C   UNL     1      26.450   3.766  43.450  1.00  0.00     0.053 C 
BRANCH   4   5
ATOM      5  C   UNL     1      25.899   5.037  42.885  1.00  0.00     0.041 C 
ATOM      6  O   UNL     1      26.121   5.346  41.685  1.00  0.00    -0.550 OA
ATOM      7  O   UNL     1      25.100   5.858  43.671  1.00  0.00    -0.550 OA
ENDBRANCH   4   5
ENDBRANCH   3   4
ENDBRANCH   2   3
ENDBRANCH   1   2
BRANCH   1   8
ATOM      8  C   UNL     1      29.742   5.098  42.161  1.00  0.00     0.000 C 
BRANCH   8   9
ATOM      9  C   UNL     1      29.396   6.590  42.030  1.00  0.00     0.006 C 
BRANCH   9  10
ATOM     10  C   UNL     1      29.485   7.336  43.367  1.00  0.00     0.053 C 
BRANCH  10  11
ATOM     11  C   UNL     1      28.132   7.821  43.785  1.00  0.00     0.041 C 
ATOM     12  O   UNL     1      27.370   8.373  42.948  1.00  0.00    -0.550 OA
ATOM     13  O   UNL     1      27.692   7.617  45.087  1.00  0.00    -0.550 OA
ENDBRANCH  10  11
ENDBRANCH   9  10
ENDBRANCH   8   9
ENDBRANCH   1   8
TORSDOF 8
ENDMDL
MODEL 9
REMARK VINA RESULT:    -4.099     13.507     15.518
REMARK INTER + INTRA:          -6.692
REMARK INTER:                  -6.447
REMARK INTRA:                  -0.245
REMARK UNBOUND:                -0.676
REMARK SMILES O=C([O-])CCCCCCCC(=O)[O-]
REMARK SMILES IDX 7 1 6 2 5 3 4 4 2 5 1 6 3 7 8 8 9 9 10 10 11 11 12 12 13 13
REMARK H PARENT
REMARK Flexibility Score: inf
ROOT
ATOM      1  C   UNL     1      13.187   2.590  40.612  1.00  0.00     0.000 C 
ENDROOT
BRANCH   1   2
ATOM      2  C   UNL     1      13.068   1.173  41.185  1.00  0.00     0.000 C 
BRANCH   2   3
ATOM      3  C   UNL     1      13.345   1.164  42.694  1.00  0.00     0.006 C 
BRANCH   3   4
ATOM      4  C   UNL     1      14.837   1.358  42.980  1.00  0.00     0.053 C 
BRANCH   4   5
ATOM      5  C   UNL     1      15.390   0.172  43.707  1.00  0.00     0.041 C 
ATOM      6  O   UNL     1      16.039   0.328  44.773  1.00  0.00    -0.550 OA
ATOM      7  O   UNL     1      15.144  -1.110  43.231  1.00  0.00    -0.550 OA
ENDBRANCH   4   5
ENDBRANCH   3   4
ENDBRANCH   2   3
ENDBRANCH   1   2
BRANCH   1   8
ATOM      8  C   UNL     1      11.830   3.088  40.091  1.00  0.00     0.000 C 
BRANCH   8   9
ATOM      9  C   UNL     1      11.969   4.037  38.891  1.00  0.00     0.006 C 
BRANCH   9  10
ATOM     10  C   UNL     1      12.414   5.446  39.300  1.00  0.00     0.053 C 
BRANCH  10  11
ATOM     11  C   UNL     1      11.248   6.384  39.298  1.00  0.00     0.041 C 
ATOM     12  O   UNL     1      11.232   7.378  40.071  1.00  0.00    -0.550 OA
ATOM     13  O   UNL     1      10.201   6.190  38.406  1.00  0.00    -0.550 OA
ENDBRANCH  10  11
ENDBRANCH   9  10
ENDBRANCH   8   9
ENDBRANCH   1   8
TORSDOF 8
ENDMDL
