MODEL 1
REMARK VINA RESULT:    -5.416      0.000      0.000
REMARK INTER + INTRA:          -5.829
REMARK INTER:                  -5.732
REMARK INTRA:                  -0.096
REMARK UNBOUND:                -0.096
REMARK SMILES C=C(C)[C@H]1CC=C(C)C(=O)C1
REMARK SMILES IDX 8 1 7 2 6 3 5 4 4 5 11 6 9 7 10 8 2 9 1 10 3 11
REMARK H PARENT
REMARK Flexibility Score: inf
ROOT
ATOM      1  C   UNL     1      -0.200  29.942  54.700  1.00  0.00     0.048 C 
ATOM      2  C   UNL     1       0.897  29.199  55.410  1.00  0.00    -0.012 C 
ATOM      3  C   UNL     1       2.011  28.853  54.744  1.00  0.00    -0.019 C 
ATOM      4  C   UNL     1       3.133  28.093  55.401  1.00  0.00     0.036 C 
ATOM      5  C   UNL     1       3.255  28.464  56.892  1.00  0.00     0.025 C 
ATOM      6  C   UNL     1       1.907  28.252  57.606  1.00  0.00     0.089 C 
ATOM      7  C   UNL     1       0.802  28.959  56.872  1.00  0.00     0.158 C 
ATOM      8  O   UNL     1      -0.227  29.316  57.508  1.00  0.00    -0.295 OA
ENDROOT
BRANCH   5   9
ATOM      9  C   UNL     1       4.380  27.695  57.572  1.00  0.00    -0.077 C 
ATOM     10  C   UNL     1       4.140  26.877  58.610  1.00  0.00     0.008 C 
ATOM     11  C   UNL     1       5.798  27.843  57.085  1.00  0.00     0.039 C 
ENDBRANCH   5   9
TORSDOF 1
ENDMDL
MODEL 2
REMARK VINA RESULT:    -5.280      1.942      4.709
REMARK INTER + INTRA:          -5.686
REMARK INTER:                  -5.588
REMARK INTRA:                  -0.097
REMARK UNBOUND:                -0.096
REMARK SMILES C=C(C)[C@H]1CC=C(C)C(=O)C1
REMARK SMILES IDX 8 1 7 2 6 3 5 4 4 5 11 6 9 7 10 8 2 9 1 10 3 11
REMARK H PARENT
REMARK Flexibility Score: inf
ROOT
ATOM      1  C   UNL     1       5.465  27.779  56.771  1.00  0.00     0.048 C 
ATOM      2  C   UNL     1       3.996  28.002  56.540  1.00  0.00    -0.012 C 
ATOM      3  C   UNL     1       3.166  28.133  57.588  1.00  0.00    -0.019 C 
ATOM      4  C   UNL     1       1.684  28.341  57.414  1.00  0.00     0.036 C 
ATOM      5  C   UNL     1       1.384  29.146  56.134  1.00  0.00     0.025 C 
ATOM      6  C   UNL     1       2.027  28.464  54.912  1.00  0.00     0.089 C 
ATOM      7  C   UNL     1       3.487  28.201  55.160  1.00  0.00     0.158 C 
ATOM      8  O   UNL     1       4.270  28.114  54.175  1.00  0.00    -0.295 OA
ENDROOT
BRANCH   5   9
ATOM      9  C   UNL     1      -0.112  29.355  55.939  1.00  0.00    -0.077 C 
ATOM     10  C   UNL     1      -0.677  29.272  54.724  1.00  0.00     0.008 C 
ATOM     11  C   UNL     1      -0.992  29.661  57.124  1.00  0.00     0.039 C 
ENDBRANCH   5   9
TORSDOF 1
ENDMDL
MODEL 3
REMARK VINA RESULT:    -4.996      1.512      2.589
REMARK INTER + INTRA:          -5.385
REMARK INTER:                  -5.290
REMARK INTRA:                  -0.095
REMARK UNBOUND:                -0.096
REMARK SMILES C=C(C)[C@H]1CC=C(C)C(=O)C1
REMARK SMILES IDX 8 1 7 2 6 3 5 4 4 5 11 6 9 7 10 8 2 9 1 10 3 11
REMARK H PARENT
REMARK Flexibility Score: inf
ROOT
ATOM      1  C   UNL     1      -1.558  29.491  57.220  1.00  0.00     0.048 C 
ATOM      2  C   UNL     1      -0.138  29.324  56.756  1.00  0.00    -0.012 C 
ATOM      3  C   UNL     1       0.824  29.015  57.642  1.00  0.00    -0.019 C 
ATOM      4  C   UNL     1       2.265  28.853  57.235  1.00  0.00     0.036 C 
ATOM      5  C   UNL     1       2.377  28.291  55.804  1.00  0.00     0.025 C 
ATOM      6  C   UNL     1       1.586  29.174  54.820  1.00  0.00     0.089 C 
ATOM      7  C   UNL     1       0.178  29.377  55.306  1.00  0.00     0.158 C 
ATOM      8  O   UNL     1      -0.730  29.631  54.468  1.00  0.00    -0.295 OA
ENDROOT
BRANCH   5   9
ATOM      9  C   UNL     1       3.829  28.132  55.375  1.00  0.00    -0.077 C 
ATOM     10  C   UNL     1       4.770  27.710  56.236  1.00  0.00     0.008 C 
ATOM     11  C   UNL     1       4.238  28.449  53.960  1.00  0.00     0.039 C 
ENDBRANCH   5   9
TORSDOF 1
ENDMDL
MODEL 4
REMARK VINA RESULT:    -4.833      1.614      4.350
REMARK INTER + INTRA:          -5.212
REMARK INTER:                  -5.118
REMARK INTRA:                  -0.093
REMARK UNBOUND:                -0.096
REMARK SMILES C=C(C)[C@H]1CC=C(C)C(=O)C1
REMARK SMILES IDX 8 1 7 2 6 3 5 4 4 5 11 6 9 7 10 8 2 9 1 10 3 11
REMARK H PARENT
REMARK Flexibility Score: inf
ROOT
ATOM      1  C   UNL     1       5.384  27.290  56.877  1.00  0.00     0.048 C 
ATOM      2  C   UNL     1       4.027  27.909  56.689  1.00  0.00    -0.012 C 
ATOM      3  C   UNL     1       3.700  28.459  55.507  1.00  0.00    -0.019 C 
ATOM      4  C   UNL     1       2.362  29.107  55.269  1.00  0.00     0.036 C 
ATOM      5  C   UNL     1       1.255  28.412  56.086  1.00  0.00     0.025 C 
ATOM      6  C   UNL     1       1.634  28.381  57.578  1.00  0.00     0.089 C 
ATOM      7  C   UNL     1       3.009  27.802  57.764  1.00  0.00     0.158 C 
ATOM      8  O   UNL     1       3.301  27.254  58.862  1.00  0.00    -0.295 OA
ENDROOT
BRANCH   5   9
ATOM      9  C   UNL     1      -0.102  29.064  55.862  1.00  0.00    -0.077 C 
ATOM     10  C   UNL     1      -0.616  29.205  54.629  1.00  0.00     0.008 C 
ATOM     11  C   UNL     1      -0.901  29.568  57.037  1.00  0.00     0.039 C 
ENDBRANCH   5   9
TORSDOF 1
ENDMDL
MODEL 5
REMARK VINA RESULT:    -4.781      1.580      2.163
REMARK INTER + INTRA:          -5.157
REMARK INTER:                  -5.064
REMARK INTRA:                  -0.094
REMARK UNBOUND:                -0.096
REMARK SMILES C=C(C)[C@H]1CC=C(C)C(=O)C1
REMARK SMILES IDX 8 1 7 2 6 3 5 4 4 5 11 6 9 7 10 8 2 9 1 10 3 11
REMARK H PARENT
REMARK Flexibility Score: inf
ROOT
ATOM      1  C   UNL     1       0.057  29.117  54.890  1.00  0.00     0.048 C 
ATOM      2  C   UNL     1       1.294  28.854  55.702  1.00  0.00    -0.012 C 
ATOM      3  C   UNL     1       1.184  28.464  56.983  1.00  0.00    -0.019 C 
ATOM      4  C   UNL     1       2.390  28.205  57.847  1.00  0.00     0.036 C 
ATOM      5  C   UNL     1       3.563  27.656  57.011  1.00  0.00     0.025 C 
ATOM      6  C   UNL     1       3.875  28.608  55.841  1.00  0.00     0.089 C 
ATOM      7  C   UNL     1       2.629  28.905  55.054  1.00  0.00     0.158 C 
ATOM      8  O   UNL     1       2.733  29.236  53.841  1.00  0.00    -0.295 OA
ENDROOT
BRANCH   5   9
ATOM      9  C   UNL     1       4.794  27.398  57.870  1.00  0.00    -0.077 C 
ATOM     10  C   UNL     1       4.725  26.650  58.984  1.00  0.00     0.008 C 
ATOM     11  C   UNL     1       6.125  27.986  57.479  1.00  0.00     0.039 C 
ENDBRANCH   5   9
TORSDOF 1
ENDMDL
MODEL 6
REMARK VINA RESULT:    -4.531      8.230     10.670
REMARK INTER + INTRA:          -4.892
REMARK INTER:                  -4.798
REMARK INTRA:                  -0.094
REMARK UNBOUND:                -0.096
REMARK SMILES C=C(C)[C@H]1CC=C(C)C(=O)C1
REMARK SMILES IDX 8 1 7 2 6 3 5 4 4 5 11 6 9 7 10 8 2 9 1 10 3 11
REMARK H PARENT
REMARK Flexibility Score: inf
ROOT
ATOM      1  C   UNL     1      -4.281  31.263  59.907  1.00  0.00     0.048 C 
ATOM      2  C   UNL     1      -5.552  30.931  59.178  1.00  0.00    -0.012 C 
ATOM      3  C   UNL     1      -6.574  31.804  59.182  1.00  0.00    -0.019 C 
ATOM      4  C   UNL     1      -7.877  31.515  58.483  1.00  0.00     0.036 C 
ATOM      5  C   UNL     1      -7.651  30.656  57.224  1.00  0.00     0.025 C 
ATOM      6  C   UNL     1      -6.883  29.370  57.585  1.00  0.00     0.089 C 
ATOM      7  C   UNL     1      -5.632  29.699  58.353  1.00  0.00     0.158 C 
ATOM      8  O   UNL     1      -4.661  28.895  58.317  1.00  0.00    -0.295 OA
ENDROOT
BRANCH   5   9
ATOM      9  C   UNL     1      -8.961  30.347  56.512  1.00  0.00    -0.077 C 
ATOM     10  C   UNL     1      -9.869  31.307  56.270  1.00  0.00     0.008 C 
ATOM     11  C   UNL     1      -9.264  28.941  56.062  1.00  0.00     0.039 C 
ENDBRANCH   5   9
TORSDOF 1
ENDMDL
MODEL 7
REMARK VINA RESULT:    -4.484      2.078      4.038
REMARK INTER + INTRA:          -4.843
REMARK INTER:                  -4.749
REMARK INTRA:                  -0.094
REMARK UNBOUND:                -0.096
REMARK SMILES C=C(C)[C@H]1CC=C(C)C(=O)C1
REMARK SMILES IDX 8 1 7 2 6 3 5 4 4 5 11 6 9 7 10 8 2 9 1 10 3 11
REMARK H PARENT
REMARK Flexibility Score: inf
ROOT
ATOM      1  C   UNL     1       3.115  27.381  58.426  1.00  0.00     0.048 C 
ATOM      2  C   UNL     1       3.366  28.003  57.080  1.00  0.00    -0.012 C 
ATOM      3  C   UNL     1       4.626  28.171  56.645  1.00  0.00    -0.019 C 
ATOM      4  C   UNL     1       4.935  28.804  55.314  1.00  0.00     0.036 C 
ATOM      5  C   UNL     1       3.839  28.484  54.280  1.00  0.00     0.025 C 
ATOM      6  C   UNL     1       2.458  28.901  54.820  1.00  0.00     0.089 C 
ATOM      7  C   UNL     1       2.224  28.315  56.185  1.00  0.00     0.158 C 
ATOM      8  O   UNL     1       1.040  28.124  56.576  1.00  0.00    -0.295 OA
ENDROOT
BRANCH   5   9
ATOM      9  C   UNL     1       4.133  29.126  52.931  1.00  0.00    -0.077 C 
ATOM     10  C   UNL     1       3.907  30.432  52.714  1.00  0.00     0.008 C 
ATOM     11  C   UNL     1       4.690  28.295  51.804  1.00  0.00     0.039 C 
ENDBRANCH   5   9
TORSDOF 1
ENDMDL
MODEL 8
REMARK VINA RESULT:    -4.454      8.291      9.963
REMARK INTER + INTRA:          -4.811
REMARK INTER:                  -4.715
REMARK INTRA:                  -0.096
REMARK UNBOUND:                -0.096
REMARK SMILES C=C(C)[C@H]1CC=C(C)C(=O)C1
REMARK SMILES IDX 8 1 7 2 6 3 5 4 4 5 11 6 9 7 10 8 2 9 1 10 3 11
REMARK H PARENT
REMARK Flexibility Score: inf
ROOT
ATOM      1  C   UNL     1      -4.681  31.322  59.787  1.00  0.00     0.048 C 
ATOM      2  C   UNL     1      -5.438  30.536  58.753  1.00  0.00    -0.012 C 
ATOM      3  C   UNL     1      -5.125  29.249  58.528  1.00  0.00    -0.019 C 
ATOM      4  C   UNL     1      -5.839  28.421  57.492  1.00  0.00     0.036 C 
ATOM      5  C   UNL     1      -7.312  28.852  57.357  1.00  0.00     0.025 C 
ATOM      6  C   UNL     1      -7.402  30.361  57.062  1.00  0.00     0.089 C 
ATOM      7  C   UNL     1      -6.609  31.145  58.072  1.00  0.00     0.158 C 
ATOM      8  O   UNL     1      -6.928  32.342  58.307  1.00  0.00    -0.295 OA
ENDROOT
BRANCH   5   9
ATOM      9  C   UNL     1      -8.044  28.029  56.304  1.00  0.00    -0.077 C 
ATOM     10  C   UNL     1      -9.354  28.206  56.065  1.00  0.00     0.008 C 
ATOM     11  C   UNL     1      -7.300  26.991  55.505  1.00  0.00     0.039 C 
ENDBRANCH   5   9
TORSDOF 1
ENDMDL
MODEL 9
REMARK VINA RESULT:    -4.254      8.191     10.943
REMARK INTER + INTRA:          -4.600
REMARK INTER:                  -4.507
REMARK INTRA:                  -0.093
REMARK UNBOUND:                -0.096
REMARK SMILES C=C(C)[C@H]1CC=C(C)C(=O)C1
REMARK SMILES IDX 8 1 7 2 6 3 5 4 4 5 11 6 9 7 10 8 2 9 1 10 3 11
REMARK H PARENT
REMARK Flexibility Score: inf
ROOT
ATOM      1  C   UNL     1      -4.783  28.519  58.245  1.00  0.00     0.048 C 
ATOM      2  C   UNL     1      -5.792  29.629  58.146  1.00  0.00    -0.012 C 
ATOM      3  C   UNL     1      -6.872  29.483  57.359  1.00  0.00    -0.019 C 
ATOM      4  C   UNL     1      -7.905  30.569  57.209  1.00  0.00     0.036 C 
ATOM      5  C   UNL     1      -8.049  31.381  58.511  1.00  0.00     0.025 C 
ATOM      6  C   UNL     1      -6.680  31.932  58.951  1.00  0.00     0.089 C 
ATOM      7  C   UNL     1      -5.659  30.829  59.009  1.00  0.00     0.158 C 
ATOM      8  O   UNL     1      -4.665  30.952  59.775  1.00  0.00    -0.295 OA
ENDROOT
BRANCH   5   9
ATOM      9  C   UNL     1      -9.083  32.490  58.371  1.00  0.00    -0.077 C 
ATOM     10  C   UNL     1      -8.911  33.501  57.503  1.00  0.00     0.008 C 
ATOM     11  C   UNL     1     -10.333  32.469  59.213  1.00  0.00     0.039 C 
ENDBRANCH   5   9
TORSDOF 1
ENDMDL
