MODEL 1
REMARK VINA RESULT:    65.648      0.000      0.000
REMARK INTER + INTRA:          83.447
REMARK INTER:                  82.918
REMARK INTRA:                   0.530
REMARK UNBOUND:                 0.530
REMARK SMILES CC(C)[C@H](C)C=C[C@@H](C)[C@@H]1CC[C@H]2C3=CC=C4C[C@@H](O)CC[C@]4(C)[C@@H]3CC[C@]21C
REMARK SMILES IDX 8 1 9 2 7 3 6 4 4 5 5 6 2 7 1 8 3 9 10 10 11 11 28 12 12 13
REMARK SMILES IDX 13 14 27 15 29 16 14 17 26 18 25 19 15 20 23 21 16 22 17 23
REMARK SMILES IDX 22 24 24 25 18 26 21 27 19 28 20 29
REMARK H PARENT 20 30
REMARK Flexibility Score: inf
ROOT
ATOM      1  C   UNL     1     -26.863  30.345  -4.292  1.00  0.00     0.012 C 
ATOM      2  C   UNL     1     -27.509  28.955  -4.300  1.00  0.00     0.012 C 
ENDROOT
BRANCH   1   3
ATOM      3  C   UNL     1     -27.481  31.212  -3.211  1.00  0.00    -0.028 C 
ATOM      4  C   UNL     1     -28.801  31.468  -3.177  1.00  0.00    -0.028 C 
BRANCH   4   5
ATOM      5  C   UNL     1     -29.411  32.286  -2.056  1.00  0.00     0.011 C 
ATOM      6  C   UNL     1     -30.147  33.512  -2.627  1.00  0.00     0.012 C 
BRANCH   5   7
ATOM      7  C   UNL     1     -30.305  31.397  -1.138  1.00  0.00    -0.011 C 
ATOM      8  C   UNL     1     -31.584  30.891  -1.830  1.00  0.00     0.008 C 
ATOM      9  C   UNL     1     -30.659  32.112   0.176  1.00  0.00     0.008 C 
ENDBRANCH   5   7
ENDBRANCH   4   5
ENDBRANCH   1   3
BRANCH   1  10
ATOM     10  C   UNL     1     -26.763  31.012  -5.711  1.00  0.00     0.002 C 
ATOM     11  C   UNL     1     -27.714  32.201  -5.855  1.00  0.00     0.005 C 
ATOM     12  C   UNL     1     -26.924  30.196  -7.039  1.00  0.00    -0.023 C 
ATOM     13  C   UNL     1     -27.747  32.543  -7.337  1.00  0.00     0.009 C 
ATOM     14  C   UNL     1     -27.332  31.277  -8.105  1.00  0.00     0.021 C 
ATOM     15  C   UNL     1     -25.610  29.446  -7.459  1.00  0.00     0.008 C 
ATOM     16  C   UNL     1     -28.063  29.154  -6.968  1.00  0.00     0.012 C 
ATOM     17  C   UNL     1     -26.195  31.567  -9.065  1.00  0.00    -0.063 C 
ATOM     18  C   UNL     1     -24.416  30.355  -7.857  1.00  0.00     0.009 C 
ATOM     19  C   UNL     1     -24.824  31.731  -8.452  1.00  0.00     0.025 C 
ATOM     20  C   UNL     1     -26.314  31.299 -10.374  1.00  0.00    -0.000 C 
ATOM     21  C   UNL     1     -23.806  32.371  -9.470  1.00  0.00    -0.005 C 
ATOM     22  C   UNL     1     -25.135  31.277 -11.258  1.00  0.00    -0.000 C 
ATOM     23  C   UNL     1     -23.928  31.687 -10.833  1.00  0.00    -0.061 C 
ATOM     24  C   UNL     1     -22.344  32.298  -8.924  1.00  0.00     0.014 C 
ATOM     25  C   UNL     1     -24.187  33.865  -9.662  1.00  0.00     0.017 C 
ATOM     26  C   UNL     1     -22.797  31.780 -11.833  1.00  0.00     0.063 C 
ATOM     27  C   UNL     1     -21.282  32.595  -9.990  1.00  0.00     0.033 C 
ATOM     28  C   UNL     1     -21.425  31.624 -11.170  1.00  0.00     0.118 C 
BRANCH  28  29
ATOM     29  O   UNL     1     -20.429  31.879 -12.124  1.00  0.00    -0.393 OA
ATOM     30  H   UNL     1     -19.828  31.087 -12.130  1.00  0.00     0.210 HD
ENDBRANCH  28  29
ENDBRANCH   1  10
TORSDOF 5
ENDMDL
