MODEL 1
REMARK VINA RESULT:    -6.298      0.000      0.000
REMARK INTER + INTRA:         -12.605
REMARK INTER:                 -11.452
REMARK INTRA:                  -1.152
REMARK UNBOUND:                -1.152
REMARK SMILES CCCCCCCCCCCCCCCC(=O)[O-]
REMARK SMILES IDX 9 1 10 2 11 3 12 4 13 5 14 6 15 7 16 8 17 9 18 10 8 11 7 12
REMARK SMILES IDX 6 13 5 14 4 15 3 16 2 17 1 18
REMARK H PARENT
REMARK Flexibility Score: inf
ROOT
ATOM      1  C   UNL     1       3.182   9.526  16.845  1.00  0.00     0.000 C 
ENDROOT
BRANCH   1   2
ATOM      2  C   UNL     1       2.854  10.386  18.083  1.00  0.00     0.000 C 
BRANCH   2   3
ATOM      3  C   UNL     1       3.557  11.754  18.134  1.00  0.00     0.000 C 
BRANCH   3   4
ATOM      4  C   UNL     1       5.091  11.637  18.162  1.00  0.00     0.000 C 
BRANCH   4   5
ATOM      5  C   UNL     1       5.728  11.885  16.785  1.00  0.00     0.000 C 
BRANCH   5   6
ATOM      6  C   UNL     1       4.959  12.928  15.956  1.00  0.00     0.006 C 
BRANCH   6   7
ATOM      7  C   UNL     1       4.461  12.354  14.622  1.00  0.00     0.053 C 
BRANCH   7   8
ATOM      8  C   UNL     1       2.983  12.525  14.457  1.00  0.00     0.041 C 
ATOM      9  O   UNL     1       2.320  11.687  13.791  1.00  0.00    -0.550 OA
ATOM     10  O   UNL     1       2.341  13.624  15.015  1.00  0.00    -0.550 OA
ENDBRANCH   7   8
ENDBRANCH   6   7
ENDBRANCH   5   6
ENDBRANCH   4   5
ENDBRANCH   3   4
ENDBRANCH   2   3
ENDBRANCH   1   2
BRANCH   1  11
ATOM     11  C   UNL     1       2.743   8.052  16.941  1.00  0.00     0.000 C 
BRANCH  11  12
ATOM     12  C   UNL     1       1.613   7.771  17.952  1.00  0.00    -0.000 C 
BRANCH  12  13
ATOM     13  C   UNL     1       0.689   6.595  17.586  1.00  0.00    -0.000 C 
BRANCH  13  14
ATOM     14  C   UNL     1       0.509   5.596  18.737  1.00  0.00    -0.000 C 
BRANCH  14  15
ATOM     15  C   UNL     1       1.246   4.281  18.443  1.00  0.00    -0.000 C 
BRANCH  15  16
ATOM     16  C   UNL     1       2.388   4.014  19.447  1.00  0.00    -0.000 C 
BRANCH  16  17
ATOM     17  C   UNL     1       3.200   5.271  19.803  1.00  0.00    -0.003 C 
ATOM     18  C   UNL     1       3.209   5.577  21.299  1.00  0.00     0.004 C 
ENDBRANCH  16  17
ENDBRANCH  15  16
ENDBRANCH  14  15
ENDBRANCH  13  14
ENDBRANCH  12  13
ENDBRANCH  11  12
ENDBRANCH   1  11
TORSDOF 14
ENDMDL
MODEL 2
REMARK VINA RESULT:    -6.197      1.573      1.922
REMARK INTER + INTRA:         -12.422
REMARK INTER:                 -11.124
REMARK INTRA:                  -1.298
REMARK UNBOUND:                -1.152
REMARK SMILES CCCCCCCCCCCCCCCC(=O)[O-]
REMARK SMILES IDX 9 1 10 2 11 3 12 4 13 5 14 6 15 7 16 8 17 9 18 10 8 11 7 12
REMARK SMILES IDX 6 13 5 14 4 15 3 16 2 17 1 18
REMARK H PARENT
REMARK Flexibility Score: inf
ROOT
ATOM      1  C   UNL     1       3.046   8.941  17.043  1.00  0.00     0.000 C 
ENDROOT
BRANCH   1   2
ATOM      2  C   UNL     1       2.736  10.010  18.111  1.00  0.00     0.000 C 
BRANCH   2   3
ATOM      3  C   UNL     1       3.716  11.197  18.153  1.00  0.00     0.000 C 
BRANCH   3   4
ATOM      4  C   UNL     1       4.496  11.373  16.839  1.00  0.00     0.000 C 
BRANCH   4   5
ATOM      5  C   UNL     1       3.964  12.537  15.987  1.00  0.00     0.000 C 
BRANCH   5   6
ATOM      6  C   UNL     1       3.983  12.226  14.480  1.00  0.00     0.006 C 
BRANCH   6   7
ATOM      7  C   UNL     1       3.038  11.073  14.116  1.00  0.00     0.053 C 
BRANCH   7   8
ATOM      8  C   UNL     1       3.787   9.865  13.642  1.00  0.00     0.041 C 
ATOM      9  O   UNL     1       5.044   9.889  13.570  1.00  0.00    -0.550 OA
ATOM     10  O   UNL     1       3.097   8.725  13.251  1.00  0.00    -0.550 OA
ENDBRANCH   7   8
ENDBRANCH   6   7
ENDBRANCH   5   6
ENDBRANCH   4   5
ENDBRANCH   3   4
ENDBRANCH   2   3
ENDBRANCH   1   2
BRANCH   1  11
ATOM     11  C   UNL     1       2.409   7.561  17.298  1.00  0.00     0.000 C 
BRANCH  11  12
ATOM     12  C   UNL     1       0.986   7.599  17.891  1.00  0.00    -0.000 C 
BRANCH  12  13
ATOM     13  C   UNL     1       0.293   6.229  18.007  1.00  0.00    -0.000 C 
BRANCH  13  14
ATOM     14  C   UNL     1       1.268   5.052  17.857  1.00  0.00    -0.000 C 
BRANCH  14  15
ATOM     15  C   UNL     1       1.331   4.223  19.148  1.00  0.00    -0.000 C 
BRANCH  15  16
ATOM     16  C   UNL     1       2.722   4.287  19.815  1.00  0.00    -0.000 C 
BRANCH  16  17
ATOM     17  C   UNL     1       3.029   5.645  20.468  1.00  0.00    -0.003 C 
ATOM     18  C   UNL     1       3.436   5.529  21.935  1.00  0.00     0.004 C 
ENDBRANCH  16  17
ENDBRANCH  15  16
ENDBRANCH  14  15
ENDBRANCH  13  14
ENDBRANCH  12  13
ENDBRANCH  11  12
ENDBRANCH   1  11
TORSDOF 14
ENDMDL
MODEL 3
REMARK VINA RESULT:    -5.978      3.196      7.727
REMARK INTER + INTRA:         -12.023
REMARK INTER:                 -10.667
REMARK INTRA:                  -1.355
REMARK UNBOUND:                -1.152
REMARK SMILES CCCCCCCCCCCCCCCC(=O)[O-]
REMARK SMILES IDX 9 1 10 2 11 3 12 4 13 5 14 6 15 7 16 8 17 9 18 10 8 11 7 12
REMARK SMILES IDX 6 13 5 14 4 15 3 16 2 17 1 18
REMARK H PARENT
REMARK Flexibility Score: inf
ROOT
ATOM      1  C   UNL     1       2.759   9.125  17.073  1.00  0.00     0.000 C 
ENDROOT
BRANCH   1   2
ATOM      2  C   UNL     1       2.391   7.654  17.353  1.00  0.00     0.000 C 
BRANCH   2   3
ATOM      3  C   UNL     1       1.017   7.438  18.013  1.00  0.00     0.000 C 
BRANCH   3   4
ATOM      4  C   UNL     1       0.262   6.227  17.436  1.00  0.00     0.000 C 
BRANCH   4   5
ATOM      5  C   UNL     1       0.177   5.056  18.429  1.00  0.00     0.000 C 
BRANCH   5   6
ATOM      6  C   UNL     1       1.444   4.184  18.426  1.00  0.00     0.006 C 
BRANCH   6   7
ATOM      7  C   UNL     1       2.042   4.028  19.831  1.00  0.00     0.053 C 
BRANCH   7   8
ATOM      8  C   UNL     1       3.072   5.076  20.119  1.00  0.00     0.041 C 
ATOM      9  O   UNL     1       3.884   5.427  19.223  1.00  0.00    -0.550 OA
ATOM     10  O   UNL     1       3.155   5.644  21.384  1.00  0.00    -0.550 OA
ENDBRANCH   7   8
ENDBRANCH   6   7
ENDBRANCH   5   6
ENDBRANCH   4   5
ENDBRANCH   3   4
ENDBRANCH   2   3
ENDBRANCH   1   2
BRANCH   1  11
ATOM     11  C   UNL     1       2.786  10.039  18.314  1.00  0.00     0.000 C 
BRANCH  11  12
ATOM     12  C   UNL     1       3.367  11.448  18.075  1.00  0.00    -0.000 C 
BRANCH  12  13
ATOM     13  C   UNL     1       4.885  11.490  17.819  1.00  0.00    -0.000 C 
BRANCH  13  14
ATOM     14  C   UNL     1       5.240  12.035  16.429  1.00  0.00    -0.000 C 
BRANCH  14  15
ATOM     15  C   UNL     1       4.022  12.698  15.770  1.00  0.00    -0.000 C 
BRANCH  15  16
ATOM     16  C   UNL     1       3.596  11.979  14.472  1.00  0.00    -0.000 C 
BRANCH  16  17
ATOM     17  C   UNL     1       4.326  10.646  14.240  1.00  0.00    -0.003 C 
ATOM     18  C   UNL     1       3.476   9.615  13.501  1.00  0.00     0.004 C 
ENDBRANCH  16  17
ENDBRANCH  15  16
ENDBRANCH  14  15
ENDBRANCH  13  14
ENDBRANCH  12  13
ENDBRANCH  11  12
ENDBRANCH   1  11
TORSDOF 14
ENDMDL
MODEL 4
REMARK VINA RESULT:    -5.857      3.281      7.532
REMARK INTER + INTRA:         -11.803
REMARK INTER:                 -10.304
REMARK INTRA:                  -1.500
REMARK UNBOUND:                -1.152
REMARK SMILES CCCCCCCCCCCCCCCC(=O)[O-]
REMARK SMILES IDX 9 1 10 2 11 3 12 4 13 5 14 6 15 7 16 8 17 9 18 10 8 11 7 12
REMARK SMILES IDX 6 13 5 14 4 15 3 16 2 17 1 18
REMARK H PARENT
REMARK Flexibility Score: inf
ROOT
ATOM      1  C   UNL     1       2.616   9.950  18.168  1.00  0.00     0.000 C 
ENDROOT
BRANCH   1   2
ATOM      2  C   UNL     1       2.941   8.887  17.099  1.00  0.00     0.000 C 
BRANCH   2   3
ATOM      3  C   UNL     1       2.270   7.518  17.312  1.00  0.00     0.000 C 
BRANCH   3   4
ATOM      4  C   UNL     1       0.847   7.633  17.886  1.00  0.00     0.000 C 
BRANCH   4   5
ATOM      5  C   UNL     1       0.296   6.284  18.376  1.00  0.00     0.000 C 
BRANCH   5   6
ATOM      6  C   UNL     1       1.212   5.103  18.012  1.00  0.00     0.006 C 
BRANCH   6   7
ATOM      7  C   UNL     1       1.749   4.383  19.257  1.00  0.00     0.053 C 
BRANCH   7   8
ATOM      8  C   UNL     1       2.945   5.078  19.832  1.00  0.00     0.041 C 
ATOM      9  O   UNL     1       3.983   5.229  19.136  1.00  0.00    -0.550 OA
ATOM     10  O   UNL     1       2.923   5.532  21.144  1.00  0.00    -0.550 OA
ENDBRANCH   7   8
ENDBRANCH   6   7
ENDBRANCH   5   6
ENDBRANCH   4   5
ENDBRANCH   3   4
ENDBRANCH   2   3
ENDBRANCH   1   2
BRANCH   1  11
ATOM     11  C   UNL     1       3.423  11.258  18.055  1.00  0.00     0.000 C 
BRANCH  11  12
ATOM     12  C   UNL     1       4.767  11.133  17.308  1.00  0.00    -0.000 C 
BRANCH  12  13
ATOM     13  C   UNL     1       5.094  12.299  16.359  1.00  0.00    -0.000 C 
BRANCH  13  14
ATOM     14  C   UNL     1       3.841  12.956  15.765  1.00  0.00    -0.000 C 
BRANCH  14  15
ATOM     15  C   UNL     1       3.664  12.569  14.289  1.00  0.00    -0.000 C 
BRANCH  15  16
ATOM     16  C   UNL     1       3.006  11.183  14.124  1.00  0.00    -0.000 C 
BRANCH  16  17
ATOM     17  C   UNL     1       4.006  10.064  13.787  1.00  0.00    -0.003 C 
ATOM     18  C   UNL     1       3.331   8.747  13.412  1.00  0.00     0.004 C 
ENDBRANCH  16  17
ENDBRANCH  15  16
ENDBRANCH  14  15
ENDBRANCH  13  14
ENDBRANCH  12  13
ENDBRANCH  11  12
ENDBRANCH   1  11
TORSDOF 14
ENDMDL
MODEL 5
REMARK VINA RESULT:    -5.717      2.056      2.911
REMARK INTER + INTRA:         -11.548
REMARK INTER:                 -10.280
REMARK INTRA:                  -1.268
REMARK UNBOUND:                -1.152
REMARK SMILES CCCCCCCCCCCCCCCC(=O)[O-]
REMARK SMILES IDX 9 1 10 2 11 3 12 4 13 5 14 6 15 7 16 8 17 9 18 10 8 11 7 12
REMARK SMILES IDX 6 13 5 14 4 15 3 16 2 17 1 18
REMARK H PARENT
REMARK Flexibility Score: inf
ROOT
ATOM      1  C   UNL     1       3.169   9.132  16.822  1.00  0.00     0.000 C 
ENDROOT
BRANCH   1   2
ATOM      2  C   UNL     1       3.162   9.014  15.284  1.00  0.00     0.000 C 
BRANCH   2   3
ATOM      3  C   UNL     1       4.058  10.026  14.546  1.00  0.00     0.000 C 
BRANCH   3   4
ATOM      4  C   UNL     1       3.363  11.379  14.312  1.00  0.00     0.000 C 
BRANCH   4   5
ATOM      5  C   UNL     1       4.164  12.561  14.881  1.00  0.00     0.000 C 
BRANCH   5   6
ATOM      6  C   UNL     1       4.173  12.585  16.420  1.00  0.00     0.006 C 
BRANCH   6   7
ATOM      7  C   UNL     1       5.480  12.028  17.000  1.00  0.00     0.053 C 
BRANCH   7   8
ATOM      8  C   UNL     1       5.368  11.756  18.468  1.00  0.00     0.041 C 
ATOM      9  O   UNL     1       6.394  11.464  19.137  1.00  0.00    -0.550 OA
ATOM     10  O   UNL     1       4.128  11.795  19.092  1.00  0.00    -0.550 OA
ENDBRANCH   7   8
ENDBRANCH   6   7
ENDBRANCH   5   6
ENDBRANCH   4   5
ENDBRANCH   3   4
ENDBRANCH   2   3
ENDBRANCH   1   2
BRANCH   1  11
ATOM     11  C   UNL     1       2.498   7.963  17.568  1.00  0.00     0.000 C 
BRANCH  11  12
ATOM     12  C   UNL     1       0.983   8.126  17.809  1.00  0.00    -0.000 C 
BRANCH  12  13
ATOM     13  C   UNL     1       0.247   6.836  18.216  1.00  0.00    -0.000 C 
BRANCH  13  14
ATOM     14  C   UNL     1       0.956   5.565  17.730  1.00  0.00    -0.000 C 
BRANCH  14  15
ATOM     15  C   UNL     1       0.952   4.482  18.819  1.00  0.00    -0.000 C 
BRANCH  15  16
ATOM     16  C   UNL     1       2.374   3.984  19.153  1.00  0.00    -0.000 C 
BRANCH  16  17
ATOM     17  C   UNL     1       3.342   5.111  19.553  1.00  0.00    -0.003 C 
ATOM     18  C   UNL     1       3.047   5.696  20.932  1.00  0.00     0.004 C 
ENDBRANCH  16  17
ENDBRANCH  15  16
ENDBRANCH  14  15
ENDBRANCH  13  14
ENDBRANCH  12  13
ENDBRANCH  11  12
ENDBRANCH   1  11
TORSDOF 14
ENDMDL
MODEL 6
REMARK VINA RESULT:    -5.663      1.883      2.777
REMARK INTER + INTRA:         -11.450
REMARK INTER:                 -10.471
REMARK INTRA:                  -0.980
REMARK UNBOUND:                -1.152
REMARK SMILES CCCCCCCCCCCCCCCC(=O)[O-]
REMARK SMILES IDX 9 1 10 2 11 3 12 4 13 5 14 6 15 7 16 8 17 9 18 10 8 11 7 12
REMARK SMILES IDX 6 13 5 14 4 15 3 16 2 17 1 18
REMARK H PARENT
REMARK Flexibility Score: inf
ROOT
ATOM      1  C   UNL     1       3.161   9.207  17.021  1.00  0.00     0.000 C 
ENDROOT
BRANCH   1   2
ATOM      2  C   UNL     1       3.450   9.042  15.515  1.00  0.00     0.000 C 
BRANCH   2   3
ATOM      3  C   UNL     1       4.102  10.261  14.837  1.00  0.00     0.000 C 
BRANCH   3   4
ATOM      4  C   UNL     1       3.084  11.148  14.098  1.00  0.00     0.000 C 
BRANCH   4   5
ATOM      5  C   UNL     1       3.170  12.623  14.520  1.00  0.00     0.000 C 
BRANCH   5   6
ATOM      6  C   UNL     1       4.182  12.857  15.656  1.00  0.00     0.006 C 
BRANCH   6   7
ATOM      7  C   UNL     1       3.524  12.782  17.041  1.00  0.00     0.053 C 
BRANCH   7   8
ATOM      8  C   UNL     1       4.388  12.063  18.031  1.00  0.00     0.041 C 
ATOM      9  O   UNL     1       3.960  11.829  19.191  1.00  0.00    -0.550 OA
ATOM     10  O   UNL     1       5.677  11.678  17.682  1.00  0.00    -0.550 OA
ENDBRANCH   7   8
ENDBRANCH   6   7
ENDBRANCH   5   6
ENDBRANCH   4   5
ENDBRANCH   3   4
ENDBRANCH   2   3
ENDBRANCH   1   2
BRANCH   1  11
ATOM     11  C   UNL     1       2.322   8.079  17.652  1.00  0.00     0.000 C 
BRANCH  11  12
ATOM     12  C   UNL     1       2.435   6.710  16.949  1.00  0.00    -0.000 C 
BRANCH  12  13
ATOM     13  C   UNL     1       1.247   5.759  17.182  1.00  0.00    -0.000 C 
BRANCH  13  14
ATOM     14  C   UNL     1       0.857   5.641  18.661  1.00  0.00    -0.000 C 
BRANCH  14  15
ATOM     15  C   UNL     1       1.226   4.259  19.219  1.00  0.00    -0.000 C 
BRANCH  15  16
ATOM     16  C   UNL     1       2.579   4.271  19.963  1.00  0.00    -0.000 C 
BRANCH  16  17
ATOM     17  C   UNL     1       2.947   5.646  20.545  1.00  0.00    -0.003 C 
ATOM     18  C   UNL     1       3.460   5.573  21.981  1.00  0.00     0.004 C 
ENDBRANCH  16  17
ENDBRANCH  15  16
ENDBRANCH  14  15
ENDBRANCH  13  14
ENDBRANCH  12  13
ENDBRANCH  11  12
ENDBRANCH   1  11
TORSDOF 14
ENDMDL
MODEL 7
REMARK VINA RESULT:    -5.639      3.154      7.616
REMARK INTER + INTRA:         -11.406
REMARK INTER:                 -10.071
REMARK INTRA:                  -1.335
REMARK UNBOUND:                -1.152
REMARK SMILES CCCCCCCCCCCCCCCC(=O)[O-]
REMARK SMILES IDX 9 1 10 2 11 3 12 4 13 5 14 6 15 7 16 8 17 9 18 10 8 11 7 12
REMARK SMILES IDX 6 13 5 14 4 15 3 16 2 17 1 18
REMARK H PARENT
REMARK Flexibility Score: inf
ROOT
ATOM      1  C   UNL     1       2.696   9.090  16.794  1.00  0.00     0.000 C 
ENDROOT
BRANCH   1   2
ATOM      2  C   UNL     1       2.452   7.741  17.501  1.00  0.00     0.000 C 
BRANCH   2   3
ATOM      3  C   UNL     1       1.013   7.516  18.001  1.00  0.00     0.000 C 
BRANCH   3   4
ATOM      4  C   UNL     1       0.372   6.242  17.422  1.00  0.00     0.000 C 
BRANCH   4   5
ATOM      5  C   UNL     1       0.180   5.144  18.481  1.00  0.00     0.000 C 
BRANCH   5   6
ATOM      6  C   UNL     1       1.360   4.159  18.534  1.00  0.00     0.006 C 
BRANCH   6   7
ATOM      7  C   UNL     1       1.962   4.053  19.942  1.00  0.00     0.053 C 
BRANCH   7   8
ATOM      8  C   UNL     1       3.057   5.052  20.157  1.00  0.00     0.041 C 
ATOM      9  O   UNL     1       3.183   5.621  21.273  1.00  0.00    -0.550 OA
ATOM     10  O   UNL     1       3.921   5.375  19.118  1.00  0.00    -0.550 OA
ENDBRANCH   7   8
ENDBRANCH   6   7
ENDBRANCH   5   6
ENDBRANCH   4   5
ENDBRANCH   3   4
ENDBRANCH   2   3
ENDBRANCH   1   2
BRANCH   1  11
ATOM     11  C   UNL     1       3.454   8.997  15.455  1.00  0.00     0.000 C 
BRANCH  11  12
ATOM     12  C   UNL     1       4.106  10.313  14.982  1.00  0.00    -0.000 C 
BRANCH  12  13
ATOM     13  C   UNL     1       3.154  11.292  14.272  1.00  0.00    -0.000 C 
BRANCH  13  14
ATOM     14  C   UNL     1       3.411  12.756  14.652  1.00  0.00    -0.000 C 
BRANCH  14  15
ATOM     15  C   UNL     1       4.145  12.854  15.998  1.00  0.00    -0.000 C 
BRANCH  15  16
ATOM     16  C   UNL     1       3.169  12.992  17.186  1.00  0.00    -0.000 C 
BRANCH  16  17
ATOM     17  C   UNL     1       3.529  12.098  18.384  1.00  0.00    -0.003 C 
ATOM     18  C   UNL     1       4.965  11.582  18.339  1.00  0.00     0.004 C 
ENDBRANCH  16  17
ENDBRANCH  15  16
ENDBRANCH  14  15
ENDBRANCH  13  14
ENDBRANCH  12  13
ENDBRANCH  11  12
ENDBRANCH   1  11
TORSDOF 14
ENDMDL
MODEL 8
REMARK VINA RESULT:    -5.449      2.256      3.336
REMARK INTER + INTRA:         -11.061
REMARK INTER:                 -10.338
REMARK INTRA:                  -0.723
REMARK UNBOUND:                -1.152
REMARK SMILES CCCCCCCCCCCCCCCC(=O)[O-]
REMARK SMILES IDX 9 1 10 2 11 3 12 4 13 5 14 6 15 7 16 8 17 9 18 10 8 11 7 12
REMARK SMILES IDX 6 13 5 14 4 15 3 16 2 17 1 18
REMARK H PARENT
REMARK Flexibility Score: inf
ROOT
ATOM      1  C   UNL     1       4.228   9.958  15.369  1.00  0.00     0.000 C 
ENDROOT
BRANCH   1   2
ATOM      2  C   UNL     1       3.756  11.189  14.568  1.00  0.00     0.000 C 
BRANCH   2   3
ATOM      3  C   UNL     1       4.264  12.544  15.092  1.00  0.00     0.000 C 
BRANCH   3   4
ATOM      4  C   UNL     1       3.147  13.397  15.720  1.00  0.00     0.000 C 
BRANCH   4   5
ATOM      5  C   UNL     1       3.158  13.348  17.256  1.00  0.00     0.000 C 
BRANCH   5   6
ATOM      6  C   UNL     1       3.507  11.952  17.801  1.00  0.00     0.006 C 
BRANCH   6   7
ATOM      7  C   UNL     1       4.297  12.026  19.115  1.00  0.00     0.053 C 
BRANCH   7   8
ATOM      8  C   UNL     1       5.754  11.747  18.907  1.00  0.00     0.041 C 
ATOM      9  O   UNL     1       6.484  11.434  19.885  1.00  0.00    -0.550 OA
ATOM     10  O   UNL     1       6.312  11.860  17.640  1.00  0.00    -0.550 OA
ENDBRANCH   7   8
ENDBRANCH   6   7
ENDBRANCH   5   6
ENDBRANCH   4   5
ENDBRANCH   3   4
ENDBRANCH   2   3
ENDBRANCH   1   2
BRANCH   1  11
ATOM     11  C   UNL     1       3.119   8.951  15.732  1.00  0.00     0.000 C 
BRANCH  11  12
ATOM     12  C   UNL     1       3.017   8.605  17.232  1.00  0.00    -0.000 C 
BRANCH  12  13
ATOM     13  C   UNL     1       1.804   7.739  17.618  1.00  0.00    -0.000 C 
BRANCH  13  14
ATOM     14  C   UNL     1       2.048   6.240  17.402  1.00  0.00    -0.000 C 
BRANCH  14  15
ATOM     15  C   UNL     1       0.974   5.401  18.110  1.00  0.00    -0.000 C 
BRANCH  15  16
ATOM     16  C   UNL     1       1.583   4.393  19.107  1.00  0.00    -0.000 C 
BRANCH  16  17
ATOM     17  C   UNL     1       3.010   4.755  19.553  1.00  0.00    -0.003 C 
ATOM     18  C   UNL     1       3.049   5.543  20.860  1.00  0.00     0.004 C 
ENDBRANCH  16  17
ENDBRANCH  15  16
ENDBRANCH  14  15
ENDBRANCH  13  14
ENDBRANCH  12  13
ENDBRANCH  11  12
ENDBRANCH   1  11
TORSDOF 14
ENDMDL
